MODEL 1
REMARK VINA RESULT:      -8.6      0.000      0.000
ROOT
ATOM    131  H34 UNL A   1      40.127  28.688  26.922  1.00  0.00    +0.000 H 
ATOM    132  H35 UNL A   1      38.147  30.297  27.463  1.00  0.00    +0.000 H 
ATOM    133  H36 UNL A   1      40.380  29.776  30.911  1.00  0.00    +0.000 H 
ATOM    134  H37 UNL A   1      41.168  30.747  37.165  1.00  0.00    +0.000 H 
ATOM    135  H38 UNL A   1      43.124  29.226  36.611  1.00  0.00    +0.000 H 
ATOM    136  H39 UNL A   1      40.921  29.772  33.131  1.00  0.00    +0.000 H 
ATOM    137  H40 UNL A   1      37.232  32.975  34.312  1.00  0.00    +0.000 H 
ATOM    138  H41 UNL A   1      36.396  32.685  31.911  1.00  0.00    +0.000 H 
ATOM    139  H42 UNL A   1      44.310  26.882  29.754  1.00  0.00    +0.000 H 
ATOM    140  H43 UNL A   1      44.877  26.732  32.247  1.00  0.00    +0.000 H 
ATOM     37  C30 UNL A   1      43.226  28.373  33.899  1.00  0.00    +0.000 C 
ATOM     38  C31 UNL A   1      43.094  28.123  32.423  1.00  0.00    +0.000 C 
ATOM     39  N3  UNL A   1      42.207  28.592  31.581  1.00  0.00    +0.000 N 
ATOM     40  C32 UNL A   1      42.567  28.095  30.335  1.00  0.00    +0.000 C 
ATOM     41  C33 UNL A   1      41.933  28.255  29.149  1.00  0.00    +0.000 C 
ATOM     53  C40 UNL A   1      40.706  28.990  28.978  1.00  0.00    +0.000 C 
ATOM     54  C41 UNL A   1      39.940  29.132  27.836  1.00  0.00    +0.000 C 
ATOM     55  C42 UNL A   1      38.868  29.980  28.130  1.00  0.00    +0.000 C 
ATOM     56  C43 UNL A   1      38.936  30.322  29.471  1.00  0.00    +0.000 C 
ATOM     57  N4  UNL A   1      40.070  29.710  29.979  1.00  0.00    +0.000 N 
ATOM     58  C44 UNL A   1      38.034  31.147  30.233  1.00  0.00    +0.000 C 
ATOM     70  C51 UNL A   1      38.161  31.421  31.554  1.00  0.00    +0.000 C 
ATOM     71  N5  UNL A   1      39.138  30.996  32.443  1.00  0.00    +0.000 N 
ATOM     72  C52 UNL A   1      38.839  31.545  33.596  1.00  0.00    +0.000 C 
ATOM     73  C53 UNL A   1      39.537  31.409  34.922  1.00  0.00    +0.000 C 
ATOM     85  C60 UNL A   1      40.607  30.597  35.018  1.00  0.00    +0.000 C 
ATOM     86  C61 UNL A   1      41.378  30.355  36.232  1.00  0.00    +0.000 C 
ATOM     87  C62 UNL A   1      42.405  29.542  35.941  1.00  0.00    +0.000 C 
ATOM     88  C63 UNL A   1      42.345  29.174  34.528  1.00  0.00    +0.000 C 
ATOM     89  N6  UNL A   1      41.236  29.836  34.061  1.00  0.00    +0.000 N 
ATOM     90  C64 UNL A   1      37.647  32.405  33.558  1.00  0.00    +0.000 C 
ATOM     91  C65 UNL A   1      37.249  32.258  32.304  1.00  0.00    +0.000 C 
ATOM     92  C66 UNL A   1      43.776  27.323  30.519  1.00  0.00    +0.000 C 
ATOM     93  C67 UNL A   1      44.108  27.256  31.801  1.00  0.00    +0.000 C 
ENDROOT
BRANCH   37   36
ATOM     33  C26 UNL A   1      46.486  26.637  36.089  1.00  0.00    +0.000 C 
ATOM     34  C27 UNL A   1      46.667  27.847  35.415  1.00  0.00    +0.000 C 
ATOM     35  C28 UNL A   1      45.601  28.428  34.723  1.00  0.00    +0.000 C 
ATOM    129  H32 UNL A   1      47.588  28.313  35.429  1.00  0.00    +0.000 H 
ATOM    130  H33 UNL A   1      45.730  29.337  34.253  1.00  0.00    +0.000 H 
ATOM     36  C29 UNL A   1      44.355  27.783  34.665  1.00  0.00    +0.000 C 
ATOM    141  H44 UNL A   1      43.278  26.076  35.296  1.00  0.00    +0.000 H 
ATOM    142  H45 UNL A   1      45.068  25.179  36.660  1.00  0.00    +0.000 H 
ATOM     94  C68 UNL A   1      44.182  26.571  35.348  1.00  0.00    +0.000 C 
ATOM     95  C69 UNL A   1      45.226  26.029  36.098  1.00  0.00    +0.000 C 
BRANCH   33   31
ATOM     31  C25 UNL A   1      47.631  26.059  36.833  1.00  0.00    +0.000 C 
ATOM     32  O5  UNL A   1      48.319  26.780  37.550  1.00  0.00    +0.000 O 
BRANCH   31   30
ATOM     30  N2  UNL A   1      47.919  24.721  36.737  1.00  0.00    +0.000 N 
ATOM    128  H31 UNL A   1      47.913  24.342  35.828  1.00  0.00    +0.000 H 
BRANCH   30   29
ATOM     29  C24 UNL A   1      48.230  23.793  37.811  1.00  0.00    +0.000 C 
ATOM    126  H29 UNL A   1      48.759  22.956  37.405  1.00  0.00    +0.000 H 
ATOM    127  H30 UNL A   1      48.828  24.306  38.535  1.00  0.00    +0.000 H 
BRANCH   29   28
ATOM    124  H27 UNL A   1      47.253  22.570  39.236  1.00  0.00    +0.000 H 
ATOM     28  C23 UNL A   1      46.967  23.293  38.501  1.00  0.00    +0.000 C 
ATOM    125  H28 UNL A   1      46.491  24.154  38.922  1.00  0.00    +0.000 H 
BRANCH   28   27
ATOM    122  H25 UNL A   1      45.129  22.287  38.162  1.00  0.00    +0.000 H 
ATOM     27  C22 UNL A   1      45.944  22.644  37.567  1.00  0.00    +0.000 C 
ATOM    123  H26 UNL A   1      45.657  23.401  36.866  1.00  0.00    +0.000 H 
BRANCH   27   26
ATOM    121  H24 UNL A   1      46.013  20.591  37.132  1.00  0.00    +0.000 H 
ATOM     26  C21 UNL A   1      46.478  21.470  36.737  1.00  0.00    +0.000 C 
ATOM    120  H23 UNL A   1      47.545  21.464  36.822  1.00  0.00    +0.000 H 
BRANCH   26   25
ATOM     25  C20 UNL A   1      46.120  21.509  35.248  1.00  0.00    +0.000 C 
ATOM    118  H21 UNL A   1      46.994  21.791  34.699  1.00  0.00    +0.000 H 
ATOM    119  H22 UNL A   1      45.768  20.534  34.988  1.00  0.00    +0.000 H 
BRANCH   25   24
ATOM    116  H19 UNL A   1      44.062  21.994  35.012  1.00  0.00    +0.000 H 
ATOM    117  H20 UNL A   1      45.069  23.323  35.575  1.00  0.00    +0.000 H 
ATOM     24  C19 UNL A   1      45.003  22.489  34.907  1.00  0.00    +0.000 C 
BRANCH   24   23
ATOM    115  H18 UNL A   1      46.031  22.915  33.155  1.00  0.00    +0.000 H 
ATOM     23  N1  UNL A   1      45.131  22.977  33.550  1.00  0.00    +0.000 N 
BRANCH   23   21
ATOM     21  C18 UNL A   1      44.168  23.509  32.753  1.00  0.00    +0.000 C 
ATOM     22  O4  UNL A   1      43.364  24.322  33.191  1.00  0.00    +0.000 O 
BRANCH   21   20
ATOM    114  H17 UNL A   1      44.198  22.067  31.116  1.00  0.00    +0.000 H 
ATOM     20  C17 UNL A   1      44.074  23.065  31.348  1.00  0.00    +0.000 C 
BRANCH   20   19
ATOM    113  H16 UNL A   1      43.325  24.821  30.603  1.00  0.00    +0.000 H 
ATOM     19  C16 UNL A   1      43.830  23.952  30.371  1.00  0.00    +0.000 C 
BRANCH   19   18
ATOM      9  C8  UNL A   1      43.408  22.981  28.119  1.00  0.00    +0.000 C 
ATOM     10  C9  UNL A   1      43.817  22.684  26.808  1.00  0.00    +0.000 C 
ATOM     11  C10 UNL A   1      45.056  23.099  26.333  1.00  0.00    +0.000 C 
ATOM    105  H8  UNL A   1      43.189  22.150  26.188  1.00  0.00    +0.000 H 
ATOM    109  H12 UNL A   1      46.784  24.188  26.804  1.00  0.00    +0.000 H 
ATOM     14  C12 UNL A   1      45.877  23.851  27.165  1.00  0.00    +0.000 C 
ATOM     15  C13 UNL A   1      45.509  24.166  28.486  1.00  0.00    +0.000 C 
ATOM     18  C15 UNL A   1      44.260  23.729  28.982  1.00  0.00    +0.000 C 
BRANCH    9    8
ATOM    104  H7  UNL A   1      41.788  22.543  29.495  1.00  0.00    +0.000 H 
ATOM      8  C7  UNL A   1      42.101  22.415  28.520  1.00  0.00    +0.000 C 
BRANCH    8    7
ATOM    103  H6  UNL A   1      41.572  20.771  27.451  1.00  0.00    +0.000 H 
ATOM      7  C6  UNL A   1      41.304  21.743  27.673  1.00  0.00    +0.000 C 
BRANCH    7    6
ATOM     97  C71 UNL A   1      38.255  21.881  25.442  1.00  0.00    +0.000 C 
ATOM      3  C2  UNL A   1      37.735  23.148  25.697  1.00  0.00    +0.000 C 
ATOM      4  C3  UNL A   1      38.380  23.965  26.626  1.00  0.00    +0.000 C 
ATOM    101  H4  UNL A   1      38.003  24.904  26.828  1.00  0.00    +0.000 H 
ATOM      5  C4  UNL A   1      39.536  23.528  27.291  1.00  0.00    +0.000 C 
ATOM    102  H5  UNL A   1      39.990  24.145  27.982  1.00  0.00    +0.000 H 
ATOM      6  C5  UNL A   1      40.080  22.265  27.028  1.00  0.00    +0.000 C 
ATOM    143  H46 UNL A   1      39.788  20.506  25.898  1.00  0.00    +0.000 H 
ATOM    144  H47 UNL A   1      37.784  21.260  24.765  1.00  0.00    +0.000 H 
ATOM     96  C70 UNL A   1      39.415  21.447  26.101  1.00  0.00    +0.000 C 
BRANCH    3    2
ATOM      2  O1  UNL A   1      36.646  23.709  25.089  1.00  0.00    +0.000 O 
BRANCH    2    1
ATOM      1  C1  UNL A   1      35.373  23.187  25.450  1.00  0.00    +0.000 C 
ATOM     98  H1  UNL A   1      35.424  22.120  25.492  1.00  0.00    +0.000 H 
ATOM     99  H2  UNL A   1      34.647  23.482  24.722  1.00  0.00    +0.000 H 
ATOM    100  H3  UNL A   1      35.091  23.568  26.410  1.00  0.00    +0.000 H 
ENDBRANCH    2    1
ENDBRANCH    3    2
ENDBRANCH    7    6
ENDBRANCH    8    7
ENDBRANCH    9    8
BRANCH   11   12
ATOM     12  O2  UNL A   1      45.363  22.709  25.058  1.00  0.00    +0.000 O 
BRANCH   12   13
ATOM    106  H9  UNL A   1      44.232  21.854  23.581  1.00  0.00    +0.000 H 
ATOM    107  H10 UNL A   1      44.508  23.571  23.411  1.00  0.00    +0.000 H 
ATOM    108  H11 UNL A   1      43.384  22.981  24.611  1.00  0.00    +0.000 H 
ATOM     13  C11 UNL A   1      44.306  22.784  24.106  1.00  0.00    +0.000 C 
ENDBRANCH   12   13
ENDBRANCH   11   12
BRANCH   15   16
ATOM     16  O3  UNL A   1      46.531  24.842  29.097  1.00  0.00    +0.000 O 
BRANCH   16   17
ATOM     17  C14 UNL A   1      46.900  26.160  28.741  1.00  0.00    +0.000 C 
ATOM    110  H13 UNL A   1      46.814  26.280  27.681  1.00  0.00    +0.000 H 
ATOM    111  H14 UNL A   1      47.911  26.341  29.040  1.00  0.00    +0.000 H 
ATOM    112  H15 UNL A   1      46.253  26.857  29.232  1.00  0.00    +0.000 H 
ENDBRANCH   16   17
ENDBRANCH   15   16
ENDBRANCH   19   18
ENDBRANCH   20   19
ENDBRANCH   21   20
ENDBRANCH   23   21
ENDBRANCH   24   23
ENDBRANCH   25   24
ENDBRANCH   26   25
ENDBRANCH   27   26
ENDBRANCH   28   27
ENDBRANCH   29   28
ENDBRANCH   30   29
ENDBRANCH   31   30
ENDBRANCH   33   31
ENDBRANCH   37   36
BRANCH   41   42
ATOM     42  C34 UNL A   1      42.546  27.625  27.933  1.00  0.00    +0.000 C 
ATOM     43  C35 UNL A   1      41.975  26.501  27.318  1.00  0.00    +0.000 C 
ATOM     44  F1  UNL A   1      40.898  25.910  27.857  1.00  0.00    +0.000 F 
ATOM     45  C36 UNL A   1      42.526  25.963  26.156  1.00  0.00    +0.000 C 
ATOM     46  F2  UNL A   1      41.984  24.867  25.606  1.00  0.00    +0.000 F 
ATOM     47  C37 UNL A   1      43.634  26.556  25.571  1.00  0.00    +0.000 C 
ATOM     48  F3  UNL A   1      44.151  26.048  24.444  1.00  0.00    +0.000 F 
ATOM     49  C38 UNL A   1      44.207  27.675  26.156  1.00  0.00    +0.000 C 
ATOM     50  F4  UNL A   1      45.270  28.258  25.583  1.00  0.00    +0.000 F 
ATOM     51  C39 UNL A   1      43.677  28.198  27.331  1.00  0.00    +0.000 C 
ATOM     52  F5  UNL A   1      44.258  29.278  27.875  1.00  0.00    +0.000 F 
ENDBRANCH   41   42
BRANCH   58   59
ATOM     65  F8  UNL A   1      33.565  33.401  27.613  1.00  0.00    +0.000 F 
ATOM     66  C49 UNL A   1      35.688  33.667  28.614  1.00  0.00    +0.000 C 
ATOM     67  F9  UNL A   1      35.650  34.985  28.375  1.00  0.00    +0.000 F 
ATOM     68  C50 UNL A   1      36.797  33.105  29.238  1.00  0.00    +0.000 C 
ATOM     69  F10 UNL A   1      37.819  33.906  29.578  1.00  0.00    +0.000 F 
ATOM     59  C45 UNL A   1      36.849  31.732  29.521  1.00  0.00    +0.000 C 
ATOM     60  C46 UNL A   1      35.750  30.942  29.151  1.00  0.00    +0.000 C 
ATOM     61  F6  UNL A   1      35.758  29.622  29.386  1.00  0.00    +0.000 F 
ATOM     62  C47 UNL A   1      34.656  31.502  28.497  1.00  0.00    +0.000 C 
ATOM     63  F7  UNL A   1      33.640  30.720  28.107  1.00  0.00    +0.000 F 
ATOM     64  C48 UNL A   1      34.622  32.864  28.236  1.00  0.00    +0.000 C 
ENDBRANCH   58   59
BRANCH   73   74
ATOM     74  C54 UNL A   1      39.053  32.151  36.116  1.00  0.00    +0.000 C 
ATOM     75  C55 UNL A   1      38.148  31.565  37.013  1.00  0.00    +0.000 C 
ATOM     76  F11 UNL A   1      37.706  30.316  36.800  1.00  0.00    +0.000 F 
ATOM     77  C56 UNL A   1      37.652  32.276  38.104  1.00  0.00    +0.000 C 
ATOM     78  F12 UNL A   1      36.745  31.711  38.913  1.00  0.00    +0.000 F 
ATOM     79  C57 UNL A   1      38.081  33.572  38.342  1.00  0.00    +0.000 C 
ATOM     80  F13 UNL A   1      37.605  34.256  39.391  1.00  0.00    +0.000 F 
ATOM     81  C58 UNL A   1      38.997  34.164  37.485  1.00  0.00    +0.000 C 
ATOM     82  F14 UNL A   1      39.426  35.411  37.720  1.00  0.00    +0.000 F 
ATOM     83  C59 UNL A   1      39.468  33.464  36.374  1.00  0.00    +0.000 C 
ATOM     84  F15 UNL A   1      40.338  34.068  35.553  1.00  0.00    +0.000 F 
ENDBRANCH   73   74
TORSDOF 26
ENDMDL
MODEL 2
REMARK VINA RESULT:      -8.4     40.449     45.571
ROOT
ATOM    131  H34 UNL A   1      18.589  53.177  -0.953  1.00  0.00    +0.000 H 
ATOM    132  H35 UNL A   1      18.102  50.683  -1.536  1.00  0.00    +0.000 H 
ATOM    133  H36 UNL A   1      15.712  51.760   1.670  1.00  0.00    +0.000 H 
ATOM    134  H37 UNL A   1      11.547  50.152   6.223  1.00  0.00    +0.000 H 
ATOM    135  H38 UNL A   1      11.988  52.598   6.744  1.00  0.00    +0.000 H 
ATOM    136  H39 UNL A   1      14.362  51.547   3.500  1.00  0.00    +0.000 H 
ATOM    137  H40 UNL A   1      13.220  46.770   2.435  1.00  0.00    +0.000 H 
ATOM    138  H41 UNL A   1      15.014  46.888   0.614  1.00  0.00    +0.000 H 
ATOM    139  H42 UNL A   1      16.502  56.629   2.585  1.00  0.00    +0.000 H 
ATOM    140  H43 UNL A   1      15.111  56.407   4.723  1.00  0.00    +0.000 H 
ATOM     37  C30 UNL A   1      13.895  53.843   5.040  1.00  0.00    +0.000 C 
ATOM     38  C31 UNL A   1      14.867  54.278   3.979  1.00  0.00    +0.000 C 
ATOM     39  N3  UNL A   1      15.367  53.589   2.983  1.00  0.00    +0.000 N 
ATOM     40  C32 UNL A   1      16.169  54.474   2.275  1.00  0.00    +0.000 C 
ATOM     41  C33 UNL A   1      16.940  54.228   1.190  1.00  0.00    +0.000 C 
ATOM     53  C40 UNL A   1      17.079  52.936   0.569  1.00  0.00    +0.000 C 
ATOM     54  C41 UNL A   1      17.906  52.566  -0.476  1.00  0.00    +0.000 C 
ATOM     55  C42 UNL A   1      17.658  51.224  -0.777  1.00  0.00    +0.000 C 
ATOM     56  C43 UNL A   1      16.717  50.742   0.117  1.00  0.00    +0.000 C 
ATOM     57  N4  UNL A   1      16.367  51.803   0.936  1.00  0.00    +0.000 N 
ATOM     58  C44 UNL A   1      16.174  49.411   0.217  1.00  0.00    +0.000 C 
ATOM     70  C51 UNL A   1      15.263  49.011   1.137  1.00  0.00    +0.000 C 
ATOM     71  N5  UNL A   1      14.666  49.748   2.151  1.00  0.00    +0.000 N 
ATOM     72  C52 UNL A   1      13.842  48.926   2.756  1.00  0.00    +0.000 C 
ATOM     73  C53 UNL A   1      12.953  49.176   3.943  1.00  0.00    +0.000 C 
ATOM     85  C60 UNL A   1      12.983  50.383   4.540  1.00  0.00    +0.000 C 
ATOM     86  C61 UNL A   1      12.191  50.770   5.703  1.00  0.00    +0.000 C 
ATOM     87  C62 UNL A   1      12.433  52.060   5.984  1.00  0.00    +0.000 C 
ATOM     88  C63 UNL A   1      13.426  52.581   5.046  1.00  0.00    +0.000 C 
ATOM     89  N6  UNL A   1      13.706  51.511   4.233  1.00  0.00    +0.000 N 
ATOM     90  C64 UNL A   1      13.806  47.577   2.172  1.00  0.00    +0.000 C 
ATOM     91  C65 UNL A   1      14.723  47.671   1.221  1.00  0.00    +0.000 C 
ATOM     92  C66 UNL A   1      16.060  55.761   2.927  1.00  0.00    +0.000 C 
ATOM     93  C67 UNL A   1      15.318  55.678   4.022  1.00  0.00    +0.000 C 
ENDROOT
BRANCH   37   36
ATOM     33  C26 UNL A   1      12.515  56.660   7.972  1.00  0.00    +0.000 C 
ATOM     34  C27 UNL A   1      11.840  56.535   6.755  1.00  0.00    +0.000 C 
ATOM     35  C28 UNL A   1      12.271  55.601   5.810  1.00  0.00    +0.000 C 
ATOM    129  H32 UNL A   1      11.022  57.133   6.555  1.00  0.00    +0.000 H 
ATOM    130  H33 UNL A   1      11.751  55.490   4.925  1.00  0.00    +0.000 H 
ATOM     36  C29 UNL A   1      13.406  54.813   6.055  1.00  0.00    +0.000 C 
ATOM    141  H44 UNL A   1      14.921  54.382   7.465  1.00  0.00    +0.000 H 
ATOM    142  H45 UNL A   1      14.050  55.856   9.181  1.00  0.00    +0.000 H 
ATOM     94  C68 UNL A   1      14.074  54.942   7.281  1.00  0.00    +0.000 C 
ATOM     95  C69 UNL A   1      13.600  55.822   8.253  1.00  0.00    +0.000 C 
BRANCH   33   31
ATOM     31  C25 UNL A   1      12.018  57.645   8.963  1.00  0.00    +0.000 C 
ATOM     32  O5  UNL A   1      12.370  58.819   8.887  1.00  0.00    +0.000 O 
BRANCH   31   30
ATOM     30  N2  UNL A   1      11.155  57.256   9.957  1.00  0.00    +0.000 N 
ATOM    128  H31 UNL A   1      10.934  57.941  10.629  1.00  0.00    +0.000 H 
BRANCH   30   29
ATOM     29  C24 UNL A   1      10.529  55.957  10.142  1.00  0.00    +0.000 C 
ATOM    126  H29 UNL A   1       9.537  56.101  10.516  1.00  0.00    +0.000 H 
ATOM    127  H30 UNL A   1      10.511  55.456   9.197  1.00  0.00    +0.000 H 
BRANCH   29   28
ATOM    124  H27 UNL A   1      12.237  54.822  10.667  1.00  0.00    +0.000 H 
ATOM     28  C23 UNL A   1      11.310  55.096  11.126  1.00  0.00    +0.000 C 
ATOM    125  H28 UNL A   1      11.438  55.686  12.010  1.00  0.00    +0.000 H 
BRANCH   28   27
ATOM    122  H25 UNL A   1      11.247  53.277  12.217  1.00  0.00    +0.000 H 
ATOM     27  C22 UNL A   1      10.595  53.815  11.560  1.00  0.00    +0.000 C 
ATOM    123  H26 UNL A   1       9.683  54.124  12.026  1.00  0.00    +0.000 H 
BRANCH   27   26
ATOM    121  H24 UNL A   1       9.676  53.485   9.701  1.00  0.00    +0.000 H 
ATOM     26  C21 UNL A   1      10.195  52.878  10.413  1.00  0.00    +0.000 C 
ATOM    120  H23 UNL A   1       9.595  52.092  10.823  1.00  0.00    +0.000 H 
BRANCH   26   25
ATOM     25  C20 UNL A   1      11.364  52.238   9.657  1.00  0.00    +0.000 C 
ATOM    118  H21 UNL A   1      11.195  52.362   8.608  1.00  0.00    +0.000 H 
ATOM    119  H22 UNL A   1      12.254  52.728   9.991  1.00  0.00    +0.000 H 
BRANCH   25   24
ATOM    116  H19 UNL A   1      10.692  50.221   9.572  1.00  0.00    +0.000 H 
ATOM    117  H20 UNL A   1      12.438  50.420   9.456  1.00  0.00    +0.000 H 
ATOM     24  C19 UNL A   1      11.544  50.752   9.942  1.00  0.00    +0.000 C 
BRANCH   24   23
ATOM    115  H18 UNL A   1      10.990  50.919  11.935  1.00  0.00    +0.000 H 
ATOM     23  N1  UNL A   1      11.674  50.502  11.362  1.00  0.00    +0.000 N 
BRANCH   23   21
ATOM     21  C18 UNL A   1      12.619  49.768  12.005  1.00  0.00    +0.000 C 
ATOM     22  O4  UNL A   1      13.811  49.940  11.783  1.00  0.00    +0.000 O 
BRANCH   21   20
ATOM    114  H17 UNL A   1      12.094  48.949  13.957  1.00  0.00    +0.000 H 
ATOM     20  C17 UNL A   1      12.191  48.722  12.955  1.00  0.00    +0.000 C 
BRANCH   20   19
ATOM    113  H16 UNL A   1      12.470  46.692  12.916  1.00  0.00    +0.000 H 
ATOM     19  C16 UNL A   1      11.930  47.479  12.524  1.00  0.00    +0.000 C 
BRANCH   19   18
ATOM      9  C8  UNL A   1      11.290  46.538  10.310  1.00  0.00    +0.000 C 
ATOM     10  C9  UNL A   1      10.351  46.320   9.289  1.00  0.00    +0.000 C 
ATOM     11  C10 UNL A   1       9.035  46.750   9.422  1.00  0.00    +0.000 C 
ATOM    105  H8  UNL A   1      10.641  45.832   8.427  1.00  0.00    +0.000 H 
ATOM    109  H12 UNL A   1       7.664  47.662  10.718  1.00  0.00    +0.000 H 
ATOM     14  C12 UNL A   1       8.647  47.370  10.604  1.00  0.00    +0.000 C 
ATOM     15  C13 UNL A   1       9.557  47.614  11.649  1.00  0.00    +0.000 C 
ATOM     18  C15 UNL A   1      10.900  47.198  11.512  1.00  0.00    +0.000 C 
BRANCH    9    8
ATOM    104  H7  UNL A   1      13.111  45.400  10.628  1.00  0.00    +0.000 H 
ATOM      8  C7  UNL A   1      12.670  46.099  10.009  1.00  0.00    +0.000 C 
BRANCH    8    7
ATOM    103  H6  UNL A   1      13.279  46.064   8.071  1.00  0.00    +0.000 H 
ATOM      7  C6  UNL A   1      13.376  46.569   8.966  1.00  0.00    +0.000 C 
BRANCH    7    6
ATOM     97  C71 UNL A   1      16.366  48.731   9.791  1.00  0.00    +0.000 C 
ATOM      3  C2  UNL A   1      16.090  49.919   9.120  1.00  0.00    +0.000 C 
ATOM      4  C3  UNL A   1      14.917  50.011   8.370  1.00  0.00    +0.000 C 
ATOM    101  H4  UNL A   1      14.703  50.885   7.864  1.00  0.00    +0.000 H 
ATOM      5  C4  UNL A   1      14.023  48.933   8.294  1.00  0.00    +0.000 C 
ATOM    102  H5  UNL A   1      13.167  49.020   7.725  1.00  0.00    +0.000 H 
ATOM      6  C5  UNL A   1      14.279  47.740   8.982  1.00  0.00    +0.000 C 
ATOM    143  H46 UNL A   1      15.687  46.782  10.227  1.00  0.00    +0.000 H 
ATOM    144  H47 UNL A   1      17.235  48.642  10.342  1.00  0.00    +0.000 H 
ATOM     96  C70 UNL A   1      15.468  47.655   9.722  1.00  0.00    +0.000 C 
BRANCH    3    2
ATOM      2  O1  UNL A   1      16.853  51.054   9.146  1.00  0.00    +0.000 O 
BRANCH    2    1
ATOM      1  C1  UNL A   1      18.099  51.003   8.463  1.00  0.00    +0.000 C 
ATOM     98  H1  UNL A   1      17.948  50.628   7.473  1.00  0.00    +0.000 H 
ATOM     99  H2  UNL A   1      18.769  50.357   8.991  1.00  0.00    +0.000 H 
ATOM    100  H3  UNL A   1      18.519  51.987   8.412  1.00  0.00    +0.000 H 
ENDBRANCH    2    1
ENDBRANCH    3    2
ENDBRANCH    7    6
ENDBRANCH    8    7
ENDBRANCH    9    8
BRANCH   11   12
ATOM     12  O2  UNL A   1       8.226  46.523   8.343  1.00  0.00    +0.000 O 
BRANCH   12   13
ATOM    106  H9  UNL A   1       6.290  46.276   7.722  1.00  0.00    +0.000 H 
ATOM    107  H10 UNL A   1       6.481  46.963   9.318  1.00  0.00    +0.000 H 
ATOM    108  H11 UNL A   1       6.782  45.262   9.058  1.00  0.00    +0.000 H 
ATOM     13  C11 UNL A   1       6.860  46.238   8.628  1.00  0.00    +0.000 C 
ENDBRANCH   12   13
ENDBRANCH   11   12
BRANCH   15   16
ATOM     16  O3  UNL A   1       8.929  48.304  12.651  1.00  0.00    +0.000 O 
BRANCH   16   17
ATOM     17  C14 UNL A   1       8.397  49.602  12.472  1.00  0.00    +0.000 C 
ATOM    110  H13 UNL A   1       8.785  50.025  11.569  1.00  0.00    +0.000 H 
ATOM    111  H14 UNL A   1       8.672  50.218  13.302  1.00  0.00    +0.000 H 
ATOM    112  H15 UNL A   1       7.330  49.544  12.408  1.00  0.00    +0.000 H 
ENDBRANCH   16   17
ENDBRANCH   15   16
ENDBRANCH   19   18
ENDBRANCH   20   19
ENDBRANCH   21   20
ENDBRANCH   23   21
ENDBRANCH   24   23
ENDBRANCH   25   24
ENDBRANCH   26   25
ENDBRANCH   27   26
ENDBRANCH   28   27
ENDBRANCH   29   28
ENDBRANCH   30   29
ENDBRANCH   31   30
ENDBRANCH   33   31
ENDBRANCH   37   36
BRANCH   41   42
ATOM     42  C34 UNL A   1      17.704  55.375   0.594  1.00  0.00    +0.000 C 
ATOM     43  C35 UNL A   1      17.176  56.151  -0.448  1.00  0.00    +0.000 C 
ATOM     44  F1  UNL A   1      15.993  55.833  -0.994  1.00  0.00    +0.000 F 
ATOM     45  C36 UNL A   1      17.875  57.246  -0.950  1.00  0.00    +0.000 C 
ATOM     46  F2  UNL A   1      17.367  57.953  -1.970  1.00  0.00    +0.000 F 
ATOM     47  C37 UNL A   1      19.097  57.605  -0.401  1.00  0.00    +0.000 C 
ATOM     48  F3  UNL A   1      19.759  58.670  -0.874  1.00  0.00    +0.000 F 
ATOM     49  C38 UNL A   1      19.632  56.858   0.638  1.00  0.00    +0.000 C 
ATOM     50  F4  UNL A   1      20.806  57.212   1.179  1.00  0.00    +0.000 F 
ATOM     51  C39 UNL A   1      18.950  55.747   1.123  1.00  0.00    +0.000 C 
ATOM     52  F5  UNL A   1      19.497  55.042   2.125  1.00  0.00    +0.000 F 
ENDBRANCH   41   42
BRANCH   58   59
ATOM     65  F8  UNL A   1      18.100  45.564  -3.445  1.00  0.00    +0.000 F 
ATOM     66  C49 UNL A   1      18.402  46.832  -1.475  1.00  0.00    +0.000 C 
ATOM     67  F9  UNL A   1      19.605  46.275  -1.284  1.00  0.00    +0.000 F 
ATOM     68  C50 UNL A   1      17.914  47.763  -0.562  1.00  0.00    +0.000 C 
ATOM     69  F10 UNL A   1      18.666  48.073   0.505  1.00  0.00    +0.000 F 
ATOM     59  C45 UNL A   1      16.668  48.378  -0.754  1.00  0.00    +0.000 C 
ATOM     60  C46 UNL A   1      15.926  48.023  -1.890  1.00  0.00    +0.000 C 
ATOM     61  F6  UNL A   1      14.723  48.572  -2.110  1.00  0.00    +0.000 F 
ATOM     62  C47 UNL A   1      16.402  47.068  -2.784  1.00  0.00    +0.000 C 
ATOM     63  F7  UNL A   1      15.654  46.706  -3.835  1.00  0.00    +0.000 F 
ATOM     64  C48 UNL A   1      17.641  46.479  -2.580  1.00  0.00    +0.000 C 
ENDBRANCH   58   59
BRANCH   73   74
ATOM     74  C54 UNL A   1      12.057  48.108   4.462  1.00  0.00    +0.000 C 
ATOM     75  C55 UNL A   1      10.686  48.112   4.172  1.00  0.00    +0.000 C 
ATOM     76  F11 UNL A   1      10.163  49.088   3.414  1.00  0.00    +0.000 F 
ATOM     77  C56 UNL A   1       9.835  47.142   4.700  1.00  0.00    +0.000 C 
ATOM     78  F12 UNL A   1       8.519  47.201   4.453  1.00  0.00    +0.000 F 
ATOM     79  C57 UNL A   1      10.345  46.129   5.497  1.00  0.00    +0.000 C 
ATOM     80  F13 UNL A   1       9.528  45.197   6.005  1.00  0.00    +0.000 F 
ATOM     81  C58 UNL A   1      11.703  46.089   5.775  1.00  0.00    +0.000 C 
ATOM     82  F14 UNL A   1      12.203  45.102   6.532  1.00  0.00    +0.000 F 
ATOM     83  C59 UNL A   1      12.549  47.077   5.274  1.00  0.00    +0.000 C 
ATOM     84  F15 UNL A   1      13.854  47.023   5.576  1.00  0.00    +0.000 F 
ENDBRANCH   73   74
TORSDOF 26
ENDMDL
MODEL 3
REMARK VINA RESULT:      -8.4     27.768     35.366
ROOT
ATOM    131  H34 UNL A   1      11.678  19.581  10.370  1.00  0.00    +0.000 H 
ATOM    132  H35 UNL A   1      11.291  21.640   8.817  1.00  0.00    +0.000 H 
ATOM    133  H36 UNL A   1      14.742  19.710   7.585  1.00  0.00    +0.000 H 
ATOM    134  H37 UNL A   1      19.905  19.503   3.848  1.00  0.00    +0.000 H 
ATOM    135  H38 UNL A   1      20.238  17.469   5.330  1.00  0.00    +0.000 H 
ATOM    136  H39 UNL A   1      16.751  19.367   6.553  1.00  0.00    +0.000 H 
ATOM    137  H40 UNL A   1      16.091  23.224   3.398  1.00  0.00    +0.000 H 
ATOM    138  H41 UNL A   1      14.034  23.837   4.791  1.00  0.00    +0.000 H 
ATOM    139  H42 UNL A   1      15.298  15.622  10.439  1.00  0.00    +0.000 H 
ATOM    140  H43 UNL A   1      17.617  15.275   9.412  1.00  0.00    +0.000 H 
ATOM     37  C30 UNL A   1      18.226  17.106   7.308  1.00  0.00    +0.000 C 
ATOM     38  C31 UNL A   1      17.020  17.100   8.205  1.00  0.00    +0.000 C 
ATOM     39  N3  UNL A   1      15.999  17.920   8.223  1.00  0.00    +0.000 N 
ATOM     40  C32 UNL A   1      15.143  17.439   9.205  1.00  0.00    +0.000 C 
ATOM     41  C33 UNL A   1      13.975  17.969   9.637  1.00  0.00    +0.000 C 
ATOM     53  C40 UNL A   1      13.405  19.194   9.137  1.00  0.00    +0.000 C 
ATOM     54  C41 UNL A   1      12.274  19.860   9.574  1.00  0.00    +0.000 C 
ATOM     55  C42 UNL A   1      12.077  20.974   8.753  1.00  0.00    +0.000 C 
ATOM     56  C43 UNL A   1      13.116  21.033   7.839  1.00  0.00    +0.000 C 
ATOM     57  N4  UNL A   1      13.923  19.934   8.084  1.00  0.00    +0.000 N 
ATOM     58  C44 UNL A   1      13.356  22.018   6.817  1.00  0.00    +0.000 C 
ATOM     70  C51 UNL A   1      14.413  22.016   5.968  1.00  0.00    +0.000 C 
ATOM     71  N5  UNL A   1      15.462  21.112   5.884  1.00  0.00    +0.000 N 
ATOM     72  C52 UNL A   1      16.215  21.525   4.894  1.00  0.00    +0.000 C 
ATOM     73  C53 UNL A   1      17.502  20.944   4.373  1.00  0.00    +0.000 C 
ATOM     85  C60 UNL A   1      18.029  19.867   4.985  1.00  0.00    +0.000 C 
ATOM     86  C61 UNL A   1      19.270  19.201   4.604  1.00  0.00    +0.000 C 
ATOM     87  C62 UNL A   1      19.451  18.133   5.396  1.00  0.00    +0.000 C 
ATOM     88  C63 UNL A   1      18.360  18.058   6.366  1.00  0.00    +0.000 C 
ATOM     89  N6  UNL A   1      17.569  19.137   6.056  1.00  0.00    +0.000 N 
ATOM     90  C64 UNL A   1      15.710  22.729   4.219  1.00  0.00    +0.000 C 
ATOM     91  C65 UNL A   1      14.636  23.012   4.941  1.00  0.00    +0.000 C 
ATOM     92  C66 UNL A   1      15.740  16.233   9.735  1.00  0.00    +0.000 C 
ATOM     93  C67 UNL A   1      16.931  16.014   9.194  1.00  0.00    +0.000 C 
ENDROOT
BRANCH   37   36
ATOM     33  C26 UNL A   1      21.178  14.009   7.661  1.00  0.00    +0.000 C 
ATOM     34  C27 UNL A   1      20.100  13.845   6.788  1.00  0.00    +0.000 C 
ATOM     35  C28 UNL A   1      19.152  14.862   6.651  1.00  0.00    +0.000 C 
ATOM    129  H32 UNL A   1      20.004  12.974   6.243  1.00  0.00    +0.000 H 
ATOM    130  H33 UNL A   1      18.374  14.751   5.982  1.00  0.00    +0.000 H 
ATOM     36  C29 UNL A   1      19.250  16.034   7.417  1.00  0.00    +0.000 C 
ATOM    141  H44 UNL A   1      20.411  17.039   8.871  1.00  0.00    +0.000 H 
ATOM    142  H45 UNL A   1      22.160  15.362   8.952  1.00  0.00    +0.000 H 
ATOM     94  C68 UNL A   1      20.339  16.191   8.288  1.00  0.00    +0.000 C 
ATOM     95  C69 UNL A   1      21.323  15.206   8.369  1.00  0.00    +0.000 C 
BRANCH   33   31
ATOM     31  C25 UNL A   1      22.180  12.920   7.765  1.00  0.00    +0.000 C 
ATOM     32  O5  UNL A   1      21.807  11.752   7.841  1.00  0.00    +0.000 O 
BRANCH   31   30
ATOM     30  N2  UNL A   1      23.522  13.207   7.763  1.00  0.00    +0.000 N 
ATOM    128  H31 UNL A   1      23.984  13.100   6.900  1.00  0.00    +0.000 H 
BRANCH   30   29
ATOM     29  C24 UNL A   1      24.346  13.648   8.876  1.00  0.00    +0.000 C 
ATOM    126  H29 UNL A   1      23.767  13.604   9.775  1.00  0.00    +0.000 H 
ATOM    127  H30 UNL A   1      25.197  13.003   8.939  1.00  0.00    +0.000 H 
BRANCH   29   28
ATOM    124  H27 UNL A   1      24.003  15.735   8.779  1.00  0.00    +0.000 H 
ATOM     28  C23 UNL A   1      24.839  15.074   8.675  1.00  0.00    +0.000 C 
ATOM    125  H28 UNL A   1      25.598  15.240   9.411  1.00  0.00    +0.000 H 
BRANCH   28   27
ATOM    122  H25 UNL A   1      25.749  14.396   6.882  1.00  0.00    +0.000 H 
ATOM     27  C22 UNL A   1      25.490  15.339   7.316  1.00  0.00    +0.000 C 
ATOM    123  H26 UNL A   1      24.771  15.887   6.742  1.00  0.00    +0.000 H 
BRANCH   27   26
ATOM    121  H24 UNL A   1      27.282  15.915   8.245  1.00  0.00    +0.000 H 
ATOM     26  C21 UNL A   1      26.754  16.206   7.362  1.00  0.00    +0.000 C 
ATOM    120  H23 UNL A   1      26.451  17.233   7.365  1.00  0.00    +0.000 H 
BRANCH   26   25
ATOM     25  C20 UNL A   1      27.726  16.002   6.196  1.00  0.00    +0.000 C 
ATOM    118  H21 UNL A   1      28.679  15.724   6.597  1.00  0.00    +0.000 H 
ATOM    119  H22 UNL A   1      27.306  15.243   5.571  1.00  0.00    +0.000 H 
BRANCH   25   24
ATOM    116  H19 UNL A   1      28.607  17.011   4.542  1.00  0.00    +0.000 H 
ATOM    117  H20 UNL A   1      26.964  17.517   4.922  1.00  0.00    +0.000 H 
ATOM     24  C19 UNL A   1      27.915  17.238   5.325  1.00  0.00    +0.000 C 
BRANCH   24   23
ATOM    115  H18 UNL A   1      29.362  18.268   6.400  1.00  0.00    +0.000 H 
ATOM     23  N1  UNL A   1      28.428  18.350   6.098  1.00  0.00    +0.000 N 
BRANCH   23   21
ATOM     21  C18 UNL A   1      27.785  19.490   6.461  1.00  0.00    +0.000 C 
ATOM     22  O4  UNL A   1      27.495  20.343   5.631  1.00  0.00    +0.000 O 
BRANCH   21   20
ATOM    114  H17 UNL A   1      28.190  19.538   8.604  1.00  0.00    +0.000 H 
ATOM     20  C17 UNL A   1      27.470  19.714   7.886  1.00  0.00    +0.000 C 
BRANCH   20   19
ATOM    113  H16 UNL A   1      25.920  21.055   7.902  1.00  0.00    +0.000 H 
ATOM     19  C16 UNL A   1      26.253  20.143   8.252  1.00  0.00    +0.000 C 
BRANCH   19   18
ATOM      9  C8  UNL A   1      24.193  18.786   8.583  1.00  0.00    +0.000 C 
ATOM     10  C9  UNL A   1      23.293  18.093   9.410  1.00  0.00    +0.000 C 
ATOM     11  C10 UNL A   1      23.528  17.964  10.774  1.00  0.00    +0.000 C 
ATOM    105  H8  UNL A   1      22.444  17.674   8.999  1.00  0.00    +0.000 H 
ATOM    109  H12 UNL A   1      24.886  18.377  12.316  1.00  0.00    +0.000 H 
ATOM     14  C12 UNL A   1      24.693  18.499  11.309  1.00  0.00    +0.000 C 
ATOM     15  C13 UNL A   1      25.619  19.205  10.518  1.00  0.00    +0.000 C 
ATOM     18  C15 UNL A   1      25.376  19.358   9.135  1.00  0.00    +0.000 C 
BRANCH    9    8
ATOM    104  H7  UNL A   1      24.169  19.696   6.613  1.00  0.00    +0.000 H 
ATOM      8  C7  UNL A   1      23.785  18.914   7.167  1.00  0.00    +0.000 C 
BRANCH    8    7
ATOM    103  H6  UNL A   1      22.014  17.931   7.013  1.00  0.00    +0.000 H 
ATOM      7  C6  UNL A   1      22.937  18.060   6.570  1.00  0.00    +0.000 C 
BRANCH    7    6
ATOM     97  C71 UNL A   1      24.600  16.977   3.352  1.00  0.00    +0.000 C 
ATOM      3  C2  UNL A   1      23.814  15.906   2.936  1.00  0.00    +0.000 C 
ATOM      4  C3  UNL A   1      22.732  15.518   3.728  1.00  0.00    +0.000 C 
ATOM    101  H4  UNL A   1      22.144  14.723   3.432  1.00  0.00    +0.000 H 
ATOM      5  C4  UNL A   1      22.432  16.194   4.919  1.00  0.00    +0.000 C 
ATOM    102  H5  UNL A   1      21.634  15.884   5.495  1.00  0.00    +0.000 H 
ATOM      6  C5  UNL A   1      23.203  17.286   5.338  1.00  0.00    +0.000 C 
ATOM    143  H46 UNL A   1      24.888  18.451   4.833  1.00  0.00    +0.000 H 
ATOM    144  H47 UNL A   1      25.411  17.270   2.783  1.00  0.00    +0.000 H 
ATOM     96  C70 UNL A   1      24.296  17.658   4.540  1.00  0.00    +0.000 C 
BRANCH    3    2
ATOM      2  O1  UNL A   1      23.971  15.193   1.779  1.00  0.00    +0.000 O 
BRANCH    2    1
ATOM      1  C1  UNL A   1      24.055  13.779   1.906  1.00  0.00    +0.000 C 
ATOM     98  H1  UNL A   1      25.027  13.451   1.604  1.00  0.00    +0.000 H 
ATOM     99  H2  UNL A   1      23.315  13.320   1.284  1.00  0.00    +0.000 H 
ATOM    100  H3  UNL A   1      23.886  13.501   2.926  1.00  0.00    +0.000 H 
ENDBRANCH    2    1
ENDBRANCH    3    2
ENDBRANCH    7    6
ENDBRANCH    8    7
ENDBRANCH    9    8
BRANCH   11   12
ATOM     12  O2  UNL A   1      22.557  17.310  11.483  1.00  0.00    +0.000 O 
BRANCH   12   13
ATOM    106  H9  UNL A   1      24.049  16.678  12.734  1.00  0.00    +0.000 H 
ATOM    107  H10 UNL A   1      22.839  15.478  12.350  1.00  0.00    +0.000 H 
ATOM    108  H11 UNL A   1      22.461  16.776  13.456  1.00  0.00    +0.000 H 
ATOM     13  C11 UNL A   1      23.004  16.510  12.574  1.00  0.00    +0.000 C 
ENDBRANCH   12   13
ENDBRANCH   11   12
BRANCH   15   16
ATOM     16  O3  UNL A   1      26.626  19.686  11.312  1.00  0.00    +0.000 O 
BRANCH   16   17
ATOM     17  C14 UNL A   1      26.717  19.399  12.694  1.00  0.00    +0.000 C 
ATOM    110  H13 UNL A   1      27.659  19.744  13.068  1.00  0.00    +0.000 H 
ATOM    111  H14 UNL A   1      26.637  18.343  12.845  1.00  0.00    +0.000 H 
ATOM    112  H15 UNL A   1      25.924  19.895  13.214  1.00  0.00    +0.000 H 
ENDBRANCH   16   17
ENDBRANCH   15   16
ENDBRANCH   19   18
ENDBRANCH   20   19
ENDBRANCH   21   20
ENDBRANCH   23   21
ENDBRANCH   24   23
ENDBRANCH   25   24
ENDBRANCH   26   25
ENDBRANCH   27   26
ENDBRANCH   28   27
ENDBRANCH   29   28
ENDBRANCH   30   29
ENDBRANCH   31   30
ENDBRANCH   33   31
ENDBRANCH   37   36
BRANCH   41   42
ATOM     42  C34 UNL A   1      13.223  17.236  10.710  1.00  0.00    +0.000 C 
ATOM     43  C35 UNL A   1      12.294  16.231  10.404  1.00  0.00    +0.000 C 
ATOM     44  F1  UNL A   1      11.996  15.953   9.125  1.00  0.00    +0.000 F 
ATOM     45  C36 UNL A   1      11.647  15.521  11.413  1.00  0.00    +0.000 C 
ATOM     46  F2  UNL A   1      10.737  14.589  11.097  1.00  0.00    +0.000 F 
ATOM     47  C37 UNL A   1      11.939  15.780  12.744  1.00  0.00    +0.000 C 
ATOM     48  F3  UNL A   1      11.329  15.085  13.713  1.00  0.00    +0.000 F 
ATOM     49  C38 UNL A   1      12.863  16.762  13.069  1.00  0.00    +0.000 C 
ATOM     50  F4  UNL A   1      13.157  17.004  14.354  1.00  0.00    +0.000 F 
ATOM     51  C39 UNL A   1      13.490  17.492  12.063  1.00  0.00    +0.000 C 
ATOM     52  F5  UNL A   1      14.374  18.439  12.411  1.00  0.00    +0.000 F 
ENDBRANCH   41   42
BRANCH   58   59
ATOM     65  F8  UNL A   1       9.658  26.272   6.423  1.00  0.00    +0.000 F 
ATOM     66  C49 UNL A   1      11.553  25.309   7.452  1.00  0.00    +0.000 C 
ATOM     67  F9  UNL A   1      11.654  26.357   8.280  1.00  0.00    +0.000 F 
ATOM     68  C50 UNL A   1      12.477  24.270   7.531  1.00  0.00    +0.000 C 
ATOM     69  F10 UNL A   1      13.463  24.353   8.437  1.00  0.00    +0.000 F 
ATOM     59  C45 UNL A   1      12.378  23.150   6.691  1.00  0.00    +0.000 C 
ATOM     60  C46 UNL A   1      11.323  23.112   5.767  1.00  0.00    +0.000 C 
ATOM     61  F6  UNL A   1      11.194  22.070   4.933  1.00  0.00    +0.000 F 
ATOM     62  C47 UNL A   1      10.421  24.168   5.669  1.00  0.00    +0.000 C 
ATOM     63  F7  UNL A   1       9.452  24.133   4.743  1.00  0.00    +0.000 F 
ATOM     64  C48 UNL A   1      10.532  25.261   6.515  1.00  0.00    +0.000 C 
ENDBRANCH   58   59
BRANCH   73   74
ATOM     74  C54 UNL A   1      18.192  21.550   3.203  1.00  0.00    +0.000 C 
ATOM     75  C55 UNL A   1      19.082  22.621   3.365  1.00  0.00    +0.000 C 
ATOM     76  F11 UNL A   1      19.323  23.114   4.589  1.00  0.00    +0.000 F 
ATOM     77  C56 UNL A   1      19.690  23.225   2.266  1.00  0.00    +0.000 C 
ATOM     78  F12 UNL A   1      20.493  24.283   2.444  1.00  0.00    +0.000 F 
ATOM     79  C57 UNL A   1      19.450  22.745   0.988  1.00  0.00    +0.000 C 
ATOM     80  F13 UNL A   1      20.034  23.326  -0.069  1.00  0.00    +0.000 F 
ATOM     81  C58 UNL A   1      18.594  21.669   0.805  1.00  0.00    +0.000 C 
ATOM     82  F14 UNL A   1      18.372  21.192  -0.427  1.00  0.00    +0.000 F 
ATOM     83  C59 UNL A   1      17.961  21.086   1.901  1.00  0.00    +0.000 C 
ATOM     84  F15 UNL A   1      17.125  20.060   1.692  1.00  0.00    +0.000 F 
ENDBRANCH   73   74
TORSDOF 26
ENDMDL
MODEL 4
REMARK VINA RESULT:      -8.3     41.133     45.892
ROOT
ATOM    131  H34 UNL A   1      12.836  46.370   2.584  1.00  0.00    +0.000 H 
ATOM    132  H35 UNL A   1      14.517  46.549   0.599  1.00  0.00    +0.000 H 
ATOM    133  H36 UNL A   1      14.375  50.216   2.519  1.00  0.00    +0.000 H 
ATOM    134  H37 UNL A   1      16.056  56.361   2.793  1.00  0.00    +0.000 H 
ATOM    135  H38 UNL A   1      14.460  56.157   4.757  1.00  0.00    +0.000 H 
ATOM    136  H39 UNL A   1      14.623  52.459   2.870  1.00  0.00    +0.000 H 
ATOM    137  H40 UNL A   1      17.979  52.941  -0.840  1.00  0.00    +0.000 H 
ATOM    138  H41 UNL A   1      17.422  50.526  -1.475  1.00  0.00    +0.000 H 
ATOM    139  H42 UNL A   1      11.326  49.742   6.474  1.00  0.00    +0.000 H 
ATOM    140  H43 UNL A   1      11.460  52.275   6.824  1.00  0.00    +0.000 H 
ATOM     37  C30 UNL A   1      13.298  53.580   5.072  1.00  0.00    +0.000 C 
ATOM     38  C31 UNL A   1      12.880  52.136   5.061  1.00  0.00    +0.000 C 
ATOM     39  N3  UNL A   1      13.258  51.172   4.258  1.00  0.00    +0.000 N 
ATOM     40  C32 UNL A   1      12.617  50.027   4.713  1.00  0.00    +0.000 C 
ATOM     41  C33 UNL A   1      12.645  48.780   4.185  1.00  0.00    +0.000 C 
ATOM     53  C40 UNL A   1      13.368  48.421   2.992  1.00  0.00    +0.000 C 
ATOM     54  C41 UNL A   1      13.384  47.207   2.329  1.00  0.00    +0.000 C 
ATOM     55  C42 UNL A   1      14.271  47.309   1.253  1.00  0.00    +0.000 C 
ATOM     56  C43 UNL A   1      14.766  48.602   1.214  1.00  0.00    +0.000 C 
ATOM     57  N4  UNL A   1      14.205  49.274   2.288  1.00  0.00    +0.000 N 
ATOM     58  C44 UNL A   1      15.683  49.183   0.268  1.00  0.00    +0.000 C 
ATOM     70  C51 UNL A   1      16.107  50.470   0.288  1.00  0.00    +0.000 C 
ATOM     71  N5  UNL A   1      15.777  51.484   1.176  1.00  0.00    +0.000 N 
ATOM     72  C52 UNL A   1      16.459  52.536   0.792  1.00  0.00    +0.000 C 
ATOM     73  C53 UNL A   1      16.471  53.924   1.372  1.00  0.00    +0.000 C 
ATOM     85  C60 UNL A   1      15.664  54.205   2.413  1.00  0.00    +0.000 C 
ATOM     86  C61 UNL A   1      15.557  55.501   3.073  1.00  0.00    +0.000 C 
ATOM     87  C62 UNL A   1      14.704  55.396   4.105  1.00  0.00    +0.000 C 
ATOM     88  C63 UNL A   1      14.176  54.034   4.157  1.00  0.00    +0.000 C 
ATOM     89  N6  UNL A   1      14.791  53.400   3.106  1.00  0.00    +0.000 N 
ATOM     90  C64 UNL A   1      17.322  52.297  -0.374  1.00  0.00    +0.000 C 
ATOM     91  C65 UNL A   1      17.034  51.038  -0.668  1.00  0.00    +0.000 C 
ATOM     92  C66 UNL A   1      11.858  50.403   5.885  1.00  0.00    +0.000 C 
ATOM     93  C67 UNL A   1      11.937  51.708   6.106  1.00  0.00    +0.000 C 
ENDROOT
BRANCH   37   36
ATOM     33  C26 UNL A   1      11.859  56.266   8.097  1.00  0.00    +0.000 C 
ATOM     34  C27 UNL A   1      11.092  56.031   6.953  1.00  0.00    +0.000 C 
ATOM     35  C28 UNL A   1      11.545  55.138   5.979  1.00  0.00    +0.000 C 
ATOM    129  H32 UNL A   1      10.189  56.517   6.827  1.00  0.00    +0.000 H 
ATOM    130  H33 UNL A   1      10.961  54.943   5.151  1.00  0.00    +0.000 H 
ATOM     36  C29 UNL A   1      12.789  54.503   6.120  1.00  0.00    +0.000 C 
ATOM    141  H44 UNL A   1      14.475  54.297   7.380  1.00  0.00    +0.000 H 
ATOM    142  H45 UNL A   1      13.591  55.687   9.158  1.00  0.00    +0.000 H 
ATOM     94  C68 UNL A   1      13.550  54.742   7.274  1.00  0.00    +0.000 C 
ATOM     95  C69 UNL A   1      13.063  55.577   8.278  1.00  0.00    +0.000 C 
BRANCH   33   31
ATOM     31  C25 UNL A   1      11.338  57.202   9.122  1.00  0.00    +0.000 C 
ATOM     32  O5  UNL A   1      11.969  58.219   9.397  1.00  0.00    +0.000 O 
BRANCH   31   30
ATOM     30  N2  UNL A   1      10.148  56.947   9.755  1.00  0.00    +0.000 N 
ATOM    128  H31 UNL A   1       9.523  56.355   9.277  1.00  0.00    +0.000 H 
BRANCH   30   29
ATOM     29  C24 UNL A   1       9.694  57.445  11.043  1.00  0.00    +0.000 C 
ATOM    126  H29 UNL A   1      10.479  58.018  11.490  1.00  0.00    +0.000 H 
ATOM    127  H30 UNL A   1       8.826  58.050  10.881  1.00  0.00    +0.000 H 
BRANCH   29   28
ATOM    124  H27 UNL A   1       9.019  56.729  12.917  1.00  0.00    +0.000 H 
ATOM     28  C23 UNL A   1       9.316  56.306  11.980  1.00  0.00    +0.000 C 
ATOM    125  H28 UNL A   1       8.529  55.764  11.498  1.00  0.00    +0.000 H 
BRANCH   28   27
ATOM    122  H25 UNL A   1      10.131  54.350  11.856  1.00  0.00    +0.000 H 
ATOM     27  C22 UNL A   1      10.437  55.299  12.246  1.00  0.00    +0.000 C 
ATOM    123  H26 UNL A   1      11.311  55.692  11.768  1.00  0.00    +0.000 H 
BRANCH   27   26
ATOM    121  H24 UNL A   1       9.946  54.669  14.187  1.00  0.00    +0.000 H 
ATOM     26  C21 UNL A   1      10.802  55.113  13.723  1.00  0.00    +0.000 C 
ATOM    120  H23 UNL A   1      11.056  56.072  14.125  1.00  0.00    +0.000 H 
BRANCH   26   25
ATOM     25  C20 UNL A   1      11.973  54.161  13.989  1.00  0.00    +0.000 C 
ATOM    118  H21 UNL A   1      12.148  54.129  15.044  1.00  0.00    +0.000 H 
ATOM    119  H22 UNL A   1      11.696  53.208  13.590  1.00  0.00    +0.000 H 
BRANCH   25   24
ATOM    116  H19 UNL A   1      13.071  55.386  12.639  1.00  0.00    +0.000 H 
ATOM    117  H20 UNL A   1      13.977  54.853  14.051  1.00  0.00    +0.000 H 
ATOM     24  C19 UNL A   1      13.270  54.569  13.300  1.00  0.00    +0.000 C 
BRANCH   24   23
ATOM    115  H18 UNL A   1      14.331  52.803  13.055  1.00  0.00    +0.000 H 
ATOM     23  N1  UNL A   1      13.826  53.472  12.538  1.00  0.00    +0.000 N 
BRANCH   23   21
ATOM     21  C18 UNL A   1      13.740  53.246  11.201  1.00  0.00    +0.000 C 
ATOM     22  O4  UNL A   1      14.701  53.437  10.466  1.00  0.00    +0.000 O 
BRANCH   21   20
ATOM    114  H17 UNL A   1      11.569  53.072  11.086  1.00  0.00    +0.000 H 
ATOM     20  C17 UNL A   1      12.454  52.802  10.629  1.00  0.00    +0.000 C 
BRANCH   20   19
ATOM    113  H16 UNL A   1      12.624  52.494   8.609  1.00  0.00    +0.000 H 
ATOM     19  C16 UNL A   1      12.429  52.048   9.520  1.00  0.00    +0.000 C 
BRANCH   19   18
ATOM      9  C8  UNL A   1      13.218  49.689   9.434  1.00  0.00    +0.000 C 
ATOM     10  C9  UNL A   1      12.969  48.307   9.389  1.00  0.00    +0.000 C 
ATOM     11  C10 UNL A   1      11.671  47.810   9.447  1.00  0.00    +0.000 C 
ATOM    105  H8  UNL A   1      13.761  47.650   9.311  1.00  0.00    +0.000 H 
ATOM    109  H12 UNL A   1       9.655  48.335   9.668  1.00  0.00    +0.000 H 
ATOM     14  C12 UNL A   1      10.616  48.703   9.591  1.00  0.00    +0.000 C 
ATOM     15  C13 UNL A   1      10.820  50.095   9.636  1.00  0.00    +0.000 C 
ATOM     18  C15 UNL A   1      12.135  50.607   9.555  1.00  0.00    +0.000 C 
BRANCH    9    8
ATOM    104  H7  UNL A   1      15.320  49.731   9.974  1.00  0.00    +0.000 H 
ATOM      8  C7  UNL A   1      14.635  50.084   9.286  1.00  0.00    +0.000 C 
BRANCH    8    7
ATOM    103  H6  UNL A   1      14.984  51.900   8.446  1.00  0.00    +0.000 H 
ATOM      7  C6  UNL A   1      15.072  50.883   8.298  1.00  0.00    +0.000 C 
BRANCH    7    6
ATOM     97  C71 UNL A   1      16.749  51.070   4.914  1.00  0.00    +0.000 C 
ATOM      3  C2  UNL A   1      16.813  49.735   4.521  1.00  0.00    +0.000 C 
ATOM      4  C3  UNL A   1      16.317  48.756   5.382  1.00  0.00    +0.000 C 
ATOM    101  H4  UNL A   1      16.363  47.763   5.103  1.00  0.00    +0.000 H 
ATOM      5  C4  UNL A   1      15.756  49.101   6.620  1.00  0.00    +0.000 C 
ATOM    102  H5  UNL A   1      15.405  48.359   7.245  1.00  0.00    +0.000 H 
ATOM      6  C5  UNL A   1      15.667  50.440   7.018  1.00  0.00    +0.000 C 
ATOM    143  H46 UNL A   1      16.139  52.409   6.425  1.00  0.00    +0.000 H 
ATOM    144  H47 UNL A   1      17.121  51.807   4.294  1.00  0.00    +0.000 H 
ATOM     96  C70 UNL A   1      16.181  51.416   6.150  1.00  0.00    +0.000 C 
BRANCH    3    2
ATOM      2  O1  UNL A   1      17.293  49.270   3.327  1.00  0.00    +0.000 O 
BRANCH    2    1
ATOM      1  C1  UNL A   1      18.685  49.438   3.089  1.00  0.00    +0.000 C 
ATOM     98  H1  UNL A   1      19.038  48.644   2.464  1.00  0.00    +0.000 H 
ATOM     99  H2  UNL A   1      19.212  49.421   4.020  1.00  0.00    +0.000 H 
ATOM    100  H3  UNL A   1      18.853  50.376   2.601  1.00  0.00    +0.000 H 
ENDBRANCH    2    1
ENDBRANCH    3    2
ENDBRANCH    7    6
ENDBRANCH    8    7
ENDBRANCH    9    8
BRANCH   11   12
ATOM     12  O2  UNL A   1      11.553  46.451   9.346  1.00  0.00    +0.000 O 
BRANCH   12   13
ATOM    106  H9  UNL A   1      13.101  46.287  10.675  1.00  0.00    +0.000 H 
ATOM    107  H10 UNL A   1      12.740  44.838   9.767  1.00  0.00    +0.000 H 
ATOM    108  H11 UNL A   1      11.682  45.344  11.062  1.00  0.00    +0.000 H 
ATOM     13  C11 UNL A   1      12.316  45.681  10.270  1.00  0.00    +0.000 C 
ENDBRANCH   12   13
ENDBRANCH   11   12
BRANCH   15   16
ATOM     16  O3  UNL A   1       9.610  50.732   9.701  1.00  0.00    +0.000 O 
BRANCH   16   17
ATOM     17  C14 UNL A   1       8.476  50.304   8.973  1.00  0.00    +0.000 C 
ATOM    110  H13 UNL A   1       8.113  51.110   8.371  1.00  0.00    +0.000 H 
ATOM    111  H14 UNL A   1       7.712  49.992   9.653  1.00  0.00    +0.000 H 
ATOM    112  H15 UNL A   1       8.748  49.483   8.342  1.00  0.00    +0.000 H 
ENDBRANCH   16   17
ENDBRANCH   15   16
ENDBRANCH   19   18
ENDBRANCH   20   19
ENDBRANCH   21   20
ENDBRANCH   23   21
ENDBRANCH   24   23
ENDBRANCH   25   24
ENDBRANCH   26   25
ENDBRANCH   27   26
ENDBRANCH   28   27
ENDBRANCH   29   28
ENDBRANCH   30   29
ENDBRANCH   31   30
ENDBRANCH   33   31
ENDBRANCH   37   36
BRANCH   41   42
ATOM     42  C34 UNL A   1      11.872  47.702   4.886  1.00  0.00    +0.000 C 
ATOM     43  C35 UNL A   1      10.474  47.615   4.792  1.00  0.00    +0.000 C 
ATOM     44  F1  UNL A   1       9.783  48.554   4.127  1.00  0.00    +0.000 F 
ATOM     45  C36 UNL A   1       9.779  46.575   5.402  1.00  0.00    +0.000 C 
ATOM     46  F2  UNL A   1       8.440  46.532   5.328  1.00  0.00    +0.000 F 
ATOM     47  C37 UNL A   1      10.465  45.586   6.089  1.00  0.00    +0.000 C 
ATOM     48  F3  UNL A   1       9.795  44.576   6.661  1.00  0.00    +0.000 F 
ATOM     49  C38 UNL A   1      11.847  45.645   6.186  1.00  0.00    +0.000 C 
ATOM     50  F4  UNL A   1      12.514  44.682   6.838  1.00  0.00    +0.000 F 
ATOM     51  C39 UNL A   1      12.544  46.698   5.601  1.00  0.00    +0.000 C 
ATOM     52  F5  UNL A   1      13.880  46.730   5.717  1.00  0.00    +0.000 F 
ENDBRANCH   41   42
BRANCH   58   59
ATOM     65  F8  UNL A   1      17.668  45.941  -3.912  1.00  0.00    +0.000 F 
ATOM     66  C49 UNL A   1      17.995  47.009  -1.830  1.00  0.00    +0.000 C 
ATOM     67  F9  UNL A   1      19.250  46.542  -1.773  1.00  0.00    +0.000 F 
ATOM     68  C50 UNL A   1      17.495  47.788  -0.791  1.00  0.00    +0.000 C 
ATOM     69  F10 UNL A   1      18.289  48.045   0.260  1.00  0.00    +0.000 F 
ATOM     59  C45 UNL A   1      16.193  48.309  -0.840  1.00  0.00    +0.000 C 
ATOM     60  C46 UNL A   1      15.410  48.016  -1.966  1.00  0.00    +0.000 C 
ATOM     61  F6  UNL A   1      14.154  48.478  -2.054  1.00  0.00    +0.000 F 
ATOM     62  C47 UNL A   1      15.902  47.209  -2.988  1.00  0.00    +0.000 C 
ATOM     63  F7  UNL A   1      15.117  46.900  -4.030  1.00  0.00    +0.000 F 
ATOM     64  C48 UNL A   1      17.195  46.713  -2.923  1.00  0.00    +0.000 C 
ENDBRANCH   58   59
BRANCH   73   74
ATOM     74  C54 UNL A   1      17.350  54.980   0.804  1.00  0.00    +0.000 C 
ATOM     75  C55 UNL A   1      17.034  55.608  -0.409  1.00  0.00    +0.000 C 
ATOM     76  F11 UNL A   1      15.923  55.260  -1.075  1.00  0.00    +0.000 F 
ATOM     77  C56 UNL A   1      17.884  56.559  -0.971  1.00  0.00    +0.000 C 
ATOM     78  F12 UNL A   1      17.586  57.103  -2.159  1.00  0.00    +0.000 F 
ATOM     79  C57 UNL A   1      19.046  56.929  -0.312  1.00  0.00    +0.000 C 
ATOM     80  F13 UNL A   1      19.863  57.844  -0.851  1.00  0.00    +0.000 F 
ATOM     81  C58 UNL A   1      19.366  56.342   0.903  1.00  0.00    +0.000 C 
ATOM     82  F14 UNL A   1      20.480  56.708   1.551  1.00  0.00    +0.000 F 
ATOM     83  C59 UNL A   1      18.533  55.366   1.449  1.00  0.00    +0.000 C 
ATOM     84  F15 UNL A   1      18.878  54.802   2.615  1.00  0.00    +0.000 F 
ENDBRANCH   73   74
TORSDOF 26
ENDMDL
MODEL 5
REMARK VINA RESULT:      -8.3     16.383     22.469
ROOT
ATOM    131  H34 UNL A   1      45.580  14.285  42.474  1.00  0.00    +0.000 H 
ATOM    132  H35 UNL A   1      47.240  16.246  42.033  1.00  0.00    +0.000 H 
ATOM    133  H36 UNL A   1      45.421  16.881  45.698  1.00  0.00    +0.000 H 
ATOM    134  H37 UNL A   1      44.421  20.597  50.783  1.00  0.00    +0.000 H 
ATOM    135  H38 UNL A   1      42.851  18.652  51.228  1.00  0.00    +0.000 H 
ATOM    136  H39 UNL A   1      44.698  17.976  47.568  1.00  0.00    +0.000 H 
ATOM    137  H40 UNL A   1      47.935  21.767  46.926  1.00  0.00    +0.000 H 
ATOM    138  H41 UNL A   1      48.478  20.739  44.647  1.00  0.00    +0.000 H 
ATOM    139  H42 UNL A   1      42.434  12.957  46.612  1.00  0.00    +0.000 H 
ATOM    140  H43 UNL A   1      41.489  14.204  48.639  1.00  0.00    +0.000 H 
ATOM     37  C30 UNL A   1      42.810  16.676  49.182  1.00  0.00    +0.000 C 
ATOM     38  C31 UNL A   1      43.019  15.756  48.011  1.00  0.00    +0.000 C 
ATOM     39  N3  UNL A   1      43.837  15.884  46.996  1.00  0.00    +0.000 N 
ATOM     40  C32 UNL A   1      43.673  14.736  46.231  1.00  0.00    +0.000 C 
ATOM     41  C33 UNL A   1      44.260  14.418  45.053  1.00  0.00    +0.000 C 
ATOM     53  C40 UNL A   1      45.187  15.270  44.353  1.00  0.00    +0.000 C 
ATOM     54  C41 UNL A   1      45.764  15.076  43.111  1.00  0.00    +0.000 C 
ATOM     55  C42 UNL A   1      46.641  16.138  42.866  1.00  0.00    +0.000 C 
ATOM     56  C43 UNL A   1      46.568  17.020  43.931  1.00  0.00    +0.000 C 
ATOM     57  N4  UNL A   1      45.674  16.475  44.838  1.00  0.00    +0.000 N 
ATOM     58  C44 UNL A   1      47.263  18.269  44.109  1.00  0.00    +0.000 C 
ATOM     70  C51 UNL A   1      47.122  19.089  45.179  1.00  0.00    +0.000 C 
ATOM     71  N5  UNL A   1      46.319  18.933  46.299  1.00  0.00    +0.000 N 
ATOM     72  C52 UNL A   1      46.550  19.977  47.057  1.00  0.00    +0.000 C 
ATOM     73  C53 UNL A   1      45.936  20.345  48.381  1.00  0.00    +0.000 C 
ATOM     85  C60 UNL A   1      44.982  19.551  48.902  1.00  0.00    +0.000 C 
ATOM     86  C61 UNL A   1      44.288  19.780  50.165  1.00  0.00    +0.000 C 
ATOM     87  C62 UNL A   1      43.450  18.758  50.394  1.00  0.00    +0.000 C 
ATOM     88  C63 UNL A   1      43.518  17.818  49.276  1.00  0.00    +0.000 C 
ATOM     89  N6  UNL A   1      44.443  18.377  48.430  1.00  0.00    +0.000 N 
ATOM     90  C64 UNL A   1      47.552  20.904  46.511  1.00  0.00    +0.000 C 
ATOM     91  C65 UNL A   1      47.833  20.339  45.346  1.00  0.00    +0.000 C 
ATOM     92  C66 UNL A   1      42.709  13.903  46.916  1.00  0.00    +0.000 C 
ATOM     93  C67 UNL A   1      42.228  14.516  47.989  1.00  0.00    +0.000 C 
ENDROOT
BRANCH   37   36
ATOM     33  C26 UNL A   1      40.098  15.633  52.343  1.00  0.00    +0.000 C 
ATOM     34  C27 UNL A   1      39.629  16.325  51.224  1.00  0.00    +0.000 C 
ATOM     35  C28 UNL A   1      40.503  16.643  50.182  1.00  0.00    +0.000 C 
ATOM    129  H32 UNL A   1      38.635  16.601  51.166  1.00  0.00    +0.000 H 
ATOM    130  H33 UNL A   1      40.146  17.126  49.343  1.00  0.00    +0.000 H 
ATOM     36  C29 UNL A   1      41.864  16.309  50.268  1.00  0.00    +0.000 C 
ATOM    141  H44 UNL A   1      43.326  15.377  51.478  1.00  0.00    +0.000 H 
ATOM    142  H45 UNL A   1      41.767  14.650  53.185  1.00  0.00    +0.000 H 
ATOM     94  C68 UNL A   1      42.325  15.610  51.393  1.00  0.00    +0.000 C 
ATOM     95  C69 UNL A   1      41.437  15.230  52.399  1.00  0.00    +0.000 C 
BRANCH   33   31
ATOM     31  C25 UNL A   1      39.139  15.290  53.421  1.00  0.00    +0.000 C 
ATOM     32  O5  UNL A   1      38.658  16.181  54.116  1.00  0.00    +0.000 O 
BRANCH   31   30
ATOM     30  N2  UNL A   1      38.773  13.986  53.637  1.00  0.00    +0.000 N 
ATOM    128  H31 UNL A   1      37.988  13.669  53.134  1.00  0.00    +0.000 H 
BRANCH   30   29
ATOM     29  C24 UNL A   1      39.399  13.014  54.518  1.00  0.00    +0.000 C 
ATOM    126  H29 UNL A   1      39.883  13.533  55.319  1.00  0.00    +0.000 H 
ATOM    127  H30 UNL A   1      38.638  12.361  54.892  1.00  0.00    +0.000 H 
BRANCH   29   28
ATOM    124  H27 UNL A   1      41.344  12.729  53.731  1.00  0.00    +0.000 H 
ATOM     28  C23 UNL A   1      40.431  12.173  53.778  1.00  0.00    +0.000 C 
ATOM    125  H28 UNL A   1      40.526  11.258  54.326  1.00  0.00    +0.000 H 
BRANCH   28   27
ATOM    122  H25 UNL A   1      39.426  10.906  52.403  1.00  0.00    +0.000 H 
ATOM     27  C22 UNL A   1      40.035  11.785  52.352  1.00  0.00    +0.000 C 
ATOM    123  H26 UNL A   1      39.523  12.632  51.943  1.00  0.00    +0.000 H 
BRANCH   27   26
ATOM    121  H24 UNL A   1      41.568  12.451  51.082  1.00  0.00    +0.000 H 
ATOM     26  C21 UNL A   1      41.210  11.498  51.410  1.00  0.00    +0.000 C 
ATOM    120  H23 UNL A   1      40.852  10.878  50.614  1.00  0.00    +0.000 H 
BRANCH   26   25
ATOM     25  C20 UNL A   1      42.406  10.793  52.059  1.00  0.00    +0.000 C 
ATOM    118  H21 UNL A   1      43.226  10.821  51.372  1.00  0.00    +0.000 H 
ATOM    119  H22 UNL A   1      42.615  11.312  52.970  1.00  0.00    +0.000 H 
BRANCH   25   24
ATOM    116  H19 UNL A   1      42.661   9.108  53.333  1.00  0.00    +0.000 H 
ATOM    117  H20 UNL A   1      41.085   9.210  52.556  1.00  0.00    +0.000 H 
ATOM     24  C19 UNL A   1      42.140   9.339  52.429  1.00  0.00    +0.000 C 
BRANCH   24   23
ATOM    115  H18 UNL A   1      42.211   8.604  50.489  1.00  0.00    +0.000 H 
ATOM     23  N1  UNL A   1      42.588   8.442  51.384  1.00  0.00    +0.000 N 
BRANCH   23   21
ATOM     21  C18 UNL A   1      43.461   7.406  51.482  1.00  0.00    +0.000 C 
ATOM     22  O4  UNL A   1      43.733   6.910  52.568  1.00  0.00    +0.000 O 
BRANCH   21   20
ATOM    114  H17 UNL A   1      44.063   5.899  50.024  1.00  0.00    +0.000 H 
ATOM     20  C17 UNL A   1      44.116   6.903  50.258  1.00  0.00    +0.000 C 
BRANCH   20   19
ATOM    113  H16 UNL A   1      44.353   8.009  48.549  1.00  0.00    +0.000 H 
ATOM     19  C16 UNL A   1      44.780   7.742  49.449  1.00  0.00    +0.000 C 
BRANCH   19   18
ATOM      9  C8  UNL A   1      46.519   9.501  49.167  1.00  0.00    +0.000 C 
ATOM     10  C9  UNL A   1      47.799  10.021  49.423  1.00  0.00    +0.000 C 
ATOM     11  C10 UNL A   1      48.677   9.372  50.283  1.00  0.00    +0.000 C 
ATOM    105  H8  UNL A   1      48.091  10.898  48.965  1.00  0.00    +0.000 H 
ATOM    109  H12 UNL A   1      48.895   7.746  51.586  1.00  0.00    +0.000 H 
ATOM     14  C12 UNL A   1      48.257   8.212  50.923  1.00  0.00    +0.000 C 
ATOM     15  C13 UNL A   1      46.986   7.654  50.692  1.00  0.00    +0.000 C 
ATOM     18  C15 UNL A   1      46.096   8.297  49.802  1.00  0.00    +0.000 C 
BRANCH    9    8
ATOM    104  H7  UNL A   1      45.710   9.920  47.197  1.00  0.00    +0.000 H 
ATOM      8  C7  UNL A   1      45.715  10.248  48.175  1.00  0.00    +0.000 C 
BRANCH    8    7
ATOM    103  H6  UNL A   1      43.966  11.226  48.507  1.00  0.00    +0.000 H 
ATOM      7  C6  UNL A   1      44.992  11.336  48.490  1.00  0.00    +0.000 C 
BRANCH    7    6
ATOM     97  C71 UNL A   1      45.603  14.546  50.392  1.00  0.00    +0.000 C 
ATOM      3  C2  UNL A   1      46.462  15.251  49.553  1.00  0.00    +0.000 C 
ATOM      4  C3  UNL A   1      46.864  14.662  48.353  1.00  0.00    +0.000 C 
ATOM    101  H4  UNL A   1      47.503  15.172  47.724  1.00  0.00    +0.000 H 
ATOM      5  C4  UNL A   1      46.409  13.386  47.989  1.00  0.00    +0.000 C 
ATOM    102  H5  UNL A   1      46.728  12.965  47.103  1.00  0.00    +0.000 H 
ATOM      6  C5  UNL A   1      45.529  12.675  48.815  1.00  0.00    +0.000 C 
ATOM    143  H46 UNL A   1      44.504  12.765  50.657  1.00  0.00    +0.000 H 
ATOM    144  H47 UNL A   1      45.304  14.963  51.289  1.00  0.00    +0.000 H 
ATOM     96  C70 UNL A   1      45.142  13.273  50.025  1.00  0.00    +0.000 C 
BRANCH    3    2
ATOM      2  O1  UNL A   1      46.942  16.514  49.768  1.00  0.00    +0.000 O 
BRANCH    2    1
ATOM      1  C1  UNL A   1      47.983  16.958  48.907  1.00  0.00    +0.000 C 
ATOM     98  H1  UNL A   1      48.039  18.026  48.937  1.00  0.00    +0.000 H 
ATOM     99  H2  UNL A   1      47.779  16.639  47.906  1.00  0.00    +0.000 H 
ATOM    100  H3  UNL A   1      48.915  16.543  49.231  1.00  0.00    +0.000 H 
ENDBRANCH    2    1
ENDBRANCH    3    2
ENDBRANCH    7    6
ENDBRANCH    8    7
ENDBRANCH    9    8
BRANCH   11   12
ATOM     12  O2  UNL A   1      49.911   9.948  50.414  1.00  0.00    +0.000 O 
BRANCH   12   13
ATOM    106  H9  UNL A   1      50.955  10.776  48.860  1.00  0.00    +0.000 H 
ATOM    107  H10 UNL A   1      50.513  11.884  50.137  1.00  0.00    +0.000 H 
ATOM    108  H11 UNL A   1      49.300  11.312  49.017  1.00  0.00    +0.000 H 
ATOM     13  C11 UNL A   1      50.187  11.049  49.553  1.00  0.00    +0.000 C 
ENDBRANCH   12   13
ENDBRANCH   11   12
BRANCH   15   16
ATOM     16  O3  UNL A   1      46.868   6.480  51.387  1.00  0.00    +0.000 O 
BRANCH   16   17
ATOM     17  C14 UNL A   1      47.985   5.762  51.875  1.00  0.00    +0.000 C 
ATOM    110  H13 UNL A   1      48.063   5.901  52.933  1.00  0.00    +0.000 H 
ATOM    111  H14 UNL A   1      48.875   6.121  51.401  1.00  0.00    +0.000 H 
ATOM    112  H15 UNL A   1      47.861   4.721  51.660  1.00  0.00    +0.000 H 
ENDBRANCH   16   17
ENDBRANCH   15   16
ENDBRANCH   19   18
ENDBRANCH   20   19
ENDBRANCH   21   20
ENDBRANCH   23   21
ENDBRANCH   24   23
ENDBRANCH   25   24
ENDBRANCH   26   25
ENDBRANCH   27   26
ENDBRANCH   28   27
ENDBRANCH   29   28
ENDBRANCH   30   29
ENDBRANCH   31   30
ENDBRANCH   33   31
ENDBRANCH   37   36
BRANCH   41   42
ATOM     42  C34 UNL A   1      43.923  13.093  44.434  1.00  0.00    +0.000 C 
ATOM     43  C35 UNL A   1      44.777  11.986  44.551  1.00  0.00    +0.000 C 
ATOM     44  F1  UNL A   1      45.965  12.110  45.161  1.00  0.00    +0.000 F 
ATOM     45  C36 UNL A   1      44.422  10.749  44.018  1.00  0.00    +0.000 C 
ATOM     46  F2  UNL A   1      45.269   9.714  44.111  1.00  0.00    +0.000 F 
ATOM     47  C37 UNL A   1      43.197  10.586  43.389  1.00  0.00    +0.000 C 
ATOM     48  F3  UNL A   1      42.850   9.391  42.892  1.00  0.00    +0.000 F 
ATOM     49  C38 UNL A   1      42.333  11.665  43.272  1.00  0.00    +0.000 C 
ATOM     50  F4  UNL A   1      41.143  11.506  42.676  1.00  0.00    +0.000 F 
ATOM     51  C39 UNL A   1      42.697  12.909  43.778  1.00  0.00    +0.000 C 
ATOM     52  F5  UNL A   1      41.841  13.934  43.644  1.00  0.00    +0.000 F 
ENDBRANCH   41   42
BRANCH   58   59
ATOM     65  F8  UNL A   1      50.816  19.988  40.067  1.00  0.00    +0.000 F 
ATOM     66  C49 UNL A   1      50.464  19.087  42.222  1.00  0.00    +0.000 C 
ATOM     67  F9  UNL A   1      51.786  19.032  42.430  1.00  0.00    +0.000 F 
ATOM     68  C50 UNL A   1      49.586  18.643  43.206  1.00  0.00    +0.000 C 
ATOM     69  F10 UNL A   1      50.094  18.153  44.348  1.00  0.00    +0.000 F 
ATOM     59  C45 UNL A   1      48.197  18.713  43.022  1.00  0.00    +0.000 C 
ATOM     60  C46 UNL A   1      47.720  19.240  41.812  1.00  0.00    +0.000 C 
ATOM     61  F6  UNL A   1      46.401  19.314  41.581  1.00  0.00    +0.000 F 
ATOM     62  C47 UNL A   1      48.601  19.653  40.817  1.00  0.00    +0.000 C 
ATOM     63  F7  UNL A   1      48.123  20.105  39.649  1.00  0.00    +0.000 F 
ATOM     64  C48 UNL A   1      49.970  19.583  41.025  1.00  0.00    +0.000 C 
ENDBRANCH   58   59
BRANCH   73   74
ATOM     74  C54 UNL A   1      46.365  21.570  49.105  1.00  0.00    +0.000 C 
ATOM     75  C55 UNL A   1      45.715  22.796  48.900  1.00  0.00    +0.000 C 
ATOM     76  F11 UNL A   1      44.688  22.874  48.041  1.00  0.00    +0.000 F 
ATOM     77  C56 UNL A   1      46.148  23.957  49.538  1.00  0.00    +0.000 C 
ATOM     78  F12 UNL A   1      45.544  25.125  49.281  1.00  0.00    +0.000 F 
ATOM     79  C57 UNL A   1      47.215  23.908  50.422  1.00  0.00    +0.000 C 
ATOM     80  F13 UNL A   1      47.632  25.024  51.034  1.00  0.00    +0.000 F 
ATOM     81  C58 UNL A   1      47.857  22.702  50.662  1.00  0.00    +0.000 C 
ATOM     82  F14 UNL A   1      48.878  22.648  51.527  1.00  0.00    +0.000 F 
ATOM     83  C59 UNL A   1      47.445  21.547  49.999  1.00  0.00    +0.000 C 
ATOM     84  F15 UNL A   1      48.096  20.400  50.237  1.00  0.00    +0.000 F 
ENDBRANCH   73   74
TORSDOF 26
ENDMDL
MODEL 6
REMARK VINA RESULT:      -8.2      2.637      4.953
ROOT
ATOM    131  H34 UNL A   1      39.921  28.101  26.829  1.00  0.00    +0.000 H 
ATOM    132  H35 UNL A   1      38.036  29.836  27.314  1.00  0.00    +0.000 H 
ATOM    133  H36 UNL A   1      40.312  29.395  30.745  1.00  0.00    +0.000 H 
ATOM    134  H37 UNL A   1      41.279  30.673  36.917  1.00  0.00    +0.000 H 
ATOM    135  H38 UNL A   1      43.145  29.025  36.415  1.00  0.00    +0.000 H 
ATOM    136  H39 UNL A   1      40.899  29.488  32.951  1.00  0.00    +0.000 H 
ATOM    137  H40 UNL A   1      37.400  32.935  34.014  1.00  0.00    +0.000 H 
ATOM    138  H41 UNL A   1      36.500  32.555  31.649  1.00  0.00    +0.000 H 
ATOM    139  H42 UNL A   1      44.068  26.245  29.682  1.00  0.00    +0.000 H 
ATOM    140  H43 UNL A   1      44.680  26.205  32.169  1.00  0.00    +0.000 H 
ATOM     37  C30 UNL A   1      43.147  28.018  33.755  1.00  0.00    +0.000 C 
ATOM     38  C31 UNL A   1      42.972  27.693  32.298  1.00  0.00    +0.000 C 
ATOM     39  N3  UNL A   1      42.092  28.159  31.447  1.00  0.00    +0.000 N 
ATOM     40  C32 UNL A   1      42.400  27.576  30.225  1.00  0.00    +0.000 C 
ATOM     41  C33 UNL A   1      41.750  27.701  29.044  1.00  0.00    +0.000 C 
ATOM     53  C40 UNL A   1      40.558  28.487  28.854  1.00  0.00    +0.000 C 
ATOM     54  C41 UNL A   1      39.776  28.603  27.719  1.00  0.00    +0.000 C 
ATOM     55  C42 UNL A   1      38.754  29.520  27.985  1.00  0.00    +0.000 C 
ATOM     56  C43 UNL A   1      38.867  29.932  29.302  1.00  0.00    +0.000 C 
ATOM     57  N4  UNL A   1      39.980  29.293  29.824  1.00  0.00    +0.000 N 
ATOM     58  C44 UNL A   1      38.024  30.843  30.032  1.00  0.00    +0.000 C 
ATOM     70  C51 UNL A   1      38.192  31.184  31.333  1.00  0.00    +0.000 C 
ATOM     71  N5  UNL A   1      39.165  30.760  32.227  1.00  0.00    +0.000 N 
ATOM     72  C52 UNL A   1      38.918  31.387  33.352  1.00  0.00    +0.000 C 
ATOM     73  C53 UNL A   1      39.636  31.291  34.670  1.00  0.00    +0.000 C 
ATOM     85  C60 UNL A   1      40.667  30.432  34.793  1.00  0.00    +0.000 C 
ATOM     86  C61 UNL A   1      41.450  30.220  36.005  1.00  0.00    +0.000 C 
ATOM     87  C62 UNL A   1      42.429  29.340  35.742  1.00  0.00    +0.000 C 
ATOM     88  C63 UNL A   1      42.321  28.897  34.353  1.00  0.00    +0.000 C 
ATOM     89  N6  UNL A   1      41.237  29.587  33.870  1.00  0.00    +0.000 N 
ATOM     90  C64 UNL A   1      37.770  32.304  33.287  1.00  0.00    +0.000 C 
ATOM     91  C65 UNL A   1      37.338  32.107  32.051  1.00  0.00    +0.000 C 
ATOM     92  C66 UNL A   1      43.573  26.754  30.431  1.00  0.00    +0.000 C 
ATOM     93  C67 UNL A   1      43.928  26.743  31.708  1.00  0.00    +0.000 C 
ENDROOT
BRANCH   37   36
ATOM     33  C26 UNL A   1      46.363  26.244  35.980  1.00  0.00    +0.000 C 
ATOM     34  C27 UNL A   1      46.586  27.411  35.245  1.00  0.00    +0.000 C 
ATOM     35  C28 UNL A   1      45.536  28.005  34.541  1.00  0.00    +0.000 C 
ATOM    129  H32 UNL A   1      47.527  27.835  35.223  1.00  0.00    +0.000 H 
ATOM    130  H33 UNL A   1      45.697  28.884  34.025  1.00  0.00    +0.000 H 
ATOM     36  C29 UNL A   1      44.262  27.415  34.532  1.00  0.00    +0.000 C 
ATOM    141  H44 UNL A   1      43.120  25.792  35.261  1.00  0.00    +0.000 H 
ATOM    142  H45 UNL A   1      44.891  24.881  36.642  1.00  0.00    +0.000 H 
ATOM     94  C68 UNL A   1      44.047  26.246  35.276  1.00  0.00    +0.000 C 
ATOM     95  C69 UNL A   1      45.077  25.695  36.036  1.00  0.00    +0.000 C 
BRANCH   33   31
ATOM     31  C25 UNL A   1      47.493  25.652  36.735  1.00  0.00    +0.000 C 
ATOM     32  O5  UNL A   1      47.976  26.259  37.687  1.00  0.00    +0.000 O 
BRANCH   31   30
ATOM     30  N2  UNL A   1      47.995  24.423  36.386  1.00  0.00    +0.000 N 
ATOM    128  H31 UNL A   1      48.167  23.801  37.129  1.00  0.00    +0.000 H 
BRANCH   30   29
ATOM     29  C24 UNL A   1      48.304  23.926  35.056  1.00  0.00    +0.000 C 
ATOM    126  H29 UNL A   1      48.664  22.921  35.135  1.00  0.00    +0.000 H 
ATOM    127  H30 UNL A   1      47.411  23.966  34.467  1.00  0.00    +0.000 H 
BRANCH   29   28
ATOM    124  H27 UNL A   1      49.524  25.654  34.970  1.00  0.00    +0.000 H 
ATOM     28  C23 UNL A   1      49.366  24.780  34.374  1.00  0.00    +0.000 C 
ATOM    125  H28 UNL A   1      50.239  24.167  34.290  1.00  0.00    +0.000 H 
BRANCH   28   27
ATOM    122  H25 UNL A   1      49.592  24.648  32.268  1.00  0.00    +0.000 H 
ATOM     27  C22 UNL A   1      49.011  25.227  32.955  1.00  0.00    +0.000 C 
ATOM    123  H26 UNL A   1      47.956  25.079  32.849  1.00  0.00    +0.000 H 
BRANCH   27   26
ATOM    121  H24 UNL A   1      50.121  26.986  33.244  1.00  0.00    +0.000 H 
ATOM     26  C21 UNL A   1      49.267  26.711  32.662  1.00  0.00    +0.000 C 
ATOM    120  H23 UNL A   1      48.382  27.256  32.919  1.00  0.00    +0.000 H 
BRANCH   26   25
ATOM     25  C20 UNL A   1      49.620  27.035  31.207  1.00  0.00    +0.000 C 
ATOM    118  H21 UNL A   1      50.664  27.261  31.157  1.00  0.00    +0.000 H 
ATOM    119  H22 UNL A   1      49.355  26.179  30.625  1.00  0.00    +0.000 H 
BRANCH   25   24
ATOM    116  H19 UNL A   1      48.927  29.045  31.304  1.00  0.00    +0.000 H 
ATOM    117  H20 UNL A   1      49.261  28.461  29.678  1.00  0.00    +0.000 H 
ATOM     24  C19 UNL A   1      48.846  28.217  30.633  1.00  0.00    +0.000 C 
BRANCH   24   23
ATOM    115  H18 UNL A   1      47.029  27.382  31.188  1.00  0.00    +0.000 H 
ATOM     23  N1  UNL A   1      47.447  27.890  30.455  1.00  0.00    +0.000 N 
BRANCH   23   21
ATOM     21  C18 UNL A   1      46.639  28.194  29.407  1.00  0.00    +0.000 C 
ATOM     22  O4  UNL A   1      45.811  29.093  29.488  1.00  0.00    +0.000 O 
BRANCH   21   20
ATOM    114  H17 UNL A   1      46.354  27.768  27.286  1.00  0.00    +0.000 H 
ATOM     20  C17 UNL A   1      46.741  27.397  28.168  1.00  0.00    +0.000 C 
BRANCH   20   19
ATOM    113  H16 UNL A   1      48.180  26.061  28.758  1.00  0.00    +0.000 H 
ATOM     19  C16 UNL A   1      47.333  26.193  28.182  1.00  0.00    +0.000 C 
BRANCH   19   18
ATOM      9  C8  UNL A   1      47.250  24.898  26.059  1.00  0.00    +0.000 C 
ATOM     10  C9  UNL A   1      46.723  23.866  25.264  1.00  0.00    +0.000 C 
ATOM     11  C10 UNL A   1      45.767  22.991  25.768  1.00  0.00    +0.000 C 
ATOM    105  H8  UNL A   1      47.050  23.756  24.291  1.00  0.00    +0.000 H 
ATOM    109  H12 UNL A   1      44.678  22.458  27.477  1.00  0.00    +0.000 H 
ATOM     14  C12 UNL A   1      45.364  23.126  27.091  1.00  0.00    +0.000 C 
ATOM     15  C13 UNL A   1      45.862  24.148  27.920  1.00  0.00    +0.000 C 
ATOM     18  C15 UNL A   1      46.818  25.054  27.407  1.00  0.00    +0.000 C 
BRANCH    9    8
ATOM    104  H7  UNL A   1      48.965  26.223  25.930  1.00  0.00    +0.000 H 
ATOM      8  C7  UNL A   1      48.201  25.803  25.376  1.00  0.00    +0.000 C 
BRANCH    8    7
ATOM    103  H6  UNL A   1      47.306  25.722  23.555  1.00  0.00    +0.000 H 
ATOM      7  C6  UNL A   1      48.115  26.104  24.070  1.00  0.00    +0.000 C 
BRANCH    7    6
ATOM     97  C71 UNL A   1      51.307  27.915  23.162  1.00  0.00    +0.000 C 
ATOM      3  C2  UNL A   1      50.995  28.513  21.944  1.00  0.00    +0.000 C 
ATOM      4  C3  UNL A   1      49.726  28.308  21.400  1.00  0.00    +0.000 C 
ATOM    101  H4  UNL A   1      49.484  28.742  20.496  1.00  0.00    +0.000 H 
ATOM      5  C4  UNL A   1      48.775  27.520  22.065  1.00  0.00    +0.000 C 
ATOM    102  H5  UNL A   1      47.847  27.373  21.639  1.00  0.00    +0.000 H 
ATOM      6  C5  UNL A   1      49.070  26.930  23.301  1.00  0.00    +0.000 C 
ATOM    143  H46 UNL A   1      50.601  26.698  24.734  1.00  0.00    +0.000 H 
ATOM    144  H47 UNL A   1      52.245  28.047  23.574  1.00  0.00    +0.000 H 
ATOM     96  C70 UNL A   1      50.354  27.133  23.831  1.00  0.00    +0.000 C 
BRANCH    3    2
ATOM      2  O1  UNL A   1      51.811  29.335  21.218  1.00  0.00    +0.000 O 
BRANCH    2    1
ATOM      1  C1  UNL A   1      51.175  30.292  20.380  1.00  0.00    +0.000 C 
ATOM     98  H1  UNL A   1      51.876  31.055  20.113  1.00  0.00    +0.000 H 
ATOM     99  H2  UNL A   1      50.351  30.732  20.903  1.00  0.00    +0.000 H 
ATOM    100  H3  UNL A   1      50.819  29.810  19.494  1.00  0.00    +0.000 H 
ENDBRANCH    2    1
ENDBRANCH    3    2
ENDBRANCH    7    6
ENDBRANCH    8    7
ENDBRANCH    9    8
BRANCH   11   12
ATOM     12  O2  UNL A   1      45.294  22.059  24.886  1.00  0.00    +0.000 O 
BRANCH   12   13
ATOM    106  H9  UNL A   1      44.647  20.199  25.445  1.00  0.00    +0.000 H 
ATOM    107  H10 UNL A   1      46.226  20.651  26.043  1.00  0.00    +0.000 H 
ATOM    108  H11 UNL A   1      46.019  20.218  24.363  1.00  0.00    +0.000 H 
ATOM     13  C11 UNL A   1      45.564  20.697  25.204  1.00  0.00    +0.000 C 
ENDBRANCH   12   13
ENDBRANCH   11   12
BRANCH   15   16
ATOM     16  O3  UNL A   1      45.239  24.094  29.138  1.00  0.00    +0.000 O 
BRANCH   16   17
ATOM     17  C14 UNL A   1      44.203  23.176  29.430  1.00  0.00    +0.000 C 
ATOM    110  H13 UNL A   1      44.607  22.341  29.965  1.00  0.00    +0.000 H 
ATOM    111  H14 UNL A   1      43.760  22.836  28.518  1.00  0.00    +0.000 H 
ATOM    112  H15 UNL A   1      43.460  23.658  30.030  1.00  0.00    +0.000 H 
ENDBRANCH   16   17
ENDBRANCH   15   16
ENDBRANCH   19   18
ENDBRANCH   20   19
ENDBRANCH   21   20
ENDBRANCH   23   21
ENDBRANCH   24   23
ENDBRANCH   25   24
ENDBRANCH   26   25
ENDBRANCH   27   26
ENDBRANCH   28   27
ENDBRANCH   29   28
ENDBRANCH   30   29
ENDBRANCH   31   30
ENDBRANCH   33   31
ENDBRANCH   37   36
BRANCH   41   42
ATOM     42  C34 UNL A   1      42.305  26.974  27.854  1.00  0.00    +0.000 C 
ATOM     43  C35 UNL A   1      41.863  25.689  27.503  1.00  0.00    +0.000 C 
ATOM     44  F1  UNL A   1      40.979  25.044  28.278  1.00  0.00    +0.000 F 
ATOM     45  C36 UNL A   1      42.348  25.052  26.363  1.00  0.00    +0.000 C 
ATOM     46  F2  UNL A   1      41.937  23.811  26.066  1.00  0.00    +0.000 F 
ATOM     47  C37 UNL A   1      43.256  25.697  25.537  1.00  0.00    +0.000 C 
ATOM     48  F3  UNL A   1      43.708  25.088  24.432  1.00  0.00    +0.000 F 
ATOM     49  C38 UNL A   1      43.698  26.971  25.860  1.00  0.00    +0.000 C 
ATOM     50  F4  UNL A   1      44.566  27.601  25.055  1.00  0.00    +0.000 F 
ATOM     51  C39 UNL A   1      43.237  27.599  27.012  1.00  0.00    +0.000 C 
ATOM     52  F5  UNL A   1      43.689  28.830  27.299  1.00  0.00    +0.000 F 
ENDBRANCH   41   42
BRANCH   58   59
ATOM     65  F8  UNL A   1      33.619  33.173  27.370  1.00  0.00    +0.000 F 
ATOM     66  C49 UNL A   1      35.781  33.380  28.297  1.00  0.00    +0.000 C 
ATOM     67  F9  UNL A   1      35.813  34.678  27.966  1.00  0.00    +0.000 F 
ATOM     68  C50 UNL A   1      36.874  32.798  28.932  1.00  0.00    +0.000 C 
ATOM     69  F10 UNL A   1      37.950  33.558  29.188  1.00  0.00    +0.000 F 
ATOM     59  C45 UNL A   1      36.854  31.447  29.310  1.00  0.00    +0.000 C 
ATOM     60  C46 UNL A   1      35.702  30.701  29.025  1.00  0.00    +0.000 C 
ATOM     61  F6  UNL A   1      35.639  29.402  29.352  1.00  0.00    +0.000 F 
ATOM     62  C47 UNL A   1      34.623  31.278  28.360  1.00  0.00    +0.000 C 
ATOM     63  F7  UNL A   1      33.553  30.533  28.051  1.00  0.00    +0.000 F 
ATOM     64  C48 UNL A   1      34.661  32.618  28.004  1.00  0.00    +0.000 C 
ENDBRANCH   58   59
BRANCH   73   74
ATOM     74  C54 UNL A   1      39.215  32.121  35.830  1.00  0.00    +0.000 C 
ATOM     75  C55 UNL A   1      39.728  33.413  36.017  1.00  0.00    +0.000 C 
ATOM     76  F11 UNL A   1      40.612  33.917  35.142  1.00  0.00    +0.000 F 
ATOM     77  C56 UNL A   1      39.376  34.174  37.130  1.00  0.00    +0.000 C 
ATOM     78  F12 UNL A   1      39.924  35.382  37.314  1.00  0.00    +0.000 F 
ATOM     79  C57 UNL A   1      38.475  33.673  38.058  1.00  0.00    +0.000 C 
ATOM     80  F13 UNL A   1      38.136  34.403  39.128  1.00  0.00    +0.000 F 
ATOM     81  C58 UNL A   1      37.933  32.409  37.879  1.00  0.00    +0.000 C 
ATOM     82  F14 UNL A   1      37.050  31.928  38.764  1.00  0.00    +0.000 F 
ATOM     83  C59 UNL A   1      38.311  31.635  36.783  1.00  0.00    +0.000 C 
ATOM     84  F15 UNL A   1      37.785  30.409  36.647  1.00  0.00    +0.000 F 
ENDBRANCH   73   74
TORSDOF 26
ENDMDL
MODEL 7
REMARK VINA RESULT:      -8.2     19.722     27.694
ROOT
ATOM    131  H34 UNL A   1      19.997  34.976  50.369  1.00  0.00    +0.000 H 
ATOM    132  H35 UNL A   1      20.344  33.369  48.345  1.00  0.00    +0.000 H 
ATOM    133  H36 UNL A   1      23.809  35.576  48.864  1.00  0.00    +0.000 H 
ATOM    134  H37 UNL A   1      29.627  37.251  46.859  1.00  0.00    +0.000 H 
ATOM    135  H38 UNL A   1      29.297  38.770  48.868  1.00  0.00    +0.000 H 
ATOM    136  H39 UNL A   1      25.829  36.533  48.389  1.00  0.00    +0.000 H 
ATOM    137  H40 UNL A   1      26.703  33.421  44.541  1.00  0.00    +0.000 H 
ATOM    138  H41 UNL A   1      24.295  32.605  44.830  1.00  0.00    +0.000 H 
ATOM    139  H42 UNL A   1      23.181  38.462  52.918  1.00  0.00    +0.000 H 
ATOM    140  H43 UNL A   1      25.370  39.662  52.349  1.00  0.00    +0.000 H 
ATOM     37  C30 UNL A   1      26.766  38.514  50.138  1.00  0.00    +0.000 C 
ATOM     38  C31 UNL A   1      25.404  38.147  50.661  1.00  0.00    +0.000 C 
ATOM     39  N3  UNL A   1      24.570  37.237  50.224  1.00  0.00    +0.000 N 
ATOM     40  C32 UNL A   1      23.485  37.271  51.091  1.00  0.00    +0.000 C 
ATOM     41  C33 UNL A   1      22.338  36.554  51.033  1.00  0.00    +0.000 C 
ATOM     53  C40 UNL A   1      22.029  35.601  49.999  1.00  0.00    +0.000 C 
ATOM     54  C41 UNL A   1      20.857  34.893  49.803  1.00  0.00    +0.000 C 
ATOM     55  C42 UNL A   1      21.036  34.044  48.706  1.00  0.00    +0.000 C 
ATOM     56  C43 UNL A   1      22.300  34.264  48.185  1.00  0.00    +0.000 C 
ATOM     57  N4  UNL A   1      22.900  35.220  48.989  1.00  0.00    +0.000 N 
ATOM     58  C44 UNL A   1      22.918  33.648  47.039  1.00  0.00    +0.000 C 
ATOM     70  C51 UNL A   1      24.160  33.932  46.580  1.00  0.00    +0.000 C 
ATOM     71  N5  UNL A   1      25.088  34.837  47.076  1.00  0.00    +0.000 N 
ATOM     72  C52 UNL A   1      26.143  34.731  46.305  1.00  0.00    +0.000 C 
ATOM     73  C53 UNL A   1      27.440  35.491  46.360  1.00  0.00    +0.000 C 
ATOM     85  C60 UNL A   1      27.594  36.457  47.285  1.00  0.00    +0.000 C 
ATOM     86  C61 UNL A   1      28.783  37.284  47.454  1.00  0.00    +0.000 C 
ATOM     87  C62 UNL A   1      28.604  38.095  48.509  1.00  0.00    +0.000 C 
ATOM     88  C63 UNL A   1      27.272  37.872  49.069  1.00  0.00    +0.000 C 
ATOM     89  N6  UNL A   1      26.738  36.892  48.270  1.00  0.00    +0.000 N 
ATOM     90  C64 UNL A   1      26.010  33.721  45.244  1.00  0.00    +0.000 C 
ATOM     91  C65 UNL A   1      24.769  33.298  45.429  1.00  0.00    +0.000 C 
ATOM     92  C66 UNL A   1      23.781  38.261  52.103  1.00  0.00    +0.000 C 
ATOM     93  C67 UNL A   1      24.928  38.876  51.847  1.00  0.00    +0.000 C 
ENDROOT
BRANCH   37   36
ATOM     33  C26 UNL A   1      29.092  41.516  52.141  1.00  0.00    +0.000 C 
ATOM     34  C27 UNL A   1      29.346  40.164  52.382  1.00  0.00    +0.000 C 
ATOM     35  C28 UNL A   1      28.608  39.184  51.712  1.00  0.00    +0.000 C 
ATOM    129  H32 UNL A   1      30.079  39.888  53.055  1.00  0.00    +0.000 H 
ATOM    130  H33 UNL A   1      28.820  38.186  51.869  1.00  0.00    +0.000 H 
ATOM     36  C29 UNL A   1      27.582  39.548  50.827  1.00  0.00    +0.000 C 
ATOM    141  H44 UNL A   1      26.572  41.189  49.955  1.00  0.00    +0.000 H 
ATOM    142  H45 UNL A   1      27.989  42.878  50.962  1.00  0.00    +0.000 H 
ATOM     94  C68 UNL A   1      27.338  40.908  50.588  1.00  0.00    +0.000 C 
ATOM     95  C69 UNL A   1      28.123  41.884  51.202  1.00  0.00    +0.000 C 
BRANCH   33   31
ATOM     31  C25 UNL A   1      29.909  42.530  52.850  1.00  0.00    +0.000 C 
ATOM     32  O5  UNL A   1      29.948  42.533  54.078  1.00  0.00    +0.000 O 
BRANCH   31   30
ATOM     30  N2  UNL A   1      30.633  43.458  52.145  1.00  0.00    +0.000 N 
ATOM    128  H31 UNL A   1      30.216  44.344  52.042  1.00  0.00    +0.000 H 
BRANCH   30   29
ATOM     29  C24 UNL A   1      31.939  43.294  51.529  1.00  0.00    +0.000 C 
ATOM    126  H29 UNL A   1      32.204  44.203  51.029  1.00  0.00    +0.000 H 
ATOM    127  H30 UNL A   1      32.646  43.062  52.298  1.00  0.00    +0.000 H 
BRANCH   29   28
ATOM    124  H27 UNL A   1      32.954  41.851  50.359  1.00  0.00    +0.000 H 
ATOM     28  C23 UNL A   1      31.941  42.155  50.518  1.00  0.00    +0.000 C 
ATOM    125  H28 UNL A   1      31.331  41.379  50.933  1.00  0.00    +0.000 H 
BRANCH   28   27
ATOM    122  H25 UNL A   1      30.742  43.392  49.278  1.00  0.00    +0.000 H 
ATOM     27  C22 UNL A   1      31.330  42.506  49.159  1.00  0.00    +0.000 C 
ATOM    123  H26 UNL A   1      32.152  42.629  48.485  1.00  0.00    +0.000 H 
BRANCH   27   26
ATOM    121  H24 UNL A   1      29.636  41.269  49.248  1.00  0.00    +0.000 H 
ATOM     26  C21 UNL A   1      30.435  41.418  48.553  1.00  0.00    +0.000 C 
ATOM    120  H23 UNL A   1      31.035  40.545  48.397  1.00  0.00    +0.000 H 
BRANCH   26   25
ATOM     25  C20 UNL A   1      29.777  41.786  47.219  1.00  0.00    +0.000 C 
ATOM    118  H21 UNL A   1      30.261  42.660  46.835  1.00  0.00    +0.000 H 
ATOM    119  H22 UNL A   1      29.886  40.940  46.575  1.00  0.00    +0.000 H 
BRANCH   25   24
ATOM    116  H19 UNL A   1      28.060  42.387  48.323  1.00  0.00    +0.000 H 
ATOM    117  H20 UNL A   1      28.035  42.840  46.622  1.00  0.00    +0.000 H 
ATOM     24  C19 UNL A   1      28.284  42.073  47.326  1.00  0.00    +0.000 C 
BRANCH   24   23
ATOM    115  H18 UNL A   1      27.364  40.263  47.759  1.00  0.00    +0.000 H 
ATOM     23  N1  UNL A   1      27.502  40.895  47.015  1.00  0.00    +0.000 N 
BRANCH   23   21
ATOM     21  C18 UNL A   1      26.934  40.549  45.830  1.00  0.00    +0.000 C 
ATOM     22  O4  UNL A   1      27.553  40.657  44.779  1.00  0.00    +0.000 O 
BRANCH   21   20
ATOM    114  H17 UNL A   1      24.977  40.153  44.953  1.00  0.00    +0.000 H 
ATOM     20  C17 UNL A   1      25.537  40.073  45.816  1.00  0.00    +0.000 C 
BRANCH   20   19
ATOM    113  H16 UNL A   1      25.523  39.568  47.803  1.00  0.00    +0.000 H 
ATOM     19  C16 UNL A   1      24.991  39.539  46.919  1.00  0.00    +0.000 C 
BRANCH   19   18
ATOM      9  C8  UNL A   1      22.715  39.317  47.902  1.00  0.00    +0.000 C 
ATOM     10  C9  UNL A   1      21.460  38.690  47.975  1.00  0.00    +0.000 C 
ATOM     11  C10 UNL A   1      21.120  37.663  47.101  1.00  0.00    +0.000 C 
ATOM    105  H8  UNL A   1      20.779  38.996  48.688  1.00  0.00    +0.000 H 
ATOM    109  H12 UNL A   1      21.767  36.547  45.450  1.00  0.00    +0.000 H 
ATOM     14  C12 UNL A   1      22.030  37.286  46.120  1.00  0.00    +0.000 C 
ATOM     15  C13 UNL A   1      23.299  37.884  46.015  1.00  0.00    +0.000 C 
ATOM     18  C15 UNL A   1      23.659  38.914  46.914  1.00  0.00    +0.000 C 
BRANCH    9    8
ATOM    104  H7  UNL A   1      23.619  40.106  49.710  1.00  0.00    +0.000 H 
ATOM      8  C7  UNL A   1      22.976  40.340  48.938  1.00  0.00    +0.000 C 
BRANCH    8    7
ATOM    103  H6  UNL A   1      21.467  41.643  49.327  1.00  0.00    +0.000 H 
ATOM      7  C6  UNL A   1      22.411  41.560  48.919  1.00  0.00    +0.000 C 
BRANCH    7    6
ATOM     97  C71 UNL A   1      25.046  43.950  47.637  1.00  0.00    +0.000 C 
ATOM      3  C2  UNL A   1      24.313  45.097  47.342  1.00  0.00    +0.000 C 
ATOM      4  C3  UNL A   1      22.933  45.085  47.548  1.00  0.00    +0.000 C 
ATOM    101  H4  UNL A   1      22.378  45.927  47.329  1.00  0.00    +0.000 H 
ATOM      5  C4  UNL A   1      22.289  43.944  48.049  1.00  0.00    +0.000 C 
ATOM    102  H5  UNL A   1      21.266  43.954  48.183  1.00  0.00    +0.000 H 
ATOM      6  C5  UNL A   1      23.017  42.792  48.369  1.00  0.00    +0.000 C 
ATOM    143  H46 UNL A   1      24.960  41.970  48.361  1.00  0.00    +0.000 H 
ATOM    144  H47 UNL A   1      26.066  43.937  47.480  1.00  0.00    +0.000 H 
ATOM     96  C70 UNL A   1      24.402  42.811  48.146  1.00  0.00    +0.000 C 
BRANCH    3    2
ATOM      2  O1  UNL A   1      24.822  46.283  46.891  1.00  0.00    +0.000 O 
BRANCH    2    1
ATOM      1  C1  UNL A   1      24.075  47.455  47.190  1.00  0.00    +0.000 C 
ATOM     98  H1  UNL A   1      23.075  47.343  46.827  1.00  0.00    +0.000 H 
ATOM     99  H2  UNL A   1      24.532  48.301  46.721  1.00  0.00    +0.000 H 
ATOM    100  H3  UNL A   1      24.053  47.604  48.250  1.00  0.00    +0.000 H 
ENDBRANCH    2    1
ENDBRANCH    3    2
ENDBRANCH    7    6
ENDBRANCH    8    7
ENDBRANCH    9    8
BRANCH   11   12
ATOM     12  O2  UNL A   1      19.890  37.099  47.301  1.00  0.00    +0.000 O 
BRANCH   12   13
ATOM    106  H9  UNL A   1      17.980  37.029  46.567  1.00  0.00    +0.000 H 
ATOM    107  H10 UNL A   1      19.098  38.006  45.646  1.00  0.00    +0.000 H 
ATOM    108  H11 UNL A   1      18.489  38.585  47.177  1.00  0.00    +0.000 H 
ATOM     13  C11 UNL A   1      18.796  37.719  46.631  1.00  0.00    +0.000 C 
ENDBRANCH   12   13
ENDBRANCH   11   12
BRANCH   15   16
ATOM     16  O3  UNL A   1      24.012  37.271  45.020  1.00  0.00    +0.000 O 
BRANCH   16   17
ATOM     17  C14 UNL A   1      23.413  36.433  44.051  1.00  0.00    +0.000 C 
ATOM    110  H13 UNL A   1      23.961  36.500  43.134  1.00  0.00    +0.000 H 
ATOM    111  H14 UNL A   1      22.402  36.743  43.888  1.00  0.00    +0.000 H 
ATOM    112  H15 UNL A   1      23.425  35.421  44.399  1.00  0.00    +0.000 H 
ENDBRANCH   16   17
ENDBRANCH   15   16
ENDBRANCH   19   18
ENDBRANCH   20   19
ENDBRANCH   21   20
ENDBRANCH   23   21
ENDBRANCH   24   23
ENDBRANCH   25   24
ENDBRANCH   26   25
ENDBRANCH   27   26
ENDBRANCH   28   27
ENDBRANCH   29   28
ENDBRANCH   30   29
ENDBRANCH   31   30
ENDBRANCH   33   31
ENDBRANCH   37   36
BRANCH   41   42
ATOM     42  C34 UNL A   1      21.319  36.767  52.115  1.00  0.00    +0.000 C 
ATOM     43  C35 UNL A   1      20.165  37.536  51.901  1.00  0.00    +0.000 C 
ATOM     44  F1  UNL A   1      19.983  38.170  50.733  1.00  0.00    +0.000 F 
ATOM     45  C36 UNL A   1      19.203  37.675  52.899  1.00  0.00    +0.000 C 
ATOM     46  F2  UNL A   1      18.125  38.443  52.684  1.00  0.00    +0.000 F 
ATOM     47  C37 UNL A   1      19.359  37.025  54.114  1.00  0.00    +0.000 C 
ATOM     48  F3  UNL A   1      18.424  37.147  55.065  1.00  0.00    +0.000 F 
ATOM     49  C38 UNL A   1      20.487  36.251  54.342  1.00  0.00    +0.000 C 
ATOM     50  F4  UNL A   1      20.632  35.611  55.511  1.00  0.00    +0.000 F 
ATOM     51  C39 UNL A   1      21.463  36.132  53.358  1.00  0.00    +0.000 C 
ATOM     52  F5  UNL A   1      22.545  35.380  53.613  1.00  0.00    +0.000 F 
ENDBRANCH   41   42
BRANCH   58   59
ATOM     65  F8  UNL A   1      19.850  29.848  44.197  1.00  0.00    +0.000 F 
ATOM     66  C49 UNL A   1      20.363  32.103  44.680  1.00  0.00    +0.000 C 
ATOM     67  F9  UNL A   1      19.413  32.515  43.831  1.00  0.00    +0.000 F 
ATOM     68  C50 UNL A   1      21.136  33.036  45.364  1.00  0.00    +0.000 C 
ATOM     69  F10 UNL A   1      20.915  34.341  45.143  1.00  0.00    +0.000 F 
ATOM     59  C45 UNL A   1      22.121  32.629  46.278  1.00  0.00    +0.000 C 
ATOM     60  C46 UNL A   1      22.305  31.253  46.476  1.00  0.00    +0.000 C 
ATOM     61  F6  UNL A   1      23.243  30.813  47.327  1.00  0.00    +0.000 F 
ATOM     62  C47 UNL A   1      21.552  30.322  45.765  1.00  0.00    +0.000 C 
ATOM     63  F7  UNL A   1      21.781  29.011  45.933  1.00  0.00    +0.000 F 
ATOM     64  C48 UNL A   1      20.578  30.747  44.875  1.00  0.00    +0.000 C 
ENDBRANCH   58   59
BRANCH   73   74
ATOM     74  C54 UNL A   1      28.539  35.193  45.403  1.00  0.00    +0.000 C 
ATOM     75  C55 UNL A   1      29.340  34.053  45.555  1.00  0.00    +0.000 C 
ATOM     76  F11 UNL A   1      29.120  33.210  46.576  1.00  0.00    +0.000 F 
ATOM     77  C56 UNL A   1      30.403  33.798  44.691  1.00  0.00    +0.000 C 
ATOM     78  F12 UNL A   1      31.188  32.731  44.893  1.00  0.00    +0.000 F 
ATOM     79  C57 UNL A   1      30.662  34.659  43.635  1.00  0.00    +0.000 C 
ATOM     80  F13 UNL A   1      31.685  34.415  42.805  1.00  0.00    +0.000 F 
ATOM     81  C58 UNL A   1      29.867  35.779  43.448  1.00  0.00    +0.000 C 
ATOM     82  F14 UNL A   1      30.104  36.604  42.419  1.00  0.00    +0.000 F 
ATOM     83  C59 UNL A   1      28.824  36.051  44.332  1.00  0.00    +0.000 C 
ATOM     84  F15 UNL A   1      28.083  37.151  44.136  1.00  0.00    +0.000 F 
ENDBRANCH   73   74
TORSDOF 26
ENDMDL
MODEL 8
REMARK VINA RESULT:      -8.1     15.777     21.321
ROOT
ATOM    131  H34 UNL A   1      28.401  34.732  43.030  1.00  0.00    +0.000 H 
ATOM    132  H35 UNL A   1      26.500  33.657  44.455  1.00  0.00    +0.000 H 
ATOM    133  H36 UNL A   1      30.137  32.629  46.148  1.00  0.00    +0.000 H 
ATOM    134  H37 UNL A   1      33.466  29.325  50.469  1.00  0.00    +0.000 H 
ATOM    135  H38 UNL A   1      35.305  30.425  49.106  1.00  0.00    +0.000 H 
ATOM    136  H39 UNL A   1      31.664  31.502  47.420  1.00  0.00    +0.000 H 
ATOM    137  H40 UNL A   1      28.122  29.456  50.341  1.00  0.00    +0.000 H 
ATOM    138  H41 UNL A   1      26.408  30.406  48.696  1.00  0.00    +0.000 H 
ATOM    139  H42 UNL A   1      33.739  34.927  43.522  1.00  0.00    +0.000 H 
ATOM    140  H43 UNL A   1      35.486  33.583  44.824  1.00  0.00    +0.000 H 
ATOM     37  C30 UNL A   1      34.379  31.992  46.921  1.00  0.00    +0.000 C 
ATOM     38  C31 UNL A   1      33.643  32.801  45.889  1.00  0.00    +0.000 C 
ATOM     39  N3  UNL A   1      32.352  32.950  45.724  1.00  0.00    +0.000 N 
ATOM     40  C32 UNL A   1      32.206  33.838  44.666  1.00  0.00    +0.000 C 
ATOM     41  C33 UNL A   1      31.064  34.272  44.081  1.00  0.00    +0.000 C 
ATOM     53  C40 UNL A   1      29.743  33.848  44.470  1.00  0.00    +0.000 C 
ATOM     54  C41 UNL A   1      28.531  34.160  43.880  1.00  0.00    +0.000 C 
ATOM     55  C42 UNL A   1      27.513  33.568  44.633  1.00  0.00    +0.000 C 
ATOM     56  C43 UNL A   1      28.094  32.842  45.660  1.00  0.00    +0.000 C 
ATOM     57  N4  UNL A   1      29.463  33.024  45.550  1.00  0.00    +0.000 N 
ATOM     58  C44 UNL A   1      27.449  32.042  46.669  1.00  0.00    +0.000 C 
ATOM     70  C51 UNL A   1      28.093  31.343  47.635  1.00  0.00    +0.000 C 
ATOM     71  N5  UNL A   1      29.456  31.235  47.872  1.00  0.00    +0.000 N 
ATOM     72  C52 UNL A   1      29.578  30.469  48.928  1.00  0.00    +0.000 C 
ATOM     73  C53 UNL A   1      30.829  29.992  49.617  1.00  0.00    +0.000 C 
ATOM     85  C60 UNL A   1      32.027  30.336  49.108  1.00  0.00    +0.000 C 
ATOM     86  C61 UNL A   1      33.321  29.942  49.654  1.00  0.00    +0.000 C 
ATOM     87  C62 UNL A   1      34.293  30.515  48.926  1.00  0.00    +0.000 C 
ATOM     88  C63 UNL A   1      33.692  31.286  47.839  1.00  0.00    +0.000 C 
ATOM     89  N6  UNL A   1      32.342  31.110  48.016  1.00  0.00    +0.000 N 
ATOM     90  C64 UNL A   1      28.298  30.025  49.498  1.00  0.00    +0.000 C 
ATOM     91  C65 UNL A   1      27.429  30.547  48.645  1.00  0.00    +0.000 C 
ATOM     92  C66 UNL A   1      33.536  34.227  44.252  1.00  0.00    +0.000 C 
ATOM     93  C67 UNL A   1      34.460  33.565  44.935  1.00  0.00    +0.000 C 
ENDROOT
BRANCH   37   36
ATOM     33  C26 UNL A   1      38.669  32.025  47.096  1.00  0.00    +0.000 C 
ATOM     34  C27 UNL A   1      38.019  31.276  46.112  1.00  0.00    +0.000 C 
ATOM     35  C28 UNL A   1      36.624  31.284  46.036  1.00  0.00    +0.000 C 
ATOM    129  H32 UNL A   1      38.569  30.717  45.441  1.00  0.00    +0.000 H 
ATOM    130  H33 UNL A   1      36.148  30.754  45.289  1.00  0.00    +0.000 H 
ATOM     36  C29 UNL A   1      35.865  32.008  46.969  1.00  0.00    +0.000 C 
ATOM    141  H44 UNL A   1      35.980  33.280  48.654  1.00  0.00    +0.000 H 
ATOM    142  H45 UNL A   1      38.399  33.426  48.654  1.00  0.00    +0.000 H 
ATOM     94  C68 UNL A   1      36.527  32.760  47.950  1.00  0.00    +0.000 C 
ATOM     95  C69 UNL A   1      37.920  32.810  47.979  1.00  0.00    +0.000 C 
BRANCH   33   31
ATOM     31  C25 UNL A   1      40.151  32.014  47.134  1.00  0.00    +0.000 C 
ATOM     32  O5  UNL A   1      40.735  31.325  47.966  1.00  0.00    +0.000 O 
BRANCH   31   30
ATOM     30  N2  UNL A   1      40.876  32.757  46.236  1.00  0.00    +0.000 N 
ATOM    128  H31 UNL A   1      41.648  32.305  45.825  1.00  0.00    +0.000 H 
BRANCH   30   29
ATOM     29  C24 UNL A   1      40.646  34.130  45.818  1.00  0.00    +0.000 C 
ATOM    126  H29 UNL A   1      40.032  34.617  46.546  1.00  0.00    +0.000 H 
ATOM    127  H30 UNL A   1      41.595  34.618  45.732  1.00  0.00    +0.000 H 
BRANCH   29   28
ATOM    124  H27 UNL A   1      40.494  34.873  43.841  1.00  0.00    +0.000 H 
ATOM     28  C23 UNL A   1      39.951  34.192  44.464  1.00  0.00    +0.000 C 
ATOM    125  H28 UNL A   1      39.942  33.192  44.082  1.00  0.00    +0.000 H 
BRANCH   28   27
ATOM    122  H25 UNL A   1      38.312  35.278  43.666  1.00  0.00    +0.000 H 
ATOM     27  C22 UNL A   1      38.493  34.651  44.515  1.00  0.00    +0.000 C 
ATOM    123  H26 UNL A   1      37.899  33.760  44.519  1.00  0.00    +0.000 H 
BRANCH   27   26
ATOM    121  H24 UNL A   1      38.833  36.208  45.881  1.00  0.00    +0.000 H 
ATOM     26  C21 UNL A   1      38.105  35.432  45.776  1.00  0.00    +0.000 C 
ATOM    120  H23 UNL A   1      38.089  34.747  46.598  1.00  0.00    +0.000 H 
BRANCH   26   25
ATOM     25  C20 UNL A   1      36.743  36.131  45.715  1.00  0.00    +0.000 C 
ATOM    118  H21 UNL A   1      36.885  37.110  45.305  1.00  0.00    +0.000 H 
ATOM    119  H22 UNL A   1      36.107  35.521  45.109  1.00  0.00    +0.000 H 
BRANCH   25   24
ATOM    116  H19 UNL A   1      36.131  35.344  47.595  1.00  0.00    +0.000 H 
ATOM    117  H20 UNL A   1      36.549  37.054  47.615  1.00  0.00    +0.000 H 
ATOM     24  C19 UNL A   1      36.060  36.273  47.070  1.00  0.00    +0.000 C 
BRANCH   24   23
ATOM    115  H18 UNL A   1      34.233  36.321  46.086  1.00  0.00    +0.000 H 
ATOM     23  N1  UNL A   1      34.664  36.623  46.919  1.00  0.00    +0.000 N 
BRANCH   23   21
ATOM     21  C18 UNL A   1      33.872  37.315  47.779  1.00  0.00    +0.000 C 
ATOM     22  O4  UNL A   1      34.347  37.895  48.747  1.00  0.00    +0.000 O 
BRANCH   21   20
ATOM    114  H17 UNL A   1      31.879  38.201  47.711  1.00  0.00    +0.000 H 
ATOM     20  C17 UNL A   1      32.412  37.331  47.555  1.00  0.00    +0.000 C 
BRANCH   20   19
ATOM    113  H16 UNL A   1      31.928  35.881  46.190  1.00  0.00    +0.000 H 
ATOM     19  C16 UNL A   1      31.776  36.221  47.152  1.00  0.00    +0.000 C 
BRANCH   19   18
ATOM      9  C8  UNL A   1      29.465  35.638  47.868  1.00  0.00    +0.000 C 
ATOM     10  C9  UNL A   1      28.570  34.995  48.740  1.00  0.00    +0.000 C 
ATOM     11  C10 UNL A   1      29.032  34.200  49.783  1.00  0.00    +0.000 C 
ATOM    105  H8  UNL A   1      27.554  35.116  48.605  1.00  0.00    +0.000 H 
ATOM    109  H12 UNL A   1      30.746  33.398  50.684  1.00  0.00    +0.000 H 
ATOM     14  C12 UNL A   1      30.401  34.014  49.931  1.00  0.00    +0.000 C 
ATOM     15  C13 UNL A   1      31.332  34.643  49.083  1.00  0.00    +0.000 C 
ATOM     18  C15 UNL A   1      30.870  35.470  48.035  1.00  0.00    +0.000 C 
BRANCH    9    8
ATOM    104  H7  UNL A   1      29.263  36.549  45.909  1.00  0.00    +0.000 H 
ATOM      8  C7  UNL A   1      28.843  36.513  46.851  1.00  0.00    +0.000 C 
BRANCH    8    7
ATOM    103  H6  UNL A   1      27.899  38.120  47.659  1.00  0.00    +0.000 H 
ATOM      7  C6  UNL A   1      27.757  37.265  47.099  1.00  0.00    +0.000 C 
BRANCH    7    6
ATOM     97  C71 UNL A   1      23.981  37.080  47.131  1.00  0.00    +0.000 C 
ATOM      3  C2  UNL A   1      23.685  36.472  45.913  1.00  0.00    +0.000 C 
ATOM      4  C3  UNL A   1      24.735  36.132  45.058  1.00  0.00    +0.000 C 
ATOM    101  H4  UNL A   1      24.529  35.685  44.151  1.00  0.00    +0.000 H 
ATOM      5  C4  UNL A   1      26.067  36.390  45.415  1.00  0.00    +0.000 C 
ATOM    102  H5  UNL A   1      26.827  36.140  44.763  1.00  0.00    +0.000 H 
ATOM      6  C5  UNL A   1      26.379  36.981  46.645  1.00  0.00    +0.000 C 
ATOM    143  H46 UNL A   1      25.515  37.779  48.398  1.00  0.00    +0.000 H 
ATOM    144  H47 UNL A   1      23.216  37.347  47.770  1.00  0.00    +0.000 H 
ATOM     96  C70 UNL A   1      25.314  37.330  47.491  1.00  0.00    +0.000 C 
BRANCH    3    2
ATOM      2  O1  UNL A   1      22.439  36.129  45.466  1.00  0.00    +0.000 O 
BRANCH    2    1
ATOM      1  C1  UNL A   1      21.358  36.330  46.368  1.00  0.00    +0.000 C 
ATOM     98  H1  UNL A   1      20.510  36.700  45.830  1.00  0.00    +0.000 H 
ATOM     99  H2  UNL A   1      21.644  37.040  47.115  1.00  0.00    +0.000 H 
ATOM    100  H3  UNL A   1      21.106  35.401  46.835  1.00  0.00    +0.000 H 
ENDBRANCH    2    1
ENDBRANCH    3    2
ENDBRANCH    7    6
ENDBRANCH    8    7
ENDBRANCH    9    8
BRANCH   11   12
ATOM     12  O2  UNL A   1      28.067  33.666  50.593  1.00  0.00    +0.000 O 
BRANCH   12   13
ATOM    106  H9  UNL A   1      29.439  32.475  51.536  1.00  0.00    +0.000 H 
ATOM    107  H10 UNL A   1      27.788  32.285  52.078  1.00  0.00    +0.000 H 
ATOM    108  H11 UNL A   1      28.701  33.702  52.538  1.00  0.00    +0.000 H 
ATOM     13  C11 UNL A   1      28.527  32.990  51.759  1.00  0.00    +0.000 C 
ENDBRANCH   12   13
ENDBRANCH   11   12
BRANCH   15   16
ATOM     16  O3  UNL A   1      32.603  34.350  49.503  1.00  0.00    +0.000 O 
BRANCH   16   17
ATOM     17  C14 UNL A   1      32.871  33.600  50.671  1.00  0.00    +0.000 C 
ATOM    110  H13 UNL A   1      33.876  33.232  50.636  1.00  0.00    +0.000 H 
ATOM    111  H14 UNL A   1      32.191  32.776  50.730  1.00  0.00    +0.000 H 
ATOM    112  H15 UNL A   1      32.751  34.225  51.531  1.00  0.00    +0.000 H 
ENDBRANCH   16   17
ENDBRANCH   15   16
ENDBRANCH   19   18
ENDBRANCH   20   19
ENDBRANCH   21   20
ENDBRANCH   23   21
ENDBRANCH   24   23
ENDBRANCH   25   24
ENDBRANCH   26   25
ENDBRANCH   27   26
ENDBRANCH   28   27
ENDBRANCH   29   28
ENDBRANCH   30   29
ENDBRANCH   31   30
ENDBRANCH   33   31
ENDBRANCH   37   36
BRANCH   41   42
ATOM     42  C34 UNL A   1      31.180  35.256  42.955  1.00  0.00    +0.000 C 
ATOM     43  C35 UNL A   1      31.039  36.636  43.163  1.00  0.00    +0.000 C 
ATOM     44  F1  UNL A   1      30.717  37.106  44.378  1.00  0.00    +0.000 F 
ATOM     45  C36 UNL A   1      31.206  37.539  42.116  1.00  0.00    +0.000 C 
ATOM     46  F2  UNL A   1      31.032  38.851  42.332  1.00  0.00    +0.000 F 
ATOM     47  C37 UNL A   1      31.547  37.085  40.851  1.00  0.00    +0.000 C 
ATOM     48  F3  UNL A   1      31.723  37.957  39.849  1.00  0.00    +0.000 F 
ATOM     49  C38 UNL A   1      31.702  35.726  40.625  1.00  0.00    +0.000 C 
ATOM     50  F4  UNL A   1      32.045  35.286  39.406  1.00  0.00    +0.000 F 
ATOM     51  C39 UNL A   1      31.509  34.819  41.663  1.00  0.00    +0.000 C 
ATOM     52  F5  UNL A   1      31.660  33.509  41.410  1.00  0.00    +0.000 F 
ENDBRANCH   41   42
BRANCH   58   59
ATOM     65  F8  UNL A   1      21.808  31.713  46.639  1.00  0.00    +0.000 F 
ATOM     66  C49 UNL A   1      23.779  32.866  47.245  1.00  0.00    +0.000 C 
ATOM     67  F9  UNL A   1      23.053  33.824  47.836  1.00  0.00    +0.000 F 
ATOM     68  C50 UNL A   1      25.168  32.956  47.230  1.00  0.00    +0.000 C 
ATOM     69  F10 UNL A   1      25.750  34.020  47.805  1.00  0.00    +0.000 F 
ATOM     59  C45 UNL A   1      25.951  31.952  46.640  1.00  0.00    +0.000 C 
ATOM     60  C46 UNL A   1      25.291  30.858  46.061  1.00  0.00    +0.000 C 
ATOM     61  F6  UNL A   1      25.993  29.881  45.470  1.00  0.00    +0.000 F 
ATOM     62  C47 UNL A   1      23.900  30.788  46.048  1.00  0.00    +0.000 C 
ATOM     63  F7  UNL A   1      23.290  29.759  45.444  1.00  0.00    +0.000 F 
ATOM     64  C48 UNL A   1      23.147  31.787  46.646  1.00  0.00    +0.000 C 
ENDBRANCH   58   59
BRANCH   73   74
ATOM     74  C54 UNL A   1      30.751  29.146  50.837  1.00  0.00    +0.000 C 
ATOM     75  C55 UNL A   1      30.563  27.760  50.745  1.00  0.00    +0.000 C 
ATOM     76  F11 UNL A   1      30.452  27.177  49.541  1.00  0.00    +0.000 F 
ATOM     77  C56 UNL A   1      30.437  26.972  51.887  1.00  0.00    +0.000 C 
ATOM     78  F12 UNL A   1      30.202  25.658  51.770  1.00  0.00    +0.000 F 
ATOM     79  C57 UNL A   1      30.535  27.549  53.144  1.00  0.00    +0.000 C 
ATOM     80  F13 UNL A   1      30.414  26.792  54.242  1.00  0.00    +0.000 F 
ATOM     81  C58 UNL A   1      30.748  28.914  53.261  1.00  0.00    +0.000 C 
ATOM     82  F14 UNL A   1      30.860  29.473  54.473  1.00  0.00    +0.000 F 
ATOM     83  C59 UNL A   1      30.841  29.708  52.118  1.00  0.00    +0.000 C 
ATOM     84  F15 UNL A   1      31.029  31.027  52.263  1.00  0.00    +0.000 F 
ENDBRANCH   73   74
TORSDOF 26
ENDMDL
MODEL 9
REMARK VINA RESULT:      -8.1     19.797     27.560
ROOT
ATOM    131  H34 UNL A   1      60.984  16.886  13.720  1.00  0.00    +0.000 H 
ATOM    132  H35 UNL A   1      61.070  18.336  15.886  1.00  0.00    +0.000 H 
ATOM    133  H36 UNL A   1      57.357  18.847  14.123  1.00  0.00    +0.000 H 
ATOM    134  H37 UNL A   1      51.707  21.796  13.934  1.00  0.00    +0.000 H 
ATOM    135  H38 UNL A   1      51.616  20.336  11.858  1.00  0.00    +0.000 H 
ATOM    136  H39 UNL A   1      55.329  19.777  13.636  1.00  0.00    +0.000 H 
ATOM    137  H40 UNL A   1      55.284  22.535  17.838  1.00  0.00    +0.000 H 
ATOM    138  H41 UNL A   1      57.706  21.788  18.193  1.00  0.00    +0.000 H 
ATOM    139  H42 UNL A   1      57.156  15.847  10.108  1.00  0.00    +0.000 H 
ATOM    140  H43 UNL A   1      54.947  16.958   9.444  1.00  0.00    +0.000 H 
ATOM     37  C30 UNL A   1      53.974  18.822  11.375  1.00  0.00    +0.000 C 
ATOM     38  C31 UNL A   1      55.287  18.089  11.380  1.00  0.00    +0.000 C 
ATOM     39  N3  UNL A   1      56.261  18.144  12.255  1.00  0.00    +0.000 N 
ATOM     40  C32 UNL A   1      57.215  17.235  11.817  1.00  0.00    +0.000 C 
ATOM     41  C33 UNL A   1      58.428  16.962  12.353  1.00  0.00    +0.000 C 
ATOM     53  C40 UNL A   1      58.964  17.617  13.519  1.00  0.00    +0.000 C 
ATOM     54  C41 UNL A   1      60.219  17.475  14.085  1.00  0.00    +0.000 C 
ATOM     55  C42 UNL A   1      60.271  18.267  15.236  1.00  0.00    +0.000 C 
ATOM     56  C43 UNL A   1      59.069  18.944  15.356  1.00  0.00    +0.000 C 
ATOM     57  N4  UNL A   1      58.275  18.534  14.298  1.00  0.00    +0.000 N 
ATOM     58  C44 UNL A   1      58.671  19.894  16.363  1.00  0.00    +0.000 C 
ATOM     70  C51 UNL A   1      57.476  20.531  16.402  1.00  0.00    +0.000 C 
ATOM     71  N5  UNL A   1      56.403  20.427  15.527  1.00  0.00    +0.000 N 
ATOM     72  C52 UNL A   1      55.474  21.220  16.001  1.00  0.00    +0.000 C 
ATOM     73  C53 UNL A   1      54.109  21.523  15.444  1.00  0.00    +0.000 C 
ATOM     85  C60 UNL A   1      53.739  20.960  14.278  1.00  0.00    +0.000 C 
ATOM     86  C61 UNL A   1      52.458  21.166  13.610  1.00  0.00    +0.000 C 
ATOM     87  C62 UNL A   1      52.415  20.403  12.507  1.00  0.00    +0.000 C 
ATOM     88  C63 UNL A   1      53.679  19.681  12.369  1.00  0.00    +0.000 C 
ATOM     89  N6  UNL A   1      54.411  20.085  13.458  1.00  0.00    +0.000 N 
ATOM     90  C64 UNL A   1      55.846  21.899  17.251  1.00  0.00    +0.000 C 
ATOM     91  C65 UNL A   1      57.090  21.479  17.425  1.00  0.00    +0.000 C 
ATOM     92  C66 UNL A   1      56.690  16.610  10.622  1.00  0.00    +0.000 C 
ATOM     93  C67 UNL A   1      55.529  17.149  10.275  1.00  0.00    +0.000 C 
ENDROOT
BRANCH   37   36
ATOM     33  C26 UNL A   1      51.056  18.087   8.313  1.00  0.00    +0.000 C 
ATOM     34  C27 UNL A   1      51.993  19.110   8.150  1.00  0.00    +0.000 C 
ATOM     35  C28 UNL A   1      52.960  19.336   9.132  1.00  0.00    +0.000 C 
ATOM    129  H32 UNL A   1      51.971  19.701   7.303  1.00  0.00    +0.000 H 
ATOM    130  H33 UNL A   1      53.670  20.072   8.994  1.00  0.00    +0.000 H 
ATOM     36  C29 UNL A   1      52.974  18.566  10.306  1.00  0.00    +0.000 C 
ATOM    141  H44 UNL A   1      52.019  16.978  11.326  1.00  0.00    +0.000 H 
ATOM    142  H45 UNL A   1      50.476  16.461   9.530  1.00  0.00    +0.000 H 
ATOM     94  C68 UNL A   1      52.032  17.538  10.459  1.00  0.00    +0.000 C 
ATOM     95  C69 UNL A   1      51.114  17.267   9.445  1.00  0.00    +0.000 C 
BRANCH   33   31
ATOM     31  C25 UNL A   1      50.058  17.859   7.240  1.00  0.00    +0.000 C 
ATOM     32  O5  UNL A   1      48.995  18.475   7.254  1.00  0.00    +0.000 O 
BRANCH   31   30
ATOM     30  N2  UNL A   1      50.319  16.976   6.223  1.00  0.00    +0.000 N 
ATOM    128  H31 UNL A   1      51.134  16.433   6.323  1.00  0.00    +0.000 H 
BRANCH   30   29
ATOM     29  C24 UNL A   1      49.542  16.743   5.017  1.00  0.00    +0.000 C 
ATOM    126  H29 UNL A   1      48.606  17.256   5.102  1.00  0.00    +0.000 H 
ATOM    127  H30 UNL A   1      50.102  17.110   4.182  1.00  0.00    +0.000 H 
BRANCH   29   28
ATOM    124  H27 UNL A   1      49.921  14.916   4.019  1.00  0.00    +0.000 H 
ATOM     28  C23 UNL A   1      49.277  15.260   4.801  1.00  0.00    +0.000 C 
ATOM    125  H28 UNL A   1      49.463  14.778   5.739  1.00  0.00    +0.000 H 
BRANCH   28   27
ATOM    122  H25 UNL A   1      47.621  15.388   3.480  1.00  0.00    +0.000 H 
ATOM     27  C22 UNL A   1      47.836  14.918   4.417  1.00  0.00    +0.000 C 
ATOM    123  H26 UNL A   1      47.782  13.850   4.378  1.00  0.00    +0.000 H 
BRANCH   27   26
ATOM    121  H24 UNL A   1      47.008  16.379   5.678  1.00  0.00    +0.000 H 
ATOM     26  C21 UNL A   1      46.774  15.365   5.429  1.00  0.00    +0.000 C 
ATOM    120  H23 UNL A   1      46.813  14.699   6.266  1.00  0.00    +0.000 H 
BRANCH   26   25
ATOM     25  C20 UNL A   1      45.336  15.378   4.900  1.00  0.00    +0.000 C 
ATOM    118  H21 UNL A   1      45.364  15.602   3.854  1.00  0.00    +0.000 H 
ATOM    119  H22 UNL A   1      44.922  14.414   5.103  1.00  0.00    +0.000 H 
BRANCH   25   24
ATOM    116  H19 UNL A   1      44.780  16.552   6.586  1.00  0.00    +0.000 H 
ATOM    117  H20 UNL A   1      44.475  17.313   5.028  1.00  0.00    +0.000 H 
ATOM     24  C19 UNL A   1      44.436  16.400   5.585  1.00  0.00    +0.000 C 
BRANCH   24   23
ATOM    115  H18 UNL A   1      42.919  14.993   5.414  1.00  0.00    +0.000 H 
ATOM     23  N1  UNL A   1      43.062  15.945   5.623  1.00  0.00    +0.000 N 
BRANCH   23   21
ATOM     21  C18 UNL A   1      41.945  16.663   5.910  1.00  0.00    +0.000 C 
ATOM     22  O4  UNL A   1      41.146  16.277   6.755  1.00  0.00    +0.000 O 
BRANCH   21   20
ATOM    114  H17 UNL A   1      42.100  18.794   5.474  1.00  0.00    +0.000 H 
ATOM     20  C17 UNL A   1      41.679  17.907   5.160  1.00  0.00    +0.000 C 
BRANCH   20   19
ATOM    113  H16 UNL A   1      40.158  17.166   4.002  1.00  0.00    +0.000 H 
ATOM     19  C16 UNL A   1      40.892  17.888   4.074  1.00  0.00    +0.000 C 
BRANCH   19   18
ATOM      9  C8  UNL A   1      39.932  19.709   2.674  1.00  0.00    +0.000 C 
ATOM     10  C9  UNL A   1      40.006  20.600   1.591  1.00  0.00    +0.000 C 
ATOM     11  C10 UNL A   1      41.144  20.666   0.794  1.00  0.00    +0.000 C 
ATOM    105  H8  UNL A   1      39.204  21.214   1.382  1.00  0.00    +0.000 H 
ATOM    109  H12 UNL A   1      43.090  19.932   0.539  1.00  0.00    +0.000 H 
ATOM     14  C12 UNL A   1      42.232  19.861   1.109  1.00  0.00    +0.000 C 
ATOM     15  C13 UNL A   1      42.198  18.951   2.182  1.00  0.00    +0.000 C 
ATOM     18  C15 UNL A   1      41.037  18.863   2.982  1.00  0.00    +0.000 C 
BRANCH    9    8
ATOM    104  H7  UNL A   1      38.633  19.868   4.406  1.00  0.00    +0.000 H 
ATOM      8  C7  UNL A   1      38.637  19.685   3.390  1.00  0.00    +0.000 C 
BRANCH    8    7
ATOM    103  H6  UNL A   1      37.033  18.517   2.958  1.00  0.00    +0.000 H 
ATOM      7  C6  UNL A   1      37.468  19.436   2.778  1.00  0.00    +0.000 C 
BRANCH    7    6
ATOM     97  C71 UNL A   1      36.146  20.937  -0.430  1.00  0.00    +0.000 C 
ATOM      3  C2  UNL A   1      35.429  22.046   0.013  1.00  0.00    +0.000 C 
ATOM      4  C3  UNL A   1      35.360  22.298   1.384  1.00  0.00    +0.000 C 
ATOM    101  H4  UNL A   1      34.828  23.114   1.725  1.00  0.00    +0.000 H 
ATOM      5  C4  UNL A   1      36.004  21.459   2.305  1.00  0.00    +0.000 C 
ATOM    102  H5  UNL A   1      35.931  21.659   3.314  1.00  0.00    +0.000 H 
ATOM      6  C5  UNL A   1      36.746  20.353   1.870  1.00  0.00    +0.000 C 
ATOM    143  H46 UNL A   1      37.326  19.286   0.145  1.00  0.00    +0.000 H 
ATOM    144  H47 UNL A   1      36.197  20.729  -1.440  1.00  0.00    +0.000 H 
ATOM     96  C70 UNL A   1      36.797  20.102   0.490  1.00  0.00    +0.000 C 
BRANCH    3    2
ATOM      2  O1  UNL A   1      34.793  22.963  -0.778  1.00  0.00    +0.000 O 
BRANCH    2    1
ATOM      1  C1  UNL A   1      35.601  23.672  -1.710  1.00  0.00    +0.000 C 
ATOM     98  H1  UNL A   1      36.393  23.039  -2.050  1.00  0.00    +0.000 H 
ATOM     99  H2  UNL A   1      36.015  24.538  -1.236  1.00  0.00    +0.000 H 
ATOM    100  H3  UNL A   1      35.002  23.973  -2.544  1.00  0.00    +0.000 H 
ENDBRANCH    2    1
ENDBRANCH    3    2
ENDBRANCH    7    6
ENDBRANCH    8    7
ENDBRANCH    9    8
BRANCH   11   12
ATOM     12  O2  UNL A   1      41.080  21.537  -0.258  1.00  0.00    +0.000 O 
BRANCH   12   13
ATOM    106  H9  UNL A   1      39.587  21.560  -1.660  1.00  0.00    +0.000 H 
ATOM    107  H10 UNL A   1      39.706  22.997  -0.671  1.00  0.00    +0.000 H 
ATOM    108  H11 UNL A   1      39.050  21.525   0.003  1.00  0.00    +0.000 H 
ATOM     13  C11 UNL A   1      39.774  21.930  -0.672  1.00  0.00    +0.000 C 
ENDBRANCH   12   13
ENDBRANCH   11   12
BRANCH   15   16
ATOM     16  O3  UNL A   1      43.366  18.237   2.213  1.00  0.00    +0.000 O 
BRANCH   16   17
ATOM     17  C14 UNL A   1      44.591  18.788   2.658  1.00  0.00    +0.000 C 
ATOM    110  H13 UNL A   1      45.250  18.913   1.824  1.00  0.00    +0.000 H 
ATOM    111  H14 UNL A   1      45.039  18.131   3.374  1.00  0.00    +0.000 H 
ATOM    112  H15 UNL A   1      44.409  19.740   3.113  1.00  0.00    +0.000 H 
ENDBRANCH   16   17
ENDBRANCH   15   16
ENDBRANCH   19   18
ENDBRANCH   20   19
ENDBRANCH   21   20
ENDBRANCH   23   21
ENDBRANCH   24   23
ENDBRANCH   25   24
ENDBRANCH   26   25
ENDBRANCH   27   26
ENDBRANCH   28   27
ENDBRANCH   29   28
ENDBRANCH   30   29
ENDBRANCH   31   30
ENDBRANCH   33   31
ENDBRANCH   37   36
BRANCH   41   42
ATOM     42  C34 UNL A   1      59.270  15.911  11.692  1.00  0.00    +0.000 C 
ATOM     43  C35 UNL A   1      59.277  14.581  12.140  1.00  0.00    +0.000 C 
ATOM     44  F1  UNL A   1      58.580  14.233  13.231  1.00  0.00    +0.000 F 
ATOM     45  C36 UNL A   1      60.021  13.607  11.479  1.00  0.00    +0.000 C 
ATOM     46  F2  UNL A   1      60.040  12.350  11.945  1.00  0.00    +0.000 F 
ATOM     47  C37 UNL A   1      60.745  13.934  10.343  1.00  0.00    +0.000 C 
ATOM     48  F3  UNL A   1      61.447  12.991   9.698  1.00  0.00    +0.000 F 
ATOM     49  C38 UNL A   1      60.744  15.240   9.876  1.00  0.00    +0.000 C 
ATOM     50  F4  UNL A   1      61.432  15.555   8.770  1.00  0.00    +0.000 F 
ATOM     51  C39 UNL A   1      60.024  16.221  10.550  1.00  0.00    +0.000 C 
ATOM     52  F5  UNL A   1      60.048  17.477  10.077  1.00  0.00    +0.000 F 
ENDBRANCH   41   42
BRANCH   58   59
ATOM     65  F8  UNL A   1      62.336  21.147  20.477  1.00  0.00    +0.000 F 
ATOM     66  C49 UNL A   1      60.593  19.787  19.646  1.00  0.00    +0.000 C 
ATOM     67  F9  UNL A   1      60.603  19.062  20.773  1.00  0.00    +0.000 F 
ATOM     68  C50 UNL A   1      59.707  19.466  18.621  1.00  0.00    +0.000 C 
ATOM     69  F10 UNL A   1      58.885  18.419  18.785  1.00  0.00    +0.000 F 
ATOM     59  C45 UNL A   1      59.661  20.226  17.442  1.00  0.00    +0.000 C 
ATOM     60  C46 UNL A   1      60.537  21.315  17.326  1.00  0.00    +0.000 C 
ATOM     61  F6  UNL A   1      60.542  22.062  16.213  1.00  0.00    +0.000 F 
ATOM     62  C47 UNL A   1      61.445  21.612  18.339  1.00  0.00    +0.000 C 
ATOM     63  F7  UNL A   1      62.308  22.626  18.185  1.00  0.00    +0.000 F 
ATOM     64  C48 UNL A   1      61.467  20.854  19.500  1.00  0.00    +0.000 C 
ENDBRANCH   58   59
BRANCH   73   74
ATOM     74  C54 UNL A   1      53.180  22.437  16.161  1.00  0.00    +0.000 C 
ATOM     75  C55 UNL A   1      53.058  23.782  15.786  1.00  0.00    +0.000 C 
ATOM     76  F11 UNL A   1      53.785  24.263  14.766  1.00  0.00    +0.000 F 
ATOM     77  C56 UNL A   1      52.228  24.654  16.488  1.00  0.00    +0.000 C 
ATOM     78  F12 UNL A   1      52.173  25.948  16.144  1.00  0.00    +0.000 F 
ATOM     79  C57 UNL A   1      51.474  24.188  17.555  1.00  0.00    +0.000 C 
ATOM     80  F13 UNL A   1      50.677  25.025  18.231  1.00  0.00    +0.000 F 
ATOM     81  C58 UNL A   1      51.557  22.855  17.927  1.00  0.00    +0.000 C 
ATOM     82  F14 UNL A   1      50.819  22.397  18.947  1.00  0.00    +0.000 F 
ATOM     83  C59 UNL A   1      52.413  21.990  17.245  1.00  0.00    +0.000 C 
ATOM     84  F15 UNL A   1      52.486  20.712  17.640  1.00  0.00    +0.000 F 
ENDBRANCH   73   74
TORSDOF 26
ENDMDL
MODEL 10
REMARK VINA RESULT:      -8.1     39.170     44.882
ROOT
ATOM    131  H34 UNL A   1      -2.772   6.742  34.707  1.00  0.00    +0.000 H 
ATOM    132  H35 UNL A   1      -1.399   4.528  34.599  1.00  0.00    +0.000 H 
ATOM    133  H36 UNL A   1       0.924   7.411  36.453  1.00  0.00    +0.000 H 
ATOM    134  H37 UNL A   1       6.509   9.224  38.941  1.00  0.00    +0.000 H 
ATOM    135  H38 UNL A   1       5.140  11.358  39.092  1.00  0.00    +0.000 H 
ATOM    136  H39 UNL A   1       2.779   8.466  37.269  1.00  0.00    +0.000 H 
ATOM    137  H40 UNL A   1       5.516   4.250  37.247  1.00  0.00    +0.000 H 
ATOM    138  H41 UNL A   1       3.575   3.158  35.987  1.00  0.00    +0.000 H 
ATOM    139  H42 UNL A   1      -1.852  11.568  36.861  1.00  0.00    +0.000 H 
ATOM    140  H43 UNL A   1       0.232  12.830  37.648  1.00  0.00    +0.000 H 
ATOM     37  C30 UNL A   1       2.517  11.156  38.012  1.00  0.00    +0.000 C 
ATOM     38  C31 UNL A   1       1.176  10.777  37.447  1.00  0.00    +0.000 C 
ATOM     39  N3  UNL A   1       0.766   9.616  37.001  1.00  0.00    +0.000 N 
ATOM     40  C32 UNL A   1      -0.564   9.795  36.645  1.00  0.00    +0.000 C 
ATOM     41  C33 UNL A   1      -1.415   8.903  36.085  1.00  0.00    +0.000 C 
ATOM     53  C40 UNL A   1      -1.055   7.553  35.731  1.00  0.00    +0.000 C 
ATOM     54  C41 UNL A   1      -1.818   6.603  35.076  1.00  0.00    +0.000 C 
ATOM     55  C42 UNL A   1      -1.075   5.421  35.002  1.00  0.00    +0.000 C 
ATOM     56  C43 UNL A   1       0.171   5.651  35.561  1.00  0.00    +0.000 C 
ATOM     57  N4  UNL A   1       0.169   6.963  36.006  1.00  0.00    +0.000 N 
ATOM     58  C44 UNL A   1       1.282   4.743  35.681  1.00  0.00    +0.000 C 
ATOM     70  C51 UNL A   1       2.482   5.052  36.228  1.00  0.00    +0.000 C 
ATOM     71  N5  UNL A   1       2.908   6.254  36.775  1.00  0.00    +0.000 N 
ATOM     72  C52 UNL A   1       4.134   6.047  37.191  1.00  0.00    +0.000 C 
ATOM     73  C53 UNL A   1       5.092   7.008  37.840  1.00  0.00    +0.000 C 
ATOM     85  C60 UNL A   1       4.715   8.288  38.018  1.00  0.00    +0.000 C 
ATOM     86  C61 UNL A   1       5.533   9.335  38.620  1.00  0.00    +0.000 C 
ATOM     87  C62 UNL A   1       4.813  10.466  38.688  1.00  0.00    +0.000 C 
ATOM     88  C63 UNL A   1       3.494  10.235  38.102  1.00  0.00    +0.000 C 
ATOM     89  N6  UNL A   1       3.530   8.918  37.717  1.00  0.00    +0.000 N 
ATOM     90  C64 UNL A   1       4.615   4.674  36.977  1.00  0.00    +0.000 C 
ATOM     91  C65 UNL A   1       3.587   4.125  36.347  1.00  0.00    +0.000 C 
ATOM     92  C66 UNL A   1      -0.908  11.164  36.962  1.00  0.00    +0.000 C 
ATOM     93  C67 UNL A   1       0.150  11.831  37.402  1.00  0.00    +0.000 C 
ENDROOT
BRANCH   37   36
ATOM     33  C26 UNL A   1       3.233  15.116  39.511  1.00  0.00    +0.000 C 
ATOM     34  C27 UNL A   1       3.469  14.829  38.164  1.00  0.00    +0.000 C 
ATOM     35  C28 UNL A   1       3.213  13.548  37.667  1.00  0.00    +0.000 C 
ATOM    129  H32 UNL A   1       3.833  15.562  37.536  1.00  0.00    +0.000 H 
ATOM    130  H33 UNL A   1       3.359  13.348  36.665  1.00  0.00    +0.000 H 
ATOM     36  C29 UNL A   1       2.756  12.532  38.522  1.00  0.00    +0.000 C 
ATOM    141  H44 UNL A   1       2.202  12.088  40.513  1.00  0.00    +0.000 H 
ATOM    142  H45 UNL A   1       2.454  14.359  41.322  1.00  0.00    +0.000 H 
ATOM     94  C68 UNL A   1       2.518  12.831  39.871  1.00  0.00    +0.000 C 
ATOM     95  C69 UNL A   1       2.705  14.128  40.349  1.00  0.00    +0.000 C 
BRANCH   33   31
ATOM     31  C25 UNL A   1       3.493  16.491  40.001  1.00  0.00    +0.000 C 
ATOM     32  O5  UNL A   1       4.581  17.019  39.786  1.00  0.00    +0.000 O 
BRANCH   31   30
ATOM     30  N2  UNL A   1       2.522  17.183  40.679  1.00  0.00    +0.000 N 
ATOM    128  H31 UNL A   1       1.888  17.693  40.124  1.00  0.00    +0.000 H 
BRANCH   30   29
ATOM     29  C24 UNL A   1       2.313  17.258  42.115  1.00  0.00    +0.000 C 
ATOM    126  H29 UNL A   1       2.975  16.570  42.599  1.00  0.00    +0.000 H 
ATOM    127  H30 UNL A   1       2.511  18.261  42.431  1.00  0.00    +0.000 H 
BRANCH   29   28
ATOM    124  H27 UNL A   1       0.528  17.646  43.184  1.00  0.00    +0.000 H 
ATOM     28  C23 UNL A   1       0.879  16.911  42.490  1.00  0.00    +0.000 C 
ATOM    125  H28 UNL A   1       0.321  16.899  41.576  1.00  0.00    +0.000 H 
BRANCH   28   27
ATOM    122  H25 UNL A   1       1.629  15.006  43.046  1.00  0.00    +0.000 H 
ATOM     27  C22 UNL A   1       0.700  15.531  43.126  1.00  0.00    +0.000 C 
ATOM    123  H26 UNL A   1       0.397  15.705  44.137  1.00  0.00    +0.000 H 
BRANCH   27   26
ATOM    121  H24 UNL A   1      -0.058  14.438  41.502  1.00  0.00    +0.000 H 
ATOM     26  C21 UNL A   1      -0.394  14.664  42.492  1.00  0.00    +0.000 C 
ATOM    120  H23 UNL A   1      -1.310  15.217  42.516  1.00  0.00    +0.000 H 
BRANCH   26   25
ATOM     25  C20 UNL A   1      -0.636  13.316  43.179  1.00  0.00    +0.000 C 
ATOM    118  H21 UNL A   1      -0.231  13.365  44.168  1.00  0.00    +0.000 H 
ATOM    119  H22 UNL A   1      -1.692  13.150  43.174  1.00  0.00    +0.000 H 
BRANCH   25   24
ATOM    116  H19 UNL A   1      -0.756  11.602  41.924  1.00  0.00    +0.000 H 
ATOM    117  H20 UNL A   1       0.747  12.507  41.789  1.00  0.00    +0.000 H 
ATOM     24  C19 UNL A   1       0.002  12.133  42.459  1.00  0.00    +0.000 C 
BRANCH   24   23
ATOM    115  H18 UNL A   1       0.195  10.360  43.519  1.00  0.00    +0.000 H 
ATOM     23  N1  UNL A   1       0.638  11.231  43.395  1.00  0.00    +0.000 N 
BRANCH   23   21
ATOM     21  C18 UNL A   1       1.766  11.433  44.124  1.00  0.00    +0.000 C 
ATOM     22  O4  UNL A   1       1.976  10.798  45.150  1.00  0.00    +0.000 O 
BRANCH   21   20
ATOM    114  H17 UNL A   1       2.397  13.281  43.154  1.00  0.00    +0.000 H 
ATOM     20  C17 UNL A   1       2.729  12.462  43.686  1.00  0.00    +0.000 C 
BRANCH   20   19
ATOM    113  H16 UNL A   1       4.584  11.611  43.492  1.00  0.00    +0.000 H 
ATOM     19  C16 UNL A   1       4.033  12.338  43.975  1.00  0.00    +0.000 C 
BRANCH   19   18
ATOM      9  C8  UNL A   1       5.176  14.479  44.530  1.00  0.00    +0.000 C 
ATOM     10  C9  UNL A   1       5.889  15.301  45.419  1.00  0.00    +0.000 C 
ATOM     11  C10 UNL A   1       6.161  14.886  46.718  1.00  0.00    +0.000 C 
ATOM    105  H8  UNL A   1       6.216  16.227  45.102  1.00  0.00    +0.000 H 
ATOM    109  H12 UNL A   1       5.854  13.357  48.117  1.00  0.00    +0.000 H 
ATOM     14  C12 UNL A   1       5.681  13.653  47.143  1.00  0.00    +0.000 C 
ATOM     15  C13 UNL A   1       4.968  12.796  46.285  1.00  0.00    +0.000 C 
ATOM     18  C15 UNL A   1       4.707  13.202  44.957  1.00  0.00    +0.000 C 
BRANCH    9    8
ATOM    104  H7  UNL A   1       4.069  15.142  42.785  1.00  0.00    +0.000 H 
ATOM      8  C7  UNL A   1       5.022  15.009  43.158  1.00  0.00    +0.000 C 
BRANCH    8    7
ATOM    103  H6  UNL A   1       6.496  16.251  42.518  1.00  0.00    +0.000 H 
ATOM      7  C6  UNL A   1       6.067  15.323  42.374  1.00  0.00    +0.000 C 
BRANCH    7    6
ATOM     97  C71 UNL A   1       7.962  14.331  39.256  1.00  0.00    +0.000 C 
ATOM      3  C2  UNL A   1       7.828  12.945  39.235  1.00  0.00    +0.000 C 
ATOM      4  C3  UNL A   1       7.123  12.321  40.264  1.00  0.00    +0.000 C 
ATOM    101  H4  UNL A   1       7.020  11.294  40.262  1.00  0.00    +0.000 H 
ATOM      5  C4  UNL A   1       6.550  13.070  41.303  1.00  0.00    +0.000 C 
ATOM    102  H5  UNL A   1       6.042  12.587  42.059  1.00  0.00    +0.000 H 
ATOM      6  C5  UNL A   1       6.660  14.466  41.325  1.00  0.00    +0.000 C 
ATOM    143  H46 UNL A   1       7.490  16.107  40.291  1.00  0.00    +0.000 H 
ATOM    144  H47 UNL A   1       8.491  14.808  38.508  1.00  0.00    +0.000 H 
ATOM     96  C70 UNL A   1       7.383  15.081  40.291  1.00  0.00    +0.000 C 
BRANCH    3    2
ATOM      2  O1  UNL A   1       8.299  12.106  38.262  1.00  0.00    +0.000 O 
BRANCH    2    1
ATOM      1  C1  UNL A   1       7.673  12.188  36.988  1.00  0.00    +0.000 C 
ATOM     98  H1  UNL A   1       6.761  11.629  37.002  1.00  0.00    +0.000 H 
ATOM     99  H2  UNL A   1       8.327  11.787  36.242  1.00  0.00    +0.000 H 
ATOM    100  H3  UNL A   1       7.459  13.212  36.761  1.00  0.00    +0.000 H 
ENDBRANCH    2    1
ENDBRANCH    3    2
ENDBRANCH    7    6
ENDBRANCH    8    7
ENDBRANCH    9    8
BRANCH   11   12
ATOM     12  O2  UNL A   1       6.903  15.752  47.472  1.00  0.00    +0.000 O 
BRANCH   12   13
ATOM    106  H9  UNL A   1       6.094  17.555  46.939  1.00  0.00    +0.000 H 
ATOM    107  H10 UNL A   1       6.909  17.531  48.484  1.00  0.00    +0.000 H 
ATOM    108  H11 UNL A   1       5.343  16.777  48.311  1.00  0.00    +0.000 H 
ATOM     13  C11 UNL A   1       6.273  16.980  47.824  1.00  0.00    +0.000 C 
ENDBRANCH   12   13
ENDBRANCH   11   12
BRANCH   15   16
ATOM     16  O3  UNL A   1       4.689  11.625  46.937  1.00  0.00    +0.000 O 
BRANCH   16   17
ATOM     17  C14 UNL A   1       3.770  11.543  48.009  1.00  0.00    +0.000 C 
ATOM    110  H13 UNL A   1       3.558  12.527  48.373  1.00  0.00    +0.000 H 
ATOM    111  H14 UNL A   1       4.192  10.955  48.797  1.00  0.00    +0.000 H 
ATOM    112  H15 UNL A   1       2.864  11.087  47.669  1.00  0.00    +0.000 H 
ENDBRANCH   16   17
ENDBRANCH   15   16
ENDBRANCH   19   18
ENDBRANCH   20   19
ENDBRANCH   21   20
ENDBRANCH   23   21
ENDBRANCH   24   23
ENDBRANCH   25   24
ENDBRANCH   26   25
ENDBRANCH   27   26
ENDBRANCH   28   27
ENDBRANCH   29   28
ENDBRANCH   30   29
ENDBRANCH   31   30
ENDBRANCH   33   31
ENDBRANCH   37   36
BRANCH   41   42
ATOM     42  C34 UNL A   1      -2.822   9.346  35.812  1.00  0.00    +0.000 C 
ATOM     43  C35 UNL A   1      -3.216   9.820  34.552  1.00  0.00    +0.000 C 
ATOM     44  F1  UNL A   1      -2.311   9.962  33.572  1.00  0.00    +0.000 F 
ATOM     45  C36 UNL A   1      -4.540  10.173  34.301  1.00  0.00    +0.000 C 
ATOM     46  F2  UNL A   1      -4.885  10.657  33.099  1.00  0.00    +0.000 F 
ATOM     47  C37 UNL A   1      -5.499  10.030  35.292  1.00  0.00    +0.000 C 
ATOM     48  F3  UNL A   1      -6.775  10.354  35.042  1.00  0.00    +0.000 F 
ATOM     49  C38 UNL A   1      -5.134   9.552  36.541  1.00  0.00    +0.000 C 
ATOM     50  F4  UNL A   1      -6.063   9.400  37.496  1.00  0.00    +0.000 F 
ATOM     51  C39 UNL A   1      -3.808   9.224  36.804  1.00  0.00    +0.000 C 
ATOM     52  F5  UNL A   1      -3.486   8.771  38.025  1.00  0.00    +0.000 F 
ENDBRANCH   41   42
BRANCH   58   59
ATOM     65  F8  UNL A   1       0.598  -0.459  33.584  1.00  0.00    +0.000 F 
ATOM     66  C49 UNL A   1       1.249   1.791  33.280  1.00  0.00    +0.000 C 
ATOM     67  F9  UNL A   1       1.546   1.545  31.997  1.00  0.00    +0.000 F 
ATOM     68  C50 UNL A   1       1.439   3.065  33.806  1.00  0.00    +0.000 C 
ATOM     69  F10 UNL A   1       1.931   4.025  33.007  1.00  0.00    +0.000 F 
ATOM     59  C45 UNL A   1       1.112   3.353  35.140  1.00  0.00    +0.000 C 
ATOM     60  C46 UNL A   1       0.593   2.315  35.929  1.00  0.00    +0.000 C 
ATOM     61  F6  UNL A   1       0.279   2.535  37.213  1.00  0.00    +0.000 F 
ATOM     62  C47 UNL A   1       0.436   1.033  35.408  1.00  0.00    +0.000 C 
ATOM     63  F7  UNL A   1      -0.013   0.045  36.195  1.00  0.00    +0.000 F 
ATOM     64  C48 UNL A   1       0.757   0.774  34.084  1.00  0.00    +0.000 C 
ENDBRANCH   58   59
BRANCH   73   74
ATOM     74  C54 UNL A   1       6.442   6.561  38.274  1.00  0.00    +0.000 C 
ATOM     75  C55 UNL A   1       6.610   5.784  39.429  1.00  0.00    +0.000 C 
ATOM     76  F11 UNL A   1       5.541   5.431  40.160  1.00  0.00    +0.000 F 
ATOM     77  C56 UNL A   1       7.878   5.407  39.867  1.00  0.00    +0.000 C 
ATOM     78  F12 UNL A   1       8.013   4.712  41.005  1.00  0.00    +0.000 F 
ATOM     79  C57 UNL A   1       9.001   5.769  39.138  1.00  0.00    +0.000 C 
ATOM     80  F13 UNL A   1      10.220   5.408  39.559  1.00  0.00    +0.000 F 
ATOM     81  C58 UNL A   1       8.859   6.515  37.978  1.00  0.00    +0.000 C 
ATOM     82  F14 UNL A   1       9.940   6.852  37.262  1.00  0.00    +0.000 F 
ATOM     83  C59 UNL A   1       7.593   6.919  37.557  1.00  0.00    +0.000 C 
ATOM     84  F15 UNL A   1       7.488   7.655  36.442  1.00  0.00    +0.000 F 
ENDBRANCH   73   74
TORSDOF 26
ENDMDL
