MODEL 1
REMARK VINA RESULT:     -10.9      0.000      0.000
ROOT
ATOM     19  C15 UNL A   1      38.001  30.138  29.896  1.00  0.00    +0.000 C 
ATOM     20  C16 UNL A   1      39.030  29.200  29.329  1.00  0.00    +0.000 C 
ATOM     21  N3  UNL A   1      40.135  28.758  29.874  1.00  0.00    +0.000 N 
ATOM     22  C17 UNL A   1      40.700  27.898  28.942  1.00  0.00    +0.000 C 
ATOM     23  C18 UNL A   1      41.880  27.236  29.007  1.00  0.00    +0.000 C 
ATOM     35  C25 UNL A   1      42.795  27.313  30.117  1.00  0.00    +0.000 C 
ATOM     36  C26 UNL A   1      44.038  26.718  30.254  1.00  0.00    +0.000 C 
ATOM     37  C27 UNL A   1      44.544  27.046  31.516  1.00  0.00    +0.000 C 
ATOM     38  C28 UNL A   1      43.636  27.880  32.149  1.00  0.00    +0.000 C 
ATOM     39  N4  UNL A   1      42.566  28.030  31.281  1.00  0.00    +0.000 N 
ATOM     40  C29 UNL A   1      43.736  28.494  33.446  1.00  0.00    +0.000 C 
ATOM     52  C36 UNL A   1      42.801  29.311  33.992  1.00  0.00    +0.000 C 
ATOM     53  N5  UNL A   1      41.589  29.728  33.461  1.00  0.00    +0.000 N 
ATOM     54  C37 UNL A   1      41.037  30.486  34.376  1.00  0.00    +0.000 C 
ATOM     55  C38 UNL A   1      39.730  31.229  34.333  1.00  0.00    +0.000 C 
ATOM     67  C45 UNL A   1      38.972  31.164  33.221  1.00  0.00    +0.000 C 
ATOM     68  C46 UNL A   1      37.694  31.842  33.027  1.00  0.00    +0.000 C 
ATOM     69  C47 UNL A   1      37.210  31.524  31.816  1.00  0.00    +0.000 C 
ATOM     70  C48 UNL A   1      38.160  30.644  31.135  1.00  0.00    +0.000 C 
ATOM     71  N6  UNL A   1      39.175  30.484  32.045  1.00  0.00    +0.000 N 
ATOM     72  C49 UNL A   1      41.831  30.616  35.606  1.00  0.00    +0.000 C 
ATOM     73  C50 UNL A   1      42.915  29.917  35.302  1.00  0.00    +0.000 C 
ATOM     74  C51 UNL A   1      39.791  27.839  27.816  1.00  0.00    +0.000 C 
ATOM     75  C52 UNL A   1      38.772  28.671  27.981  1.00  0.00    +0.000 C 
ATOM    114  H21 UNL A   1      44.510  26.134  29.546  1.00  0.00    +0.000 H 
ATOM    115  H22 UNL A   1      45.441  26.721  31.910  1.00  0.00    +0.000 H 
ATOM    116  H23 UNL A   1      41.761  28.567  31.464  1.00  0.00    +0.000 H 
ATOM    117  H24 UNL A   1      37.237  32.465  33.711  1.00  0.00    +0.000 H 
ATOM    118  H25 UNL A   1      36.311  31.850  31.427  1.00  0.00    +0.000 H 
ATOM    119  H26 UNL A   1      39.973  29.935  31.871  1.00  0.00    +0.000 H 
ATOM    120  H27 UNL A   1      41.604  31.119  36.478  1.00  0.00    +0.000 H 
ATOM    121  H28 UNL A   1      43.735  29.818  35.919  1.00  0.00    +0.000 H 
ATOM    122  H29 UNL A   1      39.920  27.229  26.993  1.00  0.00    +0.000 H 
ATOM    123  H30 UNL A   1      38.000  28.889  27.333  1.00  0.00    +0.000 H 
ENDROOT
BRANCH   19   18
ATOM     76  C53 UNL A   1      35.777  29.511  28.938  1.00  0.00    +0.000 C 
ATOM     77  C54 UNL A   1      34.617  29.825  28.230  1.00  0.00    +0.000 C 
ATOM     15  C11 UNL A   1      34.407  31.132  27.781  1.00  0.00    +0.000 C 
ATOM    112  H19 UNL A   1      35.276  33.045  27.556  1.00  0.00    +0.000 H 
ATOM     16  C12 UNL A   1      35.411  32.092  27.928  1.00  0.00    +0.000 C 
ATOM     17  C13 UNL A   1      36.601  31.759  28.582  1.00  0.00    +0.000 C 
ATOM    113  H20 UNL A   1      37.352  32.460  28.668  1.00  0.00    +0.000 H 
ATOM     18  C14 UNL A   1      36.778  30.475  29.123  1.00  0.00    +0.000 C 
ATOM    124  H31 UNL A   1      35.898  28.563  29.329  1.00  0.00    +0.000 H 
ATOM    125  H32 UNL A   1      33.915  29.094  28.038  1.00  0.00    +0.000 H 
BRANCH   15   13
ATOM     13  C10 UNL A   1      33.140  31.527  27.124  1.00  0.00    +0.000 C 
ATOM     14  O2  UNL A   1      32.741  32.684  27.219  1.00  0.00    +0.000 O 
BRANCH   13   12
ATOM     12  N2  UNL A   1      32.403  30.601  26.429  1.00  0.00    +0.000 N 
ATOM    111  H18 UNL A   1      31.463  30.515  26.711  1.00  0.00    +0.000 H 
BRANCH   12   11
ATOM     11  C9  UNL A   1      32.807  29.728  25.340  1.00  0.00    +0.000 C 
ATOM    109  H16 UNL A   1      32.151  29.889  24.509  1.00  0.00    +0.000 H 
ATOM    110  H17 UNL A   1      33.820  29.965  25.092  1.00  0.00    +0.000 H 
BRANCH   11   10
ATOM     10  C8  UNL A   1      32.755  28.253  25.726  1.00  0.00    +0.000 C 
ATOM    107  H14 UNL A   1      32.955  28.177  26.774  1.00  0.00    +0.000 H 
ATOM    108  H15 UNL A   1      31.781  27.907  25.451  1.00  0.00    +0.000 H 
BRANCH   10    9
ATOM      9  C7  UNL A   1      33.750  27.354  24.989  1.00  0.00    +0.000 C 
ATOM    106  H13 UNL A   1      34.691  27.860  25.026  1.00  0.00    +0.000 H 
ATOM    105  H12 UNL A   1      33.385  27.202  23.993  1.00  0.00    +0.000 H 
BRANCH    9    8
ATOM    104  H11 UNL A   1      33.010  25.583  25.825  1.00  0.00    +0.000 H 
ATOM    103  H10 UNL A   1      34.584  26.116  26.494  1.00  0.00    +0.000 H 
ATOM      8  C6  UNL A   1      33.982  25.980  25.621  1.00  0.00    +0.000 C 
BRANCH    8    7
ATOM    101  H8  UNL A   1      34.082  24.815  23.845  1.00  0.00    +0.000 H 
ATOM    102  H9  UNL A   1      35.654  25.338  24.521  1.00  0.00    +0.000 H 
ATOM      7  C5  UNL A   1      34.678  24.948  24.724  1.00  0.00    +0.000 C 
BRANCH    7    6
ATOM     99  H6  UNL A   1      35.939  23.422  25.526  1.00  0.00    +0.000 H 
ATOM    100  H7  UNL A   1      34.355  23.544  26.289  1.00  0.00    +0.000 H 
ATOM      6  C4  UNL A   1      34.892  23.571  25.364  1.00  0.00    +0.000 C 
BRANCH    6    5
ATOM     98  H5  UNL A   1      34.883  22.337  23.679  1.00  0.00    +0.000 H 
ATOM      5  N1  UNL A   1      34.391  22.508  24.515  1.00  0.00    +0.000 N 
BRANCH    5    3
ATOM      3  C3  UNL A   1      33.300  21.718  24.763  1.00  0.00    +0.000 C 
ATOM      4  O1  UNL A   1      33.457  20.819  25.591  1.00  0.00    +0.000 O 
BRANCH    3    2
ATOM     97  H4  UNL A   1      31.213  21.461  24.562  1.00  0.00    +0.000 H 
ATOM      2  C2  UNL A   1      31.968  22.018  24.047  1.00  0.00    +0.000 C 
BRANCH    2    1
ATOM      1  C1  UNL A   1      32.137  21.588  22.584  1.00  0.00    +0.000 C 
ATOM     94  H1  UNL A   1      32.631  22.366  22.039  1.00  0.00    +0.000 H 
ATOM     95  H2  UNL A   1      31.176  21.406  22.152  1.00  0.00    +0.000 H 
ATOM     96  H3  UNL A   1      32.723  20.695  22.539  1.00  0.00    +0.000 H 
ENDBRANCH    2    1
BRANCH    2   78
ATOM    137  H44 UNL A   1      29.904  25.616  26.269  1.00  0.00    +0.000 H 
ATOM     78  C55 UNL A   1      31.429  23.456  24.145  1.00  0.00    +0.000 C 
ATOM     79  C56 UNL A   1      31.416  24.313  23.030  1.00  0.00    +0.000 C 
ATOM     80  C57 UNL A   1      30.839  25.586  23.074  1.00  0.00    +0.000 C 
ATOM     81  C58 UNL A   1      30.277  26.080  24.249  1.00  0.00    +0.000 C 
ATOM     89  C65 UNL A   1      30.308  25.268  25.385  1.00  0.00    +0.000 C 
ATOM     90  C66 UNL A   1      30.881  23.980  25.343  1.00  0.00    +0.000 C 
ATOM    126  H33 UNL A   1      31.846  23.991  22.149  1.00  0.00    +0.000 H 
ATOM    127  H34 UNL A   1      30.829  26.170  22.222  1.00  0.00    +0.000 H 
BRANCH   81   82
ATOM    129  H36 UNL A   1      28.742  27.323  24.854  1.00  0.00    +0.000 H 
ATOM     82  C59 UNL A   1      29.641  27.448  24.285  1.00  0.00    +0.000 C 
ATOM    128  H35 UNL A   1      30.351  28.125  24.712  1.00  0.00    +0.000 H 
BRANCH   82   83
ATOM    130  H37 UNL A   1      29.269  27.171  22.320  1.00  0.00    +0.000 H 
ATOM    131  H38 UNL A   1      27.176  28.200  23.686  1.00  0.00    +0.000 H 
ATOM    132  H39 UNL A   1      27.286  28.400  21.978  1.00  0.00    +0.000 H 
ATOM    133  H40 UNL A   1      27.981  30.356  24.151  1.00  0.00    +0.000 H 
ATOM    134  H41 UNL A   1      27.100  30.667  22.708  1.00  0.00    +0.000 H 
ATOM    135  H42 UNL A   1      29.730  31.291  22.926  1.00  0.00    +0.000 H 
ATOM    136  H43 UNL A   1      29.101  30.837  21.413  1.00  0.00    +0.000 H 
ATOM     83  C60 UNL A   1      29.188  28.036  22.945  1.00  0.00    +0.000 C 
ATOM     84  C61 UNL A   1      27.774  28.620  22.905  1.00  0.00    +0.000 C 
ATOM     85  C62 UNL A   1      27.930  30.123  23.108  1.00  0.00    +0.000 C 
ATOM     86  C63 UNL A   1      29.234  30.491  22.416  1.00  0.00    +0.000 C 
ATOM     87  C64 UNL A   1      30.029  29.214  22.508  1.00  0.00    +0.000 C 
ATOM     88  O3  UNL A   1      31.222  29.138  22.239  1.00  0.00    +0.000 O 
ENDBRANCH   82   83
ENDBRANCH   81   82
BRANCH   90   91
ATOM     91  N7  UNL A   1      30.861  23.235  26.585  1.00  0.00    +0.000 N 
ATOM     92  O4  UNL A   1      29.857  22.650  26.937  1.00  0.00    +0.000 O 
ATOM     93  O5  UNL A   1      31.937  23.220  27.439  1.00  0.00    +0.000 O 
ENDBRANCH   90   91
ENDBRANCH    2   78
ENDBRANCH    3    2
ENDBRANCH    5    3
ENDBRANCH    6    5
ENDBRANCH    7    6
ENDBRANCH    8    7
ENDBRANCH    9    8
ENDBRANCH   10    9
ENDBRANCH   11   10
ENDBRANCH   12   11
ENDBRANCH   13   12
ENDBRANCH   15   13
ENDBRANCH   19   18
BRANCH   23   24
ATOM     33  C24 UNL A   1      41.773  25.070  27.717  1.00  0.00    +0.000 C 
ATOM     34  F5  UNL A   1      40.912  24.586  28.625  1.00  0.00    +0.000 F 
ATOM     24  C19 UNL A   1      42.264  26.379  27.837  1.00  0.00    +0.000 C 
ATOM     25  C20 UNL A   1      43.167  26.833  26.863  1.00  0.00    +0.000 C 
ATOM     26  F1  UNL A   1      43.656  28.080  26.927  1.00  0.00    +0.000 F 
ATOM     27  C21 UNL A   1      43.548  26.016  25.803  1.00  0.00    +0.000 C 
ATOM     28  F2  UNL A   1      44.383  26.484  24.865  1.00  0.00    +0.000 F 
ATOM     29  C22 UNL A   1      43.060  24.721  25.712  1.00  0.00    +0.000 C 
ATOM     30  F3  UNL A   1      43.438  23.930  24.697  1.00  0.00    +0.000 F 
ATOM     31  C23 UNL A   1      42.178  24.246  26.671  1.00  0.00    +0.000 C 
ATOM     32  F4  UNL A   1      41.716  22.991  26.590  1.00  0.00    +0.000 F 
ENDBRANCH   23   24
BRANCH   40   41
ATOM     41  C30 UNL A   1      44.971  28.233  34.256  1.00  0.00    +0.000 C 
ATOM     42  C31 UNL A   1      46.093  29.071  34.175  1.00  0.00    +0.000 C 
ATOM     43  F6  UNL A   1      46.096  30.114  33.331  1.00  0.00    +0.000 F 
ATOM     44  C32 UNL A   1      47.235  28.812  34.927  1.00  0.00    +0.000 C 
ATOM     45  F7  UNL A   1      48.314  29.596  34.795  1.00  0.00    +0.000 F 
ATOM     46  C33 UNL A   1      47.264  27.733  35.799  1.00  0.00    +0.000 C 
ATOM     47  F8  UNL A   1      48.364  27.486  36.525  1.00  0.00    +0.000 F 
ATOM     48  C34 UNL A   1      46.158  26.906  35.912  1.00  0.00    +0.000 C 
ATOM     49  F9  UNL A   1      46.181  25.870  36.763  1.00  0.00    +0.000 F 
ATOM     50  C35 UNL A   1      45.025  27.146  35.140  1.00  0.00    +0.000 C 
ATOM     51  F10 UNL A   1      43.975  26.318  35.259  1.00  0.00    +0.000 F 
ENDBRANCH   40   41
BRANCH   55   56
ATOM     65  C44 UNL A   1      38.472  31.501  36.497  1.00  0.00    +0.000 C 
ATOM     66  F15 UNL A   1      38.058  30.228  36.411  1.00  0.00    +0.000 F 
ATOM     56  C39 UNL A   1      39.284  32.045  35.492  1.00  0.00    +0.000 C 
ATOM     57  C40 UNL A   1      39.683  33.381  35.628  1.00  0.00    +0.000 C 
ATOM     58  F11 UNL A   1      40.478  33.940  34.703  1.00  0.00    +0.000 F 
ATOM     59  C41 UNL A   1      39.308  34.136  36.737  1.00  0.00    +0.000 C 
ATOM     60  F12 UNL A   1      39.747  35.395  36.869  1.00  0.00    +0.000 F 
ATOM     61  C42 UNL A   1      38.500  33.578  37.717  1.00  0.00    +0.000 C 
ATOM     62  F13 UNL A   1      38.141  34.303  38.786  1.00  0.00    +0.000 F 
ATOM     63  C43 UNL A   1      38.073  32.265  37.592  1.00  0.00    +0.000 C 
ATOM     64  F14 UNL A   1      37.282  31.725  38.529  1.00  0.00    +0.000 F 
ENDBRANCH   55   56
TORSDOF 20
ENDMDL
MODEL 2
REMARK VINA RESULT:     -10.6      2.815      7.731
ROOT
ATOM     19  C15 UNL A   1      40.019  28.910  29.170  1.00  0.00    +0.000 C 
ATOM     20  C16 UNL A   1      40.880  29.850  29.968  1.00  0.00    +0.000 C 
ATOM     21  N3  UNL A   1      42.136  29.727  30.314  1.00  0.00    +0.000 N 
ATOM     22  C17 UNL A   1      42.452  30.884  31.014  1.00  0.00    +0.000 C 
ATOM     23  C18 UNL A   1      43.612  31.209  31.632  1.00  0.00    +0.000 C 
ATOM     35  C25 UNL A   1      44.779  30.366  31.666  1.00  0.00    +0.000 C 
ATOM     36  C26 UNL A   1      45.986  30.586  32.308  1.00  0.00    +0.000 C 
ATOM     37  C27 UNL A   1      46.834  29.510  32.030  1.00  0.00    +0.000 C 
ATOM     38  C28 UNL A   1      46.143  28.598  31.249  1.00  0.00    +0.000 C 
ATOM     39  N4  UNL A   1      44.886  29.139  31.028  1.00  0.00    +0.000 N 
ATOM     40  C29 UNL A   1      46.593  27.329  30.742  1.00  0.00    +0.000 C 
ATOM     52  C36 UNL A   1      45.846  26.486  29.987  1.00  0.00    +0.000 C 
ATOM     53  N5  UNL A   1      44.538  26.635  29.546  1.00  0.00    +0.000 N 
ATOM     54  C37 UNL A   1      44.276  25.567  28.834  1.00  0.00    +0.000 C 
ATOM     55  C38 UNL A   1      43.000  25.181  28.135  1.00  0.00    +0.000 C 
ATOM     67  C45 UNL A   1      41.930  25.995  28.221  1.00  0.00    +0.000 C 
ATOM     68  C46 UNL A   1      40.627  25.746  27.613  1.00  0.00    +0.000 C 
ATOM     69  C47 UNL A   1      39.815  26.782  27.881  1.00  0.00    +0.000 C 
ATOM     70  C48 UNL A   1      40.532  27.753  28.707  1.00  0.00    +0.000 C 
ATOM     71  N6  UNL A   1      41.781  27.203  28.859  1.00  0.00    +0.000 N 
ATOM     72  C49 UNL A   1      45.400  24.628  28.723  1.00  0.00    +0.000 C 
ATOM     73  C50 UNL A   1      46.316  25.214  29.480  1.00  0.00    +0.000 C 
ATOM     74  C51 UNL A   1      41.270  31.721  31.000  1.00  0.00    +0.000 C 
ATOM     75  C52 UNL A   1      40.253  31.103  30.416  1.00  0.00    +0.000 C 
ATOM    114  H21 UNL A   1      46.218  31.405  32.893  1.00  0.00    +0.000 H 
ATOM    115  H22 UNL A   1      47.811  29.413  32.351  1.00  0.00    +0.000 H 
ATOM    116  H23 UNL A   1      44.173  28.715  30.498  1.00  0.00    +0.000 H 
ATOM    117  H24 UNL A   1      40.371  24.910  27.066  1.00  0.00    +0.000 H 
ATOM    118  H25 UNL A   1      38.840  26.876  27.556  1.00  0.00    +0.000 H 
ATOM    119  H26 UNL A   1      42.500  27.632  29.375  1.00  0.00    +0.000 H 
ATOM    120  H27 UNL A   1      45.461  23.743  28.194  1.00  0.00    +0.000 H 
ATOM    121  H28 UNL A   1      47.246  24.815  29.683  1.00  0.00    +0.000 H 
ATOM    122  H29 UNL A   1      41.226  32.674  31.393  1.00  0.00    +0.000 H 
ATOM    123  H30 UNL A   1      39.277  31.418  30.305  1.00  0.00    +0.000 H 
ENDROOT
BRANCH   19   18
ATOM     76  C53 UNL A   1      38.300  29.777  27.573  1.00  0.00    +0.000 C 
ATOM     77  C54 UNL A   1      36.982  30.097  27.249  1.00  0.00    +0.000 C 
ATOM     15  C11 UNL A   1      35.954  29.822  28.157  1.00  0.00    +0.000 C 
ATOM    112  H19 UNL A   1      35.505  29.188  30.122  1.00  0.00    +0.000 H 
ATOM     16  C12 UNL A   1      36.259  29.347  29.435  1.00  0.00    +0.000 C 
ATOM     17  C13 UNL A   1      37.587  29.087  29.781  1.00  0.00    +0.000 C 
ATOM    113  H20 UNL A   1      37.815  28.761  30.734  1.00  0.00    +0.000 H 
ATOM     18  C14 UNL A   1      38.615  29.267  28.841  1.00  0.00    +0.000 C 
ATOM    124  H31 UNL A   1      39.047  29.916  26.875  1.00  0.00    +0.000 H 
ATOM    125  H32 UNL A   1      36.764  30.535  26.341  1.00  0.00    +0.000 H 
BRANCH   15   13
ATOM     13  C10 UNL A   1      34.534  30.046  27.804  1.00  0.00    +0.000 C 
ATOM     14  O2  UNL A   1      34.028  31.148  27.993  1.00  0.00    +0.000 O 
BRANCH   13   12
ATOM     12  N2  UNL A   1      33.779  29.023  27.287  1.00  0.00    +0.000 N 
ATOM    111  H18 UNL A   1      33.041  28.713  27.860  1.00  0.00    +0.000 H 
BRANCH   12   11
ATOM     11  C9  UNL A   1      33.911  28.329  26.017  1.00  0.00    +0.000 C 
ATOM    109  H16 UNL A   1      33.312  28.833  25.286  1.00  0.00    +0.000 H 
ATOM    110  H17 UNL A   1      34.947  28.336  25.748  1.00  0.00    +0.000 H 
BRANCH   11   10
ATOM     10  C8  UNL A   1      33.462  26.873  26.098  1.00  0.00    +0.000 C 
ATOM    107  H14 UNL A   1      33.545  26.558  27.117  1.00  0.00    +0.000 H 
ATOM    108  H15 UNL A   1      32.460  26.849  25.724  1.00  0.00    +0.000 H 
BRANCH   10    9
ATOM      9  C7  UNL A   1      34.262  25.898  25.233  1.00  0.00    +0.000 C 
ATOM    106  H13 UNL A   1      35.146  26.422  24.935  1.00  0.00    +0.000 H 
ATOM    105  H12 UNL A   1      33.644  25.599  24.412  1.00  0.00    +0.000 H 
BRANCH    9    8
ATOM    104  H11 UNL A   1      33.856  24.097  26.222  1.00  0.00    +0.000 H 
ATOM    103  H10 UNL A   1      35.341  24.931  26.782  1.00  0.00    +0.000 H 
ATOM      8  C6  UNL A   1      34.742  24.633  25.948  1.00  0.00    +0.000 C 
BRANCH    8    7
ATOM    101  H8  UNL A   1      35.003  23.421  24.220  1.00  0.00    +0.000 H 
ATOM    102  H9  UNL A   1      36.490  24.168  24.878  1.00  0.00    +0.000 H 
ATOM      7  C5  UNL A   1      35.571  23.664  25.094  1.00  0.00    +0.000 C 
BRANCH    7    6
ATOM     99  H6  UNL A   1      36.943  22.075  25.486  1.00  0.00    +0.000 H 
ATOM    100  H7  UNL A   1      35.910  22.508  26.847  1.00  0.00    +0.000 H 
ATOM      6  C4  UNL A   1      35.956  22.352  25.789  1.00  0.00    +0.000 C 
BRANCH    6    5
ATOM     98  H5  UNL A   1      35.354  20.622  24.786  1.00  0.00    +0.000 H 
ATOM      5  N1  UNL A   1      35.039  21.282  25.447  1.00  0.00    +0.000 N 
BRANCH    5    3
ATOM      3  C3  UNL A   1      33.780  21.099  25.953  1.00  0.00    +0.000 C 
ATOM      4  O1  UNL A   1      33.701  20.948  27.173  1.00  0.00    +0.000 O 
BRANCH    3    2
ATOM     97  H4  UNL A   1      31.704  20.929  25.599  1.00  0.00    +0.000 H 
ATOM      2  C2  UNL A   1      32.568  21.135  25.001  1.00  0.00    +0.000 C 
BRANCH    2    1
ATOM      1  C1  UNL A   1      32.815  20.076  23.917  1.00  0.00    +0.000 C 
ATOM     94  H1  UNL A   1      32.623  19.103  24.320  1.00  0.00    +0.000 H 
ATOM     95  H2  UNL A   1      33.831  20.132  23.589  1.00  0.00    +0.000 H 
ATOM     96  H3  UNL A   1      32.161  20.254  23.089  1.00  0.00    +0.000 H 
ENDBRANCH    2    1
BRANCH    2   78
ATOM    137  H44 UNL A   1      30.412  25.318  24.934  1.00  0.00    +0.000 H 
ATOM     78  C55 UNL A   1      32.208  22.495  24.376  1.00  0.00    +0.000 C 
ATOM     79  C56 UNL A   1      32.629  22.842  23.080  1.00  0.00    +0.000 C 
ATOM     80  C57 UNL A   1      32.229  24.029  22.458  1.00  0.00    +0.000 C 
ATOM     81  C58 UNL A   1      31.414  24.947  23.119  1.00  0.00    +0.000 C 
ATOM     89  C65 UNL A   1      31.010  24.649  24.422  1.00  0.00    +0.000 C 
ATOM     90  C66 UNL A   1      31.404  23.449  25.050  1.00  0.00    +0.000 C 
ATOM    126  H33 UNL A   1      33.254  22.199  22.570  1.00  0.00    +0.000 H 
ATOM    127  H34 UNL A   1      32.541  24.229  21.495  1.00  0.00    +0.000 H 
BRANCH   81   82
ATOM    129  H36 UNL A   1      31.828  26.556  21.892  1.00  0.00    +0.000 H 
ATOM     82  C59 UNL A   1      30.971  26.218  22.436  1.00  0.00    +0.000 C 
ATOM    128  H35 UNL A   1      30.120  25.981  21.832  1.00  0.00    +0.000 H 
BRANCH   82   83
ATOM    130  H37 UNL A   1      30.944  27.031  24.284  1.00  0.00    +0.000 H 
ATOM    131  H38 UNL A   1      32.093  28.614  22.418  1.00  0.00    +0.000 H 
ATOM    132  H39 UNL A   1      31.470  29.293  23.874  1.00  0.00    +0.000 H 
ATOM    133  H40 UNL A   1      30.214  29.216  21.145  1.00  0.00    +0.000 H 
ATOM    134  H41 UNL A   1      30.290  30.553  22.222  1.00  0.00    +0.000 H 
ATOM    135  H42 UNL A   1      28.055  29.034  22.005  1.00  0.00    +0.000 H 
ATOM    136  H43 UNL A   1      28.437  29.750  23.499  1.00  0.00    +0.000 H 
ATOM     83  C60 UNL A   1      30.584  27.392  23.342  1.00  0.00    +0.000 C 
ATOM     84  C61 UNL A   1      31.201  28.748  22.993  1.00  0.00    +0.000 C 
ATOM     85  C62 UNL A   1      30.152  29.493  22.176  1.00  0.00    +0.000 C 
ATOM     86  C63 UNL A   1      28.811  29.072  22.761  1.00  0.00    +0.000 C 
ATOM     87  C64 UNL A   1      29.105  27.698  23.305  1.00  0.00    +0.000 C 
ATOM     88  O3  UNL A   1      28.237  26.923  23.691  1.00  0.00    +0.000 O 
ENDBRANCH   82   83
ENDBRANCH   81   82
BRANCH   90   91
ATOM     91  N7  UNL A   1      30.929  23.255  26.404  1.00  0.00    +0.000 N 
ATOM     92  O4  UNL A   1      31.593  23.629  27.350  1.00  0.00    +0.000 O 
ATOM     93  O5  UNL A   1      29.760  22.586  26.674  1.00  0.00    +0.000 O 
ENDBRANCH   90   91
ENDBRANCH    2   78
ENDBRANCH    3    2
ENDBRANCH    5    3
ENDBRANCH    6    5
ENDBRANCH    7    6
ENDBRANCH    8    7
ENDBRANCH    9    8
ENDBRANCH   10    9
ENDBRANCH   11   10
ENDBRANCH   12   11
ENDBRANCH   13   12
ENDBRANCH   15   13
ENDBRANCH   19   18
BRANCH   23   24
ATOM     33  C24 UNL A   1      44.154  33.673  31.683  1.00  0.00    +0.000 C 
ATOM     34  F5  UNL A   1      44.510  33.609  30.391  1.00  0.00    +0.000 F 
ATOM     24  C19 UNL A   1      43.678  32.529  32.342  1.00  0.00    +0.000 C 
ATOM     25  C20 UNL A   1      43.324  32.650  33.695  1.00  0.00    +0.000 C 
ATOM     26  F1  UNL A   1      42.853  31.589  34.366  1.00  0.00    +0.000 F 
ATOM     27  C21 UNL A   1      43.426  33.871  34.355  1.00  0.00    +0.000 C 
ATOM     28  F2  UNL A   1      43.048  33.971  35.637  1.00  0.00    +0.000 F 
ATOM     29  C22 UNL A   1      43.912  34.985  33.687  1.00  0.00    +0.000 C 
ATOM     30  F3  UNL A   1      44.022  36.158  34.329  1.00  0.00    +0.000 F 
ATOM     31  C23 UNL A   1      44.280  34.886  32.354  1.00  0.00    +0.000 C 
ATOM     32  F4  UNL A   1      44.761  35.959  31.712  1.00  0.00    +0.000 F 
ENDBRANCH   23   24
BRANCH   40   41
ATOM     41  C30 UNL A   1      47.986  26.888  31.083  1.00  0.00    +0.000 C 
ATOM     42  C31 UNL A   1      48.247  26.073  32.194  1.00  0.00    +0.000 C 
ATOM     43  F6  UNL A   1      47.246  25.700  33.006  1.00  0.00    +0.000 F 
ATOM     44  C32 UNL A   1      49.545  25.678  32.502  1.00  0.00    +0.000 C 
ATOM     45  F7  UNL A   1      49.777  24.943  33.598  1.00  0.00    +0.000 F 
ATOM     46  C33 UNL A   1      50.601  26.059  31.687  1.00  0.00    +0.000 C 
ATOM     47  F8  UNL A   1      51.850  25.676  31.984  1.00  0.00    +0.000 F 
ATOM     48  C34 UNL A   1      50.362  26.845  30.570  1.00  0.00    +0.000 C 
ATOM     49  F9  UNL A   1      51.380  27.204  29.774  1.00  0.00    +0.000 F 
ATOM     50  C35 UNL A   1      49.069  27.265  30.275  1.00  0.00    +0.000 C 
ATOM     51  F10 UNL A   1      48.872  28.040  29.196  1.00  0.00    +0.000 F 
ENDBRANCH   40   41
BRANCH   55   56
ATOM     65  C44 UNL A   1      43.272  23.842  26.020  1.00  0.00    +0.000 C 
ATOM     66  F15 UNL A   1      43.686  24.945  25.380  1.00  0.00    +0.000 F 
ATOM     56  C39 UNL A   1      42.910  23.909  27.373  1.00  0.00    +0.000 C 
ATOM     57  C40 UNL A   1      42.479  22.728  27.992  1.00  0.00    +0.000 C 
ATOM     58  F11 UNL A   1      42.143  22.738  29.290  1.00  0.00    +0.000 F 
ATOM     59  C41 UNL A   1      42.439  21.522  27.296  1.00  0.00    +0.000 C 
ATOM     60  F12 UNL A   1      42.074  20.398  27.926  1.00  0.00    +0.000 F 
ATOM     61  C42 UNL A   1      42.798  21.481  25.956  1.00  0.00    +0.000 C 
ATOM     62  F13 UNL A   1      42.762  20.321  25.286  1.00  0.00    +0.000 F 
ATOM     63  C43 UNL A   1      43.204  22.641  25.315  1.00  0.00    +0.000 C 
ATOM     64  F14 UNL A   1      43.540  22.609  24.019  1.00  0.00    +0.000 F 
ENDBRANCH   55   56
TORSDOF 20
ENDMDL
MODEL 3
REMARK VINA RESULT:     -10.6      0.569      2.021
ROOT
ATOM     19  C15 UNL A   1      38.236  29.973  29.725  1.00  0.00    +0.000 C 
ATOM     20  C16 UNL A   1      39.344  29.115  29.180  1.00  0.00    +0.000 C 
ATOM     21  N3  UNL A   1      40.484  28.786  29.735  1.00  0.00    +0.000 N 
ATOM     22  C17 UNL A   1      41.123  27.957  28.823  1.00  0.00    +0.000 C 
ATOM     23  C18 UNL A   1      42.357  27.404  28.903  1.00  0.00    +0.000 C 
ATOM     35  C25 UNL A   1      43.260  27.588  30.010  1.00  0.00    +0.000 C 
ATOM     36  C26 UNL A   1      44.551  27.109  30.160  1.00  0.00    +0.000 C 
ATOM     37  C27 UNL A   1      45.025  27.511  31.413  1.00  0.00    +0.000 C 
ATOM     38  C28 UNL A   1      44.046  28.277  32.026  1.00  0.00    +0.000 C 
ATOM     39  N4  UNL A   1      42.967  28.311  31.156  1.00  0.00    +0.000 N 
ATOM     40  C29 UNL A   1      44.090  28.929  33.308  1.00  0.00    +0.000 C 
ATOM     52  C36 UNL A   1      43.086  29.673  33.834  1.00  0.00    +0.000 C 
ATOM     53  N5  UNL A   1      41.843  29.969  33.294  1.00  0.00    +0.000 N 
ATOM     54  C37 UNL A   1      41.225  30.697  34.192  1.00  0.00    +0.000 C 
ATOM     55  C38 UNL A   1      39.858  31.322  34.132  1.00  0.00    +0.000 C 
ATOM     67  C45 UNL A   1      39.110  31.162  33.023  1.00  0.00    +0.000 C 
ATOM     68  C46 UNL A   1      37.777  31.720  32.814  1.00  0.00    +0.000 C 
ATOM     69  C47 UNL A   1      37.324  31.331  31.612  1.00  0.00    +0.000 C 
ATOM     70  C48 UNL A   1      38.348  30.522  30.951  1.00  0.00    +0.000 C 
ATOM     71  N6  UNL A   1      39.373  30.474  31.863  1.00  0.00    +0.000 N 
ATOM     72  C49 UNL A   1      42.003  30.927  35.417  1.00  0.00    +0.000 C 
ATOM     73  C50 UNL A   1      43.145  30.320  35.129  1.00  0.00    +0.000 C 
ATOM     74  C51 UNL A   1      40.224  27.790  27.700  1.00  0.00    +0.000 C 
ATOM     75  C52 UNL A   1      39.135  28.533  27.846  1.00  0.00    +0.000 C 
ATOM    114  H21 UNL A   1      45.073  26.551  29.466  1.00  0.00    +0.000 H 
ATOM    115  H22 UNL A   1      45.947  27.276  31.813  1.00  0.00    +0.000 H 
ATOM    116  H23 UNL A   1      42.118  28.779  31.327  1.00  0.00    +0.000 H 
ATOM    117  H24 UNL A   1      37.266  32.317  33.483  1.00  0.00    +0.000 H 
ATOM    118  H25 UNL A   1      36.400  31.566  31.216  1.00  0.00    +0.000 H 
ATOM    119  H26 UNL A   1      40.217  29.994  31.702  1.00  0.00    +0.000 H 
ATOM    120  H27 UNL A   1      41.732  31.429  36.277  1.00  0.00    +0.000 H 
ATOM    121  H28 UNL A   1      43.970  30.308  35.747  1.00  0.00    +0.000 H 
ATOM    122  H29 UNL A   1      40.407  27.174  26.892  1.00  0.00    +0.000 H 
ATOM    123  H30 UNL A   1      38.347  28.666  27.193  1.00  0.00    +0.000 H 
ENDROOT
BRANCH   19   18
ATOM     76  C53 UNL A   1      36.126  29.104  28.701  1.00  0.00    +0.000 C 
ATOM     77  C54 UNL A   1      34.944  29.296  27.987  1.00  0.00    +0.000 C 
ATOM     15  C11 UNL A   1      34.569  30.583  27.591  1.00  0.00    +0.000 C 
ATOM    112  H19 UNL A   1      35.181  32.601  27.465  1.00  0.00    +0.000 H 
ATOM     16  C12 UNL A   1      35.436  31.658  27.798  1.00  0.00    +0.000 C 
ATOM     17  C13 UNL A   1      36.651  31.454  28.458  1.00  0.00    +0.000 C 
ATOM    113  H20 UNL A   1      37.302  32.244  28.587  1.00  0.00    +0.000 H 
ATOM     18  C14 UNL A   1      36.989  30.182  28.946  1.00  0.00    +0.000 C 
ATOM    124  H31 UNL A   1      36.366  28.164  29.052  1.00  0.00    +0.000 H 
ATOM    125  H32 UNL A   1      34.347  28.488  27.750  1.00  0.00    +0.000 H 
BRANCH   15   13
ATOM     13  C10 UNL A   1      33.269  30.837  26.929  1.00  0.00    +0.000 C 
ATOM     14  O2  UNL A   1      32.732  31.935  27.047  1.00  0.00    +0.000 O 
BRANCH   13   12
ATOM     12  N2  UNL A   1      32.655  29.847  26.204  1.00  0.00    +0.000 N 
ATOM    111  H18 UNL A   1      31.929  29.372  26.671  1.00  0.00    +0.000 H 
BRANCH   12   11
ATOM     11  C9  UNL A   1      32.921  29.395  24.848  1.00  0.00    +0.000 C 
ATOM    109  H16 UNL A   1      32.054  28.886  24.480  1.00  0.00    +0.000 H 
ATOM    110  H17 UNL A   1      33.150  30.257  24.257  1.00  0.00    +0.000 H 
BRANCH   11   10
ATOM     10  C8  UNL A   1      34.115  28.449  24.772  1.00  0.00    +0.000 C 
ATOM    107  H14 UNL A   1      34.748  28.778  23.976  1.00  0.00    +0.000 H 
ATOM    108  H15 UNL A   1      34.585  28.484  25.733  1.00  0.00    +0.000 H 
BRANCH   10    9
ATOM      9  C7  UNL A   1      33.765  26.981  24.524  1.00  0.00    +0.000 C 
ATOM    106  H13 UNL A   1      34.410  26.651  23.737  1.00  0.00    +0.000 H 
ATOM    105  H12 UNL A   1      32.725  26.925  24.276  1.00  0.00    +0.000 H 
BRANCH    9    8
ATOM    104  H11 UNL A   1      33.056  25.713  26.032  1.00  0.00    +0.000 H 
ATOM    103  H10 UNL A   1      34.569  26.581  26.445  1.00  0.00    +0.000 H 
ATOM      8  C6  UNL A   1      34.021  26.040  25.703  1.00  0.00    +0.000 C 
BRANCH    8    7
ATOM    101  H8  UNL A   1      35.837  24.940  25.598  1.00  0.00    +0.000 H 
ATOM    102  H9  UNL A   1      34.369  23.983  25.961  1.00  0.00    +0.000 H 
ATOM      7  C5  UNL A   1      34.806  24.763  25.373  1.00  0.00    +0.000 C 
BRANCH    7    6
ATOM     99  H6  UNL A   1      33.909  24.821  23.436  1.00  0.00    +0.000 H 
ATOM    100  H7  UNL A   1      35.644  24.517  23.434  1.00  0.00    +0.000 H 
ATOM      6  C4  UNL A   1      34.712  24.302  23.913  1.00  0.00    +0.000 C 
BRANCH    6    5
ATOM     98  H5  UNL A   1      35.098  22.354  23.269  1.00  0.00    +0.000 H 
ATOM      5  N1  UNL A   1      34.472  22.875  23.822  1.00  0.00    +0.000 N 
BRANCH    5    3
ATOM      3  C3  UNL A   1      33.460  22.182  24.431  1.00  0.00    +0.000 C 
ATOM      4  O1  UNL A   1      33.787  21.459  25.373  1.00  0.00    +0.000 O 
BRANCH    3    2
ATOM     97  H4  UNL A   1      31.387  21.824  24.619  1.00  0.00    +0.000 H 
ATOM      2  C2  UNL A   1      32.009  22.377  23.946  1.00  0.00    +0.000 C 
BRANCH    2    1
ATOM      1  C1  UNL A   1      31.944  21.857  22.504  1.00  0.00    +0.000 C 
ATOM     94  H1  UNL A   1      31.955  20.787  22.510  1.00  0.00    +0.000 H 
ATOM     95  H2  UNL A   1      32.787  22.220  21.955  1.00  0.00    +0.000 H 
ATOM     96  H3  UNL A   1      31.043  22.202  22.041  1.00  0.00    +0.000 H 
ENDBRANCH    2    1
BRANCH    2   78
ATOM    137  H44 UNL A   1      29.865  25.903  26.208  1.00  0.00    +0.000 H 
ATOM     78  C55 UNL A   1      31.419  23.794  24.053  1.00  0.00    +0.000 C 
ATOM     79  C56 UNL A   1      31.347  24.646  22.937  1.00  0.00    +0.000 C 
ATOM     80  C57 UNL A   1      30.724  25.897  22.991  1.00  0.00    +0.000 C 
ATOM     81  C58 UNL A   1      30.173  26.373  24.178  1.00  0.00    +0.000 C 
ATOM     89  C65 UNL A   1      30.260  25.567  25.315  1.00  0.00    +0.000 C 
ATOM     90  C66 UNL A   1      30.880  24.301  25.263  1.00  0.00    +0.000 C 
ATOM    126  H33 UNL A   1      31.768  24.337  22.046  1.00  0.00    +0.000 H 
ATOM    127  H34 UNL A   1      30.672  26.477  22.139  1.00  0.00    +0.000 H 
BRANCH   81   82
ATOM    129  H36 UNL A   1      28.627  27.569  24.848  1.00  0.00    +0.000 H 
ATOM     82  C59 UNL A   1      29.486  27.716  24.226  1.00  0.00    +0.000 C 
ATOM    128  H35 UNL A   1      30.192  28.428  24.599  1.00  0.00    +0.000 H 
BRANCH   82   83
ATOM    130  H37 UNL A   1      28.974  27.374  22.304  1.00  0.00    +0.000 H 
ATOM    131  H38 UNL A   1      26.981  28.446  23.784  1.00  0.00    +0.000 H 
ATOM    132  H39 UNL A   1      26.967  28.590  22.066  1.00  0.00    +0.000 H 
ATOM    133  H40 UNL A   1      27.811  30.617  24.118  1.00  0.00    +0.000 H 
ATOM    134  H41 UNL A   1      26.827  30.880  22.733  1.00  0.00    +0.000 H 
ATOM    135  H42 UNL A   1      29.464  31.512  22.738  1.00  0.00    +0.000 H 
ATOM    136  H43 UNL A   1      28.728  31.008  21.291  1.00  0.00    +0.000 H 
ATOM     83  C60 UNL A   1      28.935  28.260  22.904  1.00  0.00    +0.000 C 
ATOM     84  C61 UNL A   1      27.520  28.841  22.947  1.00  0.00    +0.000 C 
ATOM     85  C62 UNL A   1      27.685  30.349  23.089  1.00  0.00    +0.000 C 
ATOM     86  C63 UNL A   1      28.935  30.696  22.293  1.00  0.00    +0.000 C 
ATOM     87  C64 UNL A   1      29.738  29.423  22.368  1.00  0.00    +0.000 C 
ATOM     88  O3  UNL A   1      30.909  29.339  22.016  1.00  0.00    +0.000 O 
ENDBRANCH   82   83
ENDBRANCH   81   82
BRANCH   90   91
ATOM     91  N7  UNL A   1      30.918  23.560  26.507  1.00  0.00    +0.000 N 
ATOM     92  O4  UNL A   1      31.884  23.633  27.239  1.00  0.00    +0.000 O 
ATOM     93  O5  UNL A   1      29.909  22.701  26.870  1.00  0.00    +0.000 O 
ENDBRANCH   90   91
ENDBRANCH    2   78
ENDBRANCH    3    2
ENDBRANCH    5    3
ENDBRANCH    6    5
ENDBRANCH    7    6
ENDBRANCH    8    7
ENDBRANCH    9    8
ENDBRANCH   10    9
ENDBRANCH   11   10
ENDBRANCH   12   11
ENDBRANCH   13   12
ENDBRANCH   15   13
ENDBRANCH   19   18
BRANCH   23   24
ATOM     33  C24 UNL A   1      43.673  27.078  26.775  1.00  0.00    +0.000 C 
ATOM     34  F5  UNL A   1      44.133  28.334  26.881  1.00  0.00    +0.000 F 
ATOM     24  C19 UNL A   1      42.816  26.555  27.755  1.00  0.00    +0.000 C 
ATOM     25  C20 UNL A   1      42.360  25.237  27.591  1.00  0.00    +0.000 C 
ATOM     26  F1  UNL A   1      41.548  24.687  28.507  1.00  0.00    +0.000 F 
ATOM     27  C21 UNL A   1      42.760  24.470  26.501  1.00  0.00    +0.000 C 
ATOM     28  F2  UNL A   1      42.340  23.202  26.386  1.00  0.00    +0.000 F 
ATOM     29  C22 UNL A   1      43.597  25.013  25.538  1.00  0.00    +0.000 C 
ATOM     30  F3  UNL A   1      43.972  24.277  24.482  1.00  0.00    +0.000 F 
ATOM     31  C23 UNL A   1      44.049  26.317  25.671  1.00  0.00    +0.000 C 
ATOM     32  F4  UNL A   1      44.849  26.846  24.735  1.00  0.00    +0.000 F 
ENDBRANCH   23   24
BRANCH   40   41
ATOM     41  C30 UNL A   1      45.343  28.798  34.122  1.00  0.00    +0.000 C 
ATOM     42  C31 UNL A   1      45.520  27.747  35.034  1.00  0.00    +0.000 C 
ATOM     43  F6  UNL A   1      44.542  26.848  35.225  1.00  0.00    +0.000 F 
ATOM     44  C32 UNL A   1      46.685  27.643  35.787  1.00  0.00    +0.000 C 
ATOM     45  F7  UNL A   1      46.811  26.660  36.690  1.00  0.00    +0.000 F 
ATOM     46  C33 UNL A   1      47.708  28.564  35.619  1.00  0.00    +0.000 C 
ATOM     47  F8  UNL A   1      48.831  28.461  36.344  1.00  0.00    +0.000 F 
ATOM     48  C34 UNL A   1      47.564  29.598  34.706  1.00  0.00    +0.000 C 
ATOM     49  F9  UNL A   1      48.557  30.483  34.534  1.00  0.00    +0.000 F 
ATOM     50  C35 UNL A   1      46.388  29.722  33.972  1.00  0.00    +0.000 C 
ATOM     51  F10 UNL A   1      46.271  30.742  33.108  1.00  0.00    +0.000 F 
ENDBRANCH   40   41
BRANCH   55   56
ATOM     65  C44 UNL A   1      39.583  33.501  35.363  1.00  0.00    +0.000 C 
ATOM     66  F15 UNL A   1      40.317  34.118  34.425  1.00  0.00    +0.000 F 
ATOM     56  C39 UNL A   1      39.341  32.123  35.271  1.00  0.00    +0.000 C 
ATOM     57  C40 UNL A   1      38.574  31.527  36.281  1.00  0.00    +0.000 C 
ATOM     58  F11 UNL A   1      38.297  30.216  36.225  1.00  0.00    +0.000 F 
ATOM     59  C41 UNL A   1      38.046  32.283  37.326  1.00  0.00    +0.000 C 
ATOM     60  F12 UNL A   1      37.272  31.697  38.249  1.00  0.00    +0.000 F 
ATOM     61  C42 UNL A   1      38.302  33.644  37.398  1.00  0.00    +0.000 C 
ATOM     62  F13 UNL A   1      37.793  34.371  38.401  1.00  0.00    +0.000 F 
ATOM     63  C43 UNL A   1      39.080  34.251  36.423  1.00  0.00    +0.000 C 
ATOM     64  F14 UNL A   1      39.341  35.563  36.496  1.00  0.00    +0.000 F 
ENDBRANCH   55   56
TORSDOF 20
ENDMDL
MODEL 4
REMARK VINA RESULT:     -10.4     37.642     42.643
ROOT
ATOM     19  C15 UNL A   1      13.981  53.853   5.044  1.00  0.00    +0.000 C 
ATOM     20  C16 UNL A   1      14.936  54.296   3.971  1.00  0.00    +0.000 C 
ATOM     21  N3  UNL A   1      15.434  53.608   2.974  1.00  0.00    +0.000 N 
ATOM     22  C17 UNL A   1      16.234  54.495   2.265  1.00  0.00    +0.000 C 
ATOM     23  C18 UNL A   1      17.016  54.251   1.186  1.00  0.00    +0.000 C 
ATOM     35  C25 UNL A   1      17.150  52.965   0.553  1.00  0.00    +0.000 C 
ATOM     36  C26 UNL A   1      17.955  52.608  -0.516  1.00  0.00    +0.000 C 
ATOM     37  C27 UNL A   1      17.727  51.259  -0.806  1.00  0.00    +0.000 C 
ATOM     38  C28 UNL A   1      16.811  50.764   0.108  1.00  0.00    +0.000 C 
ATOM     39  N4  UNL A   1      16.462  51.822   0.932  1.00  0.00    +0.000 N 
ATOM     40  C29 UNL A   1      16.294  49.426   0.224  1.00  0.00    +0.000 C 
ATOM     52  C36 UNL A   1      15.402  49.018   1.160  1.00  0.00    +0.000 C 
ATOM     53  N5  UNL A   1      14.805  49.750   2.176  1.00  0.00    +0.000 N 
ATOM     54  C37 UNL A   1      14.004  48.919   2.796  1.00  0.00    +0.000 C 
ATOM     55  C38 UNL A   1      13.125  49.160   3.993  1.00  0.00    +0.000 C 
ATOM     67  C45 UNL A   1      13.120  50.377   4.570  1.00  0.00    +0.000 C 
ATOM     68  C46 UNL A   1      12.335  50.754   5.742  1.00  0.00    +0.000 C 
ATOM     69  C47 UNL A   1      12.555  52.050   6.017  1.00  0.00    +0.000 C 
ATOM     70  C48 UNL A   1      13.522  52.587   5.059  1.00  0.00    +0.000 C 
ATOM     71  N6  UNL A   1      13.801  51.522   4.238  1.00  0.00    +0.000 N 
ATOM     72  C49 UNL A   1      13.985  47.565   2.225  1.00  0.00    +0.000 C 
ATOM     73  C50 UNL A   1      14.887  47.668   1.259  1.00  0.00    +0.000 C 
ATOM     74  C51 UNL A   1      16.117  55.783   2.915  1.00  0.00    +0.000 C 
ATOM     75  C52 UNL A   1      15.372  55.700   4.009  1.00  0.00    +0.000 C 
ATOM    114  H21 UNL A   1      18.611  53.231  -1.013  1.00  0.00    +0.000 H 
ATOM    115  H22 UNL A   1      18.165  50.724  -1.573  1.00  0.00    +0.000 H 
ATOM    116  H23 UNL A   1      15.821  51.771   1.677  1.00  0.00    +0.000 H 
ATOM    117  H24 UNL A   1      11.712  50.126   6.273  1.00  0.00    +0.000 H 
ATOM    118  H25 UNL A   1      12.113  52.582   6.783  1.00  0.00    +0.000 H 
ATOM    119  H26 UNL A   1      14.430  51.575   3.483  1.00  0.00    +0.000 H 
ATOM    120  H27 UNL A   1      13.418  46.748   2.502  1.00  0.00    +0.000 H 
ATOM    121  H28 UNL A   1      15.184  46.886   0.655  1.00  0.00    +0.000 H 
ATOM    122  H29 UNL A   1      16.556  56.652   2.572  1.00  0.00    +0.000 H 
ATOM    123  H30 UNL A   1      15.154  56.430   4.704  1.00  0.00    +0.000 H 
ENDROOT
BRANCH   19   18
ATOM     76  C53 UNL A   1      12.289  55.504   5.863  1.00  0.00    +0.000 C 
ATOM     77  C54 UNL A   1      11.816  56.396   6.825  1.00  0.00    +0.000 C 
ATOM     15  C11 UNL A   1      12.495  56.537   8.039  1.00  0.00    +0.000 C 
ATOM    112  H19 UNL A   1      14.239  56.024   9.116  1.00  0.00    +0.000 H 
ATOM     16  C12 UNL A   1      13.713  55.884   8.239  1.00  0.00    +0.000 C 
ATOM     17  C13 UNL A   1      14.220  55.040   7.247  1.00  0.00    +0.000 C 
ATOM    113  H20 UNL A   1      15.133  54.578   7.384  1.00  0.00    +0.000 H 
ATOM     18  C14 UNL A   1      13.494  54.816   6.065  1.00  0.00    +0.000 C 
ATOM    124  H31 UNL A   1      11.749  55.350   4.997  1.00  0.00    +0.000 H 
ATOM    125  H32 UNL A   1      10.966  56.950   6.642  1.00  0.00    +0.000 H 
BRANCH   15   13
ATOM     13  C10 UNL A   1      11.961  57.389   9.126  1.00  0.00    +0.000 C 
ATOM     14  O2  UNL A   1      12.084  58.609   9.057  1.00  0.00    +0.000 O 
BRANCH   13   12
ATOM     12  N2  UNL A   1      11.349  56.821  10.216  1.00  0.00    +0.000 N 
ATOM    111  H18 UNL A   1      11.527  57.266  11.076  1.00  0.00    +0.000 H 
BRANCH   12   11
ATOM     11  C9  UNL A   1      10.480  55.659  10.284  1.00  0.00    +0.000 C 
ATOM    109  H16 UNL A   1       9.750  55.821  11.051  1.00  0.00    +0.000 H 
ATOM    110  H17 UNL A   1      10.022  55.538   9.325  1.00  0.00    +0.000 H 
BRANCH   11   10
ATOM     10  C8  UNL A   1      11.245  54.377  10.599  1.00  0.00    +0.000 C 
ATOM    107  H14 UNL A   1      10.557  53.679  11.028  1.00  0.00    +0.000 H 
ATOM    108  H15 UNL A   1      11.666  54.046   9.673  1.00  0.00    +0.000 H 
BRANCH   10    9
ATOM      9  C7  UNL A   1      12.418  54.542  11.566  1.00  0.00    +0.000 C 
ATOM    106  H13 UNL A   1      12.213  55.425  12.134  1.00  0.00    +0.000 H 
ATOM    105  H12 UNL A   1      13.317  54.603  10.989  1.00  0.00    +0.000 H 
BRANCH    9    8
ATOM    104  H11 UNL A   1      12.531  52.502  12.028  1.00  0.00    +0.000 H 
ATOM    103  H10 UNL A   1      11.820  53.517  13.323  1.00  0.00    +0.000 H 
ATOM      8  C6  UNL A   1      12.588  53.414  12.586  1.00  0.00    +0.000 C 
BRANCH    8    7
ATOM    101  H8  UNL A   1      14.563  54.137  12.894  1.00  0.00    +0.000 H 
ATOM    102  H9  UNL A   1      13.723  53.527  14.351  1.00  0.00    +0.000 H 
ATOM      7  C5  UNL A   1      13.939  53.377  13.313  1.00  0.00    +0.000 C 
BRANCH    7    6
ATOM     99  H6  UNL A   1      15.060  51.785  14.191  1.00  0.00    +0.000 H 
ATOM    100  H7  UNL A   1      14.008  51.299  12.865  1.00  0.00    +0.000 H 
ATOM      6  C4  UNL A   1      14.689  52.043  13.222  1.00  0.00    +0.000 C 
BRANCH    6    5
ATOM     98  H5  UNL A   1      16.392  52.907  12.378  1.00  0.00    +0.000 H 
ATOM      5  N1  UNL A   1      15.802  52.122  12.296  1.00  0.00    +0.000 N 
BRANCH    5    3
ATOM      3  C3  UNL A   1      16.114  51.213  11.322  1.00  0.00    +0.000 C 
ATOM      4  O1  UNL A   1      16.891  50.314  11.645  1.00  0.00    +0.000 O 
BRANCH    3    2
ATOM     97  H4  UNL A   1      16.189  51.014   9.220  1.00  0.00    +0.000 H 
ATOM      2  C2  UNL A   1      15.458  51.337   9.931  1.00  0.00    +0.000 C 
BRANCH    2    1
ATOM      1  C1  UNL A   1      15.057  52.808   9.753  1.00  0.00    +0.000 C 
ATOM     94  H1  UNL A   1      15.935  53.421   9.774  1.00  0.00    +0.000 H 
ATOM     95  H2  UNL A   1      14.402  53.098  10.547  1.00  0.00    +0.000 H 
ATOM     96  H3  UNL A   1      14.559  52.931   8.815  1.00  0.00    +0.000 H 
ENDBRANCH    2    1
BRANCH    2   78
ATOM    137  H44 UNL A   1      13.397  47.697   7.776  1.00  0.00    +0.000 H 
ATOM     78  C55 UNL A   1      14.276  50.400   9.627  1.00  0.00    +0.000 C 
ATOM     79  C56 UNL A   1      12.998  50.630  10.167  1.00  0.00    +0.000 C 
ATOM     80  C57 UNL A   1      11.891  49.848   9.823  1.00  0.00    +0.000 C 
ATOM     81  C58 UNL A   1      12.016  48.772   8.947  1.00  0.00    +0.000 C 
ATOM     89  C65 UNL A   1      13.280  48.494   8.422  1.00  0.00    +0.000 C 
ATOM     90  C66 UNL A   1      14.397  49.285   8.759  1.00  0.00    +0.000 C 
ATOM    126  H33 UNL A   1      12.873  51.402  10.840  1.00  0.00    +0.000 H 
ATOM    127  H34 UNL A   1      10.966  50.071  10.225  1.00  0.00    +0.000 H 
BRANCH   81   82
ATOM    129  H36 UNL A   1       9.972  48.586   8.719  1.00  0.00    +0.000 H 
ATOM     82  C59 UNL A   1      10.814  47.943   8.566  1.00  0.00    +0.000 C 
ATOM    128  H35 UNL A   1      10.952  47.617   7.556  1.00  0.00    +0.000 H 
BRANCH   82   83
ATOM    130  H37 UNL A   1       9.685  46.302   8.897  1.00  0.00    +0.000 H 
ATOM    131  H38 UNL A   1      12.328  45.777   8.684  1.00  0.00    +0.000 H 
ATOM    132  H39 UNL A   1      11.282  44.673   9.496  1.00  0.00    +0.000 H 
ATOM    133  H40 UNL A   1      13.121  46.737  10.675  1.00  0.00    +0.000 H 
ATOM    134  H41 UNL A   1      12.912  45.109  11.187  1.00  0.00    +0.000 H 
ATOM    135  H42 UNL A   1      11.697  47.166  12.469  1.00  0.00    +0.000 H 
ATOM    136  H43 UNL A   1      10.930  45.649  12.407  1.00  0.00    +0.000 H 
ATOM     83  C60 UNL A   1      10.530  46.701   9.418  1.00  0.00    +0.000 C 
ATOM     84  C61 UNL A   1      11.661  45.674   9.514  1.00  0.00    +0.000 C 
ATOM     85  C62 UNL A   1      12.391  45.968  10.820  1.00  0.00    +0.000 C 
ATOM     86  C63 UNL A   1      11.314  46.434  11.789  1.00  0.00    +0.000 C 
ATOM     87  C64 UNL A   1      10.280  47.033  10.872  1.00  0.00    +0.000 C 
ATOM     88  O3  UNL A   1       9.331  47.700  11.265  1.00  0.00    +0.000 O 
ENDBRANCH   82   83
ENDBRANCH   81   82
BRANCH   90   91
ATOM     91  N7  UNL A   1      15.656  48.894   8.159  1.00  0.00    +0.000 N 
ATOM     92  O4  UNL A   1      15.928  49.228   7.024  1.00  0.00    +0.000 O 
ATOM     93  O5  UNL A   1      16.550  48.082   8.813  1.00  0.00    +0.000 O 
ENDBRANCH   90   91
ENDBRANCH    2   78
ENDBRANCH    3    2
ENDBRANCH    5    3
ENDBRANCH    6    5
ENDBRANCH    7    6
ENDBRANCH    8    7
ENDBRANCH    9    8
ENDBRANCH   10    9
ENDBRANCH   11   10
ENDBRANCH   12   11
ENDBRANCH   13   12
ENDBRANCH   15   13
ENDBRANCH   19   18
BRANCH   23   24
ATOM     33  C24 UNL A   1      17.335  56.108  -0.493  1.00  0.00    +0.000 C 
ATOM     34  F5  UNL A   1      16.149  55.800  -1.041  1.00  0.00    +0.000 F 
ATOM     24  C19 UNL A   1      17.803  55.398   0.622  1.00  0.00    +0.000 C 
ATOM     25  C20 UNL A   1      19.052  55.757   1.152  1.00  0.00    +0.000 C 
ATOM     26  F1  UNL A   1      19.539  55.116   2.225  1.00  0.00    +0.000 F 
ATOM     27  C21 UNL A   1      19.793  56.796   0.598  1.00  0.00    +0.000 C 
ATOM     28  F2  UNL A   1      20.967  57.145   1.144  1.00  0.00    +0.000 F 
ATOM     29  C22 UNL A   1      19.317  57.475  -0.513  1.00  0.00    +0.000 C 
ATOM     30  F3  UNL A   1      20.038  58.468  -1.054  1.00  0.00    +0.000 F 
ATOM     31  C23 UNL A   1      18.092  57.129  -1.062  1.00  0.00    +0.000 C 
ATOM     32  F4  UNL A   1      17.636  57.777  -2.143  1.00  0.00    +0.000 F 
ENDBRANCH   23   24
BRANCH   40   41
ATOM     41  C30 UNL A   1      16.786  48.394  -0.747  1.00  0.00    +0.000 C 
ATOM     42  C31 UNL A   1      16.030  48.020  -1.868  1.00  0.00    +0.000 C 
ATOM     43  F6  UNL A   1      14.818  48.559  -2.074  1.00  0.00    +0.000 F 
ATOM     44  C32 UNL A   1      16.497  47.056  -2.756  1.00  0.00    +0.000 C 
ATOM     45  F7  UNL A   1      15.734  46.677  -3.791  1.00  0.00    +0.000 F 
ATOM     46  C33 UNL A   1      17.741  46.474  -2.562  1.00  0.00    +0.000 C 
ATOM     47  F8  UNL A   1      18.189  45.547  -3.420  1.00  0.00    +0.000 F 
ATOM     48  C34 UNL A   1      18.515  46.846  -1.473  1.00  0.00    +0.000 C 
ATOM     49  F9  UNL A   1      19.722  46.292  -1.291  1.00  0.00    +0.000 F 
ATOM     50  C35 UNL A   1      18.039  47.789  -0.568  1.00  0.00    +0.000 C 
ATOM     51  F10 UNL A   1      18.804  48.116   0.486  1.00  0.00    +0.000 F 
ENDBRANCH   40   41
BRANCH   55   56
ATOM     65  C44 UNL A   1      10.911  47.995   4.279  1.00  0.00    +0.000 C 
ATOM     66  F15 UNL A   1      10.323  48.937   3.528  1.00  0.00    +0.000 F 
ATOM     56  C39 UNL A   1      12.286  48.068   4.548  1.00  0.00    +0.000 C 
ATOM     57  C40 UNL A   1      12.849  47.060   5.343  1.00  0.00    +0.000 C 
ATOM     58  F11 UNL A   1      14.163  47.075   5.610  1.00  0.00    +0.000 F 
ATOM     59  C41 UNL A   1      12.075  46.007   5.826  1.00  0.00    +0.000 C 
ATOM     60  F12 UNL A   1      12.649  45.028   6.539  1.00  0.00    +0.000 F 
ATOM     61  C42 UNL A   1      10.717  45.958   5.549  1.00  0.00    +0.000 C 
ATOM     62  F13 UNL A   1       9.973  44.944   6.012  1.00  0.00    +0.000 F 
ATOM     63  C43 UNL A   1      10.132  46.957   4.786  1.00  0.00    +0.000 C 
ATOM     64  F14 UNL A   1       8.818  46.921   4.528  1.00  0.00    +0.000 F 
ENDBRANCH   55   56
TORSDOF 20
ENDMDL
MODEL 5
REMARK VINA RESULT:     -10.2     24.866     27.944
ROOT
ATOM     19  C15 UNL A   1      46.568  50.940  18.005  1.00  0.00    +0.000 C 
ATOM     20  C16 UNL A   1      47.556  50.561  19.073  1.00  0.00    +0.000 C 
ATOM     21  N3  UNL A   1      48.601  51.222  19.503  1.00  0.00    +0.000 N 
ATOM     22  C17 UNL A   1      49.150  50.446  20.516  1.00  0.00    +0.000 C 
ATOM     23  C18 UNL A   1      50.278  50.666  21.233  1.00  0.00    +0.000 C 
ATOM     35  C25 UNL A   1      51.141  51.806  21.061  1.00  0.00    +0.000 C 
ATOM     36  C26 UNL A   1      52.333  52.091  21.707  1.00  0.00    +0.000 C 
ATOM     37  C27 UNL A   1      52.799  53.325  21.241  1.00  0.00    +0.000 C 
ATOM     38  C28 UNL A   1      51.920  53.788  20.275  1.00  0.00    +0.000 C 
ATOM     39  N4  UNL A   1      50.906  52.849  20.179  1.00  0.00    +0.000 N 
ATOM     40  C29 UNL A   1      52.000  54.996  19.496  1.00  0.00    +0.000 C 
ATOM     52  C36 UNL A   1      51.098  55.374  18.557  1.00  0.00    +0.000 C 
ATOM     53  N5  UNL A   1      49.944  54.724  18.143  1.00  0.00    +0.000 N 
ATOM     54  C37 UNL A   1      49.402  55.498  17.235  1.00  0.00    +0.000 C 
ATOM     55  C38 UNL A   1      48.152  55.282  16.426  1.00  0.00    +0.000 C 
ATOM     67  C45 UNL A   1      47.446  54.148  16.596  1.00  0.00    +0.000 C 
ATOM     68  C46 UNL A   1      46.228  53.793  15.874  1.00  0.00    +0.000 C 
ATOM     69  C47 UNL A   1      45.781  52.610  16.324  1.00  0.00    +0.000 C 
ATOM     70  C48 UNL A   1      46.701  52.107  17.345  1.00  0.00    +0.000 C 
ATOM     71  N6  UNL A   1      47.658  53.086  17.441  1.00  0.00    +0.000 N 
ATOM     72  C49 UNL A   1      50.143  56.743  16.987  1.00  0.00    +0.000 C 
ATOM     73  C50 UNL A   1      51.190  56.596  17.786  1.00  0.00    +0.000 C 
ATOM     74  C51 UNL A   1      48.294  49.289  20.672  1.00  0.00    +0.000 C 
ATOM     75  C52 UNL A   1      47.327  49.283  19.765  1.00  0.00    +0.000 C 
ATOM    114  H21 UNL A   1      52.797  51.495  22.410  1.00  0.00    +0.000 H 
ATOM    115  H22 UNL A   1      53.652  53.808  21.563  1.00  0.00    +0.000 H 
ATOM    116  H23 UNL A   1      50.132  52.913  19.574  1.00  0.00    +0.000 H 
ATOM    117  H24 UNL A   1      45.782  54.361  15.136  1.00  0.00    +0.000 H 
ATOM    118  H25 UNL A   1      44.927  52.130  16.000  1.00  0.00    +0.000 H 
ATOM    119  H26 UNL A   1      48.424  53.032  18.056  1.00  0.00    +0.000 H 
ATOM    120  H27 UNL A   1      49.909  57.526  16.357  1.00  0.00    +0.000 H 
ATOM    121  H28 UNL A   1      51.971  57.266  17.850  1.00  0.00    +0.000 H 
ATOM    122  H29 UNL A   1      48.420  48.563  21.395  1.00  0.00    +0.000 H 
ATOM    123  H30 UNL A   1      46.603  48.569  19.590  1.00  0.00    +0.000 H 
ENDROOT
BRANCH   19   18
ATOM     76  C53 UNL A   1      44.183  50.267  18.351  1.00  0.00    +0.000 C 
ATOM     77  C54 UNL A   1      43.085  49.458  18.059  1.00  0.00    +0.000 C 
ATOM     15  C11 UNL A   1      43.177  48.496  17.048  1.00  0.00    +0.000 C 
ATOM    112  H19 UNL A   1      44.482  47.516  15.706  1.00  0.00    +0.000 H 
ATOM     16  C12 UNL A   1      44.401  48.257  16.420  1.00  0.00    +0.000 C 
ATOM     17  C13 UNL A   1      45.518  49.026  16.759  1.00  0.00    +0.000 C 
ATOM    113  H20 UNL A   1      46.428  48.832  16.313  1.00  0.00    +0.000 H 
ATOM     18  C14 UNL A   1      45.409  50.060  17.703  1.00  0.00    +0.000 C 
ATOM    124  H31 UNL A   1      44.092  51.022  19.049  1.00  0.00    +0.000 H 
ATOM    125  H32 UNL A   1      42.206  49.569  18.587  1.00  0.00    +0.000 H 
BRANCH   15   13
ATOM     13  C10 UNL A   1      42.001  47.697  16.636  1.00  0.00    +0.000 C 
ATOM     14  O2  UNL A   1      41.308  48.076  15.697  1.00  0.00    +0.000 O 
BRANCH   13   12
ATOM     12  N2  UNL A   1      41.672  46.549  17.313  1.00  0.00    +0.000 N 
ATOM    111  H18 UNL A   1      40.848  46.599  17.851  1.00  0.00    +0.000 H 
BRANCH   12   11
ATOM     11  C9  UNL A   1      42.363  45.271  17.352  1.00  0.00    +0.000 C 
ATOM    109  H16 UNL A   1      41.765  44.542  16.844  1.00  0.00    +0.000 H 
ATOM    110  H17 UNL A   1      43.313  45.400  16.877  1.00  0.00    +0.000 H 
BRANCH   11   10
ATOM     10  C8  UNL A   1      42.617  44.789  18.777  1.00  0.00    +0.000 C 
ATOM    107  H14 UNL A   1      43.381  45.403  19.203  1.00  0.00    +0.000 H 
ATOM    108  H15 UNL A   1      41.679  44.860  19.287  1.00  0.00    +0.000 H 
BRANCH   10    9
ATOM      9  C7  UNL A   1      43.058  43.330  18.899  1.00  0.00    +0.000 C 
ATOM    106  H13 UNL A   1      44.124  43.333  18.804  1.00  0.00    +0.000 H 
ATOM    105  H12 UNL A   1      42.562  42.768  18.135  1.00  0.00    +0.000 H 
BRANCH    9    8
ATOM    104  H11 UNL A   1      43.707  42.474  20.697  1.00  0.00    +0.000 H 
ATOM    103  H10 UNL A   1      42.182  41.784  20.056  1.00  0.00    +0.000 H 
ATOM      8  C6  UNL A   1      42.756  42.666  20.245  1.00  0.00    +0.000 C 
BRANCH    8    7
ATOM    101  H8  UNL A   1      42.463  44.482  21.311  1.00  0.00    +0.000 H 
ATOM    102  H9  UNL A   1      40.976  43.583  20.883  1.00  0.00    +0.000 H 
ATOM      7  C5  UNL A   1      41.981  43.529  21.249  1.00  0.00    +0.000 C 
BRANCH    7    6
ATOM     99  H6  UNL A   1      40.871  42.991  22.992  1.00  0.00    +0.000 H 
ATOM    100  H7  UNL A   1      42.241  41.941  22.640  1.00  0.00    +0.000 H 
ATOM      6  C4  UNL A   1      41.888  42.951  22.666  1.00  0.00    +0.000 C 
BRANCH    6    5
ATOM     98  H5  UNL A   1      42.428  44.617  23.804  1.00  0.00    +0.000 H 
ATOM      5  N1  UNL A   1      42.712  43.696  23.598  1.00  0.00    +0.000 N 
BRANCH    5    3
ATOM      3  C3  UNL A   1      43.845  43.245  24.219  1.00  0.00    +0.000 C 
ATOM      4  O1  UNL A   1      43.713  42.254  24.939  1.00  0.00    +0.000 O 
BRANCH    3    2
ATOM     97  H4  UNL A   1      45.953  43.214  24.071  1.00  0.00    +0.000 H 
ATOM      2  C2  UNL A   1      45.189  43.955  23.955  1.00  0.00    +0.000 C 
BRANCH    2    1
ATOM      1  C1  UNL A   1      45.301  45.098  24.973  1.00  0.00    +0.000 C 
ATOM     94  H1  UNL A   1      45.731  44.725  25.880  1.00  0.00    +0.000 H 
ATOM     95  H2  UNL A   1      44.328  45.493  25.175  1.00  0.00    +0.000 H 
ATOM     96  H3  UNL A   1      45.924  45.871  24.575  1.00  0.00    +0.000 H 
ENDBRANCH    2    1
BRANCH    2   78
ATOM    137  H44 UNL A   1      46.879  43.576  19.580  1.00  0.00    +0.000 H 
ATOM     78  C55 UNL A   1      45.445  44.459  22.524  1.00  0.00    +0.000 C 
ATOM     79  C56 UNL A   1      45.087  45.760  22.129  1.00  0.00    +0.000 C 
ATOM     80  C57 UNL A   1      45.402  46.270  20.865  1.00  0.00    +0.000 C 
ATOM     81  C58 UNL A   1      46.061  45.487  19.919  1.00  0.00    +0.000 C 
ATOM     89  C65 UNL A   1      46.397  44.177  20.267  1.00  0.00    +0.000 C 
ATOM     90  C66 UNL A   1      46.089  43.662  21.544  1.00  0.00    +0.000 C 
ATOM    126  H33 UNL A   1      44.575  46.361  22.794  1.00  0.00    +0.000 H 
ATOM    127  H34 UNL A   1      45.143  47.241  20.628  1.00  0.00    +0.000 H 
BRANCH   81   82
ATOM    129  H36 UNL A   1      45.655  45.681  17.903  1.00  0.00    +0.000 H 
ATOM     82  C59 UNL A   1      46.414  46.048  18.563  1.00  0.00    +0.000 C 
ATOM    128  H35 UNL A   1      46.453  47.114  18.654  1.00  0.00    +0.000 H 
BRANCH   82   83
ATOM    130  H37 UNL A   1      47.674  44.533  18.124  1.00  0.00    +0.000 H 
ATOM    131  H38 UNL A   1      46.989  46.031  15.980  1.00  0.00    +0.000 H 
ATOM    132  H39 UNL A   1      48.428  45.082  15.958  1.00  0.00    +0.000 H 
ATOM    133  H40 UNL A   1      48.122  48.028  16.468  1.00  0.00    +0.000 H 
ATOM    134  H41 UNL A   1      49.287  47.256  15.466  1.00  0.00    +0.000 H 
ATOM    135  H42 UNL A   1      49.899  48.080  17.976  1.00  0.00    +0.000 H 
ATOM    136  H43 UNL A   1      50.668  46.704  17.337  1.00  0.00    +0.000 H 
ATOM     83  C60 UNL A   1      47.739  45.587  17.947  1.00  0.00    +0.000 C 
ATOM     84  C61 UNL A   1      47.935  45.889  16.459  1.00  0.00    +0.000 C 
ATOM     85  C62 UNL A   1      48.758  47.171  16.392  1.00  0.00    +0.000 C 
ATOM     86  C63 UNL A   1      49.706  47.105  17.581  1.00  0.00    +0.000 C 
ATOM     87  C64 UNL A   1      48.940  46.261  18.568  1.00  0.00    +0.000 C 
ATOM     88  O3  UNL A   1      49.269  46.125  19.740  1.00  0.00    +0.000 O 
ENDBRANCH   82   83
ENDBRANCH   81   82
BRANCH   90   91
ATOM     91  N7  UNL A   1      46.479  42.289  21.786  1.00  0.00    +0.000 N 
ATOM     92  O4  UNL A   1      46.092  41.400  21.055  1.00  0.00    +0.000 O 
ATOM     93  O5  UNL A   1      47.233  41.930  22.877  1.00  0.00    +0.000 O 
ENDBRANCH   90   91
ENDBRANCH    2   78
ENDBRANCH    3    2
ENDBRANCH    5    3
ENDBRANCH    6    5
ENDBRANCH    7    6
ENDBRANCH    8    7
ENDBRANCH    9    8
ENDBRANCH   10    9
ENDBRANCH   11   10
ENDBRANCH   12   11
ENDBRANCH   13   12
ENDBRANCH   15   13
ENDBRANCH   19   18
BRANCH   23   24
ATOM     33  C24 UNL A   1      51.412  48.516  21.910  1.00  0.00    +0.000 C 
ATOM     34  F5  UNL A   1      51.846  48.362  20.650  1.00  0.00    +0.000 F 
ATOM     24  C19 UNL A   1      50.658  49.645  22.264  1.00  0.00    +0.000 C 
ATOM     25  C20 UNL A   1      50.224  49.753  23.595  1.00  0.00    +0.000 C 
ATOM     26  F1  UNL A   1      49.509  50.819  23.986  1.00  0.00    +0.000 F 
ATOM     27  C21 UNL A   1      50.549  48.781  24.536  1.00  0.00    +0.000 C 
ATOM     28  F2  UNL A   1      50.154  48.925  25.809  1.00  0.00    +0.000 F 
ATOM     29  C22 UNL A   1      51.284  47.667  24.160  1.00  0.00    +0.000 C 
ATOM     30  F3  UNL A   1      51.584  46.724  25.065  1.00  0.00    +0.000 F 
ATOM     31  C23 UNL A   1      51.711  47.531  22.848  1.00  0.00    +0.000 C 
ATOM     32  F4  UNL A   1      52.412  46.449  22.481  1.00  0.00    +0.000 F 
ENDBRANCH   23   24
BRANCH   40   41
ATOM     41  C30 UNL A   1      53.175  55.902  19.719  1.00  0.00    +0.000 C 
ATOM     42  C31 UNL A   1      53.116  56.970  20.626  1.00  0.00    +0.000 C 
ATOM     43  F6  UNL A   1      51.980  57.228  21.292  1.00  0.00    +0.000 F 
ATOM     44  C32 UNL A   1      54.212  57.806  20.817  1.00  0.00    +0.000 C 
ATOM     45  F7  UNL A   1      54.117  58.852  21.650  1.00  0.00    +0.000 F 
ATOM     46  C33 UNL A   1      55.396  57.570  20.134  1.00  0.00    +0.000 C 
ATOM     47  F8  UNL A   1      56.451  58.376  20.321  1.00  0.00    +0.000 F 
ATOM     48  C34 UNL A   1      55.483  56.506  19.250  1.00  0.00    +0.000 C 
ATOM     49  F9  UNL A   1      56.630  56.269  18.597  1.00  0.00    +0.000 F 
ATOM     50  C35 UNL A   1      54.380  55.684  19.035  1.00  0.00    +0.000 C 
ATOM     51  F10 UNL A   1      54.489  54.672  18.161  1.00  0.00    +0.000 F 
ENDBRANCH   40   41
BRANCH   55   56
ATOM     65  C44 UNL A   1      47.957  56.132  14.063  1.00  0.00    +0.000 C 
ATOM     66  F15 UNL A   1      48.630  55.058  13.626  1.00  0.00    +0.000 F 
ATOM     56  C39 UNL A   1      47.708  56.295  15.434  1.00  0.00    +0.000 C 
ATOM     57  C40 UNL A   1      47.006  57.438  15.838  1.00  0.00    +0.000 C 
ATOM     58  F11 UNL A   1      46.725  57.628  17.135  1.00  0.00    +0.000 F 
ATOM     59  C41 UNL A   1      46.545  58.367  14.907  1.00  0.00    +0.000 C 
ATOM     60  F12 UNL A   1      45.830  59.424  15.315  1.00  0.00    +0.000 F 
ATOM     61  C42 UNL A   1      46.806  58.186  13.557  1.00  0.00    +0.000 C 
ATOM     62  F13 UNL A   1      46.361  59.079  12.661  1.00  0.00    +0.000 F 
ATOM     63  C43 UNL A   1      47.521  57.076  13.135  1.00  0.00    +0.000 C 
ATOM     64  F14 UNL A   1      47.787  56.904  11.834  1.00  0.00    +0.000 F 
ENDBRANCH   55   56
TORSDOF 20
ENDMDL
MODEL 6
REMARK VINA RESULT:     -10.2     19.943     26.517
ROOT
ATOM     19  C15 UNL A   1      46.510  11.516  47.201  1.00  0.00    +0.000 C 
ATOM     20  C16 UNL A   1      46.648  10.510  48.310  1.00  0.00    +0.000 C 
ATOM     21  N3  UNL A   1      47.457  10.521  49.339  1.00  0.00    +0.000 N 
ATOM     22  C17 UNL A   1      47.157   9.377  50.068  1.00  0.00    +0.000 C 
ATOM     23  C18 UNL A   1      47.760   8.904  51.185  1.00  0.00    +0.000 C 
ATOM     35  C25 UNL A   1      48.868   9.546  51.845  1.00  0.00    +0.000 C 
ATOM     36  C26 UNL A   1      49.578   9.118  52.954  1.00  0.00    +0.000 C 
ATOM     37  C27 UNL A   1      50.544  10.083  53.256  1.00  0.00    +0.000 C 
ATOM     38  C28 UNL A   1      50.465  11.092  52.309  1.00  0.00    +0.000 C 
ATOM     39  N4  UNL A   1      49.430  10.752  51.454  1.00  0.00    +0.000 N 
ATOM     40  C29 UNL A   1      51.274  12.276  52.193  1.00  0.00    +0.000 C 
ATOM     52  C36 UNL A   1      51.138  13.216  51.224  1.00  0.00    +0.000 C 
ATOM     53  N5  UNL A   1      50.236  13.260  50.171  1.00  0.00    +0.000 N 
ATOM     54  C37 UNL A   1      50.487  14.375  49.530  1.00  0.00    +0.000 C 
ATOM     55  C38 UNL A   1      49.834  14.925  48.290  1.00  0.00    +0.000 C 
ATOM     67  C45 UNL A   1      48.855  14.220  47.693  1.00  0.00    +0.000 C 
ATOM     68  C46 UNL A   1      48.144  14.616  46.481  1.00  0.00    +0.000 C 
ATOM     69  C47 UNL A   1      47.216  13.690  46.195  1.00  0.00    +0.000 C 
ATOM     70  C48 UNL A   1      47.289  12.616  47.187  1.00  0.00    +0.000 C 
ATOM     71  N6  UNL A   1      48.290  13.016  48.037  1.00  0.00    +0.000 N 
ATOM     72  C49 UNL A   1      51.565  15.178  50.121  1.00  0.00    +0.000 C 
ATOM     73  C50 UNL A   1      51.957  14.406  51.124  1.00  0.00    +0.000 C 
ATOM     74  C51 UNL A   1      46.058   8.721  49.392  1.00  0.00    +0.000 C 
ATOM     75  C52 UNL A   1      45.745   9.350  48.268  1.00  0.00    +0.000 C 
ATOM    114  H21 UNL A   1      49.420   8.237  53.469  1.00  0.00    +0.000 H 
ATOM    115  H22 UNL A   1      51.203  10.049  54.050  1.00  0.00    +0.000 H 
ATOM    116  H23 UNL A   1      49.135  11.287  50.682  1.00  0.00    +0.000 H 
ATOM    117  H24 UNL A   1      48.326  15.472  45.934  1.00  0.00    +0.000 H 
ATOM    118  H25 UNL A   1      46.558  13.727  45.402  1.00  0.00    +0.000 H 
ATOM    119  H26 UNL A   1      48.575  12.491  48.819  1.00  0.00    +0.000 H 
ATOM    120  H27 UNL A   1      51.924  16.102  49.832  1.00  0.00    +0.000 H 
ATOM    121  H28 UNL A   1      52.744  14.624  51.754  1.00  0.00    +0.000 H 
ATOM    122  H29 UNL A   1      45.581   7.874  49.740  1.00  0.00    +0.000 H 
ATOM    123  H30 UNL A   1      45.048   9.093  47.551  1.00  0.00    +0.000 H 
ENDROOT
BRANCH   19   18
ATOM     76  C53 UNL A   1      45.803  10.659  44.960  1.00  0.00    +0.000 C 
ATOM     77  C54 UNL A   1      44.837  10.471  43.971  1.00  0.00    +0.000 C 
ATOM     15  C11 UNL A   1      43.519  10.878  44.197  1.00  0.00    +0.000 C 
ATOM    112  H19 UNL A   1      42.231  11.927  45.503  1.00  0.00    +0.000 H 
ATOM     16  C12 UNL A   1      43.195  11.586  45.356  1.00  0.00    +0.000 C 
ATOM     17  C13 UNL A   1      44.177  11.830  46.319  1.00  0.00    +0.000 C 
ATOM    113  H20 UNL A   1      43.944  12.375  47.163  1.00  0.00    +0.000 H 
ATOM     18  C14 UNL A   1      45.481  11.338  46.144  1.00  0.00    +0.000 C 
ATOM    124  H31 UNL A   1      46.758  10.296  44.819  1.00  0.00    +0.000 H 
ATOM    125  H32 UNL A   1      45.096  10.033  43.074  1.00  0.00    +0.000 H 
BRANCH   15   13
ATOM     13  C10 UNL A   1      42.447  10.595  43.215  1.00  0.00    +0.000 C 
ATOM     14  O2  UNL A   1      42.587   9.678  42.411  1.00  0.00    +0.000 O 
BRANCH   13   12
ATOM     12  N2  UNL A   1      41.311  11.364  43.189  1.00  0.00    +0.000 N 
ATOM    111  H18 UNL A   1      40.640  11.148  43.878  1.00  0.00    +0.000 H 
BRANCH   12   11
ATOM     11  C9  UNL A   1      40.952  12.449  42.292  1.00  0.00    +0.000 C 
ATOM    109  H16 UNL A   1      40.741  12.040  41.325  1.00  0.00    +0.000 H 
ATOM    110  H17 UNL A   1      40.096  12.943  42.704  1.00  0.00    +0.000 H 
BRANCH   11   10
ATOM     10  C8  UNL A   1      42.064  13.484  42.154  1.00  0.00    +0.000 C 
ATOM    107  H14 UNL A   1      42.382  13.761  43.137  1.00  0.00    +0.000 H 
ATOM    108  H15 UNL A   1      42.832  13.020  41.571  1.00  0.00    +0.000 H 
BRANCH   10    9
ATOM      9  C7  UNL A   1      41.675  14.760  41.406  1.00  0.00    +0.000 C 
ATOM    106  H13 UNL A   1      41.178  15.383  42.119  1.00  0.00    +0.000 H 
ATOM    105  H12 UNL A   1      41.057  14.483  40.576  1.00  0.00    +0.000 H 
BRANCH    9    8
ATOM    104  H11 UNL A   1      43.709  15.257  41.407  1.00  0.00    +0.000 H 
ATOM    103  H10 UNL A   1      42.614  16.619  41.010  1.00  0.00    +0.000 H 
ATOM      8  C6  UNL A   1      42.846  15.585  40.867  1.00  0.00    +0.000 C 
BRANCH    8    7
ATOM    101  H8  UNL A   1      43.484  14.360  39.250  1.00  0.00    +0.000 H 
ATOM    102  H9  UNL A   1      42.285  15.625  38.841  1.00  0.00    +0.000 H 
ATOM      7  C5  UNL A   1      43.175  15.376  39.383  1.00  0.00    +0.000 C 
BRANCH    7    6
ATOM     99  H6  UNL A   1      45.122  15.682  38.561  1.00  0.00    +0.000 H 
ATOM    100  H7  UNL A   1      43.892  16.799  37.974  1.00  0.00    +0.000 H 
ATOM      6  C4  UNL A   1      44.280  16.284  38.828  1.00  0.00    +0.000 C 
BRANCH    6    5
ATOM     98  H5  UNL A   1      43.991  17.653  40.378  1.00  0.00    +0.000 H 
ATOM      5  N1  UNL A   1      44.696  17.270  39.806  1.00  0.00    +0.000 N 
BRANCH    5    3
ATOM      3  C3  UNL A   1      45.972  17.721  40.011  1.00  0.00    +0.000 C 
ATOM      4  O1  UNL A   1      46.558  18.163  39.022  1.00  0.00    +0.000 O 
BRANCH    3    2
ATOM     97  H4  UNL A   1      46.613  18.706  41.767  1.00  0.00    +0.000 H 
ATOM      2  C2  UNL A   1      46.568  17.690  41.433  1.00  0.00    +0.000 C 
BRANCH    2    1
ATOM      1  C1  UNL A   1      47.950  17.031  41.328  1.00  0.00    +0.000 C 
ATOM     94  H1  UNL A   1      47.926  16.271  40.575  1.00  0.00    +0.000 H 
ATOM     95  H2  UNL A   1      48.209  16.593  42.269  1.00  0.00    +0.000 H 
ATOM     96  H3  UNL A   1      48.678  17.770  41.066  1.00  0.00    +0.000 H 
ENDBRANCH    2    1
BRANCH    2   78
ATOM    137  H44 UNL A   1      43.428  17.713  44.938  1.00  0.00    +0.000 H 
ATOM     78  C55 UNL A   1      45.720  17.028  42.534  1.00  0.00    +0.000 C 
ATOM     79  C56 UNL A   1      45.860  15.665  42.849  1.00  0.00    +0.000 C 
ATOM     80  C57 UNL A   1      45.172  15.070  43.911  1.00  0.00    +0.000 C 
ATOM     81  C58 UNL A   1      44.279  15.803  44.690  1.00  0.00    +0.000 C 
ATOM     89  C65 UNL A   1      44.089  17.151  44.379  1.00  0.00    +0.000 C 
ATOM     90  C66 UNL A   1      44.788  17.758  43.314  1.00  0.00    +0.000 C 
ATOM    126  H33 UNL A   1      46.493  15.083  42.277  1.00  0.00    +0.000 H 
ATOM    127  H34 UNL A   1      45.327  14.071  44.122  1.00  0.00    +0.000 H 
BRANCH   81   82
ATOM    129  H36 UNL A   1      42.588  15.622  45.861  1.00  0.00    +0.000 H 
ATOM     82  C59 UNL A   1      43.553  15.160  45.846  1.00  0.00    +0.000 C 
ATOM    128  H35 UNL A   1      43.542  14.103  45.674  1.00  0.00    +0.000 H 
BRANCH   82   83
ATOM    130  H37 UNL A   1      44.617  14.455  47.410  1.00  0.00    +0.000 H 
ATOM    131  H38 UNL A   1      45.546  16.798  46.432  1.00  0.00    +0.000 H 
ATOM    132  H39 UNL A   1      45.922  16.315  48.043  1.00  0.00    +0.000 H 
ATOM    133  H40 UNL A   1      43.830  18.255  47.098  1.00  0.00    +0.000 H 
ATOM    134  H41 UNL A   1      44.922  18.454  48.411  1.00  0.00    +0.000 H 
ATOM    135  H42 UNL A   1      42.351  17.689  48.808  1.00  0.00    +0.000 H 
ATOM    136  H43 UNL A   1      43.561  17.131  49.864  1.00  0.00    +0.000 H 
ATOM     83  C60 UNL A   1      44.133  15.395  47.244  1.00  0.00    +0.000 C 
ATOM     84  C61 UNL A   1      45.117  16.560  47.382  1.00  0.00    +0.000 C 
ATOM     85  C62 UNL A   1      44.306  17.740  47.906  1.00  0.00    +0.000 C 
ATOM     86  C63 UNL A   1      43.264  17.133  48.835  1.00  0.00    +0.000 C 
ATOM     87  C64 UNL A   1      43.076  15.751  48.265  1.00  0.00    +0.000 C 
ATOM     88  O3  UNL A   1      42.175  14.995  48.606  1.00  0.00    +0.000 O 
ENDBRANCH   82   83
ENDBRANCH   81   82
BRANCH   90   91
ATOM     91  N7  UNL A   1      44.501  19.159  43.083  1.00  0.00    +0.000 N 
ATOM     92  O4  UNL A   1      45.052  20.018  43.741  1.00  0.00    +0.000 O 
ATOM     93  O5  UNL A   1      43.556  19.565  42.173  1.00  0.00    +0.000 O 
ENDBRANCH   90   91
ENDBRANCH    2   78
ENDBRANCH    3    2
ENDBRANCH    5    3
ENDBRANCH    6    5
ENDBRANCH    7    6
ENDBRANCH    8    7
ENDBRANCH    9    8
ENDBRANCH   10    9
ENDBRANCH   11   10
ENDBRANCH   12   11
ENDBRANCH   13   12
ENDBRANCH   15   13
ENDBRANCH   19   18
BRANCH   23   24
ATOM     33  C24 UNL A   1      47.926   6.413  51.548  1.00  0.00    +0.000 C 
ATOM     34  F5  UNL A   1      49.077   6.401  50.860  1.00  0.00    +0.000 F 
ATOM     24  C19 UNL A   1      47.245   7.620  51.765  1.00  0.00    +0.000 C 
ATOM     25  C20 UNL A   1      46.041   7.575  52.487  1.00  0.00    +0.000 C 
ATOM     26  F1  UNL A   1      45.358   8.703  52.730  1.00  0.00    +0.000 F 
ATOM     27  C21 UNL A   1      45.551   6.372  52.986  1.00  0.00    +0.000 C 
ATOM     28  F2  UNL A   1      44.419   6.359  53.704  1.00  0.00    +0.000 F 
ATOM     29  C22 UNL A   1      46.235   5.189  52.748  1.00  0.00    +0.000 C 
ATOM     30  F3  UNL A   1      45.754   4.029  53.220  1.00  0.00    +0.000 F 
ATOM     31  C23 UNL A   1      47.418   5.208  52.026  1.00  0.00    +0.000 C 
ATOM     32  F4  UNL A   1      48.073   4.064  51.786  1.00  0.00    +0.000 F 
ENDBRANCH   23   24
BRANCH   40   41
ATOM     41  C30 UNL A   1      52.364  12.488  53.202  1.00  0.00    +0.000 C 
ATOM     42  C31 UNL A   1      52.124  13.152  54.413  1.00  0.00    +0.000 C 
ATOM     43  F6  UNL A   1      50.907  13.652  54.679  1.00  0.00    +0.000 F 
ATOM     44  C32 UNL A   1      53.147  13.347  55.337  1.00  0.00    +0.000 C 
ATOM     45  F7  UNL A   1      52.907  14.031  56.464  1.00  0.00    +0.000 F 
ATOM     46  C33 UNL A   1      54.417  12.852  55.083  1.00  0.00    +0.000 C 
ATOM     47  F8  UNL A   1      55.401  13.039  55.975  1.00  0.00    +0.000 F 
ATOM     48  C34 UNL A   1      54.671  12.171  53.902  1.00  0.00    +0.000 C 
ATOM     49  F9  UNL A   1      55.896  11.682  53.661  1.00  0.00    +0.000 F 
ATOM     50  C35 UNL A   1      53.657  12.000  52.964  1.00  0.00    +0.000 C 
ATOM     51  F10 UNL A   1      53.937  11.351  51.822  1.00  0.00    +0.000 F 
ENDBRANCH   40   41
BRANCH   55   56
ATOM     65  C44 UNL A   1      49.656  17.428  48.077  1.00  0.00    +0.000 C 
ATOM     66  F15 UNL A   1      48.627  17.424  48.936  1.00  0.00    +0.000 F 
ATOM     56  C39 UNL A   1      50.275  16.222  47.716  1.00  0.00    +0.000 C 
ATOM     57  C40 UNL A   1      51.342  16.283  46.810  1.00  0.00    +0.000 C 
ATOM     58  F11 UNL A   1      51.980  15.159  46.451  1.00  0.00    +0.000 F 
ATOM     59  C41 UNL A   1      51.791  17.502  46.305  1.00  0.00    +0.000 C 
ATOM     60  F12 UNL A   1      52.847  17.536  45.482  1.00  0.00    +0.000 F 
ATOM     61  C42 UNL A   1      51.161  18.681  46.674  1.00  0.00    +0.000 C 
ATOM     62  F13 UNL A   1      51.594  19.854  46.190  1.00  0.00    +0.000 F 
ATOM     63  C43 UNL A   1      50.087  18.644  47.550  1.00  0.00    +0.000 C 
ATOM     64  F14 UNL A   1      49.466  19.779  47.898  1.00  0.00    +0.000 F 
ENDBRANCH   55   56
TORSDOF 20
ENDMDL
MODEL 7
REMARK VINA RESULT:     -10.1     18.400     24.483
ROOT
ATOM     19  C15 UNL A   1      24.371  38.337  48.593  1.00  0.00    +0.000 C 
ATOM     20  C16 UNL A   1      25.651  39.107  48.418  1.00  0.00    +0.000 C 
ATOM     21  N3  UNL A   1      26.717  38.792  47.728  1.00  0.00    +0.000 N 
ATOM     22  C17 UNL A   1      27.594  39.859  47.875  1.00  0.00    +0.000 C 
ATOM     23  C18 UNL A   1      28.858  39.987  47.405  1.00  0.00    +0.000 C 
ATOM     35  C25 UNL A   1      29.540  38.986  46.626  1.00  0.00    +0.000 C 
ATOM     36  C26 UNL A   1      30.839  39.004  46.145  1.00  0.00    +0.000 C 
ATOM     37  C27 UNL A   1      31.050  37.833  45.411  1.00  0.00    +0.000 C 
ATOM     38  C28 UNL A   1      29.898  37.066  45.469  1.00  0.00    +0.000 C 
ATOM     39  N4  UNL A   1      28.979  37.788  46.212  1.00  0.00    +0.000 N 
ATOM     40  C29 UNL A   1      29.654  35.770  44.891  1.00  0.00    +0.000 C 
ATOM     52  C36 UNL A   1      28.493  35.078  45.003  1.00  0.00    +0.000 C 
ATOM     53  N5  UNL A   1      27.326  35.431  45.666  1.00  0.00    +0.000 N 
ATOM     54  C37 UNL A   1      26.486  34.445  45.464  1.00  0.00    +0.000 C 
ATOM     55  C38 UNL A   1      25.080  34.277  45.970  1.00  0.00    +0.000 C 
ATOM     67  C45 UNL A   1      24.546  35.229  46.760  1.00  0.00    +0.000 C 
ATOM     68  C46 UNL A   1      23.206  35.196  47.338  1.00  0.00    +0.000 C 
ATOM     69  C47 UNL A   1      23.005  36.322  48.040  1.00  0.00    +0.000 C 
ATOM     70  C48 UNL A   1      24.215  37.142  47.989  1.00  0.00    +0.000 C 
ATOM     71  N6  UNL A   1      25.077  36.414  47.207  1.00  0.00    +0.000 N 
ATOM     72  C49 UNL A   1      27.022  33.362  44.627  1.00  0.00    +0.000 C 
ATOM     73  C50 UNL A   1      28.261  33.777  44.411  1.00  0.00    +0.000 C 
ATOM     74  C51 UNL A   1      26.916  40.854  48.679  1.00  0.00    +0.000 C 
ATOM     75  C52 UNL A   1      25.734  40.414  49.089  1.00  0.00    +0.000 C 
ATOM    114  H21 UNL A   1      31.531  39.753  46.303  1.00  0.00    +0.000 H 
ATOM    115  H22 UNL A   1      31.918  37.583  44.909  1.00  0.00    +0.000 H 
ATOM    116  H23 UNL A   1      28.062  37.494  46.417  1.00  0.00    +0.000 H 
ATOM    117  H24 UNL A   1      22.524  34.430  47.224  1.00  0.00    +0.000 H 
ATOM    118  H25 UNL A   1      22.135  36.569  48.538  1.00  0.00    +0.000 H 
ATOM    119  H26 UNL A   1      25.988  36.713  46.987  1.00  0.00    +0.000 H 
ATOM    120  H27 UNL A   1      26.555  32.504  44.294  1.00  0.00    +0.000 H 
ATOM    121  H28 UNL A   1      28.971  33.242  43.887  1.00  0.00    +0.000 H 
ATOM    122  H29 UNL A   1      27.302  41.785  48.903  1.00  0.00    +0.000 H 
ATOM    123  H30 UNL A   1      25.051  40.869  49.713  1.00  0.00    +0.000 H 
ENDROOT
BRANCH   19   18
ATOM     76  C53 UNL A   1      23.127  38.594  50.748  1.00  0.00    +0.000 C 
ATOM     77  C54 UNL A   1      22.088  39.138  51.503  1.00  0.00    +0.000 C 
ATOM     15  C11 UNL A   1      21.221  40.071  50.927  1.00  0.00    +0.000 C 
ATOM    112  H19 UNL A   1      20.643  41.015  49.126  1.00  0.00    +0.000 H 
ATOM     16  C12 UNL A   1      21.313  40.361  49.564  1.00  0.00    +0.000 C 
ATOM     17  C13 UNL A   1      22.314  39.766  48.792  1.00  0.00    +0.000 C 
ATOM    113  H20 UNL A   1      22.365  39.961  47.780  1.00  0.00    +0.000 H 
ATOM     18  C14 UNL A   1      23.251  38.904  49.385  1.00  0.00    +0.000 C 
ATOM    124  H31 UNL A   1      23.807  37.959  51.194  1.00  0.00    +0.000 H 
ATOM    125  H32 UNL A   1      21.961  38.853  52.486  1.00  0.00    +0.000 H 
BRANCH   15   13
ATOM     13  C10 UNL A   1      20.178  40.750  51.728  1.00  0.00    +0.000 C 
ATOM     14  O2  UNL A   1      20.503  41.430  52.697  1.00  0.00    +0.000 O 
BRANCH   13   12
ATOM     12  N2  UNL A   1      18.852  40.606  51.405  1.00  0.00    +0.000 N 
ATOM    111  H18 UNL A   1      18.398  41.430  51.113  1.00  0.00    +0.000 H 
BRANCH   12   11
ATOM     11  C9  UNL A   1      18.019  39.416  51.432  1.00  0.00    +0.000 C 
ATOM    109  H16 UNL A   1      18.266  38.845  52.304  1.00  0.00    +0.000 H 
ATOM    110  H17 UNL A   1      16.997  39.733  51.448  1.00  0.00    +0.000 H 
BRANCH   11   10
ATOM     10  C8  UNL A   1      18.215  38.538  50.200  1.00  0.00    +0.000 C 
ATOM    107  H14 UNL A   1      17.254  38.352  49.770  1.00  0.00    +0.000 H 
ATOM    108  H15 UNL A   1      18.875  39.077  49.552  1.00  0.00    +0.000 H 
BRANCH   10    9
ATOM      9  C7  UNL A   1      18.885  37.189  50.464  1.00  0.00    +0.000 C 
ATOM    106  H13 UNL A   1      18.091  36.486  50.603  1.00  0.00    +0.000 H 
ATOM    105  H12 UNL A   1      19.518  37.295  51.321  1.00  0.00    +0.000 H 
BRANCH    9    8
ATOM    104  H11 UNL A   1      20.160  35.730  49.670  1.00  0.00    +0.000 H 
ATOM    103  H10 UNL A   1      20.462  37.388  49.061  1.00  0.00    +0.000 H 
ATOM      8  C6  UNL A   1      19.735  36.645  49.313  1.00  0.00    +0.000 C 
BRANCH    8    7
ATOM    101  H8  UNL A   1      18.773  35.231  48.051  1.00  0.00    +0.000 H 
ATOM    102  H9  UNL A   1      18.077  36.880  48.043  1.00  0.00    +0.000 H 
ATOM      7  C5  UNL A   1      18.966  36.283  48.036  1.00  0.00    +0.000 C 
BRANCH    7    6
ATOM     99  H6  UNL A   1      19.666  37.671  46.571  1.00  0.00    +0.000 H 
ATOM    100  H7  UNL A   1      20.700  36.264  46.804  1.00  0.00    +0.000 H 
ATOM      6  C4  UNL A   1      19.691  36.613  46.726  1.00  0.00    +0.000 C 
BRANCH    6    5
ATOM     98  H5  UNL A   1      18.339  36.442  45.145  1.00  0.00    +0.000 H 
ATOM      5  N1  UNL A   1      19.068  35.956  45.594  1.00  0.00    +0.000 N 
BRANCH    5    3
ATOM      3  C3  UNL A   1      19.395  34.726  45.089  1.00  0.00    +0.000 C 
ATOM      4  O1  UNL A   1      20.181  34.718  44.141  1.00  0.00    +0.000 O 
BRANCH    3    2
ATOM     97  H4  UNL A   1      17.984  33.777  46.344  1.00  0.00    +0.000 H 
ATOM      2  C2  UNL A   1      18.813  33.458  45.746  1.00  0.00    +0.000 C 
BRANCH    2    1
ATOM      1  C1  UNL A   1      19.939  32.821  46.572  1.00  0.00    +0.000 C 
ATOM     94  H1  UNL A   1      19.797  31.761  46.611  1.00  0.00    +0.000 H 
ATOM     95  H2  UNL A   1      19.922  33.220  47.564  1.00  0.00    +0.000 H 
ATOM     96  H3  UNL A   1      20.882  33.038  46.116  1.00  0.00    +0.000 H 
ENDBRANCH    2    1
BRANCH    2   78
ATOM    137  H44 UNL A   1      15.427  31.912  42.866  1.00  0.00    +0.000 H 
ATOM     78  C55 UNL A   1      18.157  32.424  44.814  1.00  0.00    +0.000 C 
ATOM     79  C56 UNL A   1      18.708  31.143  44.633  1.00  0.00    +0.000 C 
ATOM     80  C57 UNL A   1      18.073  30.158  43.870  1.00  0.00    +0.000 C 
ATOM     81  C58 UNL A   1      16.870  30.419  43.218  1.00  0.00    +0.000 C 
ATOM     89  C65 UNL A   1      16.315  31.694  43.346  1.00  0.00    +0.000 C 
ATOM     90  C66 UNL A   1      16.947  32.688  44.122  1.00  0.00    +0.000 C 
ATOM    126  H33 UNL A   1      19.612  30.922  45.080  1.00  0.00    +0.000 H 
ATOM    127  H34 UNL A   1      18.502  29.223  43.788  1.00  0.00    +0.000 H 
BRANCH   81   82
ATOM    129  H36 UNL A   1      15.137  29.475  42.609  1.00  0.00    +0.000 H 
ATOM     82  C59 UNL A   1      16.181  29.346  42.410  1.00  0.00    +0.000 C 
ATOM    128  H35 UNL A   1      16.462  29.480  41.386  1.00  0.00    +0.000 H 
BRANCH   82   83
ATOM    130  H37 UNL A   1      17.352  27.718  42.186  1.00  0.00    +0.000 H 
ATOM    131  H38 UNL A   1      17.090  28.521  44.754  1.00  0.00    +0.000 H 
ATOM    132  H39 UNL A   1      17.550  26.901  44.390  1.00  0.00    +0.000 H 
ATOM    133  H40 UNL A   1      14.845  27.963  45.154  1.00  0.00    +0.000 H 
ATOM    134  H41 UNL A   1      15.619  26.549  45.752  1.00  0.00    +0.000 H 
ATOM    135  H42 UNL A   1      13.720  26.417  43.820  1.00  0.00    +0.000 H 
ATOM    136  H43 UNL A   1      14.981  25.276  43.833  1.00  0.00    +0.000 H 
ATOM     83  C60 UNL A   1      16.485  27.893  42.788  1.00  0.00    +0.000 C 
ATOM     84  C61 UNL A   1      16.771  27.624  44.267  1.00  0.00    +0.000 C 
ATOM     85  C62 UNL A   1      15.459  27.134  44.870  1.00  0.00    +0.000 C 
ATOM     86  C63 UNL A   1      14.785  26.326  43.770  1.00  0.00    +0.000 C 
ATOM     87  C64 UNL A   1      15.326  26.962  42.515  1.00  0.00    +0.000 C 
ATOM     88  O3  UNL A   1      14.884  26.732  41.396  1.00  0.00    +0.000 O 
ENDBRANCH   82   83
ENDBRANCH   81   82
BRANCH   90   91
ATOM     91  N7  UNL A   1      16.281  33.973  44.173  1.00  0.00    +0.000 N 
ATOM     92  O4  UNL A   1      16.183  34.657  43.175  1.00  0.00    +0.000 O 
ATOM     93  O5  UNL A   1      15.805  34.497  45.350  1.00  0.00    +0.000 O 
ENDBRANCH   90   91
ENDBRANCH    2   78
ENDBRANCH    3    2
ENDBRANCH    5    3
ENDBRANCH    6    5
ENDBRANCH    7    6
ENDBRANCH    8    7
ENDBRANCH    9    8
ENDBRANCH   10    9
ENDBRANCH   11   10
ENDBRANCH   12   11
ENDBRANCH   13   12
ENDBRANCH   15   13
ENDBRANCH   19   18
BRANCH   23   24
ATOM     33  C24 UNL A   1      30.440  41.317  48.852  1.00  0.00    +0.000 C 
ATOM     34  F5  UNL A   1      30.631  40.233  49.619  1.00  0.00    +0.000 F 
ATOM     24  C19 UNL A   1      29.598  41.250  47.732  1.00  0.00    +0.000 C 
ATOM     25  C20 UNL A   1      29.428  42.415  46.967  1.00  0.00    +0.000 C 
ATOM     26  F1  UNL A   1      28.643  42.399  45.880  1.00  0.00    +0.000 F 
ATOM     27  C21 UNL A   1      30.089  43.593  47.302  1.00  0.00    +0.000 C 
ATOM     28  F2  UNL A   1      29.940  44.683  46.535  1.00  0.00    +0.000 F 
ATOM     29  C22 UNL A   1      30.906  43.640  48.421  1.00  0.00    +0.000 C 
ATOM     30  F3  UNL A   1      31.531  44.780  48.749  1.00  0.00    +0.000 F 
ATOM     31  C23 UNL A   1      31.077  42.505  49.199  1.00  0.00    +0.000 C 
ATOM     32  F4  UNL A   1      31.857  42.553  50.288  1.00  0.00    +0.000 F 
ENDBRANCH   23   24
BRANCH   40   41
ATOM     41  C30 UNL A   1      30.765  35.121  44.120  1.00  0.00    +0.000 C 
ATOM     42  C31 UNL A   1      31.676  34.252  44.737  1.00  0.00    +0.000 C 
ATOM     43  F6  UNL A   1      31.592  34.011  46.054  1.00  0.00    +0.000 F 
ATOM     44  C32 UNL A   1      32.706  33.662  44.010  1.00  0.00    +0.000 C 
ATOM     45  F7  UNL A   1      33.596  32.876  44.631  1.00  0.00    +0.000 F 
ATOM     46  C33 UNL A   1      32.824  33.903  42.649  1.00  0.00    +0.000 C 
ATOM     47  F8  UNL A   1      33.816  33.333  41.950  1.00  0.00    +0.000 F 
ATOM     48  C34 UNL A   1      31.920  34.741  42.015  1.00  0.00    +0.000 C 
ATOM     49  F9  UNL A   1      32.026  34.964  40.697  1.00  0.00    +0.000 F 
ATOM     50  C35 UNL A   1      30.906  35.354  42.744  1.00  0.00    +0.000 C 
ATOM     51  F10 UNL A   1      30.056  36.173  42.105  1.00  0.00    +0.000 F 
ENDBRANCH   40   41
BRANCH   55   56
ATOM     65  C44 UNL A   1      23.337  33.088  44.594  1.00  0.00    +0.000 C 
ATOM     66  F15 UNL A   1      23.104  34.223  43.918  1.00  0.00    +0.000 F 
ATOM     56  C39 UNL A   1      24.290  33.067  45.623  1.00  0.00    +0.000 C 
ATOM     57  C40 UNL A   1      24.491  31.858  46.301  1.00  0.00    +0.000 C 
ATOM     58  F11 UNL A   1      25.406  31.782  47.278  1.00  0.00    +0.000 F 
ATOM     59  C41 UNL A   1      23.788  30.708  45.947  1.00  0.00    +0.000 C 
ATOM     60  F12 UNL A   1      24.037  29.552  46.576  1.00  0.00    +0.000 F 
ATOM     61  C42 UNL A   1      22.847  30.754  44.928  1.00  0.00    +0.000 C 
ATOM     62  F13 UNL A   1      22.172  29.648  44.586  1.00  0.00    +0.000 F 
ATOM     63  C43 UNL A   1      22.614  31.946  44.259  1.00  0.00    +0.000 C 
ATOM     64  F14 UNL A   1      21.697  31.999  43.284  1.00  0.00    +0.000 F 
ENDBRANCH   55   56
TORSDOF 20
ENDMDL
MODEL 8
REMARK VINA RESULT:     -10.1     20.070     24.986
ROOT
ATOM     19  C15 UNL A   1      52.962  20.617  11.494  1.00  0.00    +0.000 C 
ATOM     20  C16 UNL A   1      54.268  19.916  11.238  1.00  0.00    +0.000 C 
ATOM     21  N3  UNL A   1      55.277  19.726  12.052  1.00  0.00    +0.000 N 
ATOM     22  C17 UNL A   1      56.214  19.000  11.329  1.00  0.00    +0.000 C 
ATOM     23  C18 UNL A   1      57.455  18.608  11.707  1.00  0.00    +0.000 C 
ATOM     35  C25 UNL A   1      58.039  18.888  12.993  1.00  0.00    +0.000 C 
ATOM     36  C26 UNL A   1      59.308  18.575  13.451  1.00  0.00    +0.000 C 
ATOM     37  C27 UNL A   1      59.416  19.014  14.775  1.00  0.00    +0.000 C 
ATOM     38  C28 UNL A   1      58.231  19.637  15.128  1.00  0.00    +0.000 C 
ATOM     39  N4  UNL A   1      57.393  19.548  14.027  1.00  0.00    +0.000 N 
ATOM     40  C29 UNL A   1      57.887  20.269  16.375  1.00  0.00    +0.000 C 
ATOM     52  C36 UNL A   1      56.700  20.870  16.638  1.00  0.00    +0.000 C 
ATOM     53  N5  UNL A   1      55.592  21.013  15.815  1.00  0.00    +0.000 N 
ATOM     54  C37 UNL A   1      54.692  21.642  16.530  1.00  0.00    +0.000 C 
ATOM     55  C38 UNL A   1      53.309  22.087  16.139  1.00  0.00    +0.000 C 
ATOM     67  C45 UNL A   1      52.871  21.852  14.887  1.00  0.00    +0.000 C 
ATOM     68  C46 UNL A   1      51.566  22.238  14.361  1.00  0.00    +0.000 C 
ATOM     69  C47 UNL A   1      51.463  21.815  13.091  1.00  0.00    +0.000 C 
ATOM     70  C48 UNL A   1      52.710  21.154  12.703  1.00  0.00    +0.000 C 
ATOM     71  N6  UNL A   1      53.488  21.223  13.833  1.00  0.00    +0.000 N 
ATOM     72  C49 UNL A   1      55.122  21.948  17.902  1.00  0.00    +0.000 C 
ATOM     73  C50 UNL A   1      56.368  21.496  17.900  1.00  0.00    +0.000 C 
ATOM     74  C51 UNL A   1      55.635  18.740  10.028  1.00  0.00    +0.000 C 
ATOM     75  C52 UNL A   1      54.457  19.334   9.901  1.00  0.00    +0.000 C 
ATOM    114  H21 UNL A   1      60.046  18.100  12.909  1.00  0.00    +0.000 H 
ATOM    115  H22 UNL A   1      60.240  18.892  15.385  1.00  0.00    +0.000 H 
ATOM    116  H23 UNL A   1      56.475  19.901  13.985  1.00  0.00    +0.000 H 
ATOM    117  H24 UNL A   1      50.839  22.754  14.881  1.00  0.00    +0.000 H 
ATOM    118  H25 UNL A   1      50.638  21.937  12.485  1.00  0.00    +0.000 H 
ATOM    119  H26 UNL A   1      54.399  20.857  13.883  1.00  0.00    +0.000 H 
ATOM    120  H27 UNL A   1      54.593  22.397  18.666  1.00  0.00    +0.000 H 
ATOM    121  H28 UNL A   1      57.018  21.580  18.697  1.00  0.00    +0.000 H 
ATOM    122  H29 UNL A   1      56.082  18.166   9.295  1.00  0.00    +0.000 H 
ATOM    123  H30 UNL A   1      53.836  19.377   9.079  1.00  0.00    +0.000 H 
ENDROOT
BRANCH   19   18
ATOM     76  C53 UNL A   1      51.046  19.596  10.251  1.00  0.00    +0.000 C 
ATOM     77  C54 UNL A   1      50.052  19.653   9.275  1.00  0.00    +0.000 C 
ATOM     15  C11 UNL A   1      49.861  20.828   8.541  1.00  0.00    +0.000 C 
ATOM    112  H19 UNL A   1      50.634  22.748   8.119  1.00  0.00    +0.000 H 
ATOM     16  C12 UNL A   1      50.745  21.898   8.694  1.00  0.00    +0.000 C 
ATOM     17  C13 UNL A   1      51.782  21.816   9.627  1.00  0.00    +0.000 C 
ATOM    113  H20 UNL A   1      52.450  22.596   9.721  1.00  0.00    +0.000 H 
ATOM     18  C14 UNL A   1      51.919  20.677  10.438  1.00  0.00    +0.000 C 
ATOM    124  H31 UNL A   1      51.139  18.753  10.839  1.00  0.00    +0.000 H 
ATOM    125  H32 UNL A   1      49.457  18.829   9.095  1.00  0.00    +0.000 H 
BRANCH   15   13
ATOM     13  C10 UNL A   1      48.746  20.961   7.577  1.00  0.00    +0.000 C 
ATOM     14  O2  UNL A   1      48.016  21.946   7.625  1.00  0.00    +0.000 O 
BRANCH   13   12
ATOM     12  N2  UNL A   1      48.514  19.979   6.645  1.00  0.00    +0.000 N 
ATOM    111  H18 UNL A   1      47.804  19.338   6.878  1.00  0.00    +0.000 H 
BRANCH   12   11
ATOM     11  C9  UNL A   1      49.165  19.748   5.367  1.00  0.00    +0.000 C 
ATOM    109  H16 UNL A   1      48.427  19.433   4.658  1.00  0.00    +0.000 H 
ATOM    110  H17 UNL A   1      49.630  20.664   5.068  1.00  0.00    +0.000 H 
BRANCH   11   10
ATOM     10  C8  UNL A   1      50.252  18.681   5.450  1.00  0.00    +0.000 C 
ATOM    107  H14 UNL A   1      50.482  18.364   4.455  1.00  0.00    +0.000 H 
ATOM    108  H15 UNL A   1      51.079  19.136   5.955  1.00  0.00    +0.000 H 
BRANCH   10    9
ATOM      9  C7  UNL A   1      49.884  17.442   6.269  1.00  0.00    +0.000 C 
ATOM    106  H13 UNL A   1      48.943  17.660   6.729  1.00  0.00    +0.000 H 
ATOM    105  H12 UNL A   1      50.672  17.261   6.970  1.00  0.00    +0.000 H 
BRANCH    9    8
ATOM    104  H11 UNL A   1      49.721  15.357   6.160  1.00  0.00    +0.000 H 
ATOM    103  H10 UNL A   1      50.426  16.122   4.701  1.00  0.00    +0.000 H 
ATOM      8  C6  UNL A   1      49.671  16.162   5.457  1.00  0.00    +0.000 C 
BRANCH    8    7
ATOM    101  H8  UNL A   1      48.318  16.644   3.889  1.00  0.00    +0.000 H 
ATOM    102  H9  UNL A   1      48.171  14.992   4.563  1.00  0.00    +0.000 H 
ATOM      7  C5  UNL A   1      48.305  16.034   4.769  1.00  0.00    +0.000 C 
BRANCH    7    6
ATOM     99  H6  UNL A   1      46.408  15.650   5.669  1.00  0.00    +0.000 H 
ATOM    100  H7  UNL A   1      47.462  16.712   6.599  1.00  0.00    +0.000 H 
ATOM      6  C4  UNL A   1      47.105  16.459   5.623  1.00  0.00    +0.000 C 
BRANCH    6    5
ATOM     98  H5  UNL A   1      46.446  18.440   5.613  1.00  0.00    +0.000 H 
ATOM      5  N1  UNL A   1      46.442  17.622   5.065  1.00  0.00    +0.000 N 
BRANCH    5    3
ATOM      3  C3  UNL A   1      45.812  17.692   3.852  1.00  0.00    +0.000 C 
ATOM      4  O1  UNL A   1      45.673  16.628   3.248  1.00  0.00    +0.000 O 
BRANCH    3    2
ATOM     97  H4  UNL A   1      45.801  19.254   2.429  1.00  0.00    +0.000 H 
ATOM      2  C2  UNL A   1      45.289  19.052   3.347  1.00  0.00    +0.000 C 
BRANCH    2    1
ATOM      1  C1  UNL A   1      45.591  20.085   4.442  1.00  0.00    +0.000 C 
ATOM     94  H1  UNL A   1      44.862  20.002   5.221  1.00  0.00    +0.000 H 
ATOM     95  H2  UNL A   1      45.556  21.068   4.024  1.00  0.00    +0.000 H 
ATOM     96  H3  UNL A   1      46.565  19.903   4.844  1.00  0.00    +0.000 H 
ENDBRANCH    2    1
BRANCH    2   78
ATOM    137  H44 UNL A   1      41.642  20.933   1.044  1.00  0.00    +0.000 H 
ATOM     78  C55 UNL A   1      43.814  19.119   2.914  1.00  0.00    +0.000 C 
ATOM     79  C56 UNL A   1      42.855  18.230   3.431  1.00  0.00    +0.000 C 
ATOM     80  C57 UNL A   1      41.495  18.339   3.126  1.00  0.00    +0.000 C 
ATOM     81  C58 UNL A   1      41.030  19.324   2.257  1.00  0.00    +0.000 C 
ATOM     89  C65 UNL A   1      41.962  20.200   1.696  1.00  0.00    +0.000 C 
ATOM     90  C66 UNL A   1      43.334  20.099   2.008  1.00  0.00    +0.000 C 
ATOM    126  H33 UNL A   1      43.166  17.471   4.058  1.00  0.00    +0.000 H 
ATOM    127  H34 UNL A   1      40.823  17.679   3.551  1.00  0.00    +0.000 H 
BRANCH   81   82
ATOM    129  H36 UNL A   1      39.467  19.178   0.914  1.00  0.00    +0.000 H 
ATOM     82  C59 UNL A   1      39.558  19.448   1.946  1.00  0.00    +0.000 C 
ATOM    128  H35 UNL A   1      39.029  18.812   2.625  1.00  0.00    +0.000 H 
BRANCH   82   83
ATOM    130  H37 UNL A   1      39.748  21.373   2.522  1.00  0.00    +0.000 H 
ATOM    131  H38 UNL A   1      39.093  21.079  -0.084  1.00  0.00    +0.000 H 
ATOM    132  H39 UNL A   1      38.765  22.559   0.736  1.00  0.00    +0.000 H 
ATOM    133  H40 UNL A   1      36.887  20.299   0.110  1.00  0.00    +0.000 H 
ATOM    134  H41 UNL A   1      36.596  21.982  -0.081  1.00  0.00    +0.000 H 
ATOM    135  H42 UNL A   1      35.654  20.615   2.063  1.00  0.00    +0.000 H 
ATOM    136  H43 UNL A   1      36.082  22.251   2.237  1.00  0.00    +0.000 H 
ATOM     83  C60 UNL A   1      38.945  20.848   2.049  1.00  0.00    +0.000 C 
ATOM     84  C61 UNL A   1      38.547  21.512   0.728  1.00  0.00    +0.000 C 
ATOM     85  C62 UNL A   1      37.054  21.256   0.557  1.00  0.00    +0.000 C 
ATOM     86  C63 UNL A   1      36.475  21.294   1.964  1.00  0.00    +0.000 C 
ATOM     87  C64 UNL A   1      37.641  20.862   2.814  1.00  0.00    +0.000 C 
ATOM     88  O3  UNL A   1      37.544  20.572   4.001  1.00  0.00    +0.000 O 
ENDBRANCH   82   83
ENDBRANCH   81   82
BRANCH   90   91
ATOM     91  N7  UNL A   1      44.205  21.057   1.359  1.00  0.00    +0.000 N 
ATOM     92  O4  UNL A   1      44.929  20.714   0.447  1.00  0.00    +0.000 O 
ATOM     93  O5  UNL A   1      44.299  22.359   1.789  1.00  0.00    +0.000 O 
ENDBRANCH   90   91
ENDBRANCH    2   78
ENDBRANCH    3    2
ENDBRANCH    5    3
ENDBRANCH    6    5
ENDBRANCH    7    6
ENDBRANCH    8    7
ENDBRANCH    9    8
ENDBRANCH   10    9
ENDBRANCH   11   10
ENDBRANCH   12   11
ENDBRANCH   13   12
ENDBRANCH   15   13
ENDBRANCH   19   18
BRANCH   23   24
ATOM     33  C24 UNL A   1      59.103  18.517   9.798  1.00  0.00    +0.000 C 
ATOM     34  F5  UNL A   1      59.205  19.854   9.837  1.00  0.00    +0.000 F 
ATOM     24  C19 UNL A   1      58.277  17.844  10.712  1.00  0.00    +0.000 C 
ATOM     25  C20 UNL A   1      58.203  16.445  10.623  1.00  0.00    +0.000 C 
ATOM     26  F1  UNL A   1      57.436  15.755  11.480  1.00  0.00    +0.000 F 
ATOM     27  C21 UNL A   1      58.940  15.748   9.670  1.00  0.00    +0.000 C 
ATOM     28  F2  UNL A   1      58.881  14.409   9.629  1.00  0.00    +0.000 F 
ATOM     29  C22 UNL A   1      59.739  16.435   8.769  1.00  0.00    +0.000 C 
ATOM     30  F3  UNL A   1      60.439  15.762   7.844  1.00  0.00    +0.000 F 
ATOM     31  C23 UNL A   1      59.817  17.818   8.829  1.00  0.00    +0.000 C 
ATOM     32  F4  UNL A   1      60.580  18.483   7.951  1.00  0.00    +0.000 F 
ENDBRANCH   23   24
BRANCH   40   41
ATOM     41  C30 UNL A   1      58.918  20.285  17.464  1.00  0.00    +0.000 C 
ATOM     42  C31 UNL A   1      59.653  21.441  17.762  1.00  0.00    +0.000 C 
ATOM     43  F6  UNL A   1      59.473  22.560  17.042  1.00  0.00    +0.000 F 
ATOM     44  C32 UNL A   1      60.611  21.439  18.771  1.00  0.00    +0.000 C 
ATOM     45  F7  UNL A   1      61.339  22.541  19.004  1.00  0.00    +0.000 F 
ATOM     46  C33 UNL A   1      60.827  20.294  19.524  1.00  0.00    +0.000 C 
ATOM     47  F8  UNL A   1      61.749  20.295  20.497  1.00  0.00    +0.000 F 
ATOM     48  C34 UNL A   1      60.094  19.147  19.262  1.00  0.00    +0.000 C 
ATOM     49  F9  UNL A   1      60.294  18.043  19.996  1.00  0.00    +0.000 F 
ATOM     50  C35 UNL A   1      59.156  19.137  18.235  1.00  0.00    +0.000 C 
ATOM     51  F10 UNL A   1      58.474  18.007  17.993  1.00  0.00    +0.000 F 
ENDBRANCH   40   41
BRANCH   55   56
ATOM     65  C44 UNL A   1      52.363  24.197  17.137  1.00  0.00    +0.000 C 
ATOM     66  F15 UNL A   1      53.103  24.925  16.289  1.00  0.00    +0.000 F 
ATOM     56  C39 UNL A   1      52.439  22.797  17.112  1.00  0.00    +0.000 C 
ATOM     57  C40 UNL A   1      51.649  22.084  18.024  1.00  0.00    +0.000 C 
ATOM     58  F11 UNL A   1      51.672  20.743  18.025  1.00  0.00    +0.000 F 
ATOM     59  C41 UNL A   1      50.795  22.743  18.906  1.00  0.00    +0.000 C 
ATOM     60  F12 UNL A   1      50.011  22.036  19.731  1.00  0.00    +0.000 F 
ATOM     61  C42 UNL A   1      50.739  24.129  18.915  1.00  0.00    +0.000 C 
ATOM     62  F13 UNL A   1      49.917  24.763  19.762  1.00  0.00    +0.000 F 
ATOM     63  C43 UNL A   1      51.530  24.856  18.039  1.00  0.00    +0.000 C 
ATOM     64  F14 UNL A   1      51.490  26.195  18.053  1.00  0.00    +0.000 F 
ENDBRANCH   55   56
TORSDOF 20
ENDMDL
MODEL 9
REMARK VINA RESULT:     -10.1      1.744      4.356
ROOT
ATOM     19  C15 UNL A   1      37.900  30.077  29.971  1.00  0.00    +0.000 C 
ATOM     20  C16 UNL A   1      38.946  29.168  29.387  1.00  0.00    +0.000 C 
ATOM     21  N3  UNL A   1      40.072  28.758  29.914  1.00  0.00    +0.000 N 
ATOM     22  C17 UNL A   1      40.646  27.914  28.973  1.00  0.00    +0.000 C 
ATOM     23  C18 UNL A   1      41.846  27.287  29.019  1.00  0.00    +0.000 C 
ATOM     35  C25 UNL A   1      42.775  27.390  30.114  1.00  0.00    +0.000 C 
ATOM     36  C26 UNL A   1      44.037  26.830  30.232  1.00  0.00    +0.000 C 
ATOM     37  C27 UNL A   1      44.553  27.173  31.485  1.00  0.00    +0.000 C 
ATOM     38  C28 UNL A   1      43.632  27.980  32.132  1.00  0.00    +0.000 C 
ATOM     39  N4  UNL A   1      42.544  28.100  31.282  1.00  0.00    +0.000 N 
ATOM     40  C29 UNL A   1      43.735  28.598  33.428  1.00  0.00    +0.000 C 
ATOM     52  C36 UNL A   1      42.786  29.387  33.989  1.00  0.00    +0.000 C 
ATOM     53  N5  UNL A   1      41.554  29.770  33.477  1.00  0.00    +0.000 N 
ATOM     54  C37 UNL A   1      40.996  30.512  34.402  1.00  0.00    +0.000 C 
ATOM     55  C38 UNL A   1      39.667  31.218  34.379  1.00  0.00    +0.000 C 
ATOM     67  C45 UNL A   1      38.894  31.131  33.280  1.00  0.00    +0.000 C 
ATOM     68  C46 UNL A   1      37.595  31.772  33.106  1.00  0.00    +0.000 C 
ATOM     69  C47 UNL A   1      37.100  31.440  31.903  1.00  0.00    +0.000 C 
ATOM     70  C48 UNL A   1      38.064  30.588  31.207  1.00  0.00    +0.000 C 
ATOM     71  N6  UNL A   1      39.098  30.457  32.100  1.00  0.00    +0.000 N 
ATOM     72  C49 UNL A   1      41.805  30.665  35.619  1.00  0.00    +0.000 C 
ATOM     73  C50 UNL A   1      42.903  29.997  35.297  1.00  0.00    +0.000 C 
ATOM     74  C51 UNL A   1      39.722  27.829  27.862  1.00  0.00    +0.000 C 
ATOM     75  C52 UNL A   1      38.682  28.632  28.043  1.00  0.00    +0.000 C 
ATOM    114  H21 UNL A   1      44.514  26.260  29.516  1.00  0.00    +0.000 H 
ATOM    115  H22 UNL A   1      45.466  26.874  31.864  1.00  0.00    +0.000 H 
ATOM    116  H23 UNL A   1      41.728  28.614  31.478  1.00  0.00    +0.000 H 
ATOM    117  H24 UNL A   1      37.131  32.382  33.798  1.00  0.00    +0.000 H 
ATOM    118  H25 UNL A   1      36.186  31.740  31.528  1.00  0.00    +0.000 H 
ATOM    119  H26 UNL A   1      39.908  29.931  31.914  1.00  0.00    +0.000 H 
ATOM    120  H27 UNL A   1      41.578  31.161  36.495  1.00  0.00    +0.000 H 
ATOM    121  H28 UNL A   1      43.736  29.921  35.901  1.00  0.00    +0.000 H 
ATOM    122  H29 UNL A   1      39.855  27.223  27.037  1.00  0.00    +0.000 H 
ATOM    123  H30 UNL A   1      37.893  28.827  27.407  1.00  0.00    +0.000 H 
ENDROOT
BRANCH   19   18
ATOM     76  C53 UNL A   1      36.423  31.676  28.738  1.00  0.00    +0.000 C 
ATOM     77  C54 UNL A   1      35.267  31.962  28.013  1.00  0.00    +0.000 C 
ATOM     15  C11 UNL A   1      34.379  30.934  27.680  1.00  0.00    +0.000 C 
ATOM    112  H19 UNL A   1      33.903  28.897  27.974  1.00  0.00    +0.000 H 
ATOM     16  C12 UNL A   1      34.582  29.647  28.181  1.00  0.00    +0.000 C 
ATOM     17  C13 UNL A   1      35.709  29.374  28.961  1.00  0.00    +0.000 C 
ATOM    113  H20 UNL A   1      35.845  28.429  29.352  1.00  0.00    +0.000 H 
ATOM     18  C14 UNL A   1      36.656  30.378  29.217  1.00  0.00    +0.000 C 
ATOM    124  H31 UNL A   1      37.111  32.423  28.922  1.00  0.00    +0.000 H 
ATOM    125  H32 UNL A   1      35.066  32.931  27.722  1.00  0.00    +0.000 H 
BRANCH   15   13
ATOM     13  C10 UNL A   1      33.201  31.183  26.819  1.00  0.00    +0.000 C 
ATOM     14  O2  UNL A   1      32.531  32.198  26.985  1.00  0.00    +0.000 O 
BRANCH   13   12
ATOM     12  N2  UNL A   1      32.844  30.275  25.853  1.00  0.00    +0.000 N 
ATOM    111  H18 UNL A   1      33.504  30.146  25.133  1.00  0.00    +0.000 H 
BRANCH   12   11
ATOM     11  C9  UNL A   1      31.634  29.479  25.736  1.00  0.00    +0.000 C 
ATOM    109  H16 UNL A   1      30.788  30.117  25.890  1.00  0.00    +0.000 H 
ATOM    110  H17 UNL A   1      31.625  29.043  24.760  1.00  0.00    +0.000 H 
BRANCH   11   10
ATOM     10  C8  UNL A   1      31.583  28.343  26.754  1.00  0.00    +0.000 C 
ATOM    107  H14 UNL A   1      32.545  28.269  27.216  1.00  0.00    +0.000 H 
ATOM    108  H15 UNL A   1      30.799  28.591  27.438  1.00  0.00    +0.000 H 
BRANCH   10    9
ATOM      9  C7  UNL A   1      31.228  26.972  26.178  1.00  0.00    +0.000 C 
ATOM    106  H13 UNL A   1      30.413  26.605  26.766  1.00  0.00    +0.000 H 
ATOM    105  H12 UNL A   1      32.102  26.355  26.226  1.00  0.00    +0.000 H 
BRANCH    9    8
ATOM    104  H11 UNL A   1      31.603  26.829  24.123  1.00  0.00    +0.000 H 
ATOM    103  H10 UNL A   1      30.242  27.912  24.553  1.00  0.00    +0.000 H 
ATOM      8  C6  UNL A   1      30.735  26.979  24.729  1.00  0.00    +0.000 C 
BRANCH    8    7
ATOM    101  H8  UNL A   1      29.143  25.652  25.206  1.00  0.00    +0.000 H 
ATOM    102  H9  UNL A   1      29.214  26.201  23.504  1.00  0.00    +0.000 H 
ATOM      7  C5  UNL A   1      29.761  25.853  24.356  1.00  0.00    +0.000 C 
BRANCH    7    6
ATOM     99  H6  UNL A   1      31.038  24.182  24.729  1.00  0.00    +0.000 H 
ATOM    100  H7  UNL A   1      29.651  23.833  23.701  1.00  0.00    +0.000 H 
ATOM      6  C4  UNL A   1      30.423  24.537  23.930  1.00  0.00    +0.000 C 
BRANCH    6    5
ATOM     98  H5  UNL A   1      30.809  25.126  21.964  1.00  0.00    +0.000 H 
ATOM      5  N1  UNL A   1      31.243  24.714  22.747  1.00  0.00    +0.000 N 
BRANCH    5    3
ATOM      3  C3  UNL A   1      32.560  24.365  22.613  1.00  0.00    +0.000 C 
ATOM      4  O1  UNL A   1      33.093  24.655  21.542  1.00  0.00    +0.000 O 
BRANCH    3    2
ATOM     97  H4  UNL A   1      32.953  24.182  24.681  1.00  0.00    +0.000 H 
ATOM      2  C2  UNL A   1      33.289  23.689  23.792  1.00  0.00    +0.000 C 
BRANCH    2    1
ATOM      1  C1  UNL A   1      34.794  23.857  23.546  1.00  0.00    +0.000 C 
ATOM     94  H1  UNL A   1      35.101  23.204  22.755  1.00  0.00    +0.000 H 
ATOM     95  H2  UNL A   1      35.331  23.613  24.438  1.00  0.00    +0.000 H 
ATOM     96  H3  UNL A   1      35.000  24.870  23.271  1.00  0.00    +0.000 H 
ENDBRANCH    2    1
BRANCH    2   78
ATOM    137  H44 UNL A   1      32.900  19.910  26.568  1.00  0.00    +0.000 H 
ATOM     78  C55 UNL A   1      32.935  22.220  24.086  1.00  0.00    +0.000 C 
ATOM     79  C56 UNL A   1      32.527  21.345  23.064  1.00  0.00    +0.000 C 
ATOM     80  C57 UNL A   1      32.298  19.984  23.294  1.00  0.00    +0.000 C 
ATOM     81  C58 UNL A   1      32.433  19.439  24.570  1.00  0.00    +0.000 C 
ATOM     89  C65 UNL A   1      32.801  20.290  25.614  1.00  0.00    +0.000 C 
ATOM     90  C66 UNL A   1      33.041  21.661  25.384  1.00  0.00    +0.000 C 
ATOM    126  H33 UNL A   1      32.391  21.718  22.112  1.00  0.00    +0.000 H 
ATOM    127  H34 UNL A   1      32.026  19.374  22.508  1.00  0.00    +0.000 H 
BRANCH   81   82
ATOM    129  H36 UNL A   1      32.383  17.822  25.853  1.00  0.00    +0.000 H 
ATOM     82  C59 UNL A   1      32.202  17.967  24.808  1.00  0.00    +0.000 C 
ATOM    128  H35 UNL A   1      31.207  17.739  24.489  1.00  0.00    +0.000 H 
BRANCH   82   83
ATOM    130  H37 UNL A   1      32.591  16.800  23.207  1.00  0.00    +0.000 H 
ATOM    131  H38 UNL A   1      34.541  18.596  23.742  1.00  0.00    +0.000 H 
ATOM    132  H39 UNL A   1      34.887  17.181  22.820  1.00  0.00    +0.000 H 
ATOM    133  H40 UNL A   1      35.413  17.707  25.732  1.00  0.00    +0.000 H 
ATOM    134  H41 UNL A   1      36.482  16.995  24.589  1.00  0.00    +0.000 H 
ATOM    135  H42 UNL A   1      35.055  15.482  26.329  1.00  0.00    +0.000 H 
ATOM    136  H43 UNL A   1      35.425  14.861  24.790  1.00  0.00    +0.000 H 
ATOM     83  C60 UNL A   1      33.150  16.994  24.099  1.00  0.00    +0.000 C 
ATOM     84  C61 UNL A   1      34.548  17.527  23.775  1.00  0.00    +0.000 C 
ATOM     85  C62 UNL A   1      35.458  17.039  24.897  1.00  0.00    +0.000 C 
ATOM     86  C63 UNL A   1      34.923  15.668  25.283  1.00  0.00    +0.000 C 
ATOM     87  C64 UNL A   1      33.463  15.770  24.929  1.00  0.00    +0.000 C 
ATOM     88  O3  UNL A   1      32.625  14.940  25.263  1.00  0.00    +0.000 O 
ENDBRANCH   82   83
ENDBRANCH   81   82
BRANCH   90   91
ATOM     91  N7  UNL A   1      33.408  22.444  26.546  1.00  0.00    +0.000 N 
ATOM     92  O4  UNL A   1      34.494  22.299  27.070  1.00  0.00    +0.000 O 
ATOM     93  O5  UNL A   1      32.530  23.319  27.138  1.00  0.00    +0.000 O 
ENDBRANCH   90   91
ENDBRANCH    2   78
ENDBRANCH    3    2
ENDBRANCH    5    3
ENDBRANCH    6    5
ENDBRANCH    7    6
ENDBRANCH    8    7
ENDBRANCH    9    8
ENDBRANCH   10    9
ENDBRANCH   11   10
ENDBRANCH   12   11
ENDBRANCH   13   12
ENDBRANCH   15   13
ENDBRANCH   19   18
BRANCH   23   24
ATOM     33  C24 UNL A   1      41.762  25.125  27.720  1.00  0.00    +0.000 C 
ATOM     34  F5  UNL A   1      40.913  24.625  28.630  1.00  0.00    +0.000 F 
ATOM     24  C19 UNL A   1      42.235  26.440  27.843  1.00  0.00    +0.000 C 
ATOM     25  C20 UNL A   1      43.126  26.911  26.866  1.00  0.00    +0.000 C 
ATOM     26  F1  UNL A   1      43.599  28.165  26.933  1.00  0.00    +0.000 F 
ATOM     27  C21 UNL A   1      43.513  26.104  25.800  1.00  0.00    +0.000 C 
ATOM     28  F2  UNL A   1      44.336  26.589  24.860  1.00  0.00    +0.000 F 
ATOM     29  C22 UNL A   1      43.043  24.803  25.706  1.00  0.00    +0.000 C 
ATOM     30  F3  UNL A   1      43.426  24.023  24.685  1.00  0.00    +0.000 F 
ATOM     31  C23 UNL A   1      42.172  24.312  26.667  1.00  0.00    +0.000 C 
ATOM     32  F4  UNL A   1      41.727  23.051  26.583  1.00  0.00    +0.000 F 
ENDBRANCH   23   24
BRANCH   40   41
ATOM     41  C30 UNL A   1      44.991  28.372  34.218  1.00  0.00    +0.000 C 
ATOM     42  C31 UNL A   1      45.120  27.288  35.097  1.00  0.00    +0.000 C 
ATOM     43  F6  UNL A   1      44.094  26.441  35.280  1.00  0.00    +0.000 F 
ATOM     44  C32 UNL A   1      46.288  27.095  35.829  1.00  0.00    +0.000 C 
ATOM     45  F7  UNL A   1      46.370  26.082  36.702  1.00  0.00    +0.000 F 
ATOM     46  C33 UNL A   1      47.360  27.961  35.669  1.00  0.00    +0.000 C 
ATOM     47  F8  UNL A   1      48.485  27.773  36.373  1.00  0.00    +0.000 F 
ATOM     48  C34 UNL A   1      47.262  29.027  34.787  1.00  0.00    +0.000 C 
ATOM     49  F9  UNL A   1      48.302  29.857  34.623  1.00  0.00    +0.000 F 
ATOM     50  C35 UNL A   1      46.085  29.238  34.076  1.00  0.00    +0.000 C 
ATOM     51  F10 UNL A   1      46.014  30.288  33.242  1.00  0.00    +0.000 F 
ENDBRANCH   40   41
BRANCH   55   56
ATOM     65  C44 UNL A   1      38.371  31.477  36.523  1.00  0.00    +0.000 C 
ATOM     66  F15 UNL A   1      37.930  30.216  36.403  1.00  0.00    +0.000 F 
ATOM     56  C39 UNL A   1      39.218  32.021  35.546  1.00  0.00    +0.000 C 
ATOM     57  C40 UNL A   1      39.645  33.344  35.716  1.00  0.00    +0.000 C 
ATOM     58  F11 UNL A   1      40.472  33.901  34.820  1.00  0.00    +0.000 F 
ATOM     59  C41 UNL A   1      39.265  34.085  36.833  1.00  0.00    +0.000 C 
ATOM     60  F12 UNL A   1      39.731  35.331  36.999  1.00  0.00    +0.000 F 
ATOM     61  C42 UNL A   1      38.424  33.527  37.785  1.00  0.00    +0.000 C 
ATOM     62  F13 UNL A   1      38.060  34.239  38.861  1.00  0.00    +0.000 F 
ATOM     63  C43 UNL A   1      37.968  32.228  37.625  1.00  0.00    +0.000 C 
ATOM     64  F14 UNL A   1      37.145  31.689  38.535  1.00  0.00    +0.000 F 
ENDBRANCH   55   56
TORSDOF 20
ENDMDL
MODEL 10
REMARK VINA RESULT:     -10.0     21.208     27.887
ROOT
ATOM     19  C15 UNL A   1      46.486  11.481  47.279  1.00  0.00    +0.000 C 
ATOM     20  C16 UNL A   1      46.637  10.466  48.378  1.00  0.00    +0.000 C 
ATOM     21  N3  UNL A   1      47.434  10.486  49.417  1.00  0.00    +0.000 N 
ATOM     22  C17 UNL A   1      47.154   9.329  50.131  1.00  0.00    +0.000 C 
ATOM     23  C18 UNL A   1      47.756   8.860  51.251  1.00  0.00    +0.000 C 
ATOM     35  C25 UNL A   1      48.841   9.520  51.928  1.00  0.00    +0.000 C 
ATOM     36  C26 UNL A   1      49.549   9.099  53.041  1.00  0.00    +0.000 C 
ATOM     37  C27 UNL A   1      50.489  10.084  53.363  1.00  0.00    +0.000 C 
ATOM     38  C28 UNL A   1      50.395  11.100  52.425  1.00  0.00    +0.000 C 
ATOM     39  N4  UNL A   1      49.378  10.744  51.555  1.00  0.00    +0.000 N 
ATOM     40  C29 UNL A   1      51.177  12.304  52.329  1.00  0.00    +0.000 C 
ATOM     52  C36 UNL A   1      51.028  13.250  51.369  1.00  0.00    +0.000 C 
ATOM     53  N5  UNL A   1      50.137  13.283  50.306  1.00  0.00    +0.000 N 
ATOM     54  C37 UNL A   1      50.368  14.410  49.678  1.00  0.00    +0.000 C 
ATOM     55  C38 UNL A   1      49.716  14.957  48.437  1.00  0.00    +0.000 C 
ATOM     67  C45 UNL A   1      48.760  14.234  47.823  1.00  0.00    +0.000 C 
ATOM     68  C46 UNL A   1      48.054  14.626  46.607  1.00  0.00    +0.000 C 
ATOM     69  C47 UNL A   1      47.151  13.680  46.302  1.00  0.00    +0.000 C 
ATOM     70  C48 UNL A   1      47.239  12.598  47.283  1.00  0.00    +0.000 C 
ATOM     71  N6  UNL A   1      48.220  13.014  48.149  1.00  0.00    +0.000 N 
ATOM     72  C49 UNL A   1      51.421  15.233  50.290  1.00  0.00    +0.000 C 
ATOM     73  C50 UNL A   1      51.819  14.460  51.289  1.00  0.00    +0.000 C 
ATOM     74  C51 UNL A   1      46.079   8.653  49.437  1.00  0.00    +0.000 C 
ATOM     75  C52 UNL A   1      45.762   9.286  48.315  1.00  0.00    +0.000 C 
ATOM    114  H21 UNL A   1      49.407   8.210  53.546  1.00  0.00    +0.000 H 
ATOM    115  H22 UNL A   1      51.140  10.058  54.164  1.00  0.00    +0.000 H 
ATOM    116  H23 UNL A   1      49.079  11.279  50.785  1.00  0.00    +0.000 H 
ATOM    117  H24 UNL A   1      48.221  15.491  46.069  1.00  0.00    +0.000 H 
ATOM    118  H25 UNL A   1      46.500  13.710  45.501  1.00  0.00    +0.000 H 
ATOM    119  H26 UNL A   1      48.510  12.488  48.928  1.00  0.00    +0.000 H 
ATOM    120  H27 UNL A   1      51.760  16.168  50.014  1.00  0.00    +0.000 H 
ATOM    121  H28 UNL A   1      52.595  14.691  51.929  1.00  0.00    +0.000 H 
ATOM    122  H29 UNL A   1      45.618   7.792  49.771  1.00  0.00    +0.000 H 
ATOM    123  H30 UNL A   1      45.080   9.019  47.589  1.00  0.00    +0.000 H 
ENDROOT
BRANCH   19   18
ATOM     76  C53 UNL A   1      45.805  10.572  45.049  1.00  0.00    +0.000 C 
ATOM     77  C54 UNL A   1      44.855  10.371  44.049  1.00  0.00    +0.000 C 
ATOM     15  C11 UNL A   1      43.539  10.803  44.239  1.00  0.00    +0.000 C 
ATOM    112  H19 UNL A   1      42.245  11.907  45.493  1.00  0.00    +0.000 H 
ATOM     16  C12 UNL A   1      43.205  11.547  45.373  1.00  0.00    +0.000 C 
ATOM     17  C13 UNL A   1      44.175  11.804  46.347  1.00  0.00    +0.000 C 
ATOM    113  H20 UNL A   1      43.934  12.376  47.171  1.00  0.00    +0.000 H 
ATOM     18  C14 UNL A   1      45.474  11.289  46.208  1.00  0.00    +0.000 C 
ATOM    124  H31 UNL A   1      46.758  10.192  44.935  1.00  0.00    +0.000 H 
ATOM    125  H32 UNL A   1      45.122   9.904  43.168  1.00  0.00    +0.000 H 
BRANCH   15   13
ATOM     13  C10 UNL A   1      42.480  10.509  43.247  1.00  0.00    +0.000 C 
ATOM     14  O2  UNL A   1      42.630   9.582  42.456  1.00  0.00    +0.000 O 
BRANCH   13   12
ATOM     12  N2  UNL A   1      41.346  11.280  43.195  1.00  0.00    +0.000 N 
ATOM    111  H18 UNL A   1      40.700  11.128  43.924  1.00  0.00    +0.000 H 
BRANCH   12   11
ATOM     11  C9  UNL A   1      40.957  12.285  42.221  1.00  0.00    +0.000 C 
ATOM    109  H16 UNL A   1      40.752  11.799  41.289  1.00  0.00    +0.000 H 
ATOM    110  H17 UNL A   1      40.091  12.788  42.599  1.00  0.00    +0.000 H 
BRANCH   11   10
ATOM     10  C8  UNL A   1      42.043  13.333  41.999  1.00  0.00    +0.000 C 
ATOM    107  H14 UNL A   1      42.975  12.823  41.874  1.00  0.00    +0.000 H 
ATOM    108  H15 UNL A   1      41.745  13.893  41.137  1.00  0.00    +0.000 H 
BRANCH   10    9
ATOM      9  C7  UNL A   1      42.206  14.348  43.131  1.00  0.00    +0.000 C 
ATOM    106  H13 UNL A   1      41.738  13.914  43.989  1.00  0.00    +0.000 H 
ATOM    105  H12 UNL A   1      41.758  15.269  42.818  1.00  0.00    +0.000 H 
BRANCH    9    8
ATOM    104  H11 UNL A   1      44.263  14.281  42.741  1.00  0.00    +0.000 H 
ATOM    103  H10 UNL A   1      43.834  14.158  44.477  1.00  0.00    +0.000 H 
ATOM      8  C6  UNL A   1      43.651  14.643  43.541  1.00  0.00    +0.000 C 
BRANCH    8    7
ATOM    101  H8  UNL A   1      44.319  16.499  42.750  1.00  0.00    +0.000 H 
ATOM    102  H9  UNL A   1      43.122  16.605  44.076  1.00  0.00    +0.000 H 
ATOM      7  C5  UNL A   1      44.004  16.127  43.702  1.00  0.00    +0.000 C 
BRANCH    7    6
ATOM     99  H6  UNL A   1      45.938  15.768  44.534  1.00  0.00    +0.000 H 
ATOM    100  H7  UNL A   1      45.408  17.447  44.602  1.00  0.00    +0.000 H 
ATOM      6  C4  UNL A   1      45.114  16.424  44.718  1.00  0.00    +0.000 C 
BRANCH    6    5
ATOM     98  H5  UNL A   1      43.888  15.626  46.207  1.00  0.00    +0.000 H 
ATOM      5  N1  UNL A   1      44.652  16.234  46.079  1.00  0.00    +0.000 N 
BRANCH    5    3
ATOM      3  C3  UNL A   1      45.176  16.816  47.202  1.00  0.00    +0.000 C 
ATOM      4  O1  UNL A   1      46.189  17.498  47.039  1.00  0.00    +0.000 O 
BRANCH    3    2
ATOM     97  H4  UNL A   1      43.438  16.891  48.400  1.00  0.00    +0.000 H 
ATOM      2  C2  UNL A   1      44.463  16.627  48.556  1.00  0.00    +0.000 C 
BRANCH    2    1
ATOM      1  C1  UNL A   1      45.171  17.540  49.568  1.00  0.00    +0.000 C 
ATOM     94  H1  UNL A   1      46.161  17.755  49.222  1.00  0.00    +0.000 H 
ATOM     95  H2  UNL A   1      45.223  17.048  50.516  1.00  0.00    +0.000 H 
ATOM     96  H3  UNL A   1      44.623  18.453  49.669  1.00  0.00    +0.000 H 
ENDBRANCH    2    1
BRANCH    2   78
ATOM    137  H44 UNL A   1      42.193  12.582  49.348  1.00  0.00    +0.000 H 
ATOM     78  C55 UNL A   1      44.347  15.190  49.093  1.00  0.00    +0.000 C 
ATOM     79  C56 UNL A   1      45.385  14.595  49.832  1.00  0.00    +0.000 C 
ATOM     80  C57 UNL A   1      45.258  13.329  50.412  1.00  0.00    +0.000 C 
ATOM     81  C58 UNL A   1      44.096  12.578  50.249  1.00  0.00    +0.000 C 
ATOM     89  C65 UNL A   1      43.060  13.124  49.488  1.00  0.00    +0.000 C 
ATOM     90  C66 UNL A   1      43.181  14.404  48.909  1.00  0.00    +0.000 C 
ATOM    126  H33 UNL A   1      46.271  15.112  49.952  1.00  0.00    +0.000 H 
ATOM    127  H34 UNL A   1      46.037  12.944  50.969  1.00  0.00    +0.000 H 
BRANCH   81   82
ATOM    129  H36 UNL A   1      43.263  10.688  50.275  1.00  0.00    +0.000 H 
ATOM     82  C59 UNL A   1      43.958  11.219  50.892  1.00  0.00    +0.000 C 
ATOM    128  H35 UNL A   1      44.935  10.785  50.945  1.00  0.00    +0.000 H 
BRANCH   82   83
ATOM    130  H37 UNL A   1      44.230  10.946  52.874  1.00  0.00    +0.000 H 
ATOM    131  H38 UNL A   1      43.075  13.310  52.252  1.00  0.00    +0.000 H 
ATOM    132  H39 UNL A   1      42.895  12.639  53.829  1.00  0.00    +0.000 H 
ATOM    133  H40 UNL A   1      40.964  12.583  51.528  1.00  0.00    +0.000 H 
ATOM    134  H41 UNL A   1      40.616  12.928  53.176  1.00  0.00    +0.000 H 
ATOM    135  H42 UNL A   1      40.137  10.482  52.108  1.00  0.00    +0.000 H 
ATOM    136  H43 UNL A   1      40.567  10.609  53.749  1.00  0.00    +0.000 H 
ATOM     83  C60 UNL A   1      43.356  11.178  52.301  1.00  0.00    +0.000 C 
ATOM     84  C61 UNL A   1      42.695  12.469  52.792  1.00  0.00    +0.000 C 
ATOM     85  C62 UNL A   1      41.202  12.305  52.533  1.00  0.00    +0.000 C 
ATOM     86  C63 UNL A   1      40.912  10.828  52.760  1.00  0.00    +0.000 C 
ATOM     87  C64 UNL A   1      42.231  10.178  52.429  1.00  0.00    +0.000 C 
ATOM     88  O3  UNL A   1      42.375   8.968  52.296  1.00  0.00    +0.000 O 
ENDBRANCH   82   83
ENDBRANCH   81   82
BRANCH   90   91
ATOM     91  N7  UNL A   1      42.045  14.861  48.135  1.00  0.00    +0.000 N 
ATOM     92  O4  UNL A   1      41.946  14.577  46.958  1.00  0.00    +0.000 O 
ATOM     93  O5  UNL A   1      41.083  15.681  48.672  1.00  0.00    +0.000 O 
ENDBRANCH   90   91
ENDBRANCH    2   78
ENDBRANCH    3    2
ENDBRANCH    5    3
ENDBRANCH    6    5
ENDBRANCH    7    6
ENDBRANCH    8    7
ENDBRANCH    9    8
ENDBRANCH   10    9
ENDBRANCH   11   10
ENDBRANCH   12   11
ENDBRANCH   13   12
ENDBRANCH   15   13
ENDBRANCH   19   18
BRANCH   23   24
ATOM     33  C24 UNL A   1      46.124   7.513  52.626  1.00  0.00    +0.000 C 
ATOM     34  F5  UNL A   1      45.427   8.632  52.873  1.00  0.00    +0.000 F 
ATOM     24  C19 UNL A   1      47.265   7.558  51.811  1.00  0.00    +0.000 C 
ATOM     25  C20 UNL A   1      47.961   6.358  51.590  1.00  0.00    +0.000 C 
ATOM     26  F1  UNL A   1      49.052   6.346  50.810  1.00  0.00    +0.000 F 
ATOM     27  C21 UNL A   1      47.520   5.162  52.148  1.00  0.00    +0.000 C 
ATOM     28  F2  UNL A   1      48.181   4.023  51.892  1.00  0.00    +0.000 F 
ATOM     29  C22 UNL A   1      46.397   5.144  52.960  1.00  0.00    +0.000 C 
ATOM     30  F3  UNL A   1      45.982   3.992  53.507  1.00  0.00    +0.000 F 
ATOM     31  C23 UNL A   1      45.702   6.319  53.204  1.00  0.00    +0.000 C 
ATOM     32  F4  UNL A   1      44.624   6.305  53.999  1.00  0.00    +0.000 F 
ENDBRANCH   23   24
BRANCH   40   41
ATOM     41  C30 UNL A   1      52.250  12.532  53.352  1.00  0.00    +0.000 C 
ATOM     42  C31 UNL A   1      53.569  12.104  53.141  1.00  0.00    +0.000 C 
ATOM     43  F6  UNL A   1      53.891  11.440  52.020  1.00  0.00    +0.000 F 
ATOM     44  C32 UNL A   1      54.552  12.316  54.102  1.00  0.00    +0.000 C 
ATOM     45  F7  UNL A   1      55.794  11.853  53.901  1.00  0.00    +0.000 F 
ATOM     46  C33 UNL A   1      54.245  12.990  55.275  1.00  0.00    +0.000 C 
ATOM     47  F8  UNL A   1      55.194  13.195  56.200  1.00  0.00    +0.000 F 
ATOM     48  C34 UNL A   1      52.953  13.442  55.495  1.00  0.00    +0.000 C 
ATOM     49  F9  UNL A   1      52.658  14.103  56.623  1.00  0.00    +0.000 F 
ATOM     50  C35 UNL A   1      51.961  13.206  54.548  1.00  0.00    +0.000 C 
ATOM     51  F10 UNL A   1      50.716  13.641  54.796  1.00  0.00    +0.000 F 
ENDBRANCH   40   41
BRANCH   55   56
ATOM     65  C44 UNL A   1      51.160  16.368  46.932  1.00  0.00    +0.000 C 
ATOM     66  F15 UNL A   1      51.809  15.266  46.529  1.00  0.00    +0.000 F 
ATOM     56  C39 UNL A   1      50.132  16.270  47.881  1.00  0.00    +0.000 C 
ATOM     57  C40 UNL A   1      49.491  17.453  48.272  1.00  0.00    +0.000 C 
ATOM     58  F11 UNL A   1      48.487  17.409  49.159  1.00  0.00    +0.000 F 
ATOM     59  C41 UNL A   1      49.844  18.681  47.716  1.00  0.00    +0.000 C 
ATOM     60  F12 UNL A   1      49.179  19.790  48.069  1.00  0.00    +0.000 F 
ATOM     61  C42 UNL A   1      50.868  18.754  46.783  1.00  0.00    +0.000 C 
ATOM     62  F13 UNL A   1      51.207  19.935  46.247  1.00  0.00    +0.000 F 
ATOM     63  C43 UNL A   1      51.533  17.600  46.399  1.00  0.00    +0.000 C 
ATOM     64  F14 UNL A   1      52.531  17.666  45.507  1.00  0.00    +0.000 F 
ENDBRANCH   55   56
TORSDOF 20
ENDMDL
