MODEL 1
REMARK VINA RESULT:      -9.5      0.000      0.000
ROOT
ATOM    129  H34 UNL A   1      13.142  30.915  -3.765  1.00  0.00    +0.000 H 
ATOM    130  H35 UNL A   1       9.643  30.354  -1.592  1.00  0.00    +0.000 H 
ATOM    131  H36 UNL A   1       6.081  32.952  -4.008  1.00  0.00    +0.000 H 
ATOM    132  H37 UNL A   1       4.473  32.220  -2.156  1.00  0.00    +0.000 H 
ATOM    133  H38 UNL A   1      11.712  26.678   2.062  1.00  0.00    +0.000 H 
ATOM    134  H39 UNL A   1      13.437  27.750   0.504  1.00  0.00    +0.000 H 
ATOM     37  C28 UNL A   1      12.293  29.470  -1.460  1.00  0.00    +0.000 C 
ATOM     38  C29 UNL A   1      11.593  28.781  -0.321  1.00  0.00    +0.000 C 
ATOM     39  N5  UNL A   1      10.329  28.818   0.018  1.00  0.00    +0.000 N 
ATOM     40  C30 UNL A   1      10.205  27.969   1.110  1.00  0.00    +0.000 C 
ATOM     41  C31 UNL A   1       9.105  27.707   1.857  1.00  0.00    +0.000 C 
ATOM     53  C38 UNL A   1       7.814  28.303   1.634  1.00  0.00    +0.000 C 
ATOM     54  C39 UNL A   1       6.654  28.151   2.374  1.00  0.00    +0.000 C 
ATOM     55  C40 UNL A   1       5.642  28.895   1.758  1.00  0.00    +0.000 C 
ATOM     56  C41 UNL A   1       6.181  29.545   0.659  1.00  0.00    +0.000 C 
ATOM     57  N6  UNL A   1       7.514  29.168   0.592  1.00  0.00    +0.000 N 
ATOM     58  C42 UNL A   1       5.532  30.441  -0.261  1.00  0.00    +0.000 C 
ATOM     70  C49 UNL A   1       6.134  31.046  -1.315  1.00  0.00    +0.000 C 
ATOM     71  N7  UNL A   1       7.454  30.959  -1.733  1.00  0.00    +0.000 N 
ATOM     72  C50 UNL A   1       7.545  31.714  -2.800  1.00  0.00    +0.000 C 
ATOM     73  C51 UNL A   1       8.749  32.013  -3.651  1.00  0.00    +0.000 C 
ATOM     85  C58 UNL A   1       9.941  31.484  -3.316  1.00  0.00    +0.000 C 
ATOM     86  C59 UNL A   1      11.192  31.689  -4.039  1.00  0.00    +0.000 C 
ATOM     87  C60 UNL A   1      12.162  30.971  -3.448  1.00  0.00    +0.000 C 
ATOM     88  C61 UNL A   1      11.605  30.282  -2.284  1.00  0.00    +0.000 C 
ATOM     89  N8  UNL A   1      10.284  30.654  -2.277  1.00  0.00    +0.000 N 
ATOM     90  C62 UNL A   1       6.280  32.348  -3.196  1.00  0.00    +0.000 C 
ATOM     91  C63 UNL A   1       5.462  31.939  -2.236  1.00  0.00    +0.000 C 
ATOM     92  C64 UNL A   1      11.512  27.396   1.349  1.00  0.00    +0.000 C 
ATOM     93  C65 UNL A   1      12.418  27.914   0.533  1.00  0.00    +0.000 C 
ATOM    125  H30 UNL A   1       6.553  27.586   3.231  1.00  0.00    +0.000 H 
ATOM    126  H31 UNL A   1       4.659  28.951   2.069  1.00  0.00    +0.000 H 
ATOM    127  H32 UNL A   1       8.152  29.471  -0.093  1.00  0.00    +0.000 H 
ATOM    128  H33 UNL A   1      11.312  32.288  -4.870  1.00  0.00    +0.000 H 
ENDROOT
BRANCH   37   36
ATOM     33  C24 UNL A   1      16.455  28.705  -2.155  1.00  0.00    +0.000 C 
ATOM     34  C25 UNL A   1      15.500  27.778  -2.586  1.00  0.00    +0.000 C 
ATOM     35  C26 UNL A   1      14.141  28.033  -2.385  1.00  0.00    +0.000 C 
ATOM     36  C27 UNL A   1      13.730  29.202  -1.724  1.00  0.00    +0.000 C 
ATOM    135  H40 UNL A   1      14.403  30.991  -0.820  1.00  0.00    +0.000 H 
ATOM    136  H41 UNL A   1      16.745  30.626  -1.329  1.00  0.00    +0.000 H 
ATOM    123  H28 UNL A   1      15.799  26.907  -3.052  1.00  0.00    +0.000 H 
ATOM    124  H29 UNL A   1      13.437  27.360  -2.724  1.00  0.00    +0.000 H 
ATOM     94  C66 UNL A   1      14.695  30.133  -1.314  1.00  0.00    +0.000 C 
ATOM     95  C67 UNL A   1      16.046  29.907  -1.570  1.00  0.00    +0.000 C 
BRANCH   33   31
ATOM     31  C23 UNL A   1      17.889  28.413  -2.386  1.00  0.00    +0.000 C 
ATOM     32  O3  UNL A   1      18.573  29.200  -3.026  1.00  0.00    +0.000 O 
BRANCH   31   30
ATOM    122  H27 UNL A   1      18.169  27.026  -0.964  1.00  0.00    +0.000 H 
ATOM     30  N4  UNL A   1      18.454  27.269  -1.875  1.00  0.00    +0.000 N 
BRANCH   30   29
ATOM    121  H26 UNL A   1      19.535  26.660  -3.513  1.00  0.00    +0.000 H 
ATOM     29  C22 UNL A   1      19.415  26.368  -2.491  1.00  0.00    +0.000 C 
ATOM    120  H25 UNL A   1      19.047  25.366  -2.417  1.00  0.00    +0.000 H 
BRANCH   29   28
ATOM     28  C21 UNL A   1      20.783  26.443  -1.815  1.00  0.00    +0.000 C 
ATOM    118  H23 UNL A   1      20.718  27.146  -1.011  1.00  0.00    +0.000 H 
ATOM    119  H24 UNL A   1      21.013  25.448  -1.493  1.00  0.00    +0.000 H 
BRANCH   28   27
ATOM     27  C20 UNL A   1      21.936  26.873  -2.731  1.00  0.00    +0.000 C 
ATOM    116  H21 UNL A   1      22.279  26.007  -3.257  1.00  0.00    +0.000 H 
ATOM    117  H22 UNL A   1      21.537  27.635  -3.367  1.00  0.00    +0.000 H 
BRANCH   27   26
ATOM     26  C19 UNL A   1      23.142  27.504  -2.025  1.00  0.00    +0.000 C 
ATOM    115  H20 UNL A   1      24.012  27.011  -2.407  1.00  0.00    +0.000 H 
ATOM    114  H19 UNL A   1      23.019  27.373  -0.970  1.00  0.00    +0.000 H 
BRANCH   26   25
ATOM     25  C18 UNL A   1      23.327  28.998  -2.304  1.00  0.00    +0.000 C 
ATOM    113  H18 UNL A   1      23.944  29.074  -3.175  1.00  0.00    +0.000 H 
ATOM    112  H17 UNL A   1      23.772  29.448  -1.441  1.00  0.00    +0.000 H 
BRANCH   25   24
ATOM    110  H15 UNL A   1      22.025  30.051  -3.645  1.00  0.00    +0.000 H 
ATOM    111  H16 UNL A   1      21.191  29.095  -2.436  1.00  0.00    +0.000 H 
ATOM     24  C17 UNL A   1      22.020  29.747  -2.618  1.00  0.00    +0.000 C 
BRANCH   24   23
ATOM    109  H14 UNL A   1      22.732  31.408  -1.586  1.00  0.00    +0.000 H 
ATOM     23  N3  UNL A   1      21.899  30.916  -1.772  1.00  0.00    +0.000 N 
BRANCH   23   21
ATOM     21  C16 UNL A   1      20.751  31.420  -1.199  1.00  0.00    +0.000 C 
ATOM     22  O2  UNL A   1      20.333  32.516  -1.568  1.00  0.00    +0.000 O 
BRANCH   21    2
ATOM      2  C2  UNL A   1      20.078  30.793   0.012  1.00  0.00    +0.000 C 
BRANCH    2    1
ATOM      1  C1  UNL A   1      21.046  30.153   0.978  1.00  0.00    +0.000 C 
ATOM     98  H3  UNL A   1      20.566  30.016   1.924  1.00  0.00    +0.000 H 
ATOM     97  H2  UNL A   1      21.358  29.204   0.594  1.00  0.00    +0.000 H 
ATOM     96  H1  UNL A   1      21.900  30.787   1.101  1.00  0.00    +0.000 H 
ENDBRANCH    2    1
BRANCH    2    3
ATOM      3  N1  UNL A   1      18.820  30.803   0.347  1.00  0.00    +0.000 N 
BRANCH    3    4
ATOM      4  O1  UNL A   1      18.400  32.004   0.908  1.00  0.00    +0.000 O 
BRANCH    4    5
ATOM     99  H4  UNL A   1      16.850  31.135   1.902  1.00  0.00    +0.000 H 
ATOM    100  H5  UNL A   1      16.489  31.892   0.309  1.00  0.00    +0.000 H 
ATOM      5  C3  UNL A   1      17.003  31.965   1.244  1.00  0.00    +0.000 C 
BRANCH    5    6
ATOM    101  H6  UNL A   1      18.293  33.893   2.662  1.00  0.00    +0.000 H 
ATOM      6  C4  UNL A   1      16.435  33.201   1.921  1.00  0.00    +0.000 C 
ATOM      7  C5  UNL A   1      17.274  34.053   2.659  1.00  0.00    +0.000 C 
ATOM      8  C6  UNL A   1      16.737  35.114   3.389  1.00  0.00    +0.000 C 
ATOM    102  H7  UNL A   1      17.359  35.751   3.910  1.00  0.00    +0.000 H 
ATOM     10  C8  UNL A   1      14.519  34.485   2.662  1.00  0.00    +0.000 C 
ATOM     11  C9  UNL A   1      15.048  33.473   1.854  1.00  0.00    +0.000 C 
ATOM    104  H9  UNL A   1      13.497  34.621   2.707  1.00  0.00    +0.000 H 
ATOM      9  C7  UNL A   1      15.359  35.313   3.411  1.00  0.00    +0.000 C 
ATOM    103  H8  UNL A   1      14.958  36.073   3.982  1.00  0.00    +0.000 H 
BRANCH   11   12
ATOM    105  H10 UNL A   1      14.702  31.866   0.638  1.00  0.00    +0.000 H 
ATOM     12  N2  UNL A   1      14.242  32.638   1.040  1.00  0.00    +0.000 N 
BRANCH   12   13
ATOM    106  H11 UNL A   1       9.902  31.488   1.739  1.00  0.00    +0.000 H 
ATOM    107  H12 UNL A   1       9.105  32.793  -0.145  1.00  0.00    +0.000 H 
ATOM    108  H13 UNL A   1      10.684  34.023  -1.514  1.00  0.00    +0.000 H 
ATOM     13  C10 UNL A   1      12.866  32.757   0.725  1.00  0.00    +0.000 C 
ATOM     14  C11 UNL A   1      11.931  32.015   1.478  1.00  0.00    +0.000 C 
ATOM     15 Cl1  UNL A   1      12.431  31.039   2.821  1.00  0.00    +0.000 Cl
ATOM     16  C12 UNL A   1      10.569  32.028   1.164  1.00  0.00    +0.000 C 
ATOM     17  C13 UNL A   1      10.112  32.769   0.079  1.00  0.00    +0.000 C 
ATOM     18  C14 UNL A   1      11.021  33.479  -0.703  1.00  0.00    +0.000 C 
ATOM     19  C15 UNL A   1      12.387  33.459  -0.398  1.00  0.00    +0.000 C 
ATOM     20 Cl2  UNL A   1      13.445  34.289  -1.487  1.00  0.00    +0.000 Cl
ENDBRANCH   12   13
ENDBRANCH   11   12
ENDBRANCH    5    6
ENDBRANCH    4    5
ENDBRANCH    3    4
ENDBRANCH    2    3
ENDBRANCH   21    2
ENDBRANCH   23   21
ENDBRANCH   24   23
ENDBRANCH   25   24
ENDBRANCH   26   25
ENDBRANCH   27   26
ENDBRANCH   28   27
ENDBRANCH   29   28
ENDBRANCH   30   29
ENDBRANCH   31   30
ENDBRANCH   33   31
ENDBRANCH   37   36
BRANCH   41   42
ATOM     42  C32 UNL A   1       9.252  26.734   2.990  1.00  0.00    +0.000 C 
ATOM     43  C33 UNL A   1       9.717  27.141   4.250  1.00  0.00    +0.000 C 
ATOM     44  F1  UNL A   1      10.086  28.414   4.455  1.00  0.00    +0.000 F 
ATOM     45  C34 UNL A   1       9.841  26.230   5.296  1.00  0.00    +0.000 C 
ATOM     46  F2  UNL A   1      10.331  26.631   6.477  1.00  0.00    +0.000 F 
ATOM     47  C35 UNL A   1       9.471  24.906   5.113  1.00  0.00    +0.000 C 
ATOM     48  F3  UNL A   1       9.585  24.032   6.123  1.00  0.00    +0.000 F 
ATOM     49  C36 UNL A   1       8.989  24.487   3.883  1.00  0.00    +0.000 C 
ATOM     50  F4  UNL A   1       8.620  23.210   3.709  1.00  0.00    +0.000 F 
ATOM     51  C37 UNL A   1       8.890  25.389   2.826  1.00  0.00    +0.000 C 
ATOM     52  F5  UNL A   1       8.434  24.950   1.644  1.00  0.00    +0.000 F 
ENDBRANCH   41   42
BRANCH   58   59
ATOM     65  F8  UNL A   1       0.058  31.599   0.510  1.00  0.00    +0.000 F 
ATOM     66  C47 UNL A   1       1.743  30.113  -0.219  1.00  0.00    +0.000 C 
ATOM     67  F9  UNL A   1       0.815  29.219  -0.586  1.00  0.00    +0.000 F 
ATOM     68  C48 UNL A   1       3.094  29.822  -0.388  1.00  0.00    +0.000 C 
ATOM     69  F10 UNL A   1       3.438  28.635  -0.911  1.00  0.00    +0.000 F 
ATOM     59  C43 UNL A   1       4.082  30.751  -0.030  1.00  0.00    +0.000 C 
ATOM     60  C44 UNL A   1       3.670  31.978   0.507  1.00  0.00    +0.000 C 
ATOM     61  F6  UNL A   1       4.579  32.892   0.879  1.00  0.00    +0.000 F 
ATOM     62  C45 UNL A   1       2.319  32.256   0.699  1.00  0.00    +0.000 C 
ATOM     63  F7  UNL A   1       1.948  33.418   1.255  1.00  0.00    +0.000 F 
ATOM     64  C46 UNL A   1       1.357  31.327   0.330  1.00  0.00    +0.000 C 
ENDBRANCH   58   59
BRANCH   73   74
ATOM     74  C52 UNL A   1       8.643  32.907  -4.831  1.00  0.00    +0.000 C 
ATOM     75  C53 UNL A   1       8.638  32.384  -6.131  1.00  0.00    +0.000 C 
ATOM     76  F11 UNL A   1       8.755  31.061  -6.319  1.00  0.00    +0.000 F 
ATOM     77  C54 UNL A   1       8.551  33.217  -7.244  1.00  0.00    +0.000 C 
ATOM     78  F12 UNL A   1       8.591  32.693  -8.476  1.00  0.00    +0.000 F 
ATOM     79  C55 UNL A   1       8.441  34.589  -7.077  1.00  0.00    +0.000 C 
ATOM     80  F13 UNL A   1       8.353  35.391  -8.146  1.00  0.00    +0.000 F 
ATOM     81  C56 UNL A   1       8.427  35.130  -5.800  1.00  0.00    +0.000 C 
ATOM     82  F14 UNL A   1       8.306  36.454  -5.634  1.00  0.00    +0.000 F 
ATOM     83  C57 UNL A   1       8.539  34.299  -4.687  1.00  0.00    +0.000 C 
ATOM     84  F15 UNL A   1       8.533  34.848  -3.464  1.00  0.00    +0.000 F 
ENDBRANCH   73   74
TORSDOF 22
ENDMDL
MODEL 2
REMARK VINA RESULT:      -9.3     34.343     41.758
ROOT
ATOM    129  H34 UNL A   1      39.774  25.507  28.956  1.00  0.00    +0.000 H 
ATOM    130  H35 UNL A   1      42.494  28.600  28.392  1.00  0.00    +0.000 H 
ATOM    131  H36 UNL A   1      40.619  32.560  30.856  1.00  0.00    +0.000 H 
ATOM    132  H37 UNL A   1      42.635  33.884  29.999  1.00  0.00    +0.000 H 
ATOM    133  H38 UNL A   1      46.352  25.606  25.688  1.00  0.00    +0.000 H 
ATOM    134  H39 UNL A   1      44.145  24.387  26.134  1.00  0.00    +0.000 H 
ATOM     37  C28 UNL A   1      42.292  25.902  27.682  1.00  0.00    +0.000 C 
ATOM     38  C29 UNL A   1      43.620  26.352  27.138  1.00  0.00    +0.000 C 
ATOM     39  N5  UNL A   1      44.208  27.517  27.248  1.00  0.00    +0.000 N 
ATOM     40  C30 UNL A   1      45.432  27.384  26.606  1.00  0.00    +0.000 C 
ATOM     41  C31 UNL A   1      46.385  28.324  26.400  1.00  0.00    +0.000 C 
ATOM     53  C38 UNL A   1      46.279  29.694  26.831  1.00  0.00    +0.000 C 
ATOM     54  C39 UNL A   1      47.162  30.738  26.615  1.00  0.00    +0.000 C 
ATOM     55  C40 UNL A   1      46.656  31.877  27.251  1.00  0.00    +0.000 C 
ATOM     56  C41 UNL A   1      45.437  31.553  27.827  1.00  0.00    +0.000 C 
ATOM     57  N6  UNL A   1      45.221  30.209  27.565  1.00  0.00    +0.000 N 
ATOM     58  C42 UNL A   1      44.537  32.404  28.560  1.00  0.00    +0.000 C 
ATOM     70  C49 UNL A   1      43.352  32.012  29.090  1.00  0.00    +0.000 C 
ATOM     71  N7  UNL A   1      42.748  30.763  29.047  1.00  0.00    +0.000 N 
ATOM     72  C50 UNL A   1      41.624  30.883  29.709  1.00  0.00    +0.000 C 
ATOM     73  C51 UNL A   1      40.556  29.854  29.961  1.00  0.00    +0.000 C 
ATOM     85  C58 UNL A   1      40.695  28.620  29.441  1.00  0.00    +0.000 C 
ATOM     86  C59 UNL A   1      39.743  27.525  29.594  1.00  0.00    +0.000 C 
ATOM     87  C60 UNL A   1      40.232  26.431  28.986  1.00  0.00    +0.000 C 
ATOM     88  C61 UNL A   1      41.518  26.761  28.371  1.00  0.00    +0.000 C 
ATOM     89  N8  UNL A   1      41.707  28.084  28.683  1.00  0.00    +0.000 N 
ATOM     90  C62 UNL A   1      41.400  32.222  30.272  1.00  0.00    +0.000 C 
ATOM     91  C63 UNL A   1      42.463  32.881  29.833  1.00  0.00    +0.000 C 
ATOM     92  C64 UNL A   1      45.522  26.014  26.148  1.00  0.00    +0.000 C 
ATOM     93  C65 UNL A   1      44.401  25.352  26.395  1.00  0.00    +0.000 C 
ATOM    125  H30 UNL A   1      48.041  30.686  26.078  1.00  0.00    +0.000 H 
ATOM    126  H31 UNL A   1      47.112  32.802  27.286  1.00  0.00    +0.000 H 
ATOM    127  H32 UNL A   1      44.433  29.697  27.858  1.00  0.00    +0.000 H 
ATOM    128  H33 UNL A   1      38.840  27.580  30.090  1.00  0.00    +0.000 H 
ENDROOT
BRANCH   37   36
ATOM     33  C24 UNL A   1      41.058  21.829  27.158  1.00  0.00    +0.000 C 
ATOM     34  C25 UNL A   1      42.088  22.129  28.055  1.00  0.00    +0.000 C 
ATOM     35  C26 UNL A   1      42.477  23.457  28.250  1.00  0.00    +0.000 C 
ATOM     36  C27 UNL A   1      41.861  24.490  27.525  1.00  0.00    +0.000 C 
ATOM    135  H40 UNL A   1      40.363  24.930  26.099  1.00  0.00    +0.000 H 
ATOM    136  H41 UNL A   1      39.573  22.647  25.898  1.00  0.00    +0.000 H 
ATOM    123  H28 UNL A   1      42.559  21.371  28.573  1.00  0.00    +0.000 H 
ATOM    124  H29 UNL A   1      43.222  23.679  28.928  1.00  0.00    +0.000 H 
ATOM     94  C66 UNL A   1      40.816  24.179  26.643  1.00  0.00    +0.000 C 
ATOM     95  C67 UNL A   1      40.386  22.861  26.496  1.00  0.00    +0.000 C 
BRANCH   33   31
ATOM     31  C23 UNL A   1      40.658  20.414  26.975  1.00  0.00    +0.000 C 
ATOM     32  O3  UNL A   1      40.926  19.591  27.839  1.00  0.00    +0.000 O 
BRANCH   31   30
ATOM    122  H27 UNL A   1      40.328  20.389  24.996  1.00  0.00    +0.000 H 
ATOM     30  N4  UNL A   1      39.981  20.026  25.843  1.00  0.00    +0.000 N 
BRANCH   30   29
ATOM    121  H26 UNL A   1      38.363  19.079  26.686  1.00  0.00    +0.000 H 
ATOM     29  C22 UNL A   1      38.822  19.155  25.722  1.00  0.00    +0.000 C 
ATOM    120  H25 UNL A   1      39.144  18.197  25.371  1.00  0.00    +0.000 H 
BRANCH   29   28
ATOM     28  C21 UNL A   1      37.786  19.715  24.749  1.00  0.00    +0.000 C 
ATOM    118  H23 UNL A   1      38.062  19.412  23.760  1.00  0.00    +0.000 H 
ATOM    119  H24 UNL A   1      36.840  19.328  25.064  1.00  0.00    +0.000 H 
BRANCH   28   27
ATOM     27  C20 UNL A   1      37.648  21.244  24.758  1.00  0.00    +0.000 C 
ATOM    116  H21 UNL A   1      38.147  21.614  25.628  1.00  0.00    +0.000 H 
ATOM    117  H22 UNL A   1      38.075  21.582  23.837  1.00  0.00    +0.000 H 
BRANCH   27   26
ATOM     26  C19 UNL A   1      36.211  21.778  24.776  1.00  0.00    +0.000 C 
ATOM    115  H20 UNL A   1      35.887  21.816  23.757  1.00  0.00    +0.000 H 
ATOM    114  H19 UNL A   1      36.217  22.739  25.247  1.00  0.00    +0.000 H 
BRANCH   26   25
ATOM     25  C18 UNL A   1      35.214  20.885  25.519  1.00  0.00    +0.000 C 
ATOM    113  H18 UNL A   1      34.815  21.471  26.321  1.00  0.00    +0.000 H 
ATOM    112  H17 UNL A   1      35.733  20.014  25.860  1.00  0.00    +0.000 H 
BRANCH   25   24
ATOM    110  H15 UNL A   1      34.366  19.785  23.884  1.00  0.00    +0.000 H 
ATOM    111  H16 UNL A   1      33.323  19.904  25.287  1.00  0.00    +0.000 H 
ATOM     24  C17 UNL A   1      34.018  20.429  24.665  1.00  0.00    +0.000 C 
BRANCH   24   23
ATOM    109  H14 UNL A   1      33.422  21.667  23.102  1.00  0.00    +0.000 H 
ATOM     23  N3  UNL A   1      33.356  21.578  24.080  1.00  0.00    +0.000 N 
BRANCH   23   21
ATOM     21  C16 UNL A   1      32.645  22.559  24.737  1.00  0.00    +0.000 C 
ATOM     22  O2  UNL A   1      31.610  22.251  25.325  1.00  0.00    +0.000 O 
BRANCH   21    2
ATOM      2  C2  UNL A   1      32.954  24.042  24.608  1.00  0.00    +0.000 C 
BRANCH    2    1
ATOM      1  C1  UNL A   1      33.826  24.578  25.718  1.00  0.00    +0.000 C 
ATOM     98  H3  UNL A   1      33.442  24.250  26.661  1.00  0.00    +0.000 H 
ATOM     97  H2  UNL A   1      34.825  24.215  25.593  1.00  0.00    +0.000 H 
ATOM     96  H1  UNL A   1      33.828  25.647  25.686  1.00  0.00    +0.000 H 
ENDBRANCH    2    1
BRANCH    2    3
ATOM      3  N1  UNL A   1      32.631  24.866  23.652  1.00  0.00    +0.000 N 
BRANCH    3    4
ATOM      4  O1  UNL A   1      33.721  25.503  23.072  1.00  0.00    +0.000 O 
BRANCH    4    5
ATOM     99  H4  UNL A   1      32.489  26.780  22.072  1.00  0.00    +0.000 H 
ATOM    100  H5  UNL A   1      34.242  27.187  22.114  1.00  0.00    +0.000 H 
ATOM      5  C3  UNL A   1      33.387  26.836  22.652  1.00  0.00    +0.000 C 
BRANCH    5    6
ATOM    101  H6  UNL A   1      35.113  27.718  24.559  1.00  0.00    +0.000 H 
ATOM      6  C4  UNL A   1      33.159  27.857  23.756  1.00  0.00    +0.000 C 
ATOM      7  C5  UNL A   1      34.178  28.135  24.684  1.00  0.00    +0.000 C 
ATOM      8  C6  UNL A   1      33.930  28.970  25.774  1.00  0.00    +0.000 C 
ATOM    102  H7  UNL A   1      34.688  29.190  26.439  1.00  0.00    +0.000 H 
ATOM     10  C8  UNL A   1      31.648  29.255  25.032  1.00  0.00    +0.000 C 
ATOM     11  C9  UNL A   1      31.903  28.494  23.886  1.00  0.00    +0.000 C 
ATOM    104  H9  UNL A   1      30.702  29.633  25.193  1.00  0.00    +0.000 H 
ATOM      9  C7  UNL A   1      32.660  29.508  25.961  1.00  0.00    +0.000 C 
ATOM    103  H8  UNL A   1      32.466  30.094  26.788  1.00  0.00    +0.000 H 
BRANCH   11   12
ATOM    105  H10 UNL A   1      31.270  28.112  21.980  1.00  0.00    +0.000 H 
ATOM     12  N2  UNL A   1      30.923  28.248  22.891  1.00  0.00    +0.000 N 
BRANCH   12   13
ATOM    106  H11 UNL A   1      26.793  30.087  22.440  1.00  0.00    +0.000 H 
ATOM    107  H12 UNL A   1      25.687  28.217  23.522  1.00  0.00    +0.000 H 
ATOM    108  H13 UNL A   1      27.000  26.352  24.343  1.00  0.00    +0.000 H 
ATOM     13  C10 UNL A   1      29.515  28.171  23.024  1.00  0.00    +0.000 C 
ATOM     14  C11 UNL A   1      28.732  29.264  22.596  1.00  0.00    +0.000 C 
ATOM     15 Cl1  UNL A   1      29.457  30.646  21.839  1.00  0.00    +0.000 Cl
ATOM     16  C12 UNL A   1      27.346  29.282  22.775  1.00  0.00    +0.000 C 
ATOM     17  C13 UNL A   1      26.712  28.215  23.403  1.00  0.00    +0.000 C 
ATOM     18  C14 UNL A   1      27.468  27.141  23.869  1.00  0.00    +0.000 C 
ATOM     19  C15 UNL A   1      28.859  27.126  23.701  1.00  0.00    +0.000 C 
ATOM     20 Cl2  UNL A   1      29.718  25.799  24.404  1.00  0.00    +0.000 Cl
ENDBRANCH   12   13
ENDBRANCH   11   12
ENDBRANCH    5    6
ENDBRANCH    4    5
ENDBRANCH    3    4
ENDBRANCH    2    3
ENDBRANCH   21    2
ENDBRANCH   23   21
ENDBRANCH   24   23
ENDBRANCH   25   24
ENDBRANCH   26   25
ENDBRANCH   27   26
ENDBRANCH   28   27
ENDBRANCH   29   28
ENDBRANCH   30   29
ENDBRANCH   31   30
ENDBRANCH   33   31
ENDBRANCH   37   36
BRANCH   41   42
ATOM     42  C32 UNL A   1      47.629  27.904  25.672  1.00  0.00    +0.000 C 
ATOM     43  C33 UNL A   1      47.673  27.843  24.271  1.00  0.00    +0.000 C 
ATOM     44  F1  UNL A   1      46.576  28.119  23.548  1.00  0.00    +0.000 F 
ATOM     45  C34 UNL A   1      48.835  27.460  23.606  1.00  0.00    +0.000 C 
ATOM     46  F2  UNL A   1      48.840  27.363  22.270  1.00  0.00    +0.000 F 
ATOM     47  C35 UNL A   1      49.983  27.165  24.327  1.00  0.00    +0.000 C 
ATOM     48  F3  UNL A   1      51.103  26.802  23.684  1.00  0.00    +0.000 F 
ATOM     49  C36 UNL A   1      49.969  27.240  25.710  1.00  0.00    +0.000 C 
ATOM     50  F4  UNL A   1      51.081  26.967  26.406  1.00  0.00    +0.000 F 
ATOM     51  C37 UNL A   1      48.800  27.596  26.379  1.00  0.00    +0.000 C 
ATOM     52  F5  UNL A   1      48.814  27.645  27.720  1.00  0.00    +0.000 F 
ENDBRANCH   41   42
BRANCH   58   59
ATOM     65  F8  UNL A   1      46.045  37.816  29.145  1.00  0.00    +0.000 F 
ATOM     66  C47 UNL A   1      44.920  36.134  27.925  1.00  0.00    +0.000 C 
ATOM     67  F9  UNL A   1      44.551  37.033  27.002  1.00  0.00    +0.000 F 
ATOM     68  C48 UNL A   1      44.532  34.804  27.795  1.00  0.00    +0.000 C 
ATOM     69  F10 UNL A   1      43.780  34.452  26.742  1.00  0.00    +0.000 F 
ATOM     59  C43 UNL A   1      44.924  33.843  28.738  1.00  0.00    +0.000 C 
ATOM     60  C44 UNL A   1      45.714  34.262  29.818  1.00  0.00    +0.000 C 
ATOM     61  F6  UNL A   1      46.101  33.382  30.754  1.00  0.00    +0.000 F 
ATOM     62  C45 UNL A   1      46.079  35.599  29.959  1.00  0.00    +0.000 C 
ATOM     63  F7  UNL A   1      46.797  35.986  31.023  1.00  0.00    +0.000 F 
ATOM     64  C46 UNL A   1      45.688  36.532  29.010  1.00  0.00    +0.000 C 
ENDBRANCH   58   59
BRANCH   73   74
ATOM     74  C52 UNL A   1      39.341  30.195  30.742  1.00  0.00    +0.000 C 
ATOM     75  C53 UNL A   1      38.206  30.723  30.111  1.00  0.00    +0.000 C 
ATOM     76  F11 UNL A   1      38.221  30.947  28.789  1.00  0.00    +0.000 F 
ATOM     77  C54 UNL A   1      37.066  31.056  30.839  1.00  0.00    +0.000 C 
ATOM     78  F12 UNL A   1      36.011  31.598  30.216  1.00  0.00    +0.000 F 
ATOM     79  C55 UNL A   1      37.030  30.844  32.209  1.00  0.00    +0.000 C 
ATOM     80  F13 UNL A   1      35.932  31.161  32.908  1.00  0.00    +0.000 F 
ATOM     81  C56 UNL A   1      38.134  30.308  32.854  1.00  0.00    +0.000 C 
ATOM     82  F14 UNL A   1      38.098  30.089  34.175  1.00  0.00    +0.000 F 
ATOM     83  C57 UNL A   1      39.284  29.997  32.130  1.00  0.00    +0.000 C 
ATOM     84  F15 UNL A   1      40.342  29.489  32.779  1.00  0.00    +0.000 F 
ENDBRANCH   73   74
TORSDOF 22
ENDMDL
MODEL 3
REMARK VINA RESULT:      -9.3     34.444     41.783
ROOT
ATOM    129  H34 UNL A   1      43.564  24.884  26.790  1.00  0.00    +0.000 H 
ATOM    130  H35 UNL A   1      43.401  28.619  28.608  1.00  0.00    +0.000 H 
ATOM    131  H36 UNL A   1      48.055  30.499  28.328  1.00  0.00    +0.000 H 
ATOM    132  H37 UNL A   1      47.174  32.527  29.617  1.00  0.00    +0.000 H 
ATOM    133  H38 UNL A   1      37.887  28.700  29.466  1.00  0.00    +0.000 H 
ATOM    134  H39 UNL A   1      38.819  26.480  28.597  1.00  0.00    +0.000 H 
ATOM     37  C28 UNL A   1      41.605  26.563  28.000  1.00  0.00    +0.000 C 
ATOM     38  C29 UNL A   1      40.768  27.639  28.636  1.00  0.00    +0.000 C 
ATOM     39  N5  UNL A   1      41.125  28.828  29.052  1.00  0.00    +0.000 N 
ATOM     40  C30 UNL A   1      39.962  29.433  29.510  1.00  0.00    +0.000 C 
ATOM     41  C31 UNL A   1      39.813  30.649  30.089  1.00  0.00    +0.000 C 
ATOM     53  C38 UNL A   1      40.895  31.563  30.343  1.00  0.00    +0.000 C 
ATOM     54  C39 UNL A   1      40.856  32.792  30.981  1.00  0.00    +0.000 C 
ATOM     55  C40 UNL A   1      42.146  33.335  30.963  1.00  0.00    +0.000 C 
ATOM     56  C41 UNL A   1      42.996  32.426  30.353  1.00  0.00    +0.000 C 
ATOM     57  N6  UNL A   1      42.214  31.346  29.973  1.00  0.00    +0.000 N 
ATOM     58  C42 UNL A   1      44.415  32.534  30.133  1.00  0.00    +0.000 C 
ATOM     70  C49 UNL A   1      45.182  31.593  29.530  1.00  0.00    +0.000 C 
ATOM     71  N7  UNL A   1      44.808  30.359  29.016  1.00  0.00    +0.000 N 
ATOM     72  C50 UNL A   1      45.901  29.824  28.530  1.00  0.00    +0.000 C 
ATOM     73  C51 UNL A   1      46.091  28.483  27.875  1.00  0.00    +0.000 C 
ATOM     85  C58 UNL A   1      45.039  27.651  27.761  1.00  0.00    +0.000 C 
ATOM     86  C59 UNL A   1      45.072  26.322  27.158  1.00  0.00    +0.000 C 
ATOM     87  C60 UNL A   1      43.832  25.804  27.172  1.00  0.00    +0.000 C 
ATOM     88  C61 UNL A   1      42.924  26.753  27.817  1.00  0.00    +0.000 C 
ATOM     89  N8  UNL A   1      43.730  27.815  28.144  1.00  0.00    +0.000 N 
ATOM     90  C62 UNL A   1      47.093  30.674  28.658  1.00  0.00    +0.000 C 
ATOM     91  C63 UNL A   1      46.608  31.722  29.309  1.00  0.00    +0.000 C 
ATOM     92  C64 UNL A   1      38.882  28.499  29.281  1.00  0.00    +0.000 C 
ATOM     93  C65 UNL A   1      39.336  27.350  28.801  1.00  0.00    +0.000 C 
ATOM    125  H30 UNL A   1      40.021  33.231  31.397  1.00  0.00    +0.000 H 
ATOM    126  H31 UNL A   1      42.418  34.256  31.341  1.00  0.00    +0.000 H 
ATOM    127  H32 UNL A   1      42.547  30.544  29.509  1.00  0.00    +0.000 H 
ATOM    128  H33 UNL A   1      45.911  25.856  26.781  1.00  0.00    +0.000 H 
ENDROOT
BRANCH   37   36
ATOM     33  C24 UNL A   1      39.736  22.953  26.635  1.00  0.00    +0.000 C 
ATOM     34  C25 UNL A   1      39.496  24.154  25.960  1.00  0.00    +0.000 C 
ATOM     35  C26 UNL A   1      40.122  25.329  26.384  1.00  0.00    +0.000 C 
ATOM     36  C27 UNL A   1      40.967  25.317  27.505  1.00  0.00    +0.000 C 
ATOM    135  H40 UNL A   1      41.830  24.085  28.992  1.00  0.00    +0.000 H 
ATOM    136  H41 UNL A   1      40.882  22.021  28.145  1.00  0.00    +0.000 H 
ATOM    123  H28 UNL A   1      38.857  24.172  25.149  1.00  0.00    +0.000 H 
ATOM    124  H29 UNL A   1      39.961  26.210  25.871  1.00  0.00    +0.000 H 
ATOM     94  C66 UNL A   1      41.216  24.103  28.162  1.00  0.00    +0.000 C 
ATOM     95  C67 UNL A   1      40.641  22.921  27.700  1.00  0.00    +0.000 C 
BRANCH   33   31
ATOM     31  C23 UNL A   1      39.066  21.719  26.161  1.00  0.00    +0.000 C 
ATOM     32  O3  UNL A   1      39.686  20.665  26.128  1.00  0.00    +0.000 O 
BRANCH   31   30
ATOM    122  H27 UNL A   1      37.091  21.826  26.499  1.00  0.00    +0.000 H 
ATOM     30  N4  UNL A   1      37.748  21.754  25.769  1.00  0.00    +0.000 N 
BRANCH   30   29
ATOM    121  H26 UNL A   1      36.499  20.884  24.389  1.00  0.00    +0.000 H 
ATOM     29  C22 UNL A   1      37.190  21.699  24.427  1.00  0.00    +0.000 C 
ATOM    120  H25 UNL A   1      37.987  21.563  23.727  1.00  0.00    +0.000 H 
BRANCH   29   28
ATOM     28  C21 UNL A   1      36.433  22.978  24.072  1.00  0.00    +0.000 C 
ATOM    118  H23 UNL A   1      37.145  23.701  23.732  1.00  0.00    +0.000 H 
ATOM    119  H24 UNL A   1      35.716  22.704  23.327  1.00  0.00    +0.000 H 
BRANCH   28   27
ATOM     27  C20 UNL A   1      35.635  23.600  25.225  1.00  0.00    +0.000 C 
ATOM    116  H21 UNL A   1      36.319  23.823  26.016  1.00  0.00    +0.000 H 
ATOM    117  H22 UNL A   1      35.151  24.462  24.816  1.00  0.00    +0.000 H 
BRANCH   27   26
ATOM     26  C19 UNL A   1      34.515  22.726  25.803  1.00  0.00    +0.000 C 
ATOM    115  H20 UNL A   1      34.990  21.876  26.246  1.00  0.00    +0.000 H 
ATOM    114  H19 UNL A   1      33.851  22.462  25.006  1.00  0.00    +0.000 H 
BRANCH   26   25
ATOM     25  C18 UNL A   1      33.696  23.396  26.908  1.00  0.00    +0.000 C 
ATOM    113  H18 UNL A   1      34.192  24.315  27.144  1.00  0.00    +0.000 H 
ATOM    112  H17 UNL A   1      33.645  22.726  27.741  1.00  0.00    +0.000 H 
BRANCH   25   24
ATOM    110  H15 UNL A   1      31.598  23.580  27.317  1.00  0.00    +0.000 H 
ATOM    111  H16 UNL A   1      32.226  24.795  26.221  1.00  0.00    +0.000 H 
ATOM     24  C17 UNL A   1      32.260  23.761  26.494  1.00  0.00    +0.000 C 
BRANCH   24   23
ATOM    109  H14 UNL A   1      31.792  21.986  25.514  1.00  0.00    +0.000 H 
ATOM     23  N3  UNL A   1      31.847  22.957  25.362  1.00  0.00    +0.000 N 
BRANCH   23   21
ATOM     21  C16 UNL A   1      31.522  23.397  24.097  1.00  0.00    +0.000 C 
ATOM     22  O2  UNL A   1      30.404  23.871  23.900  1.00  0.00    +0.000 O 
BRANCH   21    2
ATOM      2  C2  UNL A   1      32.393  23.147  22.876  1.00  0.00    +0.000 C 
BRANCH    2    1
ATOM      1  C1  UNL A   1      32.626  21.682  22.589  1.00  0.00    +0.000 C 
ATOM     98  H3  UNL A   1      32.544  21.124  23.498  1.00  0.00    +0.000 H 
ATOM     97  H2  UNL A   1      31.894  21.336  21.889  1.00  0.00    +0.000 H 
ATOM     96  H1  UNL A   1      33.605  21.551  22.178  1.00  0.00    +0.000 H 
ENDBRANCH    2    1
BRANCH    2    3
ATOM      3  N1  UNL A   1      32.888  24.006  22.032  1.00  0.00    +0.000 N 
BRANCH    3    4
ATOM      4  O1  UNL A   1      33.721  24.951  22.620  1.00  0.00    +0.000 O 
BRANCH    4    5
ATOM     99  H4  UNL A   1      32.127  26.155  22.223  1.00  0.00    +0.000 H 
ATOM    100  H5  UNL A   1      33.755  26.923  22.256  1.00  0.00    +0.000 H 
ATOM      5  C3  UNL A   1      33.077  26.233  22.711  1.00  0.00    +0.000 C 
BRANCH    5    6
ATOM    101  H6  UNL A   1      34.854  26.641  24.728  1.00  0.00    +0.000 H 
ATOM      6  C4  UNL A   1      32.833  26.771  24.112  1.00  0.00    +0.000 C 
ATOM      7  C5  UNL A   1      33.891  26.854  25.032  1.00  0.00    +0.000 C 
ATOM      8  C6  UNL A   1      33.647  27.223  26.356  1.00  0.00    +0.000 C 
ATOM    102  H7  UNL A   1      34.431  27.306  27.022  1.00  0.00    +0.000 H 
ATOM     10  C8  UNL A   1      31.290  27.421  25.862  1.00  0.00    +0.000 C 
ATOM     11  C9  UNL A   1      31.528  27.142  24.512  1.00  0.00    +0.000 C 
ATOM    104  H9  UNL A   1      30.324  27.585  26.187  1.00  0.00    +0.000 H 
ATOM      9  C7  UNL A   1      32.345  27.480  26.775  1.00  0.00    +0.000 C 
ATOM    103  H8  UNL A   1      32.160  27.714  27.763  1.00  0.00    +0.000 H 
BRANCH   11   12
ATOM    105  H10 UNL A   1      30.379  26.260  23.068  1.00  0.00    +0.000 H 
ATOM     12  N2  UNL A   1      30.497  27.117  23.538  1.00  0.00    +0.000 N 
BRANCH   12   13
ATOM    106  H11 UNL A   1      26.292  28.779  23.093  1.00  0.00    +0.000 H 
ATOM    107  H12 UNL A   1      27.050  30.773  21.937  1.00  0.00    +0.000 H 
ATOM    108  H13 UNL A   1      29.413  31.083  21.490  1.00  0.00    +0.000 H 
ATOM     13  C10 UNL A   1      29.613  28.152  23.147  1.00  0.00    +0.000 C 
ATOM     14  C11 UNL A   1      28.228  27.975  23.354  1.00  0.00    +0.000 C 
ATOM     15 Cl1  UNL A   1      27.612  26.562  24.149  1.00  0.00    +0.000 Cl
ATOM     16  C12 UNL A   1      27.299  28.924  22.917  1.00  0.00    +0.000 C 
ATOM     17  C13 UNL A   1      27.732  30.063  22.246  1.00  0.00    +0.000 C 
ATOM     18  C14 UNL A   1      29.090  30.241  21.996  1.00  0.00    +0.000 C 
ATOM     19  C15 UNL A   1      30.023  29.288  22.423  1.00  0.00    +0.000 C 
ATOM     20 Cl2  UNL A   1      31.673  29.550  21.975  1.00  0.00    +0.000 Cl
ENDBRANCH   12   13
ENDBRANCH   11   12
ENDBRANCH    5    6
ENDBRANCH    4    5
ENDBRANCH    3    4
ENDBRANCH    2    3
ENDBRANCH   21    2
ENDBRANCH   23   21
ENDBRANCH   24   23
ENDBRANCH   25   24
ENDBRANCH   26   25
ENDBRANCH   27   26
ENDBRANCH   28   27
ENDBRANCH   29   28
ENDBRANCH   30   29
ENDBRANCH   31   30
ENDBRANCH   33   31
ENDBRANCH   37   36
BRANCH   41   42
ATOM     42  C32 UNL A   1      38.427  31.061  30.490  1.00  0.00    +0.000 C 
ATOM     43  C33 UNL A   1      38.008  31.020  31.828  1.00  0.00    +0.000 C 
ATOM     44  F1  UNL A   1      38.835  30.563  32.781  1.00  0.00    +0.000 F 
ATOM     45  C34 UNL A   1      36.721  31.413  32.189  1.00  0.00    +0.000 C 
ATOM     46  F2  UNL A   1      36.328  31.321  33.466  1.00  0.00    +0.000 F 
ATOM     47  C35 UNL A   1      35.843  31.887  31.226  1.00  0.00    +0.000 C 
ATOM     48  F3  UNL A   1      34.607  32.270  31.576  1.00  0.00    +0.000 F 
ATOM     49  C36 UNL A   1      36.243  31.956  29.901  1.00  0.00    +0.000 C 
ATOM     50  F4  UNL A   1      35.398  32.425  28.971  1.00  0.00    +0.000 F 
ATOM     51  C37 UNL A   1      37.519  31.537  29.532  1.00  0.00    +0.000 C 
ATOM     52  F5  UNL A   1      37.871  31.603  28.239  1.00  0.00    +0.000 F 
ENDBRANCH   41   42
BRANCH   58   59
ATOM     65  F8  UNL A   1      46.950  37.202  32.049  1.00  0.00    +0.000 F 
ATOM     66  C47 UNL A   1      46.220  34.985  32.412  1.00  0.00    +0.000 C 
ATOM     67  F9  UNL A   1      46.680  35.025  33.670  1.00  0.00    +0.000 F 
ATOM     68  C48 UNL A   1      45.614  33.829  31.929  1.00  0.00    +0.000 C 
ATOM     69  F10 UNL A   1      45.513  32.766  32.742  1.00  0.00    +0.000 F 
ATOM     59  C43 UNL A   1      45.107  33.771  30.623  1.00  0.00    +0.000 C 
ATOM     60  C44 UNL A   1      45.232  34.911  29.816  1.00  0.00    +0.000 C 
ATOM     61  F6  UNL A   1      44.777  34.899  28.554  1.00  0.00    +0.000 F 
ATOM     62  C45 UNL A   1      45.863  36.057  30.293  1.00  0.00    +0.000 C 
ATOM     63  F7  UNL A   1      46.012  37.121  29.490  1.00  0.00    +0.000 F 
ATOM     64  C46 UNL A   1      46.349  36.096  31.591  1.00  0.00    +0.000 C 
ENDBRANCH   58   59
BRANCH   73   74
ATOM     74  C52 UNL A   1      47.427  28.057  27.389  1.00  0.00    +0.000 C 
ATOM     75  C53 UNL A   1      47.771  28.179  26.036  1.00  0.00    +0.000 C 
ATOM     76  F11 UNL A   1      46.878  28.665  25.161  1.00  0.00    +0.000 F 
ATOM     77  C54 UNL A   1      49.018  27.770  25.570  1.00  0.00    +0.000 C 
ATOM     78  F12 UNL A   1      49.305  27.861  24.264  1.00  0.00    +0.000 F 
ATOM     79  C55 UNL A   1      49.955  27.255  26.452  1.00  0.00    +0.000 C 
ATOM     80  F13 UNL A   1      51.156  26.866  26.005  1.00  0.00    +0.000 F 
ATOM     81  C56 UNL A   1      49.644  27.139  27.799  1.00  0.00    +0.000 C 
ATOM     82  F14 UNL A   1      50.552  26.654  28.657  1.00  0.00    +0.000 F 
ATOM     83  C57 UNL A   1      48.388  27.525  28.262  1.00  0.00    +0.000 C 
ATOM     84  F15 UNL A   1      48.109  27.392  29.567  1.00  0.00    +0.000 F 
ENDBRANCH   73   74
TORSDOF 22
ENDMDL
MODEL 4
REMARK VINA RESULT:      -9.3     44.163     49.854
ROOT
ATOM    129  H34 UNL A   1      19.484  34.210  47.684  1.00  0.00    +0.000 H 
ATOM    130  H35 UNL A   1      20.495  38.168  48.450  1.00  0.00    +0.000 H 
ATOM    131  H36 UNL A   1      16.469  40.226  50.646  1.00  0.00    +0.000 H 
ATOM    132  H37 UNL A   1      17.773  42.428  50.680  1.00  0.00    +0.000 H 
ATOM    133  H38 UNL A   1      25.819  37.824  46.808  1.00  0.00    +0.000 H 
ATOM    134  H39 UNL A   1      24.400  35.745  46.341  1.00  0.00    +0.000 H 
ATOM     37  C28 UNL A   1      21.749  35.912  47.373  1.00  0.00    +0.000 C 
ATOM     38  C29 UNL A   1      22.800  36.988  47.360  1.00  0.00    +0.000 C 
ATOM     39  N5  UNL A   1      22.733  38.216  47.806  1.00  0.00    +0.000 N 
ATOM     40  C30 UNL A   1      23.990  38.765  47.592  1.00  0.00    +0.000 C 
ATOM     41  C31 UNL A   1      24.413  40.030  47.834  1.00  0.00    +0.000 C 
ATOM     53  C38 UNL A   1      23.582  41.072  48.378  1.00  0.00    +0.000 C 
ATOM     54  C39 UNL A   1      23.899  42.401  48.602  1.00  0.00    +0.000 C 
ATOM     55  C40 UNL A   1      22.786  43.025  49.176  1.00  0.00    +0.000 C 
ATOM     56  C41 UNL A   1      21.762  42.096  49.271  1.00  0.00    +0.000 C 
ATOM     57  N6  UNL A   1      22.266  40.901  48.782  1.00  0.00    +0.000 N 
ATOM     58  C42 UNL A   1      20.425  42.283  49.770  1.00  0.00    +0.000 C 
ATOM     70  C49 UNL A   1      19.472  41.320  49.824  1.00  0.00    +0.000 C 
ATOM     71  N7  UNL A   1      19.549  39.993  49.425  1.00  0.00    +0.000 N 
ATOM     72  C50 UNL A   1      18.379  39.468  49.689  1.00  0.00    +0.000 C 
ATOM     73  C51 UNL A   1      17.888  38.068  49.440  1.00  0.00    +0.000 C 
ATOM     85  C58 UNL A   1      18.705  37.180  48.841  1.00  0.00    +0.000 C 
ATOM     86  C59 UNL A   1      18.367  35.795  48.530  1.00  0.00    +0.000 C 
ATOM     87  C60 UNL A   1      19.437  35.196  47.982  1.00  0.00    +0.000 C 
ATOM     88  C61 UNL A   1      20.526  36.168  47.873  1.00  0.00    +0.000 C 
ATOM     89  N8  UNL A   1      19.996  37.321  48.397  1.00  0.00    +0.000 N 
ATOM     90  C62 UNL A   1      17.430  40.401  50.314  1.00  0.00    +0.000 C 
ATOM     91  C63 UNL A   1      18.133  41.524  50.338  1.00  0.00    +0.000 C 
ATOM     92  C64 UNL A   1      24.813  37.724  47.017  1.00  0.00    +0.000 C 
ATOM     93  C65 UNL A   1      24.108  36.625  46.793  1.00  0.00    +0.000 C 
ATOM    125  H30 UNL A   1      24.800  42.853  48.383  1.00  0.00    +0.000 H 
ATOM    126  H31 UNL A   1      22.736  44.011  49.478  1.00  0.00    +0.000 H 
ATOM    127  H32 UNL A   1      21.764  40.056  48.730  1.00  0.00    +0.000 H 
ATOM    128  H33 UNL A   1      17.454  35.347  48.703  1.00  0.00    +0.000 H 
ENDROOT
BRANCH   37   36
ATOM     33  C24 UNL A   1      22.757  31.981  45.987  1.00  0.00    +0.000 C 
ATOM     34  C25 UNL A   1      22.415  32.174  47.329  1.00  0.00    +0.000 C 
ATOM     35  C26 UNL A   1      22.060  33.448  47.782  1.00  0.00    +0.000 C 
ATOM     36  C27 UNL A   1      22.077  34.542  46.902  1.00  0.00    +0.000 C 
ATOM    135  H40 UNL A   1      22.425  35.132  44.901  1.00  0.00    +0.000 H 
ATOM    136  H41 UNL A   1      22.866  32.892  44.085  1.00  0.00    +0.000 H 
ATOM    123  H28 UNL A   1      22.423  31.377  47.985  1.00  0.00    +0.000 H 
ATOM    124  H29 UNL A   1      21.786  33.585  48.767  1.00  0.00    +0.000 H 
ATOM     94  C66 UNL A   1      22.402  34.333  45.554  1.00  0.00    +0.000 C 
ATOM     95  C67 UNL A   1      22.695  33.051  45.090  1.00  0.00    +0.000 C 
BRANCH   33   31
ATOM     31  C23 UNL A   1      23.122  30.619  45.531  1.00  0.00    +0.000 C 
ATOM     32  O3  UNL A   1      24.222  30.419  45.035  1.00  0.00    +0.000 O 
BRANCH   31   30
ATOM    122  H27 UNL A   1      22.511  28.867  46.294  1.00  0.00    +0.000 H 
ATOM     30  N4  UNL A   1      22.233  29.579  45.674  1.00  0.00    +0.000 N 
BRANCH   30   29
ATOM    121  H26 UNL A   1      20.277  28.956  45.757  1.00  0.00    +0.000 H 
ATOM     29  C22 UNL A   1      20.940  29.385  45.036  1.00  0.00    +0.000 C 
ATOM    120  H25 UNL A   1      21.064  28.740  44.192  1.00  0.00    +0.000 H 
BRANCH   29   28
ATOM     28  C21 UNL A   1      20.334  30.705  44.563  1.00  0.00    +0.000 C 
ATOM    118  H23 UNL A   1      21.105  31.448  44.573  1.00  0.00    +0.000 H 
ATOM    119  H24 UNL A   1      19.936  30.519  43.587  1.00  0.00    +0.000 H 
BRANCH   28   27
ATOM     27  C20 UNL A   1      19.164  31.222  45.410  1.00  0.00    +0.000 C 
ATOM    116  H21 UNL A   1      18.260  30.820  45.003  1.00  0.00    +0.000 H 
ATOM    117  H22 UNL A   1      19.365  30.906  46.412  1.00  0.00    +0.000 H 
BRANCH   27   26
ATOM     26  C19 UNL A   1      19.015  32.747  45.474  1.00  0.00    +0.000 C 
ATOM    115  H20 UNL A   1      19.864  33.114  46.012  1.00  0.00    +0.000 H 
ATOM    114  H19 UNL A   1      18.087  32.973  45.956  1.00  0.00    +0.000 H 
BRANCH   26   25
ATOM     25  C18 UNL A   1      19.028  33.440  44.109  1.00  0.00    +0.000 C 
ATOM    113  H18 UNL A   1      18.994  32.667  43.370  1.00  0.00    +0.000 H 
ATOM    112  H17 UNL A   1      19.914  34.037  44.044  1.00  0.00    +0.000 H 
BRANCH   25   24
ATOM    110  H15 UNL A   1      17.812  35.146  44.570  1.00  0.00    +0.000 H 
ATOM    111  H16 UNL A   1      17.880  34.753  42.864  1.00  0.00    +0.000 H 
ATOM     24  C17 UNL A   1      17.814  34.351  43.854  1.00  0.00    +0.000 C 
BRANCH   24   23
ATOM    109  H14 UNL A   1      16.100  33.682  44.828  1.00  0.00    +0.000 H 
ATOM     23  N3  UNL A   1      16.586  33.591  43.977  1.00  0.00    +0.000 N 
BRANCH   23   21
ATOM     21  C16 UNL A   1      16.021  32.756  43.037  1.00  0.00    +0.000 C 
ATOM     22  O2  UNL A   1      15.672  33.227  41.956  1.00  0.00    +0.000 O 
BRANCH   21    2
ATOM      2  C2  UNL A   1      15.613  31.322  43.332  1.00  0.00    +0.000 C 
BRANCH    2    1
ATOM      1  C1  UNL A   1      15.806  30.922  44.775  1.00  0.00    +0.000 C 
ATOM     98  H3  UNL A   1      14.881  31.031  45.302  1.00  0.00    +0.000 H 
ATOM     97  H2  UNL A   1      16.126  29.902  44.823  1.00  0.00    +0.000 H 
ATOM     96  H1  UNL A   1      16.547  31.551  45.224  1.00  0.00    +0.000 H 
ENDBRANCH    2    1
BRANCH    2    3
ATOM      3  N1  UNL A   1      15.067  30.445  42.538  1.00  0.00    +0.000 N 
BRANCH    3    4
ATOM      4  O1  UNL A   1      15.962  29.868  41.645  1.00  0.00    +0.000 O 
BRANCH    4    5
ATOM     99  H4  UNL A   1      16.221  28.159  40.567  1.00  0.00    +0.000 H 
ATOM    100  H5  UNL A   1      14.590  28.453  41.270  1.00  0.00    +0.000 H 
ATOM      5  C3  UNL A   1      15.649  28.484  41.411  1.00  0.00    +0.000 C 
BRANCH    5    6
ATOM    101  H6  UNL A   1      17.287  28.804  43.559  1.00  0.00    +0.000 H 
ATOM      6  C4  UNL A   1      15.931  27.524  42.556  1.00  0.00    +0.000 C 
ATOM      7  C5  UNL A   1      16.863  27.863  43.551  1.00  0.00    +0.000 C 
ATOM      8  C6  UNL A   1      17.220  26.934  44.529  1.00  0.00    +0.000 C 
ATOM    102  H7  UNL A   1      17.888  27.195  45.271  1.00  0.00    +0.000 H 
ATOM     10  C8  UNL A   1      15.730  25.316  43.530  1.00  0.00    +0.000 C 
ATOM     11  C9  UNL A   1      15.292  26.262  42.597  1.00  0.00    +0.000 C 
ATOM    104  H9  UNL A   1      15.351  24.356  43.499  1.00  0.00    +0.000 H 
ATOM      9  C7  UNL A   1      16.674  25.654  44.502  1.00  0.00    +0.000 C 
ATOM    103  H8  UNL A   1      16.968  24.954  45.201  1.00  0.00    +0.000 H 
BRANCH   11   12
ATOM    105  H10 UNL A   1      13.714  26.735  41.387  1.00  0.00    +0.000 H 
ATOM     12  N2  UNL A   1      14.302  25.982  41.622  1.00  0.00    +0.000 N 
BRANCH   12   13
ATOM    106  H11 UNL A   1      14.874  23.260  38.029  1.00  0.00    +0.000 H 
ATOM    107  H12 UNL A   1      13.272  21.625  38.834  1.00  0.00    +0.000 H 
ATOM    108  H13 UNL A   1      12.112  22.004  40.929  1.00  0.00    +0.000 H 
ATOM     13  C10 UNL A   1      14.043  24.770  40.936  1.00  0.00    +0.000 C 
ATOM     14  C11 UNL A   1      14.670  24.547  39.692  1.00  0.00    +0.000 C 
ATOM     15 Cl1  UNL A   1      15.805  25.684  39.042  1.00  0.00    +0.000 Cl
ATOM     16  C12 UNL A   1      14.392  23.408  38.930  1.00  0.00    +0.000 C 
ATOM     17  C13 UNL A   1      13.467  22.475  39.386  1.00  0.00    +0.000 C 
ATOM     18  C14 UNL A   1      12.806  22.692  40.593  1.00  0.00    +0.000 C 
ATOM     19  C15 UNL A   1      13.074  23.837  41.354  1.00  0.00    +0.000 C 
ATOM     20 Cl2  UNL A   1      12.129  24.066  42.785  1.00  0.00    +0.000 Cl
ENDBRANCH   12   13
ENDBRANCH   11   12
ENDBRANCH    5    6
ENDBRANCH    4    5
ENDBRANCH    3    4
ENDBRANCH    2    3
ENDBRANCH   21    2
ENDBRANCH   23   21
ENDBRANCH   24   23
ENDBRANCH   25   24
ENDBRANCH   26   25
ENDBRANCH   27   26
ENDBRANCH   28   27
ENDBRANCH   29   28
ENDBRANCH   30   29
ENDBRANCH   31   30
ENDBRANCH   33   31
ENDBRANCH   37   36
BRANCH   41   42
ATOM     42  C32 UNL A   1      25.841  40.358  47.509  1.00  0.00    +0.000 C 
ATOM     43  C33 UNL A   1      26.240  40.680  46.203  1.00  0.00    +0.000 C 
ATOM     44  F1  UNL A   1      25.349  40.656  45.199  1.00  0.00    +0.000 F 
ATOM     45  C34 UNL A   1      27.567  40.991  45.915  1.00  0.00    +0.000 C 
ATOM     46  F2  UNL A   1      27.934  41.249  44.653  1.00  0.00    +0.000 F 
ATOM     47  C35 UNL A   1      28.510  41.020  46.931  1.00  0.00    +0.000 C 
ATOM     48  F3  UNL A   1      29.786  41.325  46.653  1.00  0.00    +0.000 F 
ATOM     49  C36 UNL A   1      28.134  40.726  48.232  1.00  0.00    +0.000 C 
ATOM     50  F4  UNL A   1      29.043  40.766  49.216  1.00  0.00    +0.000 F 
ATOM     51  C37 UNL A   1      26.813  40.387  48.519  1.00  0.00    +0.000 C 
ATOM     52  F5  UNL A   1      26.484  40.095  49.786  1.00  0.00    +0.000 F 
ENDBRANCH   41   42
BRANCH   58   59
ATOM     65  F8  UNL A   1      18.918  47.397  51.634  1.00  0.00    +0.000 F 
ATOM     66  C47 UNL A   1      19.799  45.249  52.067  1.00  0.00    +0.000 C 
ATOM     67  F9  UNL A   1      19.930  45.550  53.366  1.00  0.00    +0.000 F 
ATOM     68  C48 UNL A   1      20.190  43.997  51.601  1.00  0.00    +0.000 C 
ATOM     69  F10 UNL A   1      20.703  43.115  52.472  1.00  0.00    +0.000 F 
ATOM     59  C43 UNL A   1      20.042  43.652  50.249  1.00  0.00    +0.000 C 
ATOM     60  C44 UNL A   1      19.495  44.608  49.381  1.00  0.00    +0.000 C 
ATOM     61  F6  UNL A   1      19.350  44.331  48.076  1.00  0.00    +0.000 F 
ATOM     62  C45 UNL A   1      19.130  45.869  49.846  1.00  0.00    +0.000 C 
ATOM     63  F7  UNL A   1      18.651  46.783  48.990  1.00  0.00    +0.000 F 
ATOM     64  C46 UNL A   1      19.276  46.186  51.188  1.00  0.00    +0.000 C 
ENDBRANCH   58   59
BRANCH   73   74
ATOM     74  C52 UNL A   1      16.508  37.667  49.814  1.00  0.00    +0.000 C 
ATOM     75  C53 UNL A   1      15.532  37.452  48.832  1.00  0.00    +0.000 C 
ATOM     76  F11 UNL A   1      15.835  37.632  47.538  1.00  0.00    +0.000 F 
ATOM     77  C54 UNL A   1      14.232  37.089  49.176  1.00  0.00    +0.000 C 
ATOM     78  F12 UNL A   1      13.308  36.930  48.219  1.00  0.00    +0.000 F 
ATOM     79  C55 UNL A   1      13.890  36.907  50.507  1.00  0.00    +0.000 C 
ATOM     80  F13 UNL A   1      12.641  36.553  50.837  1.00  0.00    +0.000 F 
ATOM     81  C56 UNL A   1      14.843  37.098  51.496  1.00  0.00    +0.000 C 
ATOM     82  F14 UNL A   1      14.520  36.910  52.783  1.00  0.00    +0.000 F 
ATOM     83  C57 UNL A   1      16.137  37.486  51.155  1.00  0.00    +0.000 C 
ATOM     84  F15 UNL A   1      17.037  37.674  52.132  1.00  0.00    +0.000 F 
ENDBRANCH   73   74
TORSDOF 22
ENDMDL
MODEL 5
REMARK VINA RESULT:      -9.2     34.538     41.956
ROOT
ATOM    129  H34 UNL A   1      38.802  26.437  28.550  1.00  0.00    +0.000 H 
ATOM    130  H35 UNL A   1      41.994  29.101  28.554  1.00  0.00    +0.000 H 
ATOM    131  H36 UNL A   1      40.489  33.062  31.259  1.00  0.00    +0.000 H 
ATOM    132  H37 UNL A   1      42.756  34.124  30.724  1.00  0.00    +0.000 H 
ATOM    133  H38 UNL A   1      45.617  25.799  25.884  1.00  0.00    +0.000 H 
ATOM    134  H39 UNL A   1      43.221  24.908  26.007  1.00  0.00    +0.000 H 
ATOM     37  C28 UNL A   1      41.467  26.546  27.545  1.00  0.00    +0.000 C 
ATOM     38  C29 UNL A   1      42.895  26.830  27.167  1.00  0.00    +0.000 C 
ATOM     39  N5  UNL A   1      43.635  27.871  27.451  1.00  0.00    +0.000 N 
ATOM     40  C30 UNL A   1      44.884  27.607  26.905  1.00  0.00    +0.000 C 
ATOM     41  C31 UNL A   1      45.982  28.400  26.883  1.00  0.00    +0.000 C 
ATOM     53  C38 UNL A   1      46.037  29.724  27.447  1.00  0.00    +0.000 C 
ATOM     54  C39 UNL A   1      47.083  30.631  27.421  1.00  0.00    +0.000 C 
ATOM     55  C40 UNL A   1      46.690  31.771  28.130  1.00  0.00    +0.000 C 
ATOM     56  C41 UNL A   1      45.385  31.592  28.561  1.00  0.00    +0.000 C 
ATOM     57  N6  UNL A   1      44.999  30.329  28.140  1.00  0.00    +0.000 N 
ATOM     58  C42 UNL A   1      44.552  32.503  29.302  1.00  0.00    +0.000 C 
ATOM     70  C49 UNL A   1      43.275  32.255  29.684  1.00  0.00    +0.000 C 
ATOM     71  N7  UNL A   1      42.500  31.127  29.456  1.00  0.00    +0.000 N 
ATOM     72  C50 UNL A   1      41.345  31.361  30.029  1.00  0.00    +0.000 C 
ATOM     73  C51 UNL A   1      40.116  30.494  30.077  1.00  0.00    +0.000 C 
ATOM     85  C58 UNL A   1      40.122  29.307  29.442  1.00  0.00    +0.000 C 
ATOM     86  C59 UNL A   1      39.007  28.366  29.395  1.00  0.00    +0.000 C 
ATOM     87  C60 UNL A   1      39.387  27.271  28.717  1.00  0.00    +0.000 C 
ATOM     88  C61 UNL A   1      40.764  27.449  28.253  1.00  0.00    +0.000 C 
ATOM     89  N8  UNL A   1      41.115  28.691  28.720  1.00  0.00    +0.000 N 
ATOM     90  C62 UNL A   1      41.266  32.660  30.711  1.00  0.00    +0.000 C 
ATOM     91  C63 UNL A   1      42.454  33.181  30.437  1.00  0.00    +0.000 C 
ATOM     92  C64 UNL A   1      44.816  26.289  26.312  1.00  0.00    +0.000 C 
ATOM     93  C65 UNL A   1      43.590  25.792  26.391  1.00  0.00    +0.000 C 
ATOM    125  H30 UNL A   1      47.994  30.491  26.958  1.00  0.00    +0.000 H 
ATOM    126  H31 UNL A   1      47.273  32.606  28.302  1.00  0.00    +0.000 H 
ATOM    127  H32 UNL A   1      44.118  29.923  28.307  1.00  0.00    +0.000 H 
ATOM    128  H33 UNL A   1      38.078  28.518  29.815  1.00  0.00    +0.000 H 
ENDROOT
BRANCH   37   36
ATOM     33  C24 UNL A   1      39.696  22.788  26.483  1.00  0.00    +0.000 C 
ATOM     34  C25 UNL A   1      40.731  22.823  27.422  1.00  0.00    +0.000 C 
ATOM     35  C26 UNL A   1      41.296  24.047  27.792  1.00  0.00    +0.000 C 
ATOM     36  C27 UNL A   1      40.849  25.240  27.201  1.00  0.00    +0.000 C 
ATOM    135  H40 UNL A   1      39.467  26.065  25.829  1.00  0.00    +0.000 H 
ATOM    136  H41 UNL A   1      38.375  23.960  25.325  1.00  0.00    +0.000 H 
ATOM    123  H28 UNL A   1      41.078  21.947  27.842  1.00  0.00    +0.000 H 
ATOM    124  H29 UNL A   1      42.044  24.074  28.501  1.00  0.00    +0.000 H 
ATOM     94  C66 UNL A   1      39.797  25.194  26.275  1.00  0.00    +0.000 C 
ATOM     95  C67 UNL A   1      39.193  23.980  25.954  1.00  0.00    +0.000 C 
BRANCH   33   31
ATOM     31  C23 UNL A   1      39.110  21.478  26.114  1.00  0.00    +0.000 C 
ATOM     32  O3  UNL A   1      39.570  20.450  26.592  1.00  0.00    +0.000 O 
BRANCH   31   30
ATOM    122  H27 UNL A   1      38.264  21.567  24.297  1.00  0.00    +0.000 H 
ATOM     30  N4  UNL A   1      38.046  21.415  25.245  1.00  0.00    +0.000 N 
BRANCH   30   29
ATOM    121  H26 UNL A   1      36.556  20.921  26.571  1.00  0.00    +0.000 H 
ATOM     29  C22 UNL A   1      36.644  21.156  25.531  1.00  0.00    +0.000 C 
ATOM    120  H25 UNL A   1      36.311  20.342  24.922  1.00  0.00    +0.000 H 
BRANCH   29   28
ATOM     28  C21 UNL A   1      35.769  22.375  25.246  1.00  0.00    +0.000 C 
ATOM    118  H23 UNL A   1      36.382  23.125  24.791  1.00  0.00    +0.000 H 
ATOM    119  H24 UNL A   1      34.976  22.034  24.614  1.00  0.00    +0.000 H 
BRANCH   28   27
ATOM     27  C20 UNL A   1      35.097  22.994  26.479  1.00  0.00    +0.000 C 
ATOM    116  H21 UNL A   1      35.866  23.267  27.171  1.00  0.00    +0.000 H 
ATOM    117  H22 UNL A   1      34.526  23.823  26.118  1.00  0.00    +0.000 H 
BRANCH   27   26
ATOM     26  C19 UNL A   1      34.102  22.087  27.214  1.00  0.00    +0.000 C 
ATOM    115  H20 UNL A   1      33.246  22.690  27.435  1.00  0.00    +0.000 H 
ATOM    114  H19 UNL A   1      34.581  21.707  28.093  1.00  0.00    +0.000 H 
BRANCH   26   25
ATOM     25  C18 UNL A   1      33.601  20.899  26.390  1.00  0.00    +0.000 C 
ATOM    113  H18 UNL A   1      33.360  20.122  27.085  1.00  0.00    +0.000 H 
ATOM    112  H17 UNL A   1      34.372  20.618  25.704  1.00  0.00    +0.000 H 
BRANCH   25   24
ATOM    110  H15 UNL A   1      31.702  20.313  25.582  1.00  0.00    +0.000 H 
ATOM    111  H16 UNL A   1      31.798  22.002  26.037  1.00  0.00    +0.000 H 
ATOM     24  C17 UNL A   1      32.321  21.186  25.584  1.00  0.00    +0.000 C 
BRANCH   24   23
ATOM    109  H14 UNL A   1      33.169  20.867  23.710  1.00  0.00    +0.000 H 
ATOM     23  N3  UNL A   1      32.659  21.537  24.220  1.00  0.00    +0.000 N 
BRANCH   23   21
ATOM     21  C16 UNL A   1      32.346  22.703  23.554  1.00  0.00    +0.000 C 
ATOM     22  O2  UNL A   1      32.042  22.645  22.364  1.00  0.00    +0.000 O 
BRANCH   21    2
ATOM      2  C2  UNL A   1      32.552  24.086  24.150  1.00  0.00    +0.000 C 
BRANCH    2    1
ATOM      1  C1  UNL A   1      33.342  25.017  23.261  1.00  0.00    +0.000 C 
ATOM     98  H3  UNL A   1      33.157  26.029  23.552  1.00  0.00    +0.000 H 
ATOM     97  H2  UNL A   1      34.386  24.802  23.359  1.00  0.00    +0.000 H 
ATOM     96  H1  UNL A   1      33.043  24.878  22.243  1.00  0.00    +0.000 H 
ENDBRANCH    2    1
BRANCH    2    3
ATOM      3  N1  UNL A   1      32.086  24.577  25.262  1.00  0.00    +0.000 N 
BRANCH    3    4
ATOM      4  O1  UNL A   1      30.718  24.825  25.234  1.00  0.00    +0.000 O 
BRANCH    4    5
ATOM     99  H4  UNL A   1      31.089  26.425  26.438  1.00  0.00    +0.000 H 
ATOM    100  H5  UNL A   1      29.388  26.165  25.911  1.00  0.00    +0.000 H 
ATOM      5  C3  UNL A   1      30.422  26.172  25.641  1.00  0.00    +0.000 C 
BRANCH    5    6
ATOM    101  H6  UNL A   1      29.585  26.132  23.054  1.00  0.00    +0.000 H 
ATOM      6  C4  UNL A   1      30.551  27.246  24.572  1.00  0.00    +0.000 C 
ATOM      7  C5  UNL A   1      30.095  27.003  23.266  1.00  0.00    +0.000 C 
ATOM      8  C6  UNL A   1      30.329  27.934  22.253  1.00  0.00    +0.000 C 
ATOM    102  H7  UNL A   1      29.971  27.762  21.300  1.00  0.00    +0.000 H 
ATOM     10  C8  UNL A   1      31.483  29.355  23.831  1.00  0.00    +0.000 C 
ATOM     11  C9  UNL A   1      31.178  28.477  24.877  1.00  0.00    +0.000 C 
ATOM    104  H9  UNL A   1      32.038  30.204  24.022  1.00  0.00    +0.000 H 
ATOM      9  C7  UNL A   1      31.045  29.095  22.530  1.00  0.00    +0.000 C 
ATOM    103  H8  UNL A   1      31.253  29.765  21.773  1.00  0.00    +0.000 H 
BRANCH   11   12
ATOM    105  H10 UNL A   1      30.896  28.462  26.901  1.00  0.00    +0.000 H 
ATOM     12  N2  UNL A   1      31.560  28.719  26.220  1.00  0.00    +0.000 N 
BRANCH   12   13
ATOM    106  H11 UNL A   1      33.958  32.286  27.692  1.00  0.00    +0.000 H 
ATOM    107  H12 UNL A   1      36.012  31.008  27.880  1.00  0.00    +0.000 H 
ATOM    108  H13 UNL A   1      36.028  28.659  27.280  1.00  0.00    +0.000 H 
ATOM     13  C10 UNL A   1      32.761  29.278  26.721  1.00  0.00    +0.000 C 
ATOM     14  C11 UNL A   1      32.789  30.655  27.033  1.00  0.00    +0.000 C 
ATOM     15 Cl1  UNL A   1      31.367  31.636  26.897  1.00  0.00    +0.000 Cl
ATOM     16  C12 UNL A   1      33.966  31.281  27.454  1.00  0.00    +0.000 C 
ATOM     17  C13 UNL A   1      35.146  30.552  27.554  1.00  0.00    +0.000 C 
ATOM     18  C14 UNL A   1      35.151  29.201  27.214  1.00  0.00    +0.000 C 
ATOM     19  C15 UNL A   1      33.977  28.572  26.782  1.00  0.00    +0.000 C 
ATOM     20 Cl2  UNL A   1      34.109  26.920  26.286  1.00  0.00    +0.000 Cl
ENDBRANCH   12   13
ENDBRANCH   11   12
ENDBRANCH    5    6
ENDBRANCH    4    5
ENDBRANCH    3    4
ENDBRANCH    2    3
ENDBRANCH   21    2
ENDBRANCH   23   21
ENDBRANCH   24   23
ENDBRANCH   25   24
ENDBRANCH   26   25
ENDBRANCH   27   26
ENDBRANCH   28   27
ENDBRANCH   29   28
ENDBRANCH   30   29
ENDBRANCH   31   30
ENDBRANCH   33   31
ENDBRANCH   37   36
BRANCH   41   42
ATOM     42  C32 UNL A   1      47.217  27.859  26.222  1.00  0.00    +0.000 C 
ATOM     43  C33 UNL A   1      47.392  27.923  24.832  1.00  0.00    +0.000 C 
ATOM     44  F1  UNL A   1      46.428  28.436  24.052  1.00  0.00    +0.000 F 
ATOM     45  C34 UNL A   1      48.546  27.424  24.232  1.00  0.00    +0.000 C 
ATOM     46  F2  UNL A   1      48.671  27.454  22.898  1.00  0.00    +0.000 F 
ATOM     47  C35 UNL A   1      49.558  26.885  25.011  1.00  0.00    +0.000 C 
ATOM     48  F3  UNL A   1      50.671  26.411  24.432  1.00  0.00    +0.000 F 
ATOM     49  C36 UNL A   1      49.415  26.831  26.389  1.00  0.00    +0.000 C 
ATOM     50  F4  UNL A   1      50.398  26.321  27.144  1.00  0.00    +0.000 F 
ATOM     51  C37 UNL A   1      48.251  27.303  26.990  1.00  0.00    +0.000 C 
ATOM     52  F5  UNL A   1      48.136  27.224  28.324  1.00  0.00    +0.000 F 
ENDBRANCH   41   42
BRANCH   58   59
ATOM     65  F8  UNL A   1      46.663  37.538  30.749  1.00  0.00    +0.000 F 
ATOM     66  C47 UNL A   1      46.293  35.261  31.258  1.00  0.00    +0.000 C 
ATOM     67  F9  UNL A   1      46.906  35.412  32.440  1.00  0.00    +0.000 F 
ATOM     68  C48 UNL A   1      45.791  34.016  30.889  1.00  0.00    +0.000 C 
ATOM     69  F10 UNL A   1      45.943  32.984  31.732  1.00  0.00    +0.000 F 
ATOM     59  C43 UNL A   1      45.129  33.839  29.665  1.00  0.00    +0.000 C 
ATOM     60  C44 UNL A   1      44.992  34.952  28.823  1.00  0.00    +0.000 C 
ATOM     61  F6  UNL A   1      44.380  34.829  27.635  1.00  0.00    +0.000 F 
ATOM     62  C45 UNL A   1      45.518  36.189  29.183  1.00  0.00    +0.000 C 
ATOM     63  F7  UNL A   1      45.415  37.229  28.343  1.00  0.00    +0.000 F 
ATOM     64  C46 UNL A   1      46.162  36.345  30.402  1.00  0.00    +0.000 C 
ENDBRANCH   58   59
BRANCH   73   74
ATOM     74  C52 UNL A   1      38.892  30.949  30.784  1.00  0.00    +0.000 C 
ATOM     75  C53 UNL A   1      37.860  31.593  30.090  1.00  0.00    +0.000 C 
ATOM     76  F11 UNL A   1      37.983  31.826  28.775  1.00  0.00    +0.000 F 
ATOM     77  C54 UNL A   1      36.714  32.033  30.748  1.00  0.00    +0.000 C 
ATOM     78  F12 UNL A   1      35.761  32.683  30.067  1.00  0.00    +0.000 F 
ATOM     79  C55 UNL A   1      36.567  31.814  32.109  1.00  0.00    +0.000 C 
ATOM     80  F13 UNL A   1      35.463  32.233  32.742  1.00  0.00    +0.000 F 
ATOM     81  C56 UNL A   1      37.568  31.164  32.816  1.00  0.00    +0.000 C 
ATOM     82  F14 UNL A   1      37.424  30.938  34.128  1.00  0.00    +0.000 F 
ATOM     83  C57 UNL A   1      38.726  30.745  32.162  1.00  0.00    +0.000 C 
ATOM     84  F15 UNL A   1      39.683  30.128  32.870  1.00  0.00    +0.000 F 
ENDBRANCH   73   74
TORSDOF 22
ENDMDL
MODEL 6
REMARK VINA RESULT:      -9.2     43.926     49.698
ROOT
ATOM    129  H34 UNL A   1      19.421  34.355  47.897  1.00  0.00    +0.000 H 
ATOM    130  H35 UNL A   1      20.282  38.358  48.617  1.00  0.00    +0.000 H 
ATOM    131  H36 UNL A   1      16.140  40.314  50.687  1.00  0.00    +0.000 H 
ATOM    132  H37 UNL A   1      17.370  42.560  50.712  1.00  0.00    +0.000 H 
ATOM    133  H38 UNL A   1      25.650  38.166  47.099  1.00  0.00    +0.000 H 
ATOM    134  H39 UNL A   1      24.313  36.033  46.637  1.00  0.00    +0.000 H 
ATOM     37  C28 UNL A   1      21.634  36.128  47.607  1.00  0.00    +0.000 C 
ATOM     38  C29 UNL A   1      22.649  37.238  47.598  1.00  0.00    +0.000 C 
ATOM     39  N5  UNL A   1      22.531  38.471  48.022  1.00  0.00    +0.000 N 
ATOM     40  C30 UNL A   1      23.773  39.058  47.826  1.00  0.00    +0.000 C 
ATOM     41  C31 UNL A   1      24.148  40.340  48.056  1.00  0.00    +0.000 C 
ATOM     53  C38 UNL A   1      23.271  41.362  48.564  1.00  0.00    +0.000 C 
ATOM     54  C39 UNL A   1      23.538  42.704  48.772  1.00  0.00    +0.000 C 
ATOM     55  C40 UNL A   1      22.393  43.300  49.311  1.00  0.00    +0.000 C 
ATOM     56  C41 UNL A   1      21.399  42.339  49.399  1.00  0.00    +0.000 C 
ATOM     57  N6  UNL A   1      21.953  41.153  48.942  1.00  0.00    +0.000 N 
ATOM     58  C42 UNL A   1      20.044  42.489  49.864  1.00  0.00    +0.000 C 
ATOM     70  C49 UNL A   1      19.124  41.495  49.914  1.00  0.00    +0.000 C 
ATOM     71  N7  UNL A   1      19.254  40.165  49.539  1.00  0.00    +0.000 N 
ATOM     72  C50 UNL A   1      18.096  39.606  49.786  1.00  0.00    +0.000 C 
ATOM     73  C51 UNL A   1      17.658  38.186  49.550  1.00  0.00    +0.000 C 
ATOM     85  C58 UNL A   1      18.517  37.317  48.985  1.00  0.00    +0.000 C 
ATOM     86  C59 UNL A   1      18.233  35.916  48.690  1.00  0.00    +0.000 C 
ATOM     87  C60 UNL A   1      19.335  35.345  48.176  1.00  0.00    +0.000 C 
ATOM     88  C61 UNL A   1      20.392  36.351  48.075  1.00  0.00    +0.000 C 
ATOM     89  N8  UNL A   1      19.813  37.494  48.567  1.00  0.00    +0.000 N 
ATOM     90  C62 UNL A   1      17.103  40.516  50.374  1.00  0.00    +0.000 C 
ATOM     91  C63 UNL A   1      17.767  41.663  50.394  1.00  0.00    +0.000 C 
ATOM     92  C64 UNL A   1      24.644  38.036  47.288  1.00  0.00    +0.000 C 
ATOM     93  C65 UNL A   1      23.981  36.910  47.068  1.00  0.00    +0.000 C 
ATOM    125  H30 UNL A   1      24.428  43.183  48.565  1.00  0.00    +0.000 H 
ATOM    126  H31 UNL A   1      22.303  44.289  49.595  1.00  0.00    +0.000 H 
ATOM    127  H32 UNL A   1      21.480  40.291  48.893  1.00  0.00    +0.000 H 
ATOM    128  H33 UNL A   1      17.332  35.441  48.851  1.00  0.00    +0.000 H 
ENDROOT
BRANCH   37   36
ATOM     33  C24 UNL A   1      22.791  32.213  46.292  1.00  0.00    +0.000 C 
ATOM     34  C25 UNL A   1      22.813  32.518  47.656  1.00  0.00    +0.000 C 
ATOM     35  C26 UNL A   1      22.413  33.784  48.094  1.00  0.00    +0.000 C 
ATOM     36  C27 UNL A   1      22.018  34.762  47.167  1.00  0.00    +0.000 C 
ATOM    135  H40 UNL A   1      21.700  35.153  45.113  1.00  0.00    +0.000 H 
ATOM    136  H41 UNL A   1      22.225  32.903  44.378  1.00  0.00    +0.000 H 
ATOM    123  H28 UNL A   1      23.124  31.810  48.340  1.00  0.00    +0.000 H 
ATOM    124  H29 UNL A   1      22.408  34.001  49.102  1.00  0.00    +0.000 H 
ATOM     94  C66 UNL A   1      21.981  34.438  45.803  1.00  0.00    +0.000 C 
ATOM     95  C67 UNL A   1      22.321  33.156  45.373  1.00  0.00    +0.000 C 
BRANCH   33   31
ATOM     31  C23 UNL A   1      23.213  30.862  45.855  1.00  0.00    +0.000 C 
ATOM     32  O3  UNL A   1      24.341  30.691  45.414  1.00  0.00    +0.000 O 
BRANCH   31   30
ATOM    122  H27 UNL A   1      22.448  29.243  46.759  1.00  0.00    +0.000 H 
ATOM     30  N4  UNL A   1      22.346  29.799  45.953  1.00  0.00    +0.000 N 
BRANCH   30   29
ATOM    121  H26 UNL A   1      20.874  28.475  45.404  1.00  0.00    +0.000 H 
ATOM     29  C22 UNL A   1      21.299  29.383  45.033  1.00  0.00    +0.000 C 
ATOM    120  H25 UNL A   1      21.727  29.241  44.063  1.00  0.00    +0.000 H 
BRANCH   29   28
ATOM     28  C21 UNL A   1      20.182  30.421  44.932  1.00  0.00    +0.000 C 
ATOM    118  H23 UNL A   1      20.090  30.903  45.883  1.00  0.00    +0.000 H 
ATOM    119  H24 UNL A   1      20.463  31.087  44.144  1.00  0.00    +0.000 H 
BRANCH   28   27
ATOM     27  C20 UNL A   1      18.807  29.858  44.548  1.00  0.00    +0.000 C 
ATOM    116  H21 UNL A   1      18.926  29.283  43.654  1.00  0.00    +0.000 H 
ATOM    117  H22 UNL A   1      18.478  29.287  45.390  1.00  0.00    +0.000 H 
BRANCH   27   26
ATOM     26  C19 UNL A   1      17.712  30.902  44.295  1.00  0.00    +0.000 C 
ATOM    115  H20 UNL A   1      18.117  31.847  44.593  1.00  0.00    +0.000 H 
ATOM    114  H19 UNL A   1      16.847  30.623  44.860  1.00  0.00    +0.000 H 
BRANCH   26   25
ATOM     25  C18 UNL A   1      17.302  31.045  42.827  1.00  0.00    +0.000 C 
ATOM    113  H18 UNL A   1      17.860  30.313  42.279  1.00  0.00    +0.000 H 
ATOM    112  H17 UNL A   1      17.514  32.046  42.516  1.00  0.00    +0.000 H 
BRANCH   25   24
ATOM    110  H15 UNL A   1      15.223  31.554  42.968  1.00  0.00    +0.000 H 
ATOM    111  H16 UNL A   1      15.655  30.696  41.502  1.00  0.00    +0.000 H 
ATOM     24  C17 UNL A   1      15.814  30.760  42.559  1.00  0.00    +0.000 C 
BRANCH   24   23
ATOM    109  H14 UNL A   1      14.915  29.574  44.013  1.00  0.00    +0.000 H 
ATOM     23  N3  UNL A   1      15.426  29.507  43.174  1.00  0.00    +0.000 N 
BRANCH   23   21
ATOM     21  C16 UNL A   1      15.690  28.234  42.718  1.00  0.00    +0.000 C 
ATOM     22  O2  UNL A   1      15.832  28.052  41.510  1.00  0.00    +0.000 O 
BRANCH   21    2
ATOM      2  C2  UNL A   1      15.615  26.999  43.601  1.00  0.00    +0.000 C 
BRANCH    2    1
ATOM      1  C1  UNL A   1      16.918  26.663  44.286  1.00  0.00    +0.000 C 
ATOM     98  H3  UNL A   1      17.127  27.400  45.033  1.00  0.00    +0.000 H 
ATOM     97  H2  UNL A   1      16.842  25.700  44.745  1.00  0.00    +0.000 H 
ATOM     96  H1  UNL A   1      17.709  26.654  43.564  1.00  0.00    +0.000 H 
ENDBRANCH    2    1
BRANCH    2    3
ATOM      3  N1  UNL A   1      14.582  26.259  43.889  1.00  0.00    +0.000 N 
BRANCH    3    4
ATOM      4  O1  UNL A   1      13.996  25.662  42.779  1.00  0.00    +0.000 O 
BRANCH    4    5
ATOM     99  H4  UNL A   1      15.332  24.181  43.189  1.00  0.00    +0.000 H 
ATOM    100  H5  UNL A   1      15.273  24.795  41.498  1.00  0.00    +0.000 H 
ATOM      5  C3  UNL A   1      14.725  24.495  42.365  1.00  0.00    +0.000 C 
BRANCH    5    6
ATOM    101  H6  UNL A   1      12.623  23.305  43.615  1.00  0.00    +0.000 H 
ATOM      6  C4  UNL A   1      13.895  23.300  41.923  1.00  0.00    +0.000 C 
ATOM      7  C5  UNL A   1      12.874  22.802  42.751  1.00  0.00    +0.000 C 
ATOM      8  C6  UNL A   1      12.199  21.629  42.410  1.00  0.00    +0.000 C 
ATOM    102  H7  UNL A   1      11.434  21.281  43.009  1.00  0.00    +0.000 H 
ATOM     10  C8  UNL A   1      13.556  21.431  40.421  1.00  0.00    +0.000 C 
ATOM     11  C9  UNL A   1      14.181  22.651  40.699  1.00  0.00    +0.000 C 
ATOM    104  H9  UNL A   1      13.837  20.893  39.586  1.00  0.00    +0.000 H 
ATOM      9  C7  UNL A   1      12.558  20.931  41.260  1.00  0.00    +0.000 C 
ATOM    103  H8  UNL A   1      12.086  20.043  41.029  1.00  0.00    +0.000 H 
BRANCH   11   12
ATOM    105  H10 UNL A   1      16.049  23.361  40.266  1.00  0.00    +0.000 H 
ATOM     12  N2  UNL A   1      15.165  23.223  39.853  1.00  0.00    +0.000 N 
BRANCH   12   13
ATOM    106  H11 UNL A   1      15.765  22.410  35.424  1.00  0.00    +0.000 H 
ATOM    107  H12 UNL A   1      15.039  24.632  34.773  1.00  0.00    +0.000 H 
ATOM    108  H13 UNL A   1      14.385  26.232  36.473  1.00  0.00    +0.000 H 
ATOM     13  C10 UNL A   1      15.057  23.621  38.499  1.00  0.00    +0.000 C 
ATOM     14  C11 UNL A   1      15.475  22.724  37.492  1.00  0.00    +0.000 C 
ATOM     15 Cl1  UNL A   1      16.032  21.130  37.886  1.00  0.00    +0.000 Cl
ATOM     16  C12 UNL A   1      15.468  23.089  36.143  1.00  0.00    +0.000 C 
ATOM     17  C13 UNL A   1      15.061  24.365  35.769  1.00  0.00    +0.000 C 
ATOM     18  C14 UNL A   1      14.680  25.281  36.748  1.00  0.00    +0.000 C 
ATOM     19  C15 UNL A   1      14.695  24.922  38.101  1.00  0.00    +0.000 C 
ATOM     20 Cl2  UNL A   1      14.303  26.160  39.244  1.00  0.00    +0.000 Cl
ENDBRANCH   12   13
ENDBRANCH   11   12
ENDBRANCH    5    6
ENDBRANCH    4    5
ENDBRANCH    3    4
ENDBRANCH    2    3
ENDBRANCH   21    2
ENDBRANCH   23   21
ENDBRANCH   24   23
ENDBRANCH   25   24
ENDBRANCH   26   25
ENDBRANCH   27   26
ENDBRANCH   28   27
ENDBRANCH   29   28
ENDBRANCH   30   29
ENDBRANCH   31   30
ENDBRANCH   33   31
ENDBRANCH   37   36
BRANCH   41   42
ATOM     42  C32 UNL A   1      25.572  40.711  47.757  1.00  0.00    +0.000 C 
ATOM     43  C33 UNL A   1      26.020  40.894  46.441  1.00  0.00    +0.000 C 
ATOM     44  F1  UNL A   1      25.186  40.695  45.409  1.00  0.00    +0.000 F 
ATOM     45  C34 UNL A   1      27.342  41.246  46.176  1.00  0.00    +0.000 C 
ATOM     46  F2  UNL A   1      27.759  41.370  44.910  1.00  0.00    +0.000 F 
ATOM     47  C35 UNL A   1      28.228  41.456  47.222  1.00  0.00    +0.000 C 
ATOM     48  F3  UNL A   1      29.498  41.801  46.966  1.00  0.00    +0.000 F 
ATOM     49  C36 UNL A   1      27.801  41.301  48.531  1.00  0.00    +0.000 C 
ATOM     50  F4  UNL A   1      28.654  41.515  49.543  1.00  0.00    +0.000 F 
ATOM     51  C37 UNL A   1      26.487  40.921  48.798  1.00  0.00    +0.000 C 
ATOM     52  F5  UNL A   1      26.108  40.766  50.076  1.00  0.00    +0.000 F 
ENDBRANCH   41   42
BRANCH   58   59
ATOM     65  F8  UNL A   1      18.460  47.662  51.486  1.00  0.00    +0.000 F 
ATOM     66  C47 UNL A   1      18.697  46.045  49.781  1.00  0.00    +0.000 C 
ATOM     67  F9  UNL A   1      18.204  46.904  48.879  1.00  0.00    +0.000 F 
ATOM     68  C48 UNL A   1      19.068  44.762  49.389  1.00  0.00    +0.000 C 
ATOM     69  F10 UNL A   1      18.912  44.409  48.104  1.00  0.00    +0.000 F 
ATOM     59  C43 UNL A   1      19.606  43.852  50.311  1.00  0.00    +0.000 C 
ATOM     60  C44 UNL A   1      19.753  44.272  51.641  1.00  0.00    +0.000 C 
ATOM     61  F6  UNL A   1      20.247  43.432  52.564  1.00  0.00    +0.000 F 
ATOM     62  C45 UNL A   1      19.356  45.547  52.036  1.00  0.00    +0.000 C 
ATOM     63  F7  UNL A   1      19.465  45.912  53.321  1.00  0.00    +0.000 F 
ATOM     64  C46 UNL A   1      18.836  46.434  51.105  1.00  0.00    +0.000 C 
ENDBRANCH   58   59
BRANCH   73   74
ATOM     74  C52 UNL A   1      16.284  37.745  49.901  1.00  0.00    +0.000 C 
ATOM     75  C53 UNL A   1      15.337  37.484  48.901  1.00  0.00    +0.000 C 
ATOM     76  F11 UNL A   1      15.663  37.656  47.611  1.00  0.00    +0.000 F 
ATOM     77  C54 UNL A   1      14.043  37.082  49.222  1.00  0.00    +0.000 C 
ATOM     78  F12 UNL A   1      13.146  36.880  48.248  1.00  0.00    +0.000 F 
ATOM     79  C55 UNL A   1      13.678  36.909  50.548  1.00  0.00    +0.000 C 
ATOM     80  F13 UNL A   1      12.434  36.518  50.857  1.00  0.00    +0.000 F 
ATOM     81  C56 UNL A   1      14.602  37.145  51.555  1.00  0.00    +0.000 C 
ATOM     82  F14 UNL A   1      14.257  36.964  52.837  1.00  0.00    +0.000 F 
ATOM     83  C57 UNL A   1      15.890  37.571  51.236  1.00  0.00    +0.000 C 
ATOM     84  F15 UNL A   1      16.761  37.802  52.229  1.00  0.00    +0.000 F 
ENDBRANCH   73   74
TORSDOF 22
ENDMDL
MODEL 7
REMARK VINA RESULT:      -9.1     18.335     24.750
ROOT
ATOM    129  H34 UNL A   1      12.020  52.482   6.871  1.00  0.00    +0.000 H 
ATOM    130  H35 UNL A   1      14.390  51.507   3.598  1.00  0.00    +0.000 H 
ATOM    131  H36 UNL A   1      13.375  46.699   2.538  1.00  0.00    +0.000 H 
ATOM    132  H37 UNL A   1      15.129  46.873   0.681  1.00  0.00    +0.000 H 
ATOM    133  H38 UNL A   1      16.460  56.617   2.731  1.00  0.00    +0.000 H 
ATOM    134  H39 UNL A   1      15.068  56.355   4.864  1.00  0.00    +0.000 H 
ATOM     37  C28 UNL A   1      13.884  53.779   5.149  1.00  0.00    +0.000 C 
ATOM     38  C29 UNL A   1      14.851  54.234   4.092  1.00  0.00    +0.000 C 
ATOM     39  N5  UNL A   1      15.358  53.562   3.089  1.00  0.00    +0.000 N 
ATOM     40  C30 UNL A   1      16.154  54.464   2.394  1.00  0.00    +0.000 C 
ATOM     41  C31 UNL A   1      16.934  54.241   1.309  1.00  0.00    +0.000 C 
ATOM     53  C38 UNL A   1      17.080  52.962   0.665  1.00  0.00    +0.000 C 
ATOM     54  C39 UNL A   1      17.894  52.620  -0.401  1.00  0.00    +0.000 C 
ATOM     55  C40 UNL A   1      17.674  51.272  -0.705  1.00  0.00    +0.000 C 
ATOM     56  C41 UNL A   1      16.755  50.763   0.199  1.00  0.00    +0.000 C 
ATOM     57  N6  UNL A   1      16.395  51.812   1.030  1.00  0.00    +0.000 N 
ATOM     58  C42 UNL A   1      16.243  49.421   0.298  1.00  0.00    +0.000 C 
ATOM     70  C49 UNL A   1      15.344  48.997   1.220  1.00  0.00    +0.000 C 
ATOM     71  N7  UNL A   1      14.740  49.713   2.244  1.00  0.00    +0.000 N 
ATOM     72  C50 UNL A   1      13.945  48.870   2.854  1.00  0.00    +0.000 C 
ATOM     73  C51 UNL A   1      13.062  49.094   4.052  1.00  0.00    +0.000 C 
ATOM     85  C58 UNL A   1      13.057  50.301   4.649  1.00  0.00    +0.000 C 
ATOM     86  C59 UNL A   1      12.261  50.663   5.818  1.00  0.00    +0.000 C 
ATOM     87  C60 UNL A   1      12.471  51.959   6.106  1.00  0.00    +0.000 C 
ATOM     88  C61 UNL A   1      13.443  52.507   5.160  1.00  0.00    +0.000 C 
ATOM     89  N8  UNL A   1      13.743  51.449   4.339  1.00  0.00    +0.000 N 
ATOM     90  C62 UNL A   1      13.935  47.523   2.267  1.00  0.00    +0.000 C 
ATOM     91  C63 UNL A   1      14.833  47.644   1.300  1.00  0.00    +0.000 C 
ATOM     92  C64 UNL A   1      16.028  55.741   3.062  1.00  0.00    +0.000 C 
ATOM     93  C65 UNL A   1      15.285  55.638   4.155  1.00  0.00    +0.000 C 
ATOM    125  H30 UNL A   1      18.550  53.250  -0.888  1.00  0.00    +0.000 H 
ATOM    126  H31 UNL A   1      18.121  50.744  -1.472  1.00  0.00    +0.000 H 
ATOM    127  H32 UNL A   1      15.749  51.750   1.770  1.00  0.00    +0.000 H 
ATOM    128  H33 UNL A   1      11.638  50.028   6.339  1.00  0.00    +0.000 H 
ENDROOT
BRANCH   37   36
ATOM     33  C24 UNL A   1      12.419  56.608   8.020  1.00  0.00    +0.000 C 
ATOM     34  C25 UNL A   1      11.709  56.396   6.834  1.00  0.00    +0.000 C 
ATOM     35  C26 UNL A   1      12.167  55.457   5.905  1.00  0.00    +0.000 C 
ATOM     36  C27 UNL A   1      13.355  54.747   6.144  1.00  0.00    +0.000 C 
ATOM    135  H40 UNL A   1      14.927  54.442   7.526  1.00  0.00    +0.000 H 
ATOM    136  H41 UNL A   1      14.032  55.941   9.208  1.00  0.00    +0.000 H 
ATOM    123  H28 UNL A   1      10.848  56.933   6.644  1.00  0.00    +0.000 H 
ATOM    124  H29 UNL A   1      11.631  55.286   5.042  1.00  0.00    +0.000 H 
ATOM     94  C66 UNL A   1      14.048  54.954   7.345  1.00  0.00    +0.000 C 
ATOM     95  C67 UNL A   1      13.557  55.845   8.298  1.00  0.00    +0.000 C 
BRANCH   33   31
ATOM     31  C23 UNL A   1      11.909  57.605   8.991  1.00  0.00    +0.000 C 
ATOM     32  O3  UNL A   1      12.433  58.707   9.062  1.00  0.00    +0.000 O 
BRANCH   31   30
ATOM    122  H27 UNL A   1       9.954  57.394   9.389  1.00  0.00    +0.000 H 
ATOM     30  N4  UNL A   1      10.842  57.297   9.802  1.00  0.00    +0.000 N 
BRANCH   30   29
ATOM    121  H26 UNL A   1       9.829  56.803  11.520  1.00  0.00    +0.000 H 
ATOM     29  C22 UNL A   1      10.844  56.850  11.186  1.00  0.00    +0.000 C 
ATOM    120  H25 UNL A   1      11.412  57.541  11.773  1.00  0.00    +0.000 H 
BRANCH   29   28
ATOM     28  C21 UNL A   1      11.455  55.458  11.335  1.00  0.00    +0.000 C 
ATOM    118  H23 UNL A   1      10.761  54.746  10.937  1.00  0.00    +0.000 H 
ATOM    119  H24 UNL A   1      12.387  55.482  10.810  1.00  0.00    +0.000 H 
BRANCH   28   27
ATOM     27  C20 UNL A   1      11.787  55.046  12.775  1.00  0.00    +0.000 C 
ATOM    116  H21 UNL A   1      11.667  55.906  13.399  1.00  0.00    +0.000 H 
ATOM    117  H22 UNL A   1      11.120  54.243  13.012  1.00  0.00    +0.000 H 
BRANCH   27   26
ATOM     26  C19 UNL A   1      13.201  54.496  12.998  1.00  0.00    +0.000 C 
ATOM    115  H20 UNL A   1      13.143  53.834  13.836  1.00  0.00    +0.000 H 
ATOM    114  H19 UNL A   1      13.859  55.323  13.166  1.00  0.00    +0.000 H 
BRANCH   26   25
ATOM     25  C18 UNL A   1      13.751  53.676  11.828  1.00  0.00    +0.000 C 
ATOM    113  H18 UNL A   1      13.968  54.369  11.042  1.00  0.00    +0.000 H 
ATOM    112  H17 UNL A   1      13.015  52.952  11.550  1.00  0.00    +0.000 H 
BRANCH   25   24
ATOM    110  H15 UNL A   1      15.867  53.640  12.178  1.00  0.00    +0.000 H 
ATOM    111  H16 UNL A   1      14.969  52.440  13.084  1.00  0.00    +0.000 H 
ATOM     24  C17 UNL A   1      15.063  52.935  12.140  1.00  0.00    +0.000 C 
BRANCH   24   23
ATOM    109  H14 UNL A   1      14.705  51.921  10.358  1.00  0.00    +0.000 H 
ATOM     23  N3  UNL A   1      15.336  51.950  11.113  1.00  0.00    +0.000 N 
BRANCH   23   21
ATOM     21  C16 UNL A   1      16.379  51.050  11.073  1.00  0.00    +0.000 C 
ATOM     22  O2  UNL A   1      17.311  51.184  11.865  1.00  0.00    +0.000 O 
BRANCH   21    2
ATOM      2  C2  UNL A   1      16.550  50.018   9.970  1.00  0.00    +0.000 C 
BRANCH    2    1
ATOM      1  C1  UNL A   1      17.673  50.335   9.012  1.00  0.00    +0.000 C 
ATOM     98  H3  UNL A   1      17.368  51.124   8.356  1.00  0.00    +0.000 H 
ATOM     97  H2  UNL A   1      18.537  50.642   9.564  1.00  0.00    +0.000 H 
ATOM     96  H1  UNL A   1      17.908  49.464   8.436  1.00  0.00    +0.000 H 
ENDBRANCH    2    1
BRANCH    2    3
ATOM      3  N1  UNL A   1      15.917  48.893   9.796  1.00  0.00    +0.000 N 
BRANCH    3    4
ATOM      4  O1  UNL A   1      14.968  48.938   8.780  1.00  0.00    +0.000 O 
BRANCH    4    5
ATOM     99  H4  UNL A   1      12.959  49.095   8.484  1.00  0.00    +0.000 H 
ATOM    100  H5  UNL A   1      13.655  49.956   9.904  1.00  0.00    +0.000 H 
ATOM      5  C3  UNL A   1      13.638  49.066   9.311  1.00  0.00    +0.000 C 
BRANCH    5    6
ATOM    101  H6  UNL A   1      13.244  46.425   8.800  1.00  0.00    +0.000 H 
ATOM      6  C4  UNL A   1      13.175  47.965  10.251  1.00  0.00    +0.000 C 
ATOM      7  C5  UNL A   1      12.981  46.659   9.769  1.00  0.00    +0.000 C 
ATOM      8  C6  UNL A   1      12.432  45.677  10.595  1.00  0.00    +0.000 C 
ATOM    102  H7  UNL A   1      12.313  44.714  10.244  1.00  0.00    +0.000 H 
ATOM     10  C8  UNL A   1      12.257  47.289  12.387  1.00  0.00    +0.000 C 
ATOM     11  C9  UNL A   1      12.889  48.261  11.604  1.00  0.00    +0.000 C 
ATOM    104  H9  UNL A   1      11.943  47.527  13.341  1.00  0.00    +0.000 H 
ATOM      9  C7  UNL A   1      12.047  45.999  11.893  1.00  0.00    +0.000 C 
ATOM    103  H8  UNL A   1      11.605  45.284  12.491  1.00  0.00    +0.000 H 
BRANCH   11   12
ATOM    105  H10 UNL A   1      14.046  49.932  11.822  1.00  0.00    +0.000 H 
ATOM     12  N2  UNL A   1      13.167  49.568  12.076  1.00  0.00    +0.000 N 
BRANCH   12   13
ATOM    106  H11 UNL A   1      12.434  51.936  15.883  1.00  0.00    +0.000 H 
ATOM    107  H12 UNL A   1      10.189  52.575  15.223  1.00  0.00    +0.000 H 
ATOM    108  H13 UNL A   1       9.291  51.808  13.105  1.00  0.00    +0.000 H 
ATOM     13  C10 UNL A   1      12.357  50.425  12.861  1.00  0.00    +0.000 C 
ATOM     14  C11 UNL A   1      12.839  50.847  14.119  1.00  0.00    +0.000 C 
ATOM     15 Cl1  UNL A   1      14.423  50.407  14.668  1.00  0.00    +0.000 Cl
ATOM     16  C12 UNL A   1      12.055  51.627  14.974  1.00  0.00    +0.000 C 
ATOM     17  C13 UNL A   1      10.764  51.986  14.601  1.00  0.00    +0.000 C 
ATOM     18  C14 UNL A   1      10.253  51.549  13.381  1.00  0.00    +0.000 C 
ATOM     19  C15 UNL A   1      11.032  50.759  12.526  1.00  0.00    +0.000 C 
ATOM     20 Cl2  UNL A   1      10.272  50.182  11.083  1.00  0.00    +0.000 Cl
ENDBRANCH   12   13
ENDBRANCH   11   12
ENDBRANCH    5    6
ENDBRANCH    4    5
ENDBRANCH    3    4
ENDBRANCH    2    3
ENDBRANCH   21    2
ENDBRANCH   23   21
ENDBRANCH   24   23
ENDBRANCH   25   24
ENDBRANCH   26   25
ENDBRANCH   27   26
ENDBRANCH   28   27
ENDBRANCH   29   28
ENDBRANCH   30   29
ENDBRANCH   31   30
ENDBRANCH   33   31
ENDBRANCH   37   36
BRANCH   41   42
ATOM     42  C32 UNL A   1      17.694  55.408   0.749  1.00  0.00    +0.000 C 
ATOM     43  C33 UNL A   1      18.973  55.744   1.220  1.00  0.00    +0.000 C 
ATOM     44  F1  UNL A   1      19.528  55.046   2.223  1.00  0.00    +0.000 F 
ATOM     45  C34 UNL A   1      19.671  56.824   0.687  1.00  0.00    +0.000 C 
ATOM     46  F2  UNL A   1      20.871  57.155   1.184  1.00  0.00    +0.000 F 
ATOM     47  C35 UNL A   1      19.122  57.566  -0.348  1.00  0.00    +0.000 C 
ATOM     48  F3  UNL A   1      19.799  58.602  -0.863  1.00  0.00    +0.000 F 
ATOM     49  C36 UNL A   1      17.869  57.239  -0.842  1.00  0.00    +0.000 C 
ATOM     50  F4  UNL A   1      17.343  57.948  -1.851  1.00  0.00    +0.000 F 
ATOM     51  C37 UNL A   1      17.155  56.176  -0.293  1.00  0.00    +0.000 C 
ATOM     52  F5  UNL A   1      15.940  55.894  -0.784  1.00  0.00    +0.000 F 
ENDBRANCH   41   42
BRANCH   58   59
ATOM     65  F8  UNL A   1      18.091  45.532  -3.357  1.00  0.00    +0.000 F 
ATOM     66  C47 UNL A   1      16.408  47.034  -2.658  1.00  0.00    +0.000 C 
ATOM     67  F9  UNL A   1      15.628  46.657  -3.681  1.00  0.00    +0.000 F 
ATOM     68  C48 UNL A   1      15.964  48.008  -1.769  1.00  0.00    +0.000 C 
ATOM     69  F10 UNL A   1      14.756  48.559  -1.965  1.00  0.00    +0.000 F 
ATOM     59  C43 UNL A   1      16.754  48.404  -0.679  1.00  0.00    +0.000 C 
ATOM     60  C44 UNL A   1      18.005  47.793  -0.516  1.00  0.00    +0.000 C 
ATOM     61  F6  UNL A   1      18.804  48.150   0.502  1.00  0.00    +0.000 F 
ATOM     62  C45 UNL A   1      18.457  46.838  -1.423  1.00  0.00    +0.000 C 
ATOM     63  F7  UNL A   1      19.676  46.299  -1.274  1.00  0.00    +0.000 F 
ATOM     64  C46 UNL A   1      17.657  46.455  -2.489  1.00  0.00    +0.000 C 
ENDBRANCH   58   59
BRANCH   73   74
ATOM     74  C52 UNL A   1      12.229  47.994   4.599  1.00  0.00    +0.000 C 
ATOM     75  C53 UNL A   1      12.715  47.164   5.619  1.00  0.00    +0.000 C 
ATOM     76  F11 UNL A   1      13.957  47.347   6.093  1.00  0.00    +0.000 F 
ATOM     77  C54 UNL A   1      11.945  46.123   6.129  1.00  0.00    +0.000 C 
ATOM     78  F12 UNL A   1      12.450  45.319   7.075  1.00  0.00    +0.000 F 
ATOM     79  C55 UNL A   1      10.663  45.907   5.648  1.00  0.00    +0.000 C 
ATOM     80  F13 UNL A   1       9.920  44.907   6.142  1.00  0.00    +0.000 F 
ATOM     81  C56 UNL A   1      10.153  46.724   4.650  1.00  0.00    +0.000 C 
ATOM     82  F14 UNL A   1       8.909  46.527   4.193  1.00  0.00    +0.000 F 
ATOM     83  C57 UNL A   1      10.933  47.751   4.122  1.00  0.00    +0.000 C 
ATOM     84  F15 UNL A   1      10.420  48.521   3.151  1.00  0.00    +0.000 F 
ENDBRANCH   73   74
TORSDOF 22
ENDMDL
MODEL 8
REMARK VINA RESULT:      -9.1     34.379     41.742
ROOT
ATOM    129  H34 UNL A   1      43.271  24.610  26.302  1.00  0.00    +0.000 H 
ATOM    130  H35 UNL A   1      43.341  28.327  28.162  1.00  0.00    +0.000 H 
ATOM    131  H36 UNL A   1      47.983  30.130  27.478  1.00  0.00    +0.000 H 
ATOM    132  H37 UNL A   1      47.259  32.159  28.861  1.00  0.00    +0.000 H 
ATOM    133  H38 UNL A   1      37.929  28.493  29.518  1.00  0.00    +0.000 H 
ATOM    134  H39 UNL A   1      38.739  26.267  28.547  1.00  0.00    +0.000 H 
ATOM     37  C28 UNL A   1      41.460  26.309  27.700  1.00  0.00    +0.000 C 
ATOM     38  C29 UNL A   1      40.704  27.392  28.420  1.00  0.00    +0.000 C 
ATOM     39  N5  UNL A   1      41.118  28.570  28.813  1.00  0.00    +0.000 N 
ATOM     40  C30 UNL A   1      40.013  29.189  29.381  1.00  0.00    +0.000 C 
ATOM     41  C31 UNL A   1      39.939  30.402  29.981  1.00  0.00    +0.000 C 
ATOM     53  C38 UNL A   1      41.056  31.294  30.145  1.00  0.00    +0.000 C 
ATOM     54  C39 UNL A   1      41.097  32.516  30.795  1.00  0.00    +0.000 C 
ATOM     55  C40 UNL A   1      42.389  33.037  30.666  1.00  0.00    +0.000 C 
ATOM     56  C41 UNL A   1      43.164  32.121  29.972  1.00  0.00    +0.000 C 
ATOM     57  N6  UNL A   1      42.332  31.059  29.655  1.00  0.00    +0.000 N 
ATOM     58  C42 UNL A   1      44.559  32.207  29.625  1.00  0.00    +0.000 C 
ATOM     70  C49 UNL A   1      45.252  31.259  28.946  1.00  0.00    +0.000 C 
ATOM     71  N7  UNL A   1      44.810  30.038  28.457  1.00  0.00    +0.000 N 
ATOM     72  C50 UNL A   1      45.844  29.490  27.868  1.00  0.00    +0.000 C 
ATOM     73  C51 UNL A   1      45.950  28.153  27.187  1.00  0.00    +0.000 C 
ATOM     85  C58 UNL A   1      44.877  27.340  27.160  1.00  0.00    +0.000 C 
ATOM     86  C59 UNL A   1      44.831  26.018  26.544  1.00  0.00    +0.000 C 
ATOM     87  C60 UNL A   1      43.589  25.521  26.666  1.00  0.00    +0.000 C 
ATOM     88  C61 UNL A   1      42.761  26.478  27.400  1.00  0.00    +0.000 C 
ATOM     89  N8  UNL A   1      43.612  27.523  27.662  1.00  0.00    +0.000 N 
ATOM     90  C62 UNL A   1      47.058  30.317  27.896  1.00  0.00    +0.000 C 
ATOM     91  C63 UNL A   1      46.653  31.367  28.597  1.00  0.00    +0.000 C 
ATOM     92  C64 UNL A   1      38.899  28.277  29.241  1.00  0.00    +0.000 C 
ATOM     93  C65 UNL A   1      39.287  27.125  28.712  1.00  0.00    +0.000 C 
ATOM    125  H30 UNL A   1      40.311  32.965  31.289  1.00  0.00    +0.000 H 
ATOM    126  H31 UNL A   1      42.711  33.950  31.026  1.00  0.00    +0.000 H 
ATOM    127  H32 UNL A   1      42.607  30.256  29.155  1.00  0.00    +0.000 H 
ATOM    128  H33 UNL A   1      45.624  25.542  26.088  1.00  0.00    +0.000 H 
ENDROOT
BRANCH   37   36
ATOM     33  C24 UNL A   1      39.416  22.743  26.478  1.00  0.00    +0.000 C 
ATOM     34  C25 UNL A   1      39.056  23.972  25.917  1.00  0.00    +0.000 C 
ATOM     35  C26 UNL A   1      39.735  25.135  26.292  1.00  0.00    +0.000 C 
ATOM     36  C27 UNL A   1      40.757  25.079  27.254  1.00  0.00    +0.000 C 
ATOM    135  H40 UNL A   1      41.867  23.788  28.508  1.00  0.00    +0.000 H 
ATOM    136  H41 UNL A   1      40.806  21.754  27.723  1.00  0.00    +0.000 H 
ATOM    123  H28 UNL A   1      38.290  24.022  25.227  1.00  0.00    +0.000 H 
ATOM    124  H29 UNL A   1      39.484  26.038  25.862  1.00  0.00    +0.000 H 
ATOM     94  C66 UNL A   1      41.122  23.838  27.794  1.00  0.00    +0.000 C 
ATOM     95  C67 UNL A   1      40.487  22.671  27.373  1.00  0.00    +0.000 C 
BRANCH   33   31
ATOM     31  C23 UNL A   1      38.684  21.524  26.058  1.00  0.00    +0.000 C 
ATOM     32  O3  UNL A   1      39.268  20.450  26.015  1.00  0.00    +0.000 O 
BRANCH   31   30
ATOM    122  H27 UNL A   1      36.723  21.459  26.473  1.00  0.00    +0.000 H 
ATOM     30  N4  UNL A   1      37.352  21.596  25.728  1.00  0.00    +0.000 N 
BRANCH   30   29
ATOM    121  H26 UNL A   1      37.088  21.094  23.752  1.00  0.00    +0.000 H 
ATOM     29  C22 UNL A   1      36.742  21.845  24.431  1.00  0.00    +0.000 C 
ATOM    120  H25 UNL A   1      37.021  22.823  24.100  1.00  0.00    +0.000 H 
BRANCH   29   28
ATOM     28  C21 UNL A   1      35.218  21.760  24.492  1.00  0.00    +0.000 C 
ATOM    118  H23 UNL A   1      34.870  22.515  25.166  1.00  0.00    +0.000 H 
ATOM    119  H24 UNL A   1      34.870  21.892  23.489  1.00  0.00    +0.000 H 
BRANCH   28   27
ATOM     27  C20 UNL A   1      34.662  20.409  24.962  1.00  0.00    +0.000 C 
ATOM    116  H21 UNL A   1      34.226  19.920  24.117  1.00  0.00    +0.000 H 
ATOM    117  H22 UNL A   1      35.491  19.882  25.387  1.00  0.00    +0.000 H 
BRANCH   27   26
ATOM     26  C19 UNL A   1      33.600  20.478  26.066  1.00  0.00    +0.000 C 
ATOM    115  H20 UNL A   1      33.620  19.535  26.570  1.00  0.00    +0.000 H 
ATOM    114  H19 UNL A   1      32.654  20.685  25.609  1.00  0.00    +0.000 H 
BRANCH   26   25
ATOM     25  C18 UNL A   1      33.862  21.548  27.129  1.00  0.00    +0.000 C 
ATOM    113  H18 UNL A   1      34.762  22.052  26.844  1.00  0.00    +0.000 H 
ATOM    112  H17 UNL A   1      33.942  21.064  28.080  1.00  0.00    +0.000 H 
BRANCH   25   24
ATOM    110  H15 UNL A   1      32.214  22.485  28.134  1.00  0.00    +0.000 H 
ATOM    111  H16 UNL A   1      33.221  23.590  27.221  1.00  0.00    +0.000 H 
ATOM     24  C17 UNL A   1      32.765  22.623  27.226  1.00  0.00    +0.000 C 
BRANCH   24   23
ATOM    109  H14 UNL A   1      31.861  21.657  25.619  1.00  0.00    +0.000 H 
ATOM     23  N3  UNL A   1      31.862  22.517  26.098  1.00  0.00    +0.000 N 
BRANCH   23   21
ATOM     21  C16 UNL A   1      31.004  23.483  25.619  1.00  0.00    +0.000 C 
ATOM     22  O2  UNL A   1      30.168  23.966  26.381  1.00  0.00    +0.000 O 
BRANCH   21    2
ATOM      2  C2  UNL A   1      30.891  23.846  24.147  1.00  0.00    +0.000 C 
BRANCH    2    1
ATOM      1  C1  UNL A   1      31.788  23.025  23.252  1.00  0.00    +0.000 C 
ATOM     98  H3  UNL A   1      32.806  23.315  23.405  1.00  0.00    +0.000 H 
ATOM     97  H2  UNL A   1      31.673  21.987  23.486  1.00  0.00    +0.000 H 
ATOM     96  H1  UNL A   1      31.520  23.191  22.229  1.00  0.00    +0.000 H 
ENDBRANCH    2    1
BRANCH    2    3
ATOM      3  N1  UNL A   1      30.092  24.697  23.572  1.00  0.00    +0.000 N 
BRANCH    3    4
ATOM      4  O1  UNL A   1      30.164  25.979  24.105  1.00  0.00    +0.000 O 
BRANCH    4    5
ATOM     99  H4  UNL A   1      30.030  26.517  22.145  1.00  0.00    +0.000 H 
ATOM    100  H5  UNL A   1      31.340  27.273  23.122  1.00  0.00    +0.000 H 
ATOM      5  C3  UNL A   1      30.316  26.968  23.073  1.00  0.00    +0.000 C 
BRANCH    5    6
ATOM    101  H6  UNL A   1      27.619  27.313  23.009  1.00  0.00    +0.000 H 
ATOM      6  C4  UNL A   1      29.507  28.245  23.234  1.00  0.00    +0.000 C 
ATOM      7  C5  UNL A   1      28.107  28.216  23.112  1.00  0.00    +0.000 C 
ATOM      8  C6  UNL A   1      27.373  29.403  23.129  1.00  0.00    +0.000 C 
ATOM    102  H7  UNL A   1      26.344  29.374  23.062  1.00  0.00    +0.000 H 
ATOM     10  C8  UNL A   1      29.421  30.661  23.380  1.00  0.00    +0.000 C 
ATOM     11  C9  UNL A   1      30.164  29.478  23.456  1.00  0.00    +0.000 C 
ATOM    104  H9  UNL A   1      29.904  31.571  23.429  1.00  0.00    +0.000 H 
ATOM      9  C7  UNL A   1      28.032  30.624  23.236  1.00  0.00    +0.000 C 
ATOM    103  H8  UNL A   1      27.493  31.504  23.208  1.00  0.00    +0.000 H 
BRANCH   11   12
ATOM    105  H10 UNL A   1      32.109  29.539  22.829  1.00  0.00    +0.000 H 
ATOM     12  N2  UNL A   1      31.568  29.462  23.649  1.00  0.00    +0.000 N 
BRANCH   12   13
ATOM    106  H11 UNL A   1      34.489  27.231  26.320  1.00  0.00    +0.000 H 
ATOM    107  H12 UNL A   1      34.205  28.781  28.165  1.00  0.00    +0.000 H 
ATOM    108  H13 UNL A   1      32.678  30.651  27.944  1.00  0.00    +0.000 H 
ATOM     13  C10 UNL A   1      32.303  29.352  24.855  1.00  0.00    +0.000 C 
ATOM     14  C11 UNL A   1      33.163  28.246  25.026  1.00  0.00    +0.000 C 
ATOM     15 Cl1  UNL A   1      33.394  27.084  23.761  1.00  0.00    +0.000 Cl
ATOM     16  C12 UNL A   1      33.853  28.039  26.224  1.00  0.00    +0.000 C 
ATOM     17  C13 UNL A   1      33.685  28.922  27.286  1.00  0.00    +0.000 C 
ATOM     18  C14 UNL A   1      32.811  29.999  27.154  1.00  0.00    +0.000 C 
ATOM     19  C15 UNL A   1      32.110  30.204  25.959  1.00  0.00    +0.000 C 
ATOM     20 Cl2  UNL A   1      30.974  31.508  25.930  1.00  0.00    +0.000 Cl
ENDBRANCH   12   13
ENDBRANCH   11   12
ENDBRANCH    5    6
ENDBRANCH    4    5
ENDBRANCH    3    4
ENDBRANCH    2    3
ENDBRANCH   21    2
ENDBRANCH   23   21
ENDBRANCH   24   23
ENDBRANCH   25   24
ENDBRANCH   26   25
ENDBRANCH   27   26
ENDBRANCH   28   27
ENDBRANCH   29   28
ENDBRANCH   30   29
ENDBRANCH   31   30
ENDBRANCH   33   31
ENDBRANCH   37   36
BRANCH   41   42
ATOM     42  C32 UNL A   1      38.602  30.833  30.511  1.00  0.00    +0.000 C 
ATOM     43  C33 UNL A   1      38.308  30.789  31.882  1.00  0.00    +0.000 C 
ATOM     44  F1  UNL A   1      39.211  30.313  32.752  1.00  0.00    +0.000 F 
ATOM     45  C34 UNL A   1      37.066  31.200  32.362  1.00  0.00    +0.000 C 
ATOM     46  F2  UNL A   1      36.791  31.105  33.669  1.00  0.00    +0.000 F 
ATOM     47  C35 UNL A   1      36.111  31.694  31.486  1.00  0.00    +0.000 C 
ATOM     48  F3  UNL A   1      34.919  32.095  31.951  1.00  0.00    +0.000 F 
ATOM     49  C36 UNL A   1      36.388  31.766  30.130  1.00  0.00    +0.000 C 
ATOM     50  F4  UNL A   1      35.470  32.255  29.285  1.00  0.00    +0.000 F 
ATOM     51  C37 UNL A   1      37.619  31.330  29.643  1.00  0.00    +0.000 C 
ATOM     52  F5  UNL A   1      37.851  31.400  28.324  1.00  0.00    +0.000 F 
ENDBRANCH   41   42
BRANCH   58   59
ATOM     65  F8  UNL A   1      47.465  36.788  31.194  1.00  0.00    +0.000 F 
ATOM     66  C47 UNL A   1      46.137  35.667  29.595  1.00  0.00    +0.000 C 
ATOM     67  F9  UNL A   1      46.225  36.717  28.766  1.00  0.00    +0.000 F 
ATOM     68  C48 UNL A   1      45.403  34.545  29.220  1.00  0.00    +0.000 C 
ATOM     69  F10 UNL A   1      44.787  34.546  28.028  1.00  0.00    +0.000 F 
ATOM     59  C43 UNL A   1      45.314  33.427  30.062  1.00  0.00    +0.000 C 
ATOM     60  C44 UNL A   1      45.981  33.475  31.294  1.00  0.00    +0.000 C 
ATOM     61  F6  UNL A   1      45.912  32.436  32.141  1.00  0.00    +0.000 F 
ATOM     62  C45 UNL A   1      46.692  34.609  31.677  1.00  0.00    +0.000 C 
ATOM     63  F7  UNL A   1      47.286  34.651  32.879  1.00  0.00    +0.000 F 
ATOM     64  C46 UNL A   1      46.775  35.700  30.826  1.00  0.00    +0.000 C 
ENDBRANCH   58   59
BRANCH   73   74
ATOM     74  C52 UNL A   1      47.229  27.709  26.577  1.00  0.00    +0.000 C 
ATOM     75  C53 UNL A   1      48.215  27.085  27.352  1.00  0.00    +0.000 C 
ATOM     76  F11 UNL A   1      48.016  26.904  28.667  1.00  0.00    +0.000 F 
ATOM     77  C54 UNL A   1      49.422  26.676  26.791  1.00  0.00    +0.000 C 
ATOM     78  F12 UNL A   1      50.364  26.119  27.564  1.00  0.00    +0.000 F 
ATOM     79  C55 UNL A   1      49.656  26.862  25.437  1.00  0.00    +0.000 C 
ATOM     80  F13 UNL A   1      50.816  26.465  24.895  1.00  0.00    +0.000 F 
ATOM     81  C56 UNL A   1      48.689  27.463  24.645  1.00  0.00    +0.000 C 
ATOM     82  F14 UNL A   1      48.906  27.631  23.334  1.00  0.00    +0.000 F 
ATOM     83  C57 UNL A   1      47.491  27.894  25.211  1.00  0.00    +0.000 C 
ATOM     84  F15 UNL A   1      46.577  28.482  24.426  1.00  0.00    +0.000 F 
ENDBRANCH   73   74
TORSDOF 22
ENDMDL
MODEL 9
REMARK VINA RESULT:      -9.1     18.282     24.815
ROOT
ATOM    129  H34 UNL A   1      11.832  52.155   7.255  1.00  0.00    +0.000 H 
ATOM    130  H35 UNL A   1      14.171  51.294   3.928  1.00  0.00    +0.000 H 
ATOM    131  H36 UNL A   1      13.215  46.497   2.767  1.00  0.00    +0.000 H 
ATOM    132  H37 UNL A   1      14.940  46.742   0.892  1.00  0.00    +0.000 H 
ATOM    133  H38 UNL A   1      16.152  56.455   3.155  1.00  0.00    +0.000 H 
ATOM    134  H39 UNL A   1      14.794  56.121   5.299  1.00  0.00    +0.000 H 
ATOM     37  C28 UNL A   1      13.653  53.520   5.539  1.00  0.00    +0.000 C 
ATOM     38  C29 UNL A   1      14.599  54.015   4.480  1.00  0.00    +0.000 C 
ATOM     39  N5  UNL A   1      15.102  53.375   3.454  1.00  0.00    +0.000 N 
ATOM     40  C30 UNL A   1      15.874  54.305   2.771  1.00  0.00    +0.000 C 
ATOM     41  C31 UNL A   1      16.642  54.120   1.670  1.00  0.00    +0.000 C 
ATOM     53  C38 UNL A   1      16.799  52.859   0.994  1.00  0.00    +0.000 C 
ATOM     54  C39 UNL A   1      17.603  52.554  -0.091  1.00  0.00    +0.000 C 
ATOM     55  C40 UNL A   1      17.399  51.211  -0.423  1.00  0.00    +0.000 C 
ATOM     56  C41 UNL A   1      16.501  50.667   0.480  1.00  0.00    +0.000 C 
ATOM     57  N6  UNL A   1      16.136  51.690   1.341  1.00  0.00    +0.000 N 
ATOM     58  C42 UNL A   1      16.010  49.315   0.554  1.00  0.00    +0.000 C 
ATOM     70  C49 UNL A   1      15.131  48.856   1.478  1.00  0.00    +0.000 C 
ATOM     71  N7  UNL A   1      14.530  49.538   2.526  1.00  0.00    +0.000 N 
ATOM     72  C50 UNL A   1      13.756  48.669   3.127  1.00  0.00    +0.000 C 
ATOM     73  C51 UNL A   1      12.887  48.851   4.342  1.00  0.00    +0.000 C 
ATOM     85  C58 UNL A   1      12.871  50.043   4.968  1.00  0.00    +0.000 C 
ATOM     86  C59 UNL A   1      12.087  50.365   6.155  1.00  0.00    +0.000 C 
ATOM     87  C60 UNL A   1      12.281  51.656   6.471  1.00  0.00    +0.000 C 
ATOM     88  C61 UNL A   1      13.231  52.242   5.525  1.00  0.00    +0.000 C 
ATOM     89  N8  UNL A   1      13.536  51.208   4.676  1.00  0.00    +0.000 N 
ATOM     90  C62 UNL A   1      13.758  47.336   2.508  1.00  0.00    +0.000 C 
ATOM     91  C63 UNL A   1      14.641  47.493   1.532  1.00  0.00    +0.000 C 
ATOM     92  C64 UNL A   1      15.738  55.564   3.471  1.00  0.00    +0.000 C 
ATOM     93  C65 UNL A   1      15.012  55.424   4.571  1.00  0.00    +0.000 C 
ATOM    125  H30 UNL A   1      18.243  53.206  -0.571  1.00  0.00    +0.000 H 
ATOM    126  H31 UNL A   1      17.844  50.709  -1.209  1.00  0.00    +0.000 H 
ATOM    127  H32 UNL A   1      15.502  51.601   2.088  1.00  0.00    +0.000 H 
ATOM    128  H33 UNL A   1      11.480  49.708   6.669  1.00  0.00    +0.000 H 
ENDROOT
BRANCH   37   36
ATOM     33  C24 UNL A   1      12.182  56.263   8.490  1.00  0.00    +0.000 C 
ATOM     34  C25 UNL A   1      11.393  55.956   7.377  1.00  0.00    +0.000 C 
ATOM     35  C26 UNL A   1      11.855  55.043   6.425  1.00  0.00    +0.000 C 
ATOM     36  C27 UNL A   1      13.123  54.457   6.563  1.00  0.00    +0.000 C 
ATOM    135  H40 UNL A   1      14.835  54.337   7.800  1.00  0.00    +0.000 H 
ATOM    136  H41 UNL A   1      13.953  55.783   9.535  1.00  0.00    +0.000 H 
ATOM    123  H28 UNL A   1      10.470  56.402   7.259  1.00  0.00    +0.000 H 
ATOM    124  H29 UNL A   1      11.263  54.801   5.616  1.00  0.00    +0.000 H 
ATOM     94  C66 UNL A   1      13.897  54.757   7.693  1.00  0.00    +0.000 C 
ATOM     95  C67 UNL A   1      13.409  55.619   8.674  1.00  0.00    +0.000 C 
BRANCH   33   31
ATOM     31  C23 UNL A   1      11.665  57.228   9.488  1.00  0.00    +0.000 C 
ATOM     32  O3  UNL A   1      12.056  58.387   9.471  1.00  0.00    +0.000 O 
BRANCH   31   30
ATOM    122  H27 UNL A   1       9.806  56.821  10.122  1.00  0.00    +0.000 H 
ATOM     30  N4  UNL A   1      10.743  56.828  10.426  1.00  0.00    +0.000 N 
BRANCH   30   29
ATOM    121  H26 UNL A   1      10.004  56.363  12.286  1.00  0.00    +0.000 H 
ATOM     29  C22 UNL A   1      10.957  56.414  11.803  1.00  0.00    +0.000 C 
ATOM    120  H25 UNL A   1      11.595  57.126  12.283  1.00  0.00    +0.000 H 
BRANCH   29   28
ATOM     28  C21 UNL A   1      11.605  55.033  11.890  1.00  0.00    +0.000 C 
ATOM    118  H23 UNL A   1      11.022  54.355  11.302  1.00  0.00    +0.000 H 
ATOM    119  H24 UNL A   1      12.608  55.151  11.535  1.00  0.00    +0.000 H 
BRANCH   28   27
ATOM     27  C20 UNL A   1      11.719  54.458  13.308  1.00  0.00    +0.000 C 
ATOM    116  H21 UNL A   1      12.703  54.668  13.671  1.00  0.00    +0.000 H 
ATOM    117  H22 UNL A   1      10.940  54.922  13.876  1.00  0.00    +0.000 H 
BRANCH   27   26
ATOM     26  C19 UNL A   1      11.484  52.948  13.430  1.00  0.00    +0.000 C 
ATOM    115  H20 UNL A   1      11.952  52.497  12.580  1.00  0.00    +0.000 H 
ATOM    114  H19 UNL A   1      10.429  52.774  13.465  1.00  0.00    +0.000 H 
BRANCH   26   25
ATOM     25  C18 UNL A   1      12.116  52.308  14.669  1.00  0.00    +0.000 C 
ATOM    113  H18 UNL A   1      11.396  52.386  15.457  1.00  0.00    +0.000 H 
ATOM    112  H17 UNL A   1      13.027  52.826  14.886  1.00  0.00    +0.000 H 
BRANCH   25   24
ATOM    110  H15 UNL A   1      12.225  50.509  13.506  1.00  0.00    +0.000 H 
ATOM    111  H16 UNL A   1      13.476  50.653  14.724  1.00  0.00    +0.000 H 
ATOM     24  C17 UNL A   1      12.439  50.812  14.510  1.00  0.00    +0.000 C 
BRANCH   24   23
ATOM    109  H14 UNL A   1      11.304  50.499  16.226  1.00  0.00    +0.000 H 
ATOM     23  N3  UNL A   1      11.639  50.028  15.429  1.00  0.00    +0.000 N 
BRANCH   23   21
ATOM     21  C16 UNL A   1      11.293  48.699  15.314  1.00  0.00    +0.000 C 
ATOM     22  O2  UNL A   1      10.416  48.247  16.047  1.00  0.00    +0.000 O 
BRANCH   21    2
ATOM      2  C2  UNL A   1      12.075  47.703  14.473  1.00  0.00    +0.000 C 
BRANCH    2    1
ATOM      1  C1  UNL A   1      12.794  46.655  15.288  1.00  0.00    +0.000 C 
ATOM     98  H3  UNL A   1      12.077  46.049  15.800  1.00  0.00    +0.000 H 
ATOM     97  H2  UNL A   1      13.383  46.041  14.640  1.00  0.00    +0.000 H 
ATOM     96  H1  UNL A   1      13.431  47.134  16.003  1.00  0.00    +0.000 H 
ENDBRANCH    2    1
BRANCH    2    3
ATOM      3  N1  UNL A   1      12.141  47.599  13.176  1.00  0.00    +0.000 N 
BRANCH    3    4
ATOM      4  O1  UNL A   1      11.108  48.248  12.510  1.00  0.00    +0.000 O 
BRANCH    4    5
ATOM     99  H4  UNL A   1      10.707  48.024  10.526  1.00  0.00    +0.000 H 
ATOM    100  H5  UNL A   1      12.437  48.115  11.014  1.00  0.00    +0.000 H 
ATOM      5  C3  UNL A   1      11.447  48.499  11.136  1.00  0.00    +0.000 C 
BRANCH    5    6
ATOM    101  H6  UNL A   1       9.480  50.123  10.194  1.00  0.00    +0.000 H 
ATOM      6  C4  UNL A   1      11.525  49.957  10.713  1.00  0.00    +0.000 C 
ATOM      7  C5  UNL A   1      10.391  50.607  10.197  1.00  0.00    +0.000 C 
ATOM      8  C6  UNL A   1      10.490  51.902   9.687  1.00  0.00    +0.000 C 
ATOM    102  H7  UNL A   1       9.650  52.383   9.331  1.00  0.00    +0.000 H 
ATOM     10  C8  UNL A   1      12.853  51.915  10.193  1.00  0.00    +0.000 C 
ATOM     11  C9  UNL A   1      12.754  50.653  10.790  1.00  0.00    +0.000 C 
ATOM    104  H9  UNL A   1      13.770  52.386  10.144  1.00  0.00    +0.000 H 
ATOM      9  C7  UNL A   1      11.725  52.544   9.662  1.00  0.00    +0.000 C 
ATOM    103  H8  UNL A   1      11.807  53.486   9.249  1.00  0.00    +0.000 H 
BRANCH   11   12
ATOM    105  H10 UNL A   1      13.665  49.512  12.221  1.00  0.00    +0.000 H 
ATOM     12  N2  UNL A   1      13.860  49.994  11.385  1.00  0.00    +0.000 N 
BRANCH   12   13
ATOM    106  H11 UNL A   1      18.137  51.523  11.489  1.00  0.00    +0.000 H 
ATOM    107  H12 UNL A   1      18.857  50.050   9.700  1.00  0.00    +0.000 H 
ATOM    108  H13 UNL A   1      17.262  48.551   8.657  1.00  0.00    +0.000 H 
ATOM     13  C10 UNL A   1      15.205  49.932  10.945  1.00  0.00    +0.000 C 
ATOM     14  C11 UNL A   1      16.143  50.827  11.504  1.00  0.00    +0.000 C 
ATOM     15 Cl1  UNL A   1      15.693  51.926  12.767  1.00  0.00    +0.000 Cl
ATOM     16  C12 UNL A   1      17.466  50.870  11.054  1.00  0.00    +0.000 C 
ATOM     17  C13 UNL A   1      17.877  50.032  10.022  1.00  0.00    +0.000 C 
ATOM     18  C14 UNL A   1      16.960  49.168   9.429  1.00  0.00    +0.000 C 
ATOM     19  C15 UNL A   1      15.631  49.130   9.870  1.00  0.00    +0.000 C 
ATOM     20 Cl2  UNL A   1      14.547  48.098   9.002  1.00  0.00    +0.000 Cl
ENDBRANCH   12   13
ENDBRANCH   11   12
ENDBRANCH    5    6
ENDBRANCH    4    5
ENDBRANCH    3    4
ENDBRANCH    2    3
ENDBRANCH   21    2
ENDBRANCH   23   21
ENDBRANCH   24   23
ENDBRANCH   25   24
ENDBRANCH   26   25
ENDBRANCH   27   26
ENDBRANCH   28   27
ENDBRANCH   29   28
ENDBRANCH   30   29
ENDBRANCH   31   30
ENDBRANCH   33   31
ENDBRANCH   37   36
BRANCH   41   42
ATOM     42  C32 UNL A   1      17.377  55.312   1.129  1.00  0.00    +0.000 C 
ATOM     43  C33 UNL A   1      18.668  55.639   1.570  1.00  0.00    +0.000 C 
ATOM     44  F1  UNL A   1      19.259  54.911   2.529  1.00  0.00    +0.000 F 
ATOM     45  C34 UNL A   1      19.343  56.743   1.054  1.00  0.00    +0.000 C 
ATOM     46  F2  UNL A   1      20.555  57.064   1.524  1.00  0.00    +0.000 F 
ATOM     47  C35 UNL A   1      18.755  57.517   0.064  1.00  0.00    +0.000 C 
ATOM     48  F3  UNL A   1      19.409  58.575  -0.436  1.00  0.00    +0.000 F 
ATOM     49  C36 UNL A   1      17.489  57.199  -0.402  1.00  0.00    +0.000 C 
ATOM     50  F4  UNL A   1      16.926  57.939  -1.367  1.00  0.00    +0.000 F 
ATOM     51  C37 UNL A   1      16.800  56.112   0.132  1.00  0.00    +0.000 C 
ATOM     52  F5  UNL A   1      15.571  55.838  -0.330  1.00  0.00    +0.000 F 
ENDBRANCH   41   42
BRANCH   58   59
ATOM     65  F8  UNL A   1      18.013  45.666  -3.263  1.00  0.00    +0.000 F 
ATOM     66  C47 UNL A   1      18.318  46.913  -1.280  1.00  0.00    +0.000 C 
ATOM     67  F9  UNL A   1      19.562  46.429  -1.151  1.00  0.00    +0.000 F 
ATOM     68  C48 UNL A   1      17.814  47.795  -0.329  1.00  0.00    +0.000 C 
ATOM     69  F10 UNL A   1      18.590  48.137   0.710  1.00  0.00    +0.000 F 
ATOM     59  C43 UNL A   1      16.523  48.329  -0.454  1.00  0.00    +0.000 C 
ATOM     60  C44 UNL A   1      15.754  47.944  -1.561  1.00  0.00    +0.000 C 
ATOM     61  F6  UNL A   1      14.507  48.416  -1.715  1.00  0.00    +0.000 F 
ATOM     62  C45 UNL A   1      16.252  47.040  -2.496  1.00  0.00    +0.000 C 
ATOM     63  F7  UNL A   1      15.483  46.651  -3.523  1.00  0.00    +0.000 F 
ATOM     64  C46 UNL A   1      17.534  46.531  -2.359  1.00  0.00    +0.000 C 
ENDBRANCH   58   59
BRANCH   73   74
ATOM     74  C52 UNL A   1      12.078  47.725   4.874  1.00  0.00    +0.000 C 
ATOM     75  C53 UNL A   1      12.624  46.822   5.795  1.00  0.00    +0.000 C 
ATOM     76  F11 UNL A   1      13.900  46.956   6.187  1.00  0.00    +0.000 F 
ATOM     77  C54 UNL A   1      11.876  45.756   6.290  1.00  0.00    +0.000 C 
ATOM     78  F12 UNL A   1      12.436  44.884   7.138  1.00  0.00    +0.000 F 
ATOM     79  C55 UNL A   1      10.558  45.589   5.892  1.00  0.00    +0.000 C 
ATOM     80  F13 UNL A   1       9.837  44.567   6.371  1.00  0.00    +0.000 F 
ATOM     81  C56 UNL A   1       9.990  46.479   4.993  1.00  0.00    +0.000 C 
ATOM     82  F14 UNL A   1       8.713  46.329   4.618  1.00  0.00    +0.000 F 
ATOM     83  C57 UNL A   1      10.746  47.531   4.479  1.00  0.00    +0.000 C 
ATOM     84  F15 UNL A   1      10.176  48.372   3.604  1.00  0.00    +0.000 F 
ENDBRANCH   73   74
TORSDOF 22
ENDMDL
MODEL 10
REMARK VINA RESULT:      -9.1     34.364     41.793
ROOT
ATOM    129  H34 UNL A   1      38.863  26.316  28.531  1.00  0.00    +0.000 H 
ATOM    130  H35 UNL A   1      42.019  29.020  28.600  1.00  0.00    +0.000 H 
ATOM    131  H36 UNL A   1      40.416  32.953  31.288  1.00  0.00    +0.000 H 
ATOM    132  H37 UNL A   1      42.678  34.046  30.797  1.00  0.00    +0.000 H 
ATOM    133  H38 UNL A   1      45.732  25.773  25.987  1.00  0.00    +0.000 H 
ATOM    134  H39 UNL A   1      43.345  24.850  26.065  1.00  0.00    +0.000 H 
ATOM     37  C28 UNL A   1      41.543  26.461  27.575  1.00  0.00    +0.000 C 
ATOM     38  C29 UNL A   1      42.974  26.764  27.224  1.00  0.00    +0.000 C 
ATOM     39  N5  UNL A   1      43.696  27.814  27.524  1.00  0.00    +0.000 N 
ATOM     40  C30 UNL A   1      44.958  27.567  26.999  1.00  0.00    +0.000 C 
ATOM     41  C31 UNL A   1      46.046  28.375  26.999  1.00  0.00    +0.000 C 
ATOM     53  C38 UNL A   1      46.074  29.697  27.568  1.00  0.00    +0.000 C 
ATOM     54  C39 UNL A   1      47.108  30.618  27.563  1.00  0.00    +0.000 C 
ATOM     55  C40 UNL A   1      46.688  31.751  28.268  1.00  0.00    +0.000 C 
ATOM     56  C41 UNL A   1      45.378  31.554  28.675  1.00  0.00    +0.000 C 
ATOM     57  N6  UNL A   1      45.016  30.287  28.243  1.00  0.00    +0.000 N 
ATOM     58  C42 UNL A   1      44.520  32.452  29.403  1.00  0.00    +0.000 C 
ATOM     70  C49 UNL A   1      43.240  32.187  29.761  1.00  0.00    +0.000 C 
ATOM     71  N7  UNL A   1      42.483  31.049  29.517  1.00  0.00    +0.000 N 
ATOM     72  C50 UNL A   1      41.316  31.267  30.069  1.00  0.00    +0.000 C 
ATOM     73  C51 UNL A   1      40.097  30.385  30.093  1.00  0.00    +0.000 C 
ATOM     85  C58 UNL A   1      40.129  29.200  29.455  1.00  0.00    +0.000 C 
ATOM     86  C59 UNL A   1      39.027  28.245  29.385  1.00  0.00    +0.000 C 
ATOM     87  C60 UNL A   1      39.434  27.156  28.712  1.00  0.00    +0.000 C 
ATOM     88  C61 UNL A   1      40.816  27.353  28.273  1.00  0.00    +0.000 C 
ATOM     89  N8  UNL A   1      41.142  28.598  28.749  1.00  0.00    +0.000 N 
ATOM     90  C62 UNL A   1      41.208  32.563  30.753  1.00  0.00    +0.000 C 
ATOM     91  C63 UNL A   1      42.394  33.100  30.502  1.00  0.00    +0.000 C 
ATOM     92  C64 UNL A   1      44.917  26.251  26.402  1.00  0.00    +0.000 C 
ATOM     93  C65 UNL A   1      43.696  25.738  26.457  1.00  0.00    +0.000 C 
ATOM    125  H30 UNL A   1      48.029  30.490  27.116  1.00  0.00    +0.000 H 
ATOM    126  H31 UNL A   1      47.257  32.592  28.453  1.00  0.00    +0.000 H 
ATOM    127  H32 UNL A   1      44.137  29.869  28.394  1.00  0.00    +0.000 H 
ATOM    128  H33 UNL A   1      38.089  28.383  29.789  1.00  0.00    +0.000 H 
ENDROOT
BRANCH   37   36
ATOM     33  C24 UNL A   1      39.820  22.656  26.607  1.00  0.00    +0.000 C 
ATOM     34  C25 UNL A   1      39.251  23.824  26.090  1.00  0.00    +0.000 C 
ATOM     35  C26 UNL A   1      39.823  25.066  26.381  1.00  0.00    +0.000 C 
ATOM     36  C27 UNL A   1      40.948  25.149  27.216  1.00  0.00    +0.000 C 
ATOM    135  H40 UNL A   1      42.345  24.021  28.334  1.00  0.00    +0.000 H 
ATOM    136  H41 UNL A   1      41.455  21.862  27.682  1.00  0.00    +0.000 H 
ATOM    123  H28 UNL A   1      38.410  23.770  25.494  1.00  0.00    +0.000 H 
ATOM    124  H29 UNL A   1      39.415  25.925  25.981  1.00  0.00    +0.000 H 
ATOM     94  C66 UNL A   1      41.522  23.969  27.712  1.00  0.00    +0.000 C 
ATOM     95  C67 UNL A   1      40.988  22.728  27.371  1.00  0.00    +0.000 C 
BRANCH   33   31
ATOM     31  C23 UNL A   1      39.198  21.351  26.277  1.00  0.00    +0.000 C 
ATOM     32  O3  UNL A   1      39.880  20.336  26.281  1.00  0.00    +0.000 O 
BRANCH   31   30
ATOM    122  H27 UNL A   1      37.268  21.820  26.551  1.00  0.00    +0.000 H 
ATOM     30  N4  UNL A   1      37.858  21.279  25.979  1.00  0.00    +0.000 N 
BRANCH   30   29
ATOM    121  H26 UNL A   1      37.214  19.481  25.220  1.00  0.00    +0.000 H 
ATOM     29  C22 UNL A   1      37.192  20.513  24.938  1.00  0.00    +0.000 C 
ATOM    120  H25 UNL A   1      37.704  20.670  24.011  1.00  0.00    +0.000 H 
BRANCH   29   28
ATOM     28  C21 UNL A   1      35.731  20.927  24.771  1.00  0.00    +0.000 C 
ATOM    118  H23 UNL A   1      35.301  20.325  23.998  1.00  0.00    +0.000 H 
ATOM    119  H24 UNL A   1      35.269  20.786  25.726  1.00  0.00    +0.000 H 
BRANCH   28   27
ATOM     27  C20 UNL A   1      35.513  22.401  24.404  1.00  0.00    +0.000 C 
ATOM    116  H21 UNL A   1      36.428  22.778  23.999  1.00  0.00    +0.000 H 
ATOM    117  H22 UNL A   1      34.697  22.413  23.713  1.00  0.00    +0.000 H 
BRANCH   27   26
ATOM     26  C19 UNL A   1      35.097  23.317  25.561  1.00  0.00    +0.000 C 
ATOM    115  H20 UNL A   1      35.818  23.173  26.338  1.00  0.00    +0.000 H 
ATOM    114  H19 UNL A   1      34.105  23.049  25.860  1.00  0.00    +0.000 H 
BRANCH   26   25
ATOM     25  C18 UNL A   1      35.110  24.810  25.222  1.00  0.00    +0.000 C 
ATOM    113  H18 UNL A   1      34.751  24.900  24.218  1.00  0.00    +0.000 H 
ATOM    112  H17 UNL A   1      36.110  25.172  25.339  1.00  0.00    +0.000 H 
BRANCH   25   24
ATOM    110  H15 UNL A   1      33.180  25.295  26.023  1.00  0.00    +0.000 H 
ATOM    111  H16 UNL A   1      34.511  25.603  27.119  1.00  0.00    +0.000 H 
ATOM     24  C17 UNL A   1      34.182  25.664  26.103  1.00  0.00    +0.000 C 
BRANCH   24   23
ATOM    109  H14 UNL A   1      34.645  27.222  24.803  1.00  0.00    +0.000 H 
ATOM     23  N3  UNL A   1      34.219  27.047  25.673  1.00  0.00    +0.000 N 
BRANCH   23   21
ATOM     21  C16 UNL A   1      33.726  28.145  26.344  1.00  0.00    +0.000 C 
ATOM     22  O2  UNL A   1      34.474  28.769  27.094  1.00  0.00    +0.000 O 
BRANCH   21    2
ATOM      2  C2  UNL A   1      32.251  28.514  26.371  1.00  0.00    +0.000 C 
BRANCH    2    1
ATOM      1  C1  UNL A   1      31.574  28.205  27.684  1.00  0.00    +0.000 C 
ATOM     98  H3  UNL A   1      30.518  28.350  27.583  1.00  0.00    +0.000 H 
ATOM     97  H2  UNL A   1      31.770  27.188  27.956  1.00  0.00    +0.000 H 
ATOM     96  H1  UNL A   1      31.952  28.857  28.443  1.00  0.00    +0.000 H 
ENDBRANCH    2    1
BRANCH    2    3
ATOM      3  N1  UNL A   1      31.539  29.111  25.458  1.00  0.00    +0.000 N 
BRANCH    3    4
ATOM      4  O1  UNL A   1      32.263  29.458  24.323  1.00  0.00    +0.000 O 
BRANCH    4    5
ATOM     99  H4  UNL A   1      32.562  27.929  23.012  1.00  0.00    +0.000 H 
ATOM    100  H5  UNL A   1      31.755  29.410  22.384  1.00  0.00    +0.000 H 
ATOM      5  C3  UNL A   1      31.838  28.700  23.179  1.00  0.00    +0.000 C 
BRANCH    5    6
ATOM    101  H6  UNL A   1      29.393  29.710  22.551  1.00  0.00    +0.000 H 
ATOM      6  C4  UNL A   1      30.473  28.038  23.273  1.00  0.00    +0.000 C 
ATOM      7  C5  UNL A   1      29.312  28.761  22.947  1.00  0.00    +0.000 C 
ATOM      8  C6  UNL A   1      28.051  28.202  23.157  1.00  0.00    +0.000 C 
ATOM    102  H7  UNL A   1      27.203  28.727  22.893  1.00  0.00    +0.000 H 
ATOM     10  C8  UNL A   1      29.088  26.200  24.027  1.00  0.00    +0.000 C 
ATOM     11  C9  UNL A   1      30.360  26.708  23.740  1.00  0.00    +0.000 C 
ATOM    104  H9  UNL A   1      28.997  25.273  24.471  1.00  0.00    +0.000 H 
ATOM      9  C7  UNL A   1      27.940  26.934  23.720  1.00  0.00    +0.000 C 
ATOM    103  H8  UNL A   1      27.007  26.536  23.912  1.00  0.00    +0.000 H 
BRANCH   11   12
ATOM    105  H10 UNL A   1      32.282  26.498  24.404  1.00  0.00    +0.000 H 
ATOM     12  N2  UNL A   1      31.552  25.983  23.989  1.00  0.00    +0.000 N 
BRANCH   12   13
ATOM    106  H11 UNL A   1      32.974  22.706  21.181  1.00  0.00    +0.000 H 
ATOM    107  H12 UNL A   1      32.471  20.936  22.763  1.00  0.00    +0.000 H 
ATOM    108  H13 UNL A   1      31.516  21.486  24.923  1.00  0.00    +0.000 H 
ATOM     13  C10 UNL A   1      31.841  24.621  23.725  1.00  0.00    +0.000 C 
ATOM     14  C11 UNL A   1      32.354  24.271  22.458  1.00  0.00    +0.000 C 
ATOM     15 Cl1  UNL A   1      32.712  25.480  21.268  1.00  0.00    +0.000 Cl
ATOM     16  C12 UNL A   1      32.584  22.937  22.109  1.00  0.00    +0.000 C 
ATOM     17  C13 UNL A   1      32.288  21.920  23.012  1.00  0.00    +0.000 C 
ATOM     18  C14 UNL A   1      31.744  22.239  24.254  1.00  0.00    +0.000 C 
ATOM     19  C15 UNL A   1      31.503  23.574  24.603  1.00  0.00    +0.000 C 
ATOM     20 Cl2  UNL A   1      30.732  23.860  26.125  1.00  0.00    +0.000 Cl
ENDBRANCH   12   13
ENDBRANCH   11   12
ENDBRANCH    5    6
ENDBRANCH    4    5
ENDBRANCH    3    4
ENDBRANCH    2    3
ENDBRANCH   21    2
ENDBRANCH   23   21
ENDBRANCH   24   23
ENDBRANCH   25   24
ENDBRANCH   26   25
ENDBRANCH   27   26
ENDBRANCH   28   27
ENDBRANCH   29   28
ENDBRANCH   30   29
ENDBRANCH   31   30
ENDBRANCH   33   31
ENDBRANCH   37   36
BRANCH   41   42
ATOM     42  C32 UNL A   1      47.299  27.851  26.360  1.00  0.00    +0.000 C 
ATOM     43  C33 UNL A   1      48.347  27.320  27.127  1.00  0.00    +0.000 C 
ATOM     44  F1  UNL A   1      48.266  27.312  28.466  1.00  0.00    +0.000 F 
ATOM     45  C34 UNL A   1      49.501  26.829  26.521  1.00  0.00    +0.000 C 
ATOM     46  F2  UNL A   1      50.508  26.370  27.275  1.00  0.00    +0.000 F 
ATOM     47  C35 UNL A   1      49.614  26.828  25.138  1.00  0.00    +0.000 C 
ATOM     48  F3  UNL A   1      50.723  26.349  24.557  1.00  0.00    +0.000 F 
ATOM     49  C36 UNL A   1      48.582  27.328  24.360  1.00  0.00    +0.000 C 
ATOM     50  F4  UNL A   1      48.685  27.315  23.024  1.00  0.00    +0.000 F 
ATOM     51  C37 UNL A   1      47.438  27.845  24.964  1.00  0.00    +0.000 C 
ATOM     52  F5  UNL A   1      46.463  28.335  24.184  1.00  0.00    +0.000 F 
ENDBRANCH   41   42
BRANCH   58   59
ATOM     65  F8  UNL A   1      46.657  37.505  30.742  1.00  0.00    +0.000 F 
ATOM     66  C47 UNL A   1      45.430  36.141  29.255  1.00  0.00    +0.000 C 
ATOM     67  F9  UNL A   1      45.256  37.180  28.425  1.00  0.00    +0.000 F 
ATOM     68  C48 UNL A   1      44.886  34.900  28.938  1.00  0.00    +0.000 C 
ATOM     69  F10 UNL A   1      44.184  34.774  27.802  1.00  0.00    +0.000 F 
ATOM     59  C43 UNL A   1      45.073  33.795  29.781  1.00  0.00    +0.000 C 
ATOM     60  C44 UNL A   1      45.819  33.978  30.954  1.00  0.00    +0.000 C 
ATOM     61  F6  UNL A   1      46.011  32.954  31.800  1.00  0.00    +0.000 F 
ATOM     62  C45 UNL A   1      46.339  35.228  31.280  1.00  0.00    +0.000 C 
ATOM     63  F7  UNL A   1      47.012  35.392  32.429  1.00  0.00    +0.000 F 
ATOM     64  C46 UNL A   1      46.151  36.306  30.429  1.00  0.00    +0.000 C 
ENDBRANCH   58   59
BRANCH   73   74
ATOM     74  C52 UNL A   1      38.855  30.821  30.779  1.00  0.00    +0.000 C 
ATOM     75  C53 UNL A   1      37.828  31.459  30.069  1.00  0.00    +0.000 C 
ATOM     76  F11 UNL A   1      37.974  31.701  28.758  1.00  0.00    +0.000 F 
ATOM     77  C54 UNL A   1      36.665  31.882  30.707  1.00  0.00    +0.000 C 
ATOM     78  F12 UNL A   1      35.718  32.526  30.012  1.00  0.00    +0.000 F 
ATOM     79  C55 UNL A   1      36.495  31.653  32.064  1.00  0.00    +0.000 C 
ATOM     80  F13 UNL A   1      35.375  32.057  32.678  1.00  0.00    +0.000 F 
ATOM     81  C56 UNL A   1      37.490  31.010  32.786  1.00  0.00    +0.000 C 
ATOM     82  F14 UNL A   1      37.323  30.775  34.094  1.00  0.00    +0.000 F 
ATOM     83  C57 UNL A   1      38.664  30.608  32.152  1.00  0.00    +0.000 C 
ATOM     84  F15 UNL A   1      39.615  29.998  32.875  1.00  0.00    +0.000 F 
ENDBRANCH   73   74
TORSDOF 22
ENDMDL
