MODEL 1
REMARK VINA RESULT:     -10.2      0.000      0.000
ROOT
ATOM    129  H33 UNL A   1      12.212   1.565  19.403  1.00  0.00    +0.000 H 
ATOM     25  C20 UNL A   1      10.557   3.011  21.216  1.00  0.00    +0.000 C 
ATOM     26  C21 UNL A   1      11.128   3.491  19.911  1.00  0.00    +0.000 C 
ATOM     27  N3  UNL A   1      10.992   4.655  19.325  1.00  0.00    +0.000 N 
ATOM     28  C22 UNL A   1      11.757   4.587  18.168  1.00  0.00    +0.000 C 
ATOM     29  C23 UNL A   1      11.898   5.517  17.194  1.00  0.00    +0.000 C 
ATOM     41  C30 UNL A   1      11.241   6.798  17.192  1.00  0.00    +0.000 C 
ATOM     42  C31 UNL A   1      11.267   7.781  16.218  1.00  0.00    +0.000 C 
ATOM     43  C32 UNL A   1      10.514   8.869  16.675  1.00  0.00    +0.000 C 
ATOM     44  C33 UNL A   1       9.983   8.546  17.913  1.00  0.00    +0.000 C 
ATOM     45  N4  UNL A   1      10.439   7.274  18.220  1.00  0.00    +0.000 N 
ATOM     46  C34 UNL A   1       9.124   9.338  18.754  1.00  0.00    +0.000 C 
ATOM     58  C41 UNL A   1       8.627   8.941  19.952  1.00  0.00    +0.000 C 
ATOM     59  N5  UNL A   1       8.818   7.738  20.620  1.00  0.00    +0.000 N 
ATOM     60  C42 UNL A   1       8.148   7.839  21.741  1.00  0.00    +0.000 C 
ATOM     61  C43 UNL A   1       7.979   6.827  22.840  1.00  0.00    +0.000 C 
ATOM     73  C50 UNL A   1       8.556   5.616  22.715  1.00  0.00    +0.000 C 
ATOM     74  C51 UNL A   1       8.473   4.534  23.691  1.00  0.00    +0.000 C 
ATOM     75  C52 UNL A   1       9.201   3.494  23.254  1.00  0.00    +0.000 C 
ATOM     76  C53 UNL A   1       9.774   3.825  21.950  1.00  0.00    +0.000 C 
ATOM     77  N6  UNL A   1       9.335   5.102  21.707  1.00  0.00    +0.000 N 
ATOM     78  C54 UNL A   1       7.473   9.131  21.923  1.00  0.00    +0.000 C 
ATOM     79  C55 UNL A   1       7.765   9.750  20.787  1.00  0.00    +0.000 C 
ATOM     80  C56 UNL A   1      12.392   3.287  18.157  1.00  0.00    +0.000 C 
ATOM     81  C57 UNL A   1      11.986   2.547  19.179  1.00  0.00    +0.000 C 
ATOM    120  H24 UNL A   1      11.757   7.721  15.312  1.00  0.00    +0.000 H 
ATOM    121  H25 UNL A   1      10.379   9.761  16.173  1.00  0.00    +0.000 H 
ATOM    122  H26 UNL A   1      10.226   6.781  19.044  1.00  0.00    +0.000 H 
ATOM    123  H27 UNL A   1       7.941   4.564  24.575  1.00  0.00    +0.000 H 
ATOM    124  H28 UNL A   1       9.333   2.603  23.759  1.00  0.00    +0.000 H 
ATOM    125  H29 UNL A   1       9.557   5.603  20.889  1.00  0.00    +0.000 H 
ATOM    126  H30 UNL A   1       6.917   9.470  22.724  1.00  0.00    +0.000 H 
ATOM    127  H31 UNL A   1       7.423  10.689  20.531  1.00  0.00    +0.000 H 
ATOM    128  H32 UNL A   1      13.074   2.977  17.447  1.00  0.00    +0.000 H 
ENDROOT
BRANCH   25   24
ATOM    130  H34 UNL A   1      12.663   2.313  22.722  1.00  0.00    +0.000 H 
ATOM    131  H35 UNL A   1      13.291   0.113  23.522  1.00  0.00    +0.000 H 
ATOM     82  C58 UNL A   1      12.063   1.499  22.516  1.00  0.00    +0.000 C 
ATOM     83  C59 UNL A   1      12.405   0.244  23.011  1.00  0.00    +0.000 C 
ATOM     21  C16 UNL A   1      11.545  -0.842  22.815  1.00  0.00    +0.000 C 
ATOM     22  C17 UNL A   1      10.405  -0.695  22.018  1.00  0.00    +0.000 C 
ATOM    118  H22 UNL A   1       9.792  -1.506  21.838  1.00  0.00    +0.000 H 
ATOM     23  C18 UNL A   1      10.097   0.550  21.468  1.00  0.00    +0.000 C 
ATOM    119  H23 UNL A   1       9.269   0.653  20.859  1.00  0.00    +0.000 H 
ATOM     24  C19 UNL A   1      10.907   1.666  21.737  1.00  0.00    +0.000 C 
BRANCH   21   19
ATOM     19  C15 UNL A   1      11.830  -2.164  23.413  1.00  0.00    +0.000 C 
ATOM     20  O3  UNL A   1      12.781  -2.822  23.003  1.00  0.00    +0.000 O 
BRANCH   19   18
ATOM     18  N2  UNL A   1      11.029  -2.659  24.412  1.00  0.00    +0.000 N 
ATOM    117  H21 UNL A   1      10.861  -3.628  24.372  1.00  0.00    +0.000 H 
BRANCH   18   17
ATOM     17  C14 UNL A   1      10.393  -1.962  25.519  1.00  0.00    +0.000 C 
ATOM    115  H19 UNL A   1      10.584  -0.914  25.420  1.00  0.00    +0.000 H 
ATOM    116  H20 UNL A   1       9.345  -2.174  25.480  1.00  0.00    +0.000 H 
BRANCH   17   16
ATOM    113  H17 UNL A   1      10.546  -1.761  27.622  1.00  0.00    +0.000 H 
ATOM    114  H18 UNL A   1      10.572  -3.435  26.998  1.00  0.00    +0.000 H 
ATOM     16  C13 UNL A   1      10.917  -2.430  26.874  1.00  0.00    +0.000 C 
BRANCH   16   15
ATOM    111  H15 UNL A   1      12.685  -2.974  27.911  1.00  0.00    +0.000 H 
ATOM     15  C12 UNL A   1      12.442  -2.481  26.993  1.00  0.00    +0.000 C 
ATOM    112  H16 UNL A   1      12.788  -3.000  26.123  1.00  0.00    +0.000 H 
BRANCH   15   14
ATOM    110  H14 UNL A   1      13.722  -1.081  27.884  1.00  0.00    +0.000 H 
ATOM    109  H13 UNL A   1      12.397  -0.361  26.918  1.00  0.00    +0.000 H 
ATOM     14  C11 UNL A   1      13.147  -1.121  26.983  1.00  0.00    +0.000 C 
BRANCH   14   13
ATOM    107  H11 UNL A   1      14.838  -1.715  25.835  1.00  0.00    +0.000 H 
ATOM    108  H12 UNL A   1      13.569  -0.844  24.937  1.00  0.00    +0.000 H 
ATOM     13  C10 UNL A   1      14.144  -0.901  25.837  1.00  0.00    +0.000 C 
BRANCH   13   12
ATOM    105  H9  UNL A   1      15.810   0.322  25.329  1.00  0.00    +0.000 H 
ATOM    106  H10 UNL A   1      14.302   1.199  25.605  1.00  0.00    +0.000 H 
ATOM     12  C9  UNL A   1      14.934   0.402  25.938  1.00  0.00    +0.000 C 
BRANCH   12   11
ATOM     11  N1  UNL A   1      15.336   0.689  27.298  1.00  0.00    +0.000 N 
ATOM    104  H8  UNL A   1      15.661  -0.088  27.808  1.00  0.00    +0.000 H 
BRANCH   11    9
ATOM      9  C8  UNL A   1      15.333   1.871  27.980  1.00  0.00    +0.000 C 
ATOM     10  O2  UNL A   1      15.899   1.875  29.079  1.00  0.00    +0.000 O 
BRANCH    9    8
ATOM    102  H6  UNL A   1      15.121   3.956  27.725  1.00  0.00    +0.000 H 
ATOM    103  H7  UNL A   1      14.399   2.919  26.444  1.00  0.00    +0.000 H 
ATOM      8  C7  UNL A   1      14.551   3.082  27.491  1.00  0.00    +0.000 C 
BRANCH    8    7
ATOM      3  C2  UNL A   1       9.305   2.031  26.923  1.00  0.00    +0.000 C 
ATOM    100  H4  UNL A   1      10.122   1.029  25.262  1.00  0.00    +0.000 H 
ATOM      4  C3  UNL A   1      10.337   1.600  26.093  1.00  0.00    +0.000 C 
ATOM      5  C4  UNL A   1      11.665   1.938  26.382  1.00  0.00    +0.000 C 
ATOM    101  H5  UNL A   1      12.427   1.608  25.769  1.00  0.00    +0.000 H 
ATOM      6  C5  UNL A   1      11.960   2.731  27.511  1.00  0.00    +0.000 C 
ATOM      7  C6  UNL A   1      13.171   3.266  28.071  1.00  0.00    +0.000 C 
ATOM    138  H42 UNL A   1      10.921   4.384  30.007  1.00  0.00    +0.000 H 
ATOM    139  H43 UNL A   1       8.803   3.201  28.623  1.00  0.00    +0.000 H 
ATOM     84  C60 UNL A   1      12.825   3.912  29.260  1.00  0.00    +0.000 C 
ATOM     94  N8  UNL A   1      11.447   3.910  29.322  1.00  0.00    +0.000 N 
ATOM     95  C68 UNL A   1      10.905   3.164  28.305  1.00  0.00    +0.000 C 
ATOM     96  C69 UNL A   1       9.569   2.845  28.029  1.00  0.00    +0.000 C 
BRANCH    3    2
ATOM      2  O1  UNL A   1       7.984   1.745  26.698  1.00  0.00    +0.000 O 
BRANCH    2    1
ATOM      1  C1  UNL A   1       7.770   0.830  25.624  1.00  0.00    +0.000 C 
ATOM     98  H2  UNL A   1       8.119  -0.141  25.909  1.00  0.00    +0.000 H 
ATOM     99  H3  UNL A   1       8.306   1.162  24.760  1.00  0.00    +0.000 H 
ATOM     97  H1  UNL A   1       6.726   0.780  25.400  1.00  0.00    +0.000 H 
ENDBRANCH    2    1
ENDBRANCH    3    2
BRANCH   84   85
ATOM     85  C61 UNL A   1      13.714   4.507  30.254  1.00  0.00    +0.000 C 
ATOM     86  O4  UNL A   1      14.381   3.843  31.042  1.00  0.00    +0.000 O 
BRANCH   85   87
ATOM    132  H36 UNL A   1      12.557   6.106  32.091  1.00  0.00    +0.000 H 
ATOM    136  H40 UNL A   1      14.165   9.718  30.630  1.00  0.00    +0.000 H 
ATOM    137  H41 UNL A   1      15.267   8.465  28.907  1.00  0.00    +0.000 H 
ATOM     87  C62 UNL A   1      13.787   5.989  30.373  1.00  0.00    +0.000 C 
ATOM     88  C63 UNL A   1      13.122   6.638  31.410  1.00  0.00    +0.000 C 
ATOM     89  C64 UNL A   1      13.240   8.027  31.506  1.00  0.00    +0.000 C 
ATOM     91  C66 UNL A   1      14.042   8.695  30.576  1.00  0.00    +0.000 C 
ATOM     92  C67 UNL A   1      14.669   7.960  29.581  1.00  0.00    +0.000 C 
ATOM     93  N7  UNL A   1      14.545   6.626  29.446  1.00  0.00    +0.000 N 
BRANCH   89   90
ATOM     90  C65 UNL A   1      12.553   8.795  32.595  1.00  0.00    +0.000 C 
ATOM    133  H37 UNL A   1      11.534   8.477  32.668  1.00  0.00    +0.000 H 
ATOM    134  H38 UNL A   1      12.586   9.840  32.369  1.00  0.00    +0.000 H 
ATOM    135  H39 UNL A   1      13.050   8.615  33.525  1.00  0.00    +0.000 H 
ENDBRANCH   89   90
ENDBRANCH   85   87
ENDBRANCH   84   85
ENDBRANCH    8    7
ENDBRANCH    9    8
ENDBRANCH   11    9
ENDBRANCH   12   11
ENDBRANCH   13   12
ENDBRANCH   14   13
ENDBRANCH   15   14
ENDBRANCH   16   15
ENDBRANCH   17   16
ENDBRANCH   18   17
ENDBRANCH   19   18
ENDBRANCH   21   19
ENDBRANCH   25   24
BRANCH   29   30
ATOM     33  C26 UNL A   1      13.152   4.229  13.828  1.00  0.00    +0.000 C 
ATOM     34  F2  UNL A   1      12.676   3.564  12.766  1.00  0.00    +0.000 F 
ATOM     35  C27 UNL A   1      14.487   4.603  13.869  1.00  0.00    +0.000 C 
ATOM     36  F3  UNL A   1      15.295   4.318  12.839  1.00  0.00    +0.000 F 
ATOM     37  C28 UNL A   1      14.985   5.266  14.980  1.00  0.00    +0.000 C 
ATOM     38  F4  UNL A   1      16.271   5.639  15.016  1.00  0.00    +0.000 F 
ATOM     39  C29 UNL A   1      14.151   5.542  16.061  1.00  0.00    +0.000 C 
ATOM     40  F5  UNL A   1      14.666   6.172  17.128  1.00  0.00    +0.000 F 
ATOM     30  C24 UNL A   1      12.796   5.180  16.039  1.00  0.00    +0.000 C 
ATOM     31  C25 UNL A   1      12.309   4.529  14.895  1.00  0.00    +0.000 C 
ATOM     32  F1  UNL A   1      11.023   4.151  14.828  1.00  0.00    +0.000 F 
ENDBRANCH   29   30
BRANCH   46   47
ATOM     47  C35 UNL A   1       8.727  10.700  18.267  1.00  0.00    +0.000 C 
ATOM     48  C36 UNL A   1       7.569  10.897  17.500  1.00  0.00    +0.000 C 
ATOM     49  F6  UNL A   1       6.810   9.850  17.143  1.00  0.00    +0.000 F 
ATOM     50  C37 UNL A   1       7.209  12.169  17.063  1.00  0.00    +0.000 C 
ATOM     51  F7  UNL A   1       6.123  12.328  16.295  1.00  0.00    +0.000 F 
ATOM     52  C38 UNL A   1       7.979  13.269  17.412  1.00  0.00    +0.000 C 
ATOM     53  F8  UNL A   1       7.626  14.494  16.995  1.00  0.00    +0.000 F 
ATOM     54  C39 UNL A   1       9.118  13.099  18.184  1.00  0.00    +0.000 C 
ATOM     55  F9  UNL A   1       9.856  14.162  18.531  1.00  0.00    +0.000 F 
ATOM     56  C40 UNL A   1       9.497  11.826  18.599  1.00  0.00    +0.000 C 
ATOM     57  F10 UNL A   1      10.610  11.691  19.335  1.00  0.00    +0.000 F 
ENDBRANCH   46   47
BRANCH   61   62
ATOM     65  C46 UNL A   1       5.065   6.985  25.266  1.00  0.00    +0.000 C 
ATOM     66  F12 UNL A   1       3.792   6.574  25.324  1.00  0.00    +0.000 F 
ATOM     67  C47 UNL A   1       5.605   7.724  26.309  1.00  0.00    +0.000 C 
ATOM     68  F13 UNL A   1       4.858   8.012  27.384  1.00  0.00    +0.000 F 
ATOM     69  C48 UNL A   1       6.916   8.170  26.232  1.00  0.00    +0.000 C 
ATOM     70  F14 UNL A   1       7.444   8.873  27.243  1.00  0.00    +0.000 F 
ATOM     71  C49 UNL A   1       7.685   7.890  25.104  1.00  0.00    +0.000 C 
ATOM     72  F15 UNL A   1       8.945   8.344  25.051  1.00  0.00    +0.000 F 
ATOM     62  C44 UNL A   1       7.165   7.137  24.042  1.00  0.00    +0.000 C 
ATOM     63  C45 UNL A   1       5.843   6.682  24.149  1.00  0.00    +0.000 C 
ATOM     64  F11 UNL A   1       5.295   5.976  23.150  1.00  0.00    +0.000 F 
ENDBRANCH   61   62
TORSDOF 21
ENDMDL
MODEL 2
REMARK VINA RESULT:      -9.9     31.294     36.258
ROOT
ATOM    129  H33 UNL A   1      22.651  24.480  -1.917  1.00  0.00    +0.000 H 
ATOM     25  C20 UNL A   1      19.926  23.875  -2.486  1.00  0.00    +0.000 C 
ATOM     26  C21 UNL A   1      20.495  25.178  -1.999  1.00  0.00    +0.000 C 
ATOM     27  N3  UNL A   1      19.880  26.304  -1.736  1.00  0.00    +0.000 N 
ATOM     28  C22 UNL A   1      20.861  27.172  -1.278  1.00  0.00    +0.000 C 
ATOM     29  C23 UNL A   1      20.740  28.476  -0.930  1.00  0.00    +0.000 C 
ATOM     41  C30 UNL A   1      19.508  29.220  -0.985  1.00  0.00    +0.000 C 
ATOM     42  C31 UNL A   1      19.296  30.562  -0.719  1.00  0.00    +0.000 C 
ATOM     43  C32 UNL A   1      17.930  30.826  -0.861  1.00  0.00    +0.000 C 
ATOM     44  C33 UNL A   1      17.297  29.660  -1.260  1.00  0.00    +0.000 C 
ATOM     45  N4  UNL A   1      18.276  28.681  -1.329  1.00  0.00    +0.000 N 
ATOM     46  C34 UNL A   1      15.903  29.451  -1.555  1.00  0.00    +0.000 C 
ATOM     58  C41 UNL A   1      15.362  28.276  -1.960  1.00  0.00    +0.000 C 
ATOM     59  N5  UNL A   1      15.987  27.055  -2.177  1.00  0.00    +0.000 N 
ATOM     60  C42 UNL A   1      15.041  26.226  -2.543  1.00  0.00    +0.000 C 
ATOM     61  C43 UNL A   1      15.147  24.776  -2.927  1.00  0.00    +0.000 C 
ATOM     73  C50 UNL A   1      16.356  24.183  -2.936  1.00  0.00    +0.000 C 
ATOM     74  C51 UNL A   1      16.615  22.792  -3.295  1.00  0.00    +0.000 C 
ATOM     75  C52 UNL A   1      17.925  22.539  -3.151  1.00  0.00    +0.000 C 
ATOM     76  C53 UNL A   1      18.605  23.762  -2.723  1.00  0.00    +0.000 C 
ATOM     77  N6  UNL A   1      17.596  24.687  -2.625  1.00  0.00    +0.000 N 
ATOM     78  C54 UNL A   1      13.699  26.823  -2.578  1.00  0.00    +0.000 C 
ATOM     79  C55 UNL A   1      13.957  28.082  -2.252  1.00  0.00    +0.000 C 
ATOM     80  C56 UNL A   1      22.104  26.431  -1.252  1.00  0.00    +0.000 C 
ATOM     81  C57 UNL A   1      21.944  25.213  -1.749  1.00  0.00    +0.000 C 
ATOM    120  H24 UNL A   1      20.022  31.248  -0.460  1.00  0.00    +0.000 H 
ATOM    121  H25 UNL A   1      17.472  31.736  -0.697  1.00  0.00    +0.000 H 
ATOM    122  H26 UNL A   1      18.122  27.744  -1.584  1.00  0.00    +0.000 H 
ATOM    123  H27 UNL A   1      15.904  22.112  -3.608  1.00  0.00    +0.000 H 
ATOM    124  H28 UNL A   1      18.380  21.627  -3.317  1.00  0.00    +0.000 H 
ATOM    125  H29 UNL A   1      17.746  25.623  -2.358  1.00  0.00    +0.000 H 
ATOM    126  H30 UNL A   1      12.794  26.380  -2.797  1.00  0.00    +0.000 H 
ATOM    127  H31 UNL A   1      13.246  28.830  -2.212  1.00  0.00    +0.000 H 
ATOM    128  H32 UNL A   1      22.997  26.802  -0.892  1.00  0.00    +0.000 H 
ENDROOT
BRANCH   25   24
ATOM    130  H34 UNL A   1      20.625  22.620  -4.750  1.00  0.00    +0.000 H 
ATOM    131  H35 UNL A   1      21.995  20.639  -5.024  1.00  0.00    +0.000 H 
ATOM     82  C58 UNL A   1      21.052  22.171  -3.925  1.00  0.00    +0.000 C 
ATOM     83  C59 UNL A   1      21.871  21.057  -4.089  1.00  0.00    +0.000 C 
ATOM     21  C16 UNL A   1      22.528  20.505  -2.985  1.00  0.00    +0.000 C 
ATOM     22  C17 UNL A   1      22.266  20.993  -1.700  1.00  0.00    +0.000 C 
ATOM    118  H22 UNL A   1      22.717  20.558  -0.880  1.00  0.00    +0.000 H 
ATOM     23  C18 UNL A   1      21.394  22.069  -1.530  1.00  0.00    +0.000 C 
ATOM    119  H23 UNL A   1      21.181  22.413  -0.580  1.00  0.00    +0.000 H 
ATOM     24  C19 UNL A   1      20.803  22.687  -2.644  1.00  0.00    +0.000 C 
BRANCH   21   19
ATOM     19  C15 UNL A   1      23.482  19.385  -3.141  1.00  0.00    +0.000 C 
ATOM     20  O3  UNL A   1      23.150  18.254  -2.800  1.00  0.00    +0.000 O 
BRANCH   19   18
ATOM     18  N2  UNL A   1      24.736  19.611  -3.651  1.00  0.00    +0.000 N 
ATOM    117  H21 UNL A   1      24.812  19.526  -4.629  1.00  0.00    +0.000 H 
BRANCH   18   17
ATOM     17  C14 UNL A   1      25.968  19.955  -2.959  1.00  0.00    +0.000 C 
ATOM    115  H19 UNL A   1      25.786  19.942  -1.904  1.00  0.00    +0.000 H 
ATOM    116  H20 UNL A   1      26.711  19.236  -3.236  1.00  0.00    +0.000 H 
BRANCH   17   16
ATOM    113  H17 UNL A   1      26.019  22.058  -2.711  1.00  0.00    +0.000 H 
ATOM    114  H18 UNL A   1      27.548  21.301  -3.242  1.00  0.00    +0.000 H 
ATOM     16  C13 UNL A   1      26.484  21.337  -3.350  1.00  0.00    +0.000 C 
BRANCH   16   15
ATOM    111  H15 UNL A   1      27.114  21.593  -5.359  1.00  0.00    +0.000 H 
ATOM     15  C12 UNL A   1      26.213  21.740  -4.801  1.00  0.00    +0.000 C 
ATOM    112  H16 UNL A   1      25.400  21.126  -5.131  1.00  0.00    +0.000 H 
BRANCH   15   14
ATOM    110  H14 UNL A   1      25.542  23.285  -6.049  1.00  0.00    +0.000 H 
ATOM    109  H13 UNL A   1      26.547  23.831  -4.670  1.00  0.00    +0.000 H 
ATOM     14  C11 UNL A   1      25.759  23.189  -5.006  1.00  0.00    +0.000 C 
BRANCH   14   13
ATOM    107  H11 UNL A   1      23.878  22.713  -4.132  1.00  0.00    +0.000 H 
ATOM    108  H12 UNL A   1      24.777  24.035  -3.345  1.00  0.00    +0.000 H 
ATOM     13  C10 UNL A   1      24.475  23.590  -4.269  1.00  0.00    +0.000 C 
BRANCH   13   12
ATOM    105  H9  UNL A   1      22.775  24.864  -4.408  1.00  0.00    +0.000 H 
ATOM    106  H10 UNL A   1      24.241  25.498  -5.160  1.00  0.00    +0.000 H 
ATOM     12  C9  UNL A   1      23.633  24.632  -5.003  1.00  0.00    +0.000 C 
BRANCH   12   11
ATOM     11  N1  UNL A   1      23.190  24.158  -6.296  1.00  0.00    +0.000 N 
ATOM    104  H8  UNL A   1      23.031  23.188  -6.352  1.00  0.00    +0.000 H 
BRANCH   11    9
ATOM      9  C8  UNL A   1      22.958  24.850  -7.450  1.00  0.00    +0.000 C 
ATOM     10  O2  UNL A   1      21.809  25.269  -7.622  1.00  0.00    +0.000 O 
BRANCH    9    8
ATOM    102  H6  UNL A   1      24.069  24.037  -9.051  1.00  0.00    +0.000 H 
ATOM    103  H7  UNL A   1      23.700  25.795  -9.150  1.00  0.00    +0.000 H 
ATOM      8  C7  UNL A   1      24.015  24.975  -8.539  1.00  0.00    +0.000 C 
BRANCH    8    7
ATOM      3  C2  UNL A   1      29.111  23.309  -8.094  1.00  0.00    +0.000 C 
ATOM    100  H4  UNL A   1      28.205  21.659  -9.037  1.00  0.00    +0.000 H 
ATOM      4  C3  UNL A   1      28.050  22.608  -8.662  1.00  0.00    +0.000 C 
ATOM      5  C4  UNL A   1      26.775  23.183  -8.726  1.00  0.00    +0.000 C 
ATOM    101  H5  UNL A   1      25.995  22.662  -9.156  1.00  0.00    +0.000 H 
ATOM      6  C5  UNL A   1      26.559  24.475  -8.200  1.00  0.00    +0.000 C 
ATOM      7  C6  UNL A   1      25.408  25.328  -8.082  1.00  0.00    +0.000 C 
ATOM    138  H42 UNL A   1      27.708  27.013  -6.692  1.00  0.00    +0.000 H 
ATOM    139  H43 UNL A   1      29.689  25.082  -7.078  1.00  0.00    +0.000 H 
ATOM     84  C60 UNL A   1      25.846  26.538  -7.538  1.00  0.00    +0.000 C 
ATOM     94  N8  UNL A   1      27.168  26.355  -7.188  1.00  0.00    +0.000 N 
ATOM     95  C68 UNL A   1      27.633  25.138  -7.620  1.00  0.00    +0.000 C 
ATOM     96  C69 UNL A   1      28.914  24.577  -7.537  1.00  0.00    +0.000 C 
BRANCH    3    2
ATOM      2  O1  UNL A   1      30.381  22.806  -7.991  1.00  0.00    +0.000 O 
BRANCH    2    1
ATOM      1  C1  UNL A   1      31.380  23.645  -8.571  1.00  0.00    +0.000 C 
ATOM     98  H2  UNL A   1      32.313  23.483  -8.072  1.00  0.00    +0.000 H 
ATOM     99  H3  UNL A   1      31.091  24.669  -8.464  1.00  0.00    +0.000 H 
ATOM     97  H1  UNL A   1      31.485  23.409  -9.608  1.00  0.00    +0.000 H 
ENDBRANCH    2    1
ENDBRANCH    3    2
BRANCH   84   85
ATOM     85  C61 UNL A   1      25.082  27.766  -7.339  1.00  0.00    +0.000 C 
ATOM     86  O4  UNL A   1      24.130  27.847  -6.568  1.00  0.00    +0.000 O 
BRANCH   85   87
ATOM    132  H36 UNL A   1      24.836  28.144  -9.997  1.00  0.00    +0.000 H 
ATOM    136  H40 UNL A   1      26.196  32.134 -10.020  1.00  0.00    +0.000 H 
ATOM    137  H41 UNL A   1      26.495  31.985  -7.645  1.00  0.00    +0.000 H 
ATOM     87  C62 UNL A   1      25.421  28.974  -8.141  1.00  0.00    +0.000 C 
ATOM     88  C63 UNL A   1      25.207  28.979  -9.517  1.00  0.00    +0.000 C 
ATOM     89  C64 UNL A   1      25.509  30.141 -10.229  1.00  0.00    +0.000 C 
ATOM     91  C66 UNL A   1      25.980  31.253  -9.526  1.00  0.00    +0.000 C 
ATOM     92  C67 UNL A   1      26.155  31.154  -8.154  1.00  0.00    +0.000 C 
ATOM     93  N7  UNL A   1      25.906  30.034  -7.448  1.00  0.00    +0.000 N 
BRANCH   89   90
ATOM     90  C65 UNL A   1      25.306  30.222 -11.713  1.00  0.00    +0.000 C 
ATOM    133  H37 UNL A   1      26.254  30.175 -12.206  1.00  0.00    +0.000 H 
ATOM    134  H38 UNL A   1      24.822  31.143 -11.957  1.00  0.00    +0.000 H 
ATOM    135  H39 UNL A   1      24.697  29.402 -12.034  1.00  0.00    +0.000 H 
ENDBRANCH   89   90
ENDBRANCH   85   87
ENDBRANCH   84   85
ENDBRANCH    8    7
ENDBRANCH    9    8
ENDBRANCH   11    9
ENDBRANCH   12   11
ENDBRANCH   13   12
ENDBRANCH   14   13
ENDBRANCH   15   14
ENDBRANCH   16   15
ENDBRANCH   17   16
ENDBRANCH   18   17
ENDBRANCH   19   18
ENDBRANCH   21   19
ENDBRANCH   25   24
BRANCH   29   30
ATOM     33  C26 UNL A   1      23.425  29.989   1.318  1.00  0.00    +0.000 C 
ATOM     34  F2  UNL A   1      23.661  30.158   2.627  1.00  0.00    +0.000 F 
ATOM     35  C27 UNL A   1      24.324  30.481   0.383  1.00  0.00    +0.000 C 
ATOM     36  F3  UNL A   1      25.437  31.107   0.788  1.00  0.00    +0.000 F 
ATOM     37  C28 UNL A   1      24.064  30.330  -0.970  1.00  0.00    +0.000 C 
ATOM     38  F4  UNL A   1      24.937  30.795  -1.874  1.00  0.00    +0.000 F 
ATOM     39  C29 UNL A   1      22.896  29.700  -1.391  1.00  0.00    +0.000 C 
ATOM     40  F5  UNL A   1      22.666  29.582  -2.708  1.00  0.00    +0.000 F 
ATOM     30  C24 UNL A   1      21.976  29.187  -0.464  1.00  0.00    +0.000 C 
ATOM     31  C25 UNL A   1      22.271  29.333   0.900  1.00  0.00    +0.000 C 
ATOM     32  F1  UNL A   1      21.419  28.870   1.828  1.00  0.00    +0.000 F 
ENDBRANCH   29   30
BRANCH   46   47
ATOM     47  C35 UNL A   1      14.976  30.624  -1.427  1.00  0.00    +0.000 C 
ATOM     48  C36 UNL A   1      14.356  31.196  -2.547  1.00  0.00    +0.000 C 
ATOM     49  F6  UNL A   1      14.620  30.729  -3.777  1.00  0.00    +0.000 F 
ATOM     50  C37 UNL A   1      13.491  32.278  -2.410  1.00  0.00    +0.000 C 
ATOM     51  F7  UNL A   1      12.944  32.838  -3.498  1.00  0.00    +0.000 F 
ATOM     52  C38 UNL A   1      13.204  32.786  -1.151  1.00  0.00    +0.000 C 
ATOM     53  F8  UNL A   1      12.366  33.824  -1.021  1.00  0.00    +0.000 F 
ATOM     54  C39 UNL A   1      13.793  32.223  -0.028  1.00  0.00    +0.000 C 
ATOM     55  F9  UNL A   1      13.507  32.705   1.189  1.00  0.00    +0.000 F 
ATOM     56  C40 UNL A   1      14.680  31.160  -0.164  1.00  0.00    +0.000 C 
ATOM     57  F10 UNL A   1      15.243  30.645   0.940  1.00  0.00    +0.000 F 
ENDBRANCH   46   47
BRANCH   61   62
ATOM     65  C46 UNL A   1      12.209  23.482  -4.950  1.00  0.00    +0.000 C 
ATOM     66  F12 UNL A   1      11.639  23.711  -6.141  1.00  0.00    +0.000 F 
ATOM     67  C47 UNL A   1      11.654  22.554  -4.081  1.00  0.00    +0.000 C 
ATOM     68  F13 UNL A   1      10.557  21.872  -4.440  1.00  0.00    +0.000 F 
ATOM     69  C48 UNL A   1      12.231  22.341  -2.839  1.00  0.00    +0.000 C 
ATOM     70  F14 UNL A   1      11.705  21.437  -2.002  1.00  0.00    +0.000 F 
ATOM     71  C49 UNL A   1      13.358  23.067  -2.457  1.00  0.00    +0.000 C 
ATOM     72  F15 UNL A   1      13.888  22.850  -1.245  1.00  0.00    +0.000 F 
ATOM     62  C44 UNL A   1      13.942  24.003  -3.322  1.00  0.00    +0.000 C 
ATOM     63  C45 UNL A   1      13.351  24.190  -4.580  1.00  0.00    +0.000 C 
ATOM     64  F11 UNL A   1      13.862  25.089  -5.433  1.00  0.00    +0.000 F 
ENDBRANCH   61   62
TORSDOF 21
ENDMDL
MODEL 3
REMARK VINA RESULT:      -9.7     44.598     50.315
ROOT
ATOM    129  H33 UNL A   1      14.684  56.308   5.115  1.00  0.00    +0.000 H 
ATOM     25  C20 UNL A   1      13.518  53.720   5.364  1.00  0.00    +0.000 C 
ATOM     26  C21 UNL A   1      14.486  54.194   4.317  1.00  0.00    +0.000 C 
ATOM     27  N3  UNL A   1      15.003  53.538   3.308  1.00  0.00    +0.000 N 
ATOM     28  C22 UNL A   1      15.797  54.453   2.630  1.00  0.00    +0.000 C 
ATOM     29  C23 UNL A   1      16.588  54.247   1.549  1.00  0.00    +0.000 C 
ATOM     41  C30 UNL A   1      16.747  52.976   0.890  1.00  0.00    +0.000 C 
ATOM     42  C31 UNL A   1      17.576  52.651  -0.170  1.00  0.00    +0.000 C 
ATOM     43  C32 UNL A   1      17.359  51.308  -0.498  1.00  0.00    +0.000 C 
ATOM     44  C33 UNL A   1      16.429  50.785   0.384  1.00  0.00    +0.000 C 
ATOM     45  N4  UNL A   1      16.059  51.820   1.230  1.00  0.00    +0.000 N 
ATOM     46  C34 UNL A   1      15.913  49.443   0.453  1.00  0.00    +0.000 C 
ATOM     58  C41 UNL A   1      15.012  49.001   1.366  1.00  0.00    +0.000 C 
ATOM     59  N5  UNL A   1      14.402  49.701   2.399  1.00  0.00    +0.000 N 
ATOM     60  C42 UNL A   1      13.603  48.847   2.989  1.00  0.00    +0.000 C 
ATOM     61  C43 UNL A   1      12.712  49.051   4.184  1.00  0.00    +0.000 C 
ATOM     73  C50 UNL A   1      12.695  50.250   4.796  1.00  0.00    +0.000 C 
ATOM     74  C51 UNL A   1      11.892  50.592   5.966  1.00  0.00    +0.000 C 
ATOM     75  C52 UNL A   1      12.097  51.882   6.276  1.00  0.00    +0.000 C 
ATOM     76  C53 UNL A   1      13.073  52.448   5.345  1.00  0.00    +0.000 C 
ATOM     77  N6  UNL A   1      13.376  51.407   4.505  1.00  0.00    +0.000 N 
ATOM     78  C54 UNL A   1      13.598  47.510   2.381  1.00  0.00    +0.000 C 
ATOM     79  C55 UNL A   1      14.502  47.648   1.421  1.00  0.00    +0.000 C 
ATOM     80  C56 UNL A   1      15.659  55.721   3.312  1.00  0.00    +0.000 C 
ATOM     81  C57 UNL A   1      14.910  55.600   4.399  1.00  0.00    +0.000 C 
ATOM    120  H24 UNL A   1      18.239  53.289  -0.637  1.00  0.00    +0.000 H 
ATOM    121  H25 UNL A   1      17.816  50.795  -1.269  1.00  0.00    +0.000 H 
ATOM    122  H26 UNL A   1      15.406  51.746   1.961  1.00  0.00    +0.000 H 
ATOM    123  H27 UNL A   1      11.267  49.946   6.473  1.00  0.00    +0.000 H 
ATOM    124  H28 UNL A   1      11.639  52.392   7.048  1.00  0.00    +0.000 H 
ATOM    125  H29 UNL A   1      14.020  51.481   3.764  1.00  0.00    +0.000 H 
ATOM    126  H30 UNL A   1      13.038  46.681   2.634  1.00  0.00    +0.000 H 
ATOM    127  H31 UNL A   1      14.805  46.886   0.793  1.00  0.00    +0.000 H 
ATOM    128  H32 UNL A   1      16.086  56.605   2.993  1.00  0.00    +0.000 H 
ENDROOT
BRANCH   25   24
ATOM    130  H34 UNL A   1      11.581  55.553   5.085  1.00  0.00    +0.000 H 
ATOM    131  H35 UNL A   1      10.762  57.151   6.713  1.00  0.00    +0.000 H 
ATOM     82  C58 UNL A   1      11.967  55.557   6.042  1.00  0.00    +0.000 C 
ATOM     83  C59 UNL A   1      11.466  56.449   6.987  1.00  0.00    +0.000 C 
ATOM     21  C16 UNL A   1      11.918  56.393   8.309  1.00  0.00    +0.000 C 
ATOM     22  C17 UNL A   1      12.961  55.527   8.654  1.00  0.00    +0.000 C 
ATOM    118  H22 UNL A   1      13.324  55.515   9.620  1.00  0.00    +0.000 H 
ATOM     23  C18 UNL A   1      13.507  54.677   7.691  1.00  0.00    +0.000 C 
ATOM    119  H23 UNL A   1      14.293  54.056   7.939  1.00  0.00    +0.000 H 
ATOM     24  C19 UNL A   1      12.994  54.664   6.383  1.00  0.00    +0.000 C 
BRANCH   21   19
ATOM     19  C15 UNL A   1      11.334  57.258   9.357  1.00  0.00    +0.000 C 
ATOM     20  O3  UNL A   1      11.932  58.270   9.710  1.00  0.00    +0.000 O 
BRANCH   19   18
ATOM     18  N2  UNL A   1      10.138  56.926   9.941  1.00  0.00    +0.000 N 
ATOM    117  H21 UNL A   1       9.347  57.033   9.366  1.00  0.00    +0.000 H 
BRANCH   18   17
ATOM     17  C14 UNL A   1       9.868  56.440  11.285  1.00  0.00    +0.000 C 
ATOM    115  H19 UNL A   1       9.930  57.262  11.967  1.00  0.00    +0.000 H 
ATOM    116  H20 UNL A   1       8.891  56.004  11.286  1.00  0.00    +0.000 H 
BRANCH   17   16
ATOM    113  H17 UNL A   1      10.360  54.421  11.694  1.00  0.00    +0.000 H 
ATOM    114  H18 UNL A   1      11.686  55.428  11.045  1.00  0.00    +0.000 H 
ATOM     16  C13 UNL A   1      10.860  55.366  11.722  1.00  0.00    +0.000 C 
BRANCH   16   15
ATOM    111  H15 UNL A   1      11.997  56.470  13.132  1.00  0.00    +0.000 H 
ATOM     15  C12 UNL A   1      11.440  55.557  13.126  1.00  0.00    +0.000 C 
ATOM    112  H16 UNL A   1      10.603  55.560  13.793  1.00  0.00    +0.000 H 
BRANCH   15   14
ATOM    110  H14 UNL A   1      11.806  53.528  13.510  1.00  0.00    +0.000 H 
ATOM    109  H13 UNL A   1      12.647  54.655  14.621  1.00  0.00    +0.000 H 
ATOM     14  C11 UNL A   1      12.364  54.435  13.612  1.00  0.00    +0.000 C 
BRANCH   14   13
ATOM    107  H11 UNL A   1      13.379  53.819  11.846  1.00  0.00    +0.000 H 
ATOM    108  H12 UNL A   1      14.111  55.195  12.711  1.00  0.00    +0.000 H 
ATOM     13  C10 UNL A   1      13.647  54.235  12.794  1.00  0.00    +0.000 C 
BRANCH   13   12
ATOM    105  H9  UNL A   1      15.609  53.816  13.505  1.00  0.00    +0.000 H 
ATOM    106  H10 UNL A   1      14.308  53.059  14.428  1.00  0.00    +0.000 H 
ATOM     12  C9  UNL A   1      14.668  53.309  13.452  1.00  0.00    +0.000 C 
BRANCH   12   11
ATOM     11  N1  UNL A   1      14.842  52.079  12.711  1.00  0.00    +0.000 N 
ATOM    104  H8  UNL A   1      14.368  51.300  13.081  1.00  0.00    +0.000 H 
BRANCH   11    9
ATOM      9  C8  UNL A   1      15.563  51.834  11.578  1.00  0.00    +0.000 C 
ATOM     10  O2  UNL A   1      16.761  51.576  11.731  1.00  0.00    +0.000 O 
BRANCH    9    8
ATOM    102  H6  UNL A   1      14.470  52.963  10.167  1.00  0.00    +0.000 H 
ATOM    103  H7  UNL A   1      15.789  51.930   9.511  1.00  0.00    +0.000 H 
ATOM      8  C7  UNL A   1      14.966  52.015  10.189  1.00  0.00    +0.000 C 
BRANCH    8    7
ATOM      3  C2  UNL A   1       9.765  50.696   9.798  1.00  0.00    +0.000 C 
ATOM    100  H4  UNL A   1       9.653  52.623  10.638  1.00  0.00    +0.000 H 
ATOM      4  C3  UNL A   1      10.289  51.889  10.288  1.00  0.00    +0.000 C 
ATOM      5  C4  UNL A   1      11.673  52.099  10.309  1.00  0.00    +0.000 C 
ATOM    101  H5  UNL A   1      12.055  52.989  10.664  1.00  0.00    +0.000 H 
ATOM      6  C5  UNL A   1      12.545  51.091   9.844  1.00  0.00    +0.000 C 
ATOM      7  C6  UNL A   1      13.973  50.969   9.747  1.00  0.00    +0.000 C 
ATOM    138  H42 UNL A   1      12.931  48.171   8.675  1.00  0.00    +0.000 H 
ATOM    139  H43 UNL A   1      10.227  48.767   9.038  1.00  0.00    +0.000 H 
ATOM     84  C60 UNL A   1      14.241  49.751   9.117  1.00  0.00    +0.000 C 
ATOM     94  N8  UNL A   1      13.033  49.097   8.997  1.00  0.00    +0.000 N 
ATOM     95  C68 UNL A   1      11.991  49.903   9.383  1.00  0.00    +0.000 C 
ATOM     96  C69 UNL A   1      10.609  49.669   9.363  1.00  0.00    +0.000 C 
BRANCH    3    2
ATOM      2  O1  UNL A   1       8.424  50.419   9.756  1.00  0.00    +0.000 O 
BRANCH    2    1
ATOM      1  C1  UNL A   1       7.679  51.026  10.811  1.00  0.00    +0.000 C 
ATOM     98  H2  UNL A   1       6.938  50.339  11.164  1.00  0.00    +0.000 H 
ATOM     99  H3  UNL A   1       7.201  51.911  10.448  1.00  0.00    +0.000 H 
ATOM     97  H1  UNL A   1       8.339  51.279  11.613  1.00  0.00    +0.000 H 
ENDBRANCH    2    1
ENDBRANCH    3    2
BRANCH   84   85
ATOM     85  C61 UNL A   1      15.532  49.226   8.681  1.00  0.00    +0.000 C 
ATOM     86  O4  UNL A   1      16.275  48.576   9.411  1.00  0.00    +0.000 O 
BRANCH   85   87
ATOM    132  H36 UNL A   1      16.119  47.513   6.684  1.00  0.00    +0.000 H 
ATOM    136  H40 UNL A   1      17.107  50.455   3.832  1.00  0.00    +0.000 H 
ATOM    137  H41 UNL A   1      16.644  52.131   5.484  1.00  0.00    +0.000 H 
ATOM     87  C62 UNL A   1      16.016  49.532   7.306  1.00  0.00    +0.000 C 
ATOM     88  C63 UNL A   1      16.253  48.498   6.405  1.00  0.00    +0.000 C 
ATOM     89  C64 UNL A   1      16.677  48.827   5.116  1.00  0.00    +0.000 C 
ATOM     91  C66 UNL A   1      16.813  50.177   4.781  1.00  0.00    +0.000 C 
ATOM     92  C67 UNL A   1      16.549  51.137   5.747  1.00  0.00    +0.000 C 
ATOM     93  N7  UNL A   1      16.173  50.846   7.007  1.00  0.00    +0.000 N 
BRANCH   89   90
ATOM     90  C65 UNL A   1      16.952  47.768   4.091  1.00  0.00    +0.000 C 
ATOM    133  H37 UNL A   1      16.879  48.191   3.111  1.00  0.00    +0.000 H 
ATOM    134  H38 UNL A   1      16.238  46.979   4.193  1.00  0.00    +0.000 H 
ATOM    135  H39 UNL A   1      17.938  47.377   4.238  1.00  0.00    +0.000 H 
ENDBRANCH   89   90
ENDBRANCH   85   87
ENDBRANCH   84   85
ENDBRANCH    8    7
ENDBRANCH    9    8
ENDBRANCH   11    9
ENDBRANCH   12   11
ENDBRANCH   13   12
ENDBRANCH   14   13
ENDBRANCH   15   14
ENDBRANCH   16   15
ENDBRANCH   17   16
ENDBRANCH   18   17
ENDBRANCH   19   18
ENDBRANCH   21   19
ENDBRANCH   25   24
BRANCH   29   30
ATOM     33  C26 UNL A   1      17.509  57.372  -0.435  1.00  0.00    +0.000 C 
ATOM     34  F2  UNL A   1      16.978  58.149  -1.390  1.00  0.00    +0.000 F 
ATOM     35  C27 UNL A   1      18.776  57.649   0.058  1.00  0.00    +0.000 C 
ATOM     36  F3  UNL A   1      19.460  58.704  -0.405  1.00  0.00    +0.000 F 
ATOM     37  C28 UNL A   1      19.335  56.829   1.025  1.00  0.00    +0.000 C 
ATOM     38  F4  UNL A   1      20.553  57.102   1.511  1.00  0.00    +0.000 F 
ATOM     39  C29 UNL A   1      18.634  55.719   1.490  1.00  0.00    +0.000 C 
ATOM     40  F5  UNL A   1      19.209  54.936   2.417  1.00  0.00    +0.000 F 
ATOM     30  C24 UNL A   1      17.349  55.423   1.013  1.00  0.00    +0.000 C 
ATOM     31  C25 UNL A   1      16.795  56.280   0.049  1.00  0.00    +0.000 C 
ATOM     32  F1  UNL A   1      15.573  56.035  -0.449  1.00  0.00    +0.000 F 
ENDBRANCH   29   30
BRANCH   46   47
ATOM     47  C35 UNL A   1      16.422  48.444  -0.544  1.00  0.00    +0.000 C 
ATOM     48  C36 UNL A   1      15.666  48.076  -1.666  1.00  0.00    +0.000 C 
ATOM     49  F6  UNL A   1      14.436  48.582  -1.847  1.00  0.00    +0.000 F 
ATOM     50  C37 UNL A   1      16.156  47.155  -2.588  1.00  0.00    +0.000 C 
ATOM     51  F7  UNL A   1      15.398  46.785  -3.629  1.00  0.00    +0.000 F 
ATOM     52  C38 UNL A   1      17.422  46.612  -2.424  1.00  0.00    +0.000 C 
ATOM     53  F8  UNL A   1      17.894  45.730  -3.316  1.00  0.00    +0.000 F 
ATOM     54  C39 UNL A   1      18.194  46.975  -1.330  1.00  0.00    +0.000 C 
ATOM     55  F9  UNL A   1      19.421  46.460  -1.177  1.00  0.00    +0.000 F 
ATOM     56  C40 UNL A   1      17.695  47.874  -0.392  1.00  0.00    +0.000 C 
ATOM     57  F10 UNL A   1      18.461  48.197   0.662  1.00  0.00    +0.000 F 
ENDBRANCH   46   47
BRANCH   61   62
ATOM     65  C46 UNL A   1       9.810  46.655   4.675  1.00  0.00    +0.000 C 
ATOM     66  F12 UNL A   1       8.583  46.459   4.175  1.00  0.00    +0.000 F 
ATOM     67  C47 UNL A   1      10.282  45.846   5.699  1.00  0.00    +0.000 C 
ATOM     68  F13 UNL A   1       9.516  44.856   6.177  1.00  0.00    +0.000 F 
ATOM     69  C48 UNL A   1      11.542  46.071   6.231  1.00  0.00    +0.000 C 
ATOM     70  F14 UNL A   1      12.005  45.283   7.211  1.00  0.00    +0.000 F 
ATOM     71  C49 UNL A   1      12.329  47.115   5.749  1.00  0.00    +0.000 C 
ATOM     72  F15 UNL A   1      13.538  47.318   6.290  1.00  0.00    +0.000 F 
ATOM     62  C44 UNL A   1      11.878  47.940   4.709  1.00  0.00    +0.000 C 
ATOM     63  C45 UNL A   1      10.607  47.684   4.174  1.00  0.00    +0.000 C 
ATOM     64  F11 UNL A   1      10.125  48.459   3.193  1.00  0.00    +0.000 F 
ENDBRANCH   61   62
TORSDOF 21
ENDMDL
MODEL 4
REMARK VINA RESULT:      -9.5     35.523     43.431
ROOT
ATOM    129  H33 UNL A   1      23.033  37.231  48.316  1.00  0.00    +0.000 H 
ATOM     25  C20 UNL A   1      25.465  38.713  48.281  1.00  0.00    +0.000 C 
ATOM     26  C21 UNL A   1      25.174  37.411  47.590  1.00  0.00    +0.000 C 
ATOM     27  N3  UNL A   1      25.954  36.683  46.831  1.00  0.00    +0.000 N 
ATOM     28  C22 UNL A   1      25.209  35.562  46.488  1.00  0.00    +0.000 C 
ATOM     29  C23 UNL A   1      25.552  34.538  45.671  1.00  0.00    +0.000 C 
ATOM     41  C30 UNL A   1      26.811  34.437  44.980  1.00  0.00    +0.000 C 
ATOM     42  C31 UNL A   1      27.226  33.473  44.077  1.00  0.00    +0.000 C 
ATOM     43  C32 UNL A   1      28.542  33.764  43.701  1.00  0.00    +0.000 C 
ATOM     44  C33 UNL A   1      28.931  34.932  44.335  1.00  0.00    +0.000 C 
ATOM     45  N4  UNL A   1      27.861  35.334  45.119  1.00  0.00    +0.000 N 
ATOM     46  C34 UNL A   1      30.186  35.632  44.235  1.00  0.00    +0.000 C 
ATOM     58  C41 UNL A   1      30.484  36.789  44.877  1.00  0.00    +0.000 C 
ATOM     59  N5  UNL A   1      29.694  37.537  45.740  1.00  0.00    +0.000 N 
ATOM     60  C42 UNL A   1      30.431  38.555  46.111  1.00  0.00    +0.000 C 
ATOM     61  C43 UNL A   1      30.079  39.700  47.020  1.00  0.00    +0.000 C 
ATOM     73  C50 UNL A   1      28.843  39.763  47.551  1.00  0.00    +0.000 C 
ATOM     74  C51 UNL A   1      28.355  40.814  48.439  1.00  0.00    +0.000 C 
ATOM     75  C52 UNL A   1      27.095  40.530  48.803  1.00  0.00    +0.000 C 
ATOM     76  C53 UNL A   1      26.674  39.293  48.146  1.00  0.00    +0.000 C 
ATOM     77  N6  UNL A   1      27.774  38.911  47.419  1.00  0.00    +0.000 N 
ATOM     78  C54 UNL A   1      31.785  38.556  45.541  1.00  0.00    +0.000 C 
ATOM     79  C55 UNL A   1      31.752  37.480  44.767  1.00  0.00    +0.000 C 
ATOM     80  C56 UNL A   1      23.933  35.681  47.160  1.00  0.00    +0.000 C 
ATOM     81  C57 UNL A   1      23.836  36.837  47.802  1.00  0.00    +0.000 C 
ATOM    120  H24 UNL A   1      26.661  32.678  43.739  1.00  0.00    +0.000 H 
ATOM    121  H25 UNL A   1      29.124  33.202  43.059  1.00  0.00    +0.000 H 
ATOM    122  H26 UNL A   1      27.847  36.135  45.689  1.00  0.00    +0.000 H 
ATOM    123  H27 UNL A   1      28.894  41.642  48.739  1.00  0.00    +0.000 H 
ATOM    124  H28 UNL A   1      26.516  41.096  49.445  1.00  0.00    +0.000 H 
ATOM    125  H29 UNL A   1      27.795  38.103  46.858  1.00  0.00    +0.000 H 
ATOM    126  H30 UNL A   1      32.559  39.219  45.701  1.00  0.00    +0.000 H 
ATOM    127  H31 UNL A   1      32.530  37.173  44.162  1.00  0.00    +0.000 H 
ATOM    128  H32 UNL A   1      23.195  34.960  47.142  1.00  0.00    +0.000 H 
ENDROOT
BRANCH   25   24
ATOM    130  H34 UNL A   1      24.998  38.207  50.872  1.00  0.00    +0.000 H 
ATOM    131  H35 UNL A   1      23.300  39.156  52.319  1.00  0.00    +0.000 H 
ATOM     82  C58 UNL A   1      24.359  38.933  50.510  1.00  0.00    +0.000 C 
ATOM     83  C59 UNL A   1      23.412  39.505  51.355  1.00  0.00    +0.000 C 
ATOM     21  C16 UNL A   1      22.610  40.554  50.895  1.00  0.00    +0.000 C 
ATOM     22  C17 UNL A   1      22.672  40.945  49.553  1.00  0.00    +0.000 C 
ATOM    118  H22 UNL A   1      22.051  41.691  49.203  1.00  0.00    +0.000 H 
ATOM     23  C18 UNL A   1      23.578  40.326  48.690  1.00  0.00    +0.000 C 
ATOM    119  H23 UNL A   1      23.607  40.597  47.695  1.00  0.00    +0.000 H 
ATOM     24  C19 UNL A   1      24.450  39.334  49.169  1.00  0.00    +0.000 C 
BRANCH   21   19
ATOM     19  C15 UNL A   1      21.665  41.250  51.796  1.00  0.00    +0.000 C 
ATOM     20  O3  UNL A   1      21.602  42.475  51.780  1.00  0.00    +0.000 O 
BRANCH   19   18
ATOM     18  N2  UNL A   1      20.872  40.531  52.655  1.00  0.00    +0.000 N 
ATOM    117  H21 UNL A   1      21.205  40.469  53.579  1.00  0.00    +0.000 H 
BRANCH   18   17
ATOM     17  C14 UNL A   1      19.614  39.848  52.400  1.00  0.00    +0.000 C 
ATOM    115  H19 UNL A   1      19.819  38.925  51.897  1.00  0.00    +0.000 H 
ATOM    116  H20 UNL A   1      19.135  39.681  53.342  1.00  0.00    +0.000 H 
BRANCH   17   16
ATOM    113  H17 UNL A   1      18.909  41.710  51.678  1.00  0.00    +0.000 H 
ATOM    114  H18 UNL A   1      18.816  40.345  50.528  1.00  0.00    +0.000 H 
ATOM     16  C13 UNL A   1      18.670  40.677  51.534  1.00  0.00    +0.000 C 
BRANCH   16   15
ATOM    111  H15 UNL A   1      17.098  39.848  52.692  1.00  0.00    +0.000 H 
ATOM     15  C12 UNL A   1      17.182  40.486  51.838  1.00  0.00    +0.000 C 
ATOM    112  H16 UNL A   1      16.784  41.467  51.995  1.00  0.00    +0.000 H 
BRANCH   15   14
ATOM    110  H14 UNL A   1      16.603  40.425  49.824  1.00  0.00    +0.000 H 
ATOM    109  H13 UNL A   1      15.322  39.935  50.976  1.00  0.00    +0.000 H 
ATOM     14  C11 UNL A   1      16.355  39.870  50.704  1.00  0.00    +0.000 C 
BRANCH   14   13
ATOM    107  H11 UNL A   1      17.648  38.354  49.958  1.00  0.00    +0.000 H 
ATOM    108  H12 UNL A   1      16.583  37.861  51.298  1.00  0.00    +0.000 H 
ATOM     13  C10 UNL A   1      16.667  38.403  50.380  1.00  0.00    +0.000 C 
BRANCH   13   12
ATOM    105  H9  UNL A   1      15.202  36.940  49.884  1.00  0.00    +0.000 H 
ATOM    106  H10 UNL A   1      14.985  38.504  49.096  1.00  0.00    +0.000 H 
ATOM     12  C9  UNL A   1      15.690  37.759  49.398  1.00  0.00    +0.000 C 
BRANCH   12   11
ATOM     11  N1  UNL A   1      16.357  37.268  48.213  1.00  0.00    +0.000 N 
ATOM    104  H8  UNL A   1      17.331  37.413  48.193  1.00  0.00    +0.000 H 
BRANCH   11    9
ATOM      9  C8  UNL A   1      15.844  36.634  47.118  1.00  0.00    +0.000 C 
ATOM     10  O2  UNL A   1      14.908  35.853  47.321  1.00  0.00    +0.000 O 
BRANCH    9    8
ATOM    102  H6  UNL A   1      15.690  36.832  45.022  1.00  0.00    +0.000 H 
ATOM    103  H7  UNL A   1      17.105  37.630  45.795  1.00  0.00    +0.000 H 
ATOM      8  C7  UNL A   1      16.479  36.763  45.741  1.00  0.00    +0.000 C 
BRANCH    8    7
ATOM      3  C2  UNL A   1      16.763  31.814  43.652  1.00  0.00    +0.000 C 
ATOM    100  H4  UNL A   1      14.689  32.168  43.626  1.00  0.00    +0.000 H 
ATOM      4  C3  UNL A   1      15.610  32.565  43.865  1.00  0.00    +0.000 C 
ATOM      5  C4  UNL A   1      15.695  33.856  44.401  1.00  0.00    +0.000 C 
ATOM    101  H5  UNL A   1      14.838  34.412  44.547  1.00  0.00    +0.000 H 
ATOM      6  C5  UNL A   1      16.954  34.395  44.741  1.00  0.00    +0.000 C 
ATOM      7  C6  UNL A   1      17.390  35.639  45.316  1.00  0.00    +0.000 C 
ATOM    138  H42 UNL A   1      20.093  34.018  44.961  1.00  0.00    +0.000 H 
ATOM    139  H43 UNL A   1      18.872  31.743  43.896  1.00  0.00    +0.000 H 
ATOM     84  C60 UNL A   1      18.786  35.618  45.334  1.00  0.00    +0.000 C 
ATOM     94  N8  UNL A   1      19.165  34.350  44.947  1.00  0.00    +0.000 N 
ATOM     95  C68 UNL A   1      18.083  33.610  44.539  1.00  0.00    +0.000 C 
ATOM     96  C69 UNL A   1      18.020  32.313  44.013  1.00  0.00    +0.000 C 
BRANCH    3    2
ATOM      2  O1  UNL A   1      16.754  30.543  43.140  1.00  0.00    +0.000 O 
BRANCH    2    1
ATOM      1  C1  UNL A   1      17.447  29.593  43.948  1.00  0.00    +0.000 C 
ATOM     98  H2  UNL A   1      18.241  30.084  44.473  1.00  0.00    +0.000 H 
ATOM     99  H3  UNL A   1      17.853  28.823  43.327  1.00  0.00    +0.000 H 
ATOM     97  H1  UNL A   1      16.768  29.162  44.654  1.00  0.00    +0.000 H 
ENDBRANCH    2    1
ENDBRANCH    3    2
BRANCH   84   85
ATOM     85  C61 UNL A   1      19.699  36.695  45.708  1.00  0.00    +0.000 C 
ATOM     86  O4  UNL A   1      20.326  37.358  44.889  1.00  0.00    +0.000 O 
BRANCH   85   87
ATOM    132  H36 UNL A   1      20.471  34.997  47.655  1.00  0.00    +0.000 H 
ATOM    136  H40 UNL A   1      20.630  37.870  50.734  1.00  0.00    +0.000 H 
ATOM    137  H41 UNL A   1      19.933  39.527  49.145  1.00  0.00    +0.000 H 
ATOM     87  C62 UNL A   1      19.937  36.980  47.150  1.00  0.00    +0.000 C 
ATOM     88  C63 UNL A   1      20.349  35.960  48.003  1.00  0.00    +0.000 C 
ATOM     89  C64 UNL A   1      20.592  36.274  49.343  1.00  0.00    +0.000 C 
ATOM     91  C66 UNL A   1      20.441  37.601  49.756  1.00  0.00    +0.000 C 
ATOM     92  C67 UNL A   1      20.032  38.549  48.830  1.00  0.00    +0.000 C 
ATOM     93  N7  UNL A   1      19.757  38.267  47.542  1.00  0.00    +0.000 N 
BRANCH   89   90
ATOM     90  C65 UNL A   1      21.037  35.229  50.321  1.00  0.00    +0.000 C 
ATOM    133  H37 UNL A   1      21.539  35.698  51.141  1.00  0.00    +0.000 H 
ATOM    134  H38 UNL A   1      21.704  34.548  49.836  1.00  0.00    +0.000 H 
ATOM    135  H39 UNL A   1      20.184  34.695  50.684  1.00  0.00    +0.000 H 
ENDBRANCH   89   90
ENDBRANCH   85   87
ENDBRANCH   84   85
ENDBRANCH    8    7
ENDBRANCH    9    8
ENDBRANCH   11    9
ENDBRANCH   12   11
ENDBRANCH   13   12
ENDBRANCH   14   13
ENDBRANCH   15   14
ENDBRANCH   16   15
ENDBRANCH   17   16
ENDBRANCH   18   17
ENDBRANCH   19   18
ENDBRANCH   21   19
ENDBRANCH   25   24
BRANCH   29   30
ATOM     33  C26 UNL A   1      22.554  32.555  44.390  1.00  0.00    +0.000 C 
ATOM     34  F2  UNL A   1      21.517  32.727  43.559  1.00  0.00    +0.000 F 
ATOM     35  C27 UNL A   1      22.698  31.360  45.080  1.00  0.00    +0.000 C 
ATOM     36  F3  UNL A   1      21.812  30.371  44.901  1.00  0.00    +0.000 F 
ATOM     37  C28 UNL A   1      23.756  31.194  45.960  1.00  0.00    +0.000 C 
ATOM     38  F4  UNL A   1      23.903  30.036  46.618  1.00  0.00    +0.000 F 
ATOM     39  C29 UNL A   1      24.665  32.230  46.164  1.00  0.00    +0.000 C 
ATOM     40  F5  UNL A   1      25.670  32.043  47.033  1.00  0.00    +0.000 F 
ATOM     30  C24 UNL A   1      24.545  33.444  45.471  1.00  0.00    +0.000 C 
ATOM     31  C25 UNL A   1      23.477  33.581  44.570  1.00  0.00    +0.000 C 
ATOM     32  F1  UNL A   1      23.311  34.727  43.891  1.00  0.00    +0.000 F 
ENDBRANCH   29   30
BRANCH   46   47
ATOM     47  C35 UNL A   1      31.241  35.056  43.338  1.00  0.00    +0.000 C 
ATOM     48  C36 UNL A   1      32.117  34.055  43.783  1.00  0.00    +0.000 C 
ATOM     49  F6  UNL A   1      32.059  33.623  45.052  1.00  0.00    +0.000 F 
ATOM     50  C37 UNL A   1      33.085  33.523  42.936  1.00  0.00    +0.000 C 
ATOM     51  F7  UNL A   1      33.941  32.601  43.395  1.00  0.00    +0.000 F 
ATOM     52  C38 UNL A   1      33.172  33.956  41.620  1.00  0.00    +0.000 C 
ATOM     53  F8  UNL A   1      34.101  33.437  40.804  1.00  0.00    +0.000 F 
ATOM     54  C39 UNL A   1      32.304  34.931  41.154  1.00  0.00    +0.000 C 
ATOM     55  F9  UNL A   1      32.380  35.341  39.880  1.00  0.00    +0.000 F 
ATOM     56  C40 UNL A   1      31.354  35.486  42.006  1.00  0.00    +0.000 C 
ATOM     57  F10 UNL A   1      30.536  36.436  41.530  1.00  0.00    +0.000 F 
ENDBRANCH   46   47
BRANCH   61   62
ATOM     65  C46 UNL A   1      31.956  42.995  46.883  1.00  0.00    +0.000 C 
ATOM     66  F12 UNL A   1      31.919  44.136  46.183  1.00  0.00    +0.000 F 
ATOM     67  C47 UNL A   1      32.932  42.805  47.851  1.00  0.00    +0.000 C 
ATOM     68  F13 UNL A   1      33.828  43.770  48.099  1.00  0.00    +0.000 F 
ATOM     69  C48 UNL A   1      32.983  41.610  48.554  1.00  0.00    +0.000 C 
ATOM     70  F14 UNL A   1      33.916  41.429  49.497  1.00  0.00    +0.000 F 
ATOM     71  C49 UNL A   1      32.066  40.598  48.280  1.00  0.00    +0.000 C 
ATOM     72  F15 UNL A   1      32.146  39.449  48.965  1.00  0.00    +0.000 F 
ATOM     62  C44 UNL A   1      31.065  40.770  47.313  1.00  0.00    +0.000 C 
ATOM     63  C45 UNL A   1      31.022  41.992  46.627  1.00  0.00    +0.000 C 
ATOM     64  F11 UNL A   1      30.096  42.196  45.679  1.00  0.00    +0.000 F 
ENDBRANCH   61   62
TORSDOF 21
ENDMDL
MODEL 5
REMARK VINA RESULT:      -9.5     31.057     35.400
ROOT
ATOM    129  H33 UNL A   1      22.520  24.522  -1.865  1.00  0.00    +0.000 H 
ATOM     25  C20 UNL A   1      19.791  23.962  -2.460  1.00  0.00    +0.000 C 
ATOM     26  C21 UNL A   1      20.374  25.251  -1.952  1.00  0.00    +0.000 C 
ATOM     27  N3  UNL A   1      19.773  26.382  -1.678  1.00  0.00    +0.000 N 
ATOM     28  C22 UNL A   1      20.763  27.230  -1.202  1.00  0.00    +0.000 C 
ATOM     29  C23 UNL A   1      20.657  28.530  -0.838  1.00  0.00    +0.000 C 
ATOM     41  C30 UNL A   1      19.436  29.292  -0.891  1.00  0.00    +0.000 C 
ATOM     42  C31 UNL A   1      19.241  30.633  -0.608  1.00  0.00    +0.000 C 
ATOM     43  C32 UNL A   1      17.879  30.918  -0.756  1.00  0.00    +0.000 C 
ATOM     44  C33 UNL A   1      17.233  29.766  -1.174  1.00  0.00    +0.000 C 
ATOM     45  N4  UNL A   1      18.200  28.775  -1.250  1.00  0.00    +0.000 N 
ATOM     46  C34 UNL A   1      15.839  29.581  -1.482  1.00  0.00    +0.000 C 
ATOM     58  C41 UNL A   1      15.284  28.418  -1.906  1.00  0.00    +0.000 C 
ATOM     59  N5  UNL A   1      15.894  27.192  -2.135  1.00  0.00    +0.000 N 
ATOM     60  C42 UNL A   1      14.940  26.381  -2.518  1.00  0.00    +0.000 C 
ATOM     61  C43 UNL A   1      15.028  24.935  -2.921  1.00  0.00    +0.000 C 
ATOM     73  C50 UNL A   1      16.229  24.326  -2.930  1.00  0.00    +0.000 C 
ATOM     74  C51 UNL A   1      16.471  22.936  -3.305  1.00  0.00    +0.000 C 
ATOM     75  C52 UNL A   1      17.777  22.663  -3.156  1.00  0.00    +0.000 C 
ATOM     76  C53 UNL A   1      18.470  23.871  -2.708  1.00  0.00    +0.000 C 
ATOM     77  N6  UNL A   1      17.473  24.808  -2.604  1.00  0.00    +0.000 N 
ATOM     78  C54 UNL A   1      13.606  26.997  -2.554  1.00  0.00    +0.000 C 
ATOM     79  C55 UNL A   1      13.879  28.248  -2.210  1.00  0.00    +0.000 C 
ATOM     80  C56 UNL A   1      21.995  26.471  -1.178  1.00  0.00    +0.000 C 
ATOM     81  C57 UNL A   1      21.822  25.262  -1.693  1.00  0.00    +0.000 C 
ATOM    120  H24 UNL A   1      19.975  31.306  -0.335  1.00  0.00    +0.000 H 
ATOM    121  H25 UNL A   1      17.433  31.832  -0.583  1.00  0.00    +0.000 H 
ATOM    122  H26 UNL A   1      18.034  27.843  -1.519  1.00  0.00    +0.000 H 
ATOM    123  H27 UNL A   1      15.753  22.270  -3.632  1.00  0.00    +0.000 H 
ATOM    124  H28 UNL A   1      18.220  21.747  -3.332  1.00  0.00    +0.000 H 
ATOM    125  H29 UNL A   1      17.634  25.738  -2.324  1.00  0.00    +0.000 H 
ATOM    126  H30 UNL A   1      12.696  26.569  -2.785  1.00  0.00    +0.000 H 
ATOM    127  H31 UNL A   1      13.178  29.005  -2.164  1.00  0.00    +0.000 H 
ATOM    128  H32 UNL A   1      22.891  26.825  -0.808  1.00  0.00    +0.000 H 
ENDROOT
BRANCH   25   24
ATOM    130  H34 UNL A   1      20.686  22.871  -4.740  1.00  0.00    +0.000 H 
ATOM    131  H35 UNL A   1      22.032  20.877  -5.040  1.00  0.00    +0.000 H 
ATOM     82  C58 UNL A   1      21.018  22.345  -3.916  1.00  0.00    +0.000 C 
ATOM     83  C59 UNL A   1      21.824  21.223  -4.090  1.00  0.00    +0.000 C 
ATOM     21  C16 UNL A   1      22.354  20.565  -2.976  1.00  0.00    +0.000 C 
ATOM     22  C17 UNL A   1      21.975  20.957  -1.688  1.00  0.00    +0.000 C 
ATOM    118  H22 UNL A   1      22.332  20.444  -0.866  1.00  0.00    +0.000 H 
ATOM     23  C18 UNL A   1      21.115  22.042  -1.516  1.00  0.00    +0.000 C 
ATOM    119  H23 UNL A   1      20.815  22.315  -0.567  1.00  0.00    +0.000 H 
ATOM     24  C19 UNL A   1      20.652  22.764  -2.628  1.00  0.00    +0.000 C 
BRANCH   21   19
ATOM     19  C15 UNL A   1      23.294  19.433  -3.129  1.00  0.00    +0.000 C 
ATOM     20  O3  UNL A   1      23.674  19.107  -4.249  1.00  0.00    +0.000 O 
BRANCH   19   18
ATOM     18  N2  UNL A   1      23.728  18.741  -2.026  1.00  0.00    +0.000 N 
ATOM    117  H21 UNL A   1      23.179  17.963  -1.776  1.00  0.00    +0.000 H 
BRANCH   18   17
ATOM     17  C14 UNL A   1      24.881  18.988  -1.173  1.00  0.00    +0.000 C 
ATOM    115  H19 UNL A   1      24.696  19.869  -0.593  1.00  0.00    +0.000 H 
ATOM    116  H20 UNL A   1      25.015  18.130  -0.548  1.00  0.00    +0.000 H 
BRANCH   17   16
ATOM    113  H17 UNL A   1      26.427  18.253  -2.419  1.00  0.00    +0.000 H 
ATOM    114  H18 UNL A   1      25.949  19.952  -2.695  1.00  0.00    +0.000 H 
ATOM     16  C13 UNL A   1      26.162  19.190  -1.976  1.00  0.00    +0.000 C 
BRANCH   16   15
ATOM    111  H15 UNL A   1      27.002  20.406  -0.454  1.00  0.00    +0.000 H 
ATOM     15  C12 UNL A   1      27.360  19.689  -1.163  1.00  0.00    +0.000 C 
ATOM    112  H16 UNL A   1      27.795  18.820  -0.714  1.00  0.00    +0.000 H 
BRANCH   15   14
ATOM    110  H14 UNL A   1      28.023  20.676  -2.890  1.00  0.00    +0.000 H 
ATOM    109  H13 UNL A   1      29.252  19.623  -2.122  1.00  0.00    +0.000 H 
ATOM     14  C11 UNL A   1      28.477  20.347  -1.979  1.00  0.00    +0.000 C 
BRANCH   14   13
ATOM    107  H11 UNL A   1      28.468  21.935  -0.562  1.00  0.00    +0.000 H 
ATOM    108  H12 UNL A   1      30.077  21.309  -1.001  1.00  0.00    +0.000 H 
ATOM     13  C10 UNL A   1      29.108  21.596  -1.349  1.00  0.00    +0.000 C 
BRANCH   13   12
ATOM    105  H9  UNL A   1      28.569  23.495  -2.147  1.00  0.00    +0.000 H 
ATOM    106  H10 UNL A   1      30.299  23.145  -2.169  1.00  0.00    +0.000 H 
ATOM     12  C9  UNL A   1      29.317  22.751  -2.327  1.00  0.00    +0.000 C 
BRANCH   12   11
ATOM     11  N1  UNL A   1      29.225  22.319  -3.704  1.00  0.00    +0.000 N 
ATOM    104  H8  UNL A   1      29.889  21.644  -3.974  1.00  0.00    +0.000 H 
BRANCH   11    9
ATOM      9  C8  UNL A   1      28.359  22.704  -4.686  1.00  0.00    +0.000 C 
ATOM     10  O2  UNL A   1      27.171  22.407  -4.522  1.00  0.00    +0.000 O 
BRANCH    9    8
ATOM    102  H6  UNL A   1      28.976  24.382  -5.811  1.00  0.00    +0.000 H 
ATOM    103  H7  UNL A   1      29.741  22.811  -6.239  1.00  0.00    +0.000 H 
ATOM      8  C7  UNL A   1      28.843  23.334  -5.985  1.00  0.00    +0.000 C 
BRANCH    8    7
ATOM      3  C2  UNL A   1      27.274  20.108  -9.994  1.00  0.00    +0.000 C 
ATOM    100  H4  UNL A   1      28.679  18.897  -8.998  1.00  0.00    +0.000 H 
ATOM      4  C3  UNL A   1      28.204  19.813  -9.000  1.00  0.00    +0.000 C 
ATOM      5  C4  UNL A   1      28.497  20.751  -8.003  1.00  0.00    +0.000 C 
ATOM    101  H5  UNL A   1      29.180  20.524  -7.264  1.00  0.00    +0.000 H 
ATOM      6  C5  UNL A   1      27.858  22.010  -8.012  1.00  0.00    +0.000 C 
ATOM      7  C6  UNL A   1      27.938  23.180  -7.181  1.00  0.00    +0.000 C 
ATOM    138  H42 UNL A   1      25.858  24.023  -9.423  1.00  0.00    +0.000 H 
ATOM    139  H43 UNL A   1      25.995  21.598 -10.802  1.00  0.00    +0.000 H 
ATOM     84  C60 UNL A   1      26.987  24.087  -7.654  1.00  0.00    +0.000 C 
ATOM     94  N8  UNL A   1      26.480  23.553  -8.820  1.00  0.00    +0.000 N 
ATOM     95  C68 UNL A   1      26.953  22.282  -9.031  1.00  0.00    +0.000 C 
ATOM     96  C69 UNL A   1      26.653  21.360 -10.044  1.00  0.00    +0.000 C 
BRANCH    3    2
ATOM      2  O1  UNL A   1      26.945  19.241 -11.003  1.00  0.00    +0.000 O 
BRANCH    2    1
ATOM      1  C1  UNL A   1      27.247  17.878 -10.710  1.00  0.00    +0.000 C 
ATOM     98  H2  UNL A   1      26.686  17.565  -9.854  1.00  0.00    +0.000 H 
ATOM     99  H3  UNL A   1      28.293  17.779 -10.507  1.00  0.00    +0.000 H 
ATOM     97  H1  UNL A   1      26.986  17.267 -11.548  1.00  0.00    +0.000 H 
ENDBRANCH    2    1
ENDBRANCH    3    2
BRANCH   84   85
ATOM     85  C61 UNL A   1      26.597  25.369  -7.073  1.00  0.00    +0.000 C 
ATOM     86  O4  UNL A   1      27.329  26.355  -7.068  1.00  0.00    +0.000 O 
BRANCH   85   87
ATOM    132  H36 UNL A   1      24.430  26.769  -7.858  1.00  0.00    +0.000 H 
ATOM    136  H40 UNL A   1      21.949  25.605  -4.656  1.00  0.00    +0.000 H 
ATOM    137  H41 UNL A   1      23.771  24.307  -3.791  1.00  0.00    +0.000 H 
ATOM     87  C62 UNL A   1      25.275  25.492  -6.399  1.00  0.00    +0.000 C 
ATOM     88  C63 UNL A   1      24.268  26.260  -6.975  1.00  0.00    +0.000 C 
ATOM     89  C64 UNL A   1      23.032  26.325  -6.327  1.00  0.00    +0.000 C 
ATOM     91  C66 UNL A   1      22.855  25.593  -5.150  1.00  0.00    +0.000 C 
ATOM     92  C67 UNL A   1      23.917  24.851  -4.656  1.00  0.00    +0.000 C 
ATOM     93  N7  UNL A   1      25.129  24.799  -5.241  1.00  0.00    +0.000 N 
BRANCH   89   90
ATOM     90  C65 UNL A   1      21.900  27.133  -6.887  1.00  0.00    +0.000 C 
ATOM    133  H37 UNL A   1      21.146  27.259  -6.138  1.00  0.00    +0.000 H 
ATOM    134  H38 UNL A   1      21.483  26.625  -7.731  1.00  0.00    +0.000 H 
ATOM    135  H39 UNL A   1      22.262  28.092  -7.192  1.00  0.00    +0.000 H 
ENDBRANCH   89   90
ENDBRANCH   85   87
ENDBRANCH   84   85
ENDBRANCH    8    7
ENDBRANCH    9    8
ENDBRANCH   11    9
ENDBRANCH   12   11
ENDBRANCH   13   12
ENDBRANCH   14   13
ENDBRANCH   15   14
ENDBRANCH   16   15
ENDBRANCH   17   16
ENDBRANCH   18   17
ENDBRANCH   19   18
ENDBRANCH   21   19
ENDBRANCH   25   24
BRANCH   29   30
ATOM     33  C26 UNL A   1      23.346  29.980   1.448  1.00  0.00    +0.000 C 
ATOM     34  F2  UNL A   1      23.574  30.131   2.761  1.00  0.00    +0.000 F 
ATOM     35  C27 UNL A   1      24.259  30.469   0.526  1.00  0.00    +0.000 C 
ATOM     36  F3  UNL A   1      25.378  31.074   0.946  1.00  0.00    +0.000 F 
ATOM     37  C28 UNL A   1      24.008  30.336  -0.831  1.00  0.00    +0.000 C 
ATOM     38  F4  UNL A   1      24.896  30.797  -1.723  1.00  0.00    +0.000 F 
ATOM     39  C29 UNL A   1      22.835  29.727  -1.268  1.00  0.00    +0.000 C 
ATOM     40  F5  UNL A   1      22.614  29.627  -2.588  1.00  0.00    +0.000 F 
ATOM     30  C24 UNL A   1      21.900  29.218  -0.354  1.00  0.00    +0.000 C 
ATOM     31  C25 UNL A   1      22.185  29.345   1.014  1.00  0.00    +0.000 C 
ATOM     32  F1  UNL A   1      21.319  28.885   1.930  1.00  0.00    +0.000 F 
ENDBRANCH   29   30
BRANCH   46   47
ATOM     47  C35 UNL A   1      14.927  30.764  -1.343  1.00  0.00    +0.000 C 
ATOM     48  C36 UNL A   1      14.646  31.332  -0.093  1.00  0.00    +0.000 C 
ATOM     49  F6  UNL A   1      15.155  30.792   1.024  1.00  0.00    +0.000 F 
ATOM     50  C37 UNL A   1      13.805  32.437   0.018  1.00  0.00    +0.000 C 
ATOM     51  F7  UNL A   1      13.514  32.936   1.227  1.00  0.00    +0.000 F 
ATOM     52  C38 UNL A   1      13.259  33.013  -1.120  1.00  0.00    +0.000 C 
ATOM     53  F8  UNL A   1      12.455  34.080  -1.011  1.00  0.00    +0.000 F 
ATOM     54  C39 UNL A   1      13.539  32.478  -2.368  1.00  0.00    +0.000 C 
ATOM     55  F9  UNL A   1      13.021  33.040  -3.468  1.00  0.00    +0.000 F 
ATOM     56  C40 UNL A   1      14.355  31.357  -2.480  1.00  0.00    +0.000 C 
ATOM     57  F10 UNL A   1      14.598  30.854  -3.700  1.00  0.00    +0.000 F 
ENDBRANCH   46   47
BRANCH   61   62
ATOM     65  C46 UNL A   1      12.088  22.536  -2.855  1.00  0.00    +0.000 C 
ATOM     66  F12 UNL A   1      11.561  21.626  -2.024  1.00  0.00    +0.000 F 
ATOM     67  C47 UNL A   1      11.522  22.748  -4.104  1.00  0.00    +0.000 C 
ATOM     68  F13 UNL A   1      10.436  22.055  -4.474  1.00  0.00    +0.000 F 
ATOM     69  C48 UNL A   1      12.088  23.671  -4.970  1.00  0.00    +0.000 C 
ATOM     70  F14 UNL A   1      11.537  23.886  -6.172  1.00  0.00    +0.000 F 
ATOM     71  C49 UNL A   1      13.231  24.374  -4.594  1.00  0.00    +0.000 C 
ATOM     72  F15 UNL A   1      13.764  25.251  -5.456  1.00  0.00    +0.000 F 
ATOM     62  C44 UNL A   1      13.815  24.184  -3.334  1.00  0.00    +0.000 C 
ATOM     63  C45 UNL A   1      13.216  23.258  -2.467  1.00  0.00    +0.000 C 
ATOM     64  F11 UNL A   1      13.751  23.028  -1.260  1.00  0.00    +0.000 F 
ENDBRANCH   61   62
TORSDOF 21
ENDMDL
MODEL 6
REMARK VINA RESULT:      -9.4     57.333     62.382
ROOT
ATOM    129  H33 UNL A   1      49.945  52.195  18.661  1.00  0.00    +0.000 H 
ATOM     25  C20 UNL A   1      49.322  54.973  18.550  1.00  0.00    +0.000 C 
ATOM     26  C21 UNL A   1      49.507  54.027  17.397  1.00  0.00    +0.000 C 
ATOM     27  N3  UNL A   1      49.421  54.260  16.111  1.00  0.00    +0.000 N 
ATOM     28  C22 UNL A   1      49.724  53.058  15.488  1.00  0.00    +0.000 C 
ATOM     29  C23 UNL A   1      49.716  52.767  14.165  1.00  0.00    +0.000 C 
ATOM     41  C30 UNL A   1      49.369  53.705  13.129  1.00  0.00    +0.000 C 
ATOM     42  C31 UNL A   1      49.266  53.489  11.766  1.00  0.00    +0.000 C 
ATOM     43  C32 UNL A   1      48.947  54.705  11.152  1.00  0.00    +0.000 C 
ATOM     44  C33 UNL A   1      48.807  55.669  12.137  1.00  0.00    +0.000 C 
ATOM     45  N4  UNL A   1      49.072  55.044  13.345  1.00  0.00    +0.000 N 
ATOM     46  C34 UNL A   1      48.458  57.059  11.989  1.00  0.00    +0.000 C 
ATOM     58  C41 UNL A   1      48.322  57.939  13.011  1.00  0.00    +0.000 C 
ATOM     59  N5  UNL A   1      48.477  57.725  14.374  1.00  0.00    +0.000 N 
ATOM     60  C42 UNL A   1      48.257  58.882  14.948  1.00  0.00    +0.000 C 
ATOM     61  C43 UNL A   1      48.265  59.233  16.410  1.00  0.00    +0.000 C 
ATOM     73  C50 UNL A   1      48.509  58.269  17.318  1.00  0.00    +0.000 C 
ATOM     74  C51 UNL A   1      48.540  58.456  18.765  1.00  0.00    +0.000 C 
ATOM     75  C52 UNL A   1      48.853  57.290  19.351  1.00  0.00    +0.000 C 
ATOM     76  C53 UNL A   1      49.011  56.264  18.320  1.00  0.00    +0.000 C 
ATOM     77  N6  UNL A   1      48.784  56.934  17.145  1.00  0.00    +0.000 N 
ATOM     78  C54 UNL A   1      47.958  59.971  14.008  1.00  0.00    +0.000 C 
ATOM     79  C55 UNL A   1      47.972  59.334  12.845  1.00  0.00    +0.000 C 
ATOM     80  C56 UNL A   1      50.042  52.108  16.532  1.00  0.00    +0.000 C 
ATOM     81  C57 UNL A   1      49.860  52.639  17.733  1.00  0.00    +0.000 C 
ATOM    120  H24 UNL A   1      49.402  52.585  11.285  1.00  0.00    +0.000 H 
ATOM    121  H25 UNL A   1      48.834  54.857  10.137  1.00  0.00    +0.000 H 
ATOM    122  H26 UNL A   1      49.052  55.483  14.225  1.00  0.00    +0.000 H 
ATOM    123  H27 UNL A   1      48.352  59.344  19.258  1.00  0.00    +0.000 H 
ATOM    124  H28 UNL A   1      48.964  57.142  20.367  1.00  0.00    +0.000 H 
ATOM    125  H29 UNL A   1      48.816  56.500  16.262  1.00  0.00    +0.000 H 
ATOM    126  H30 UNL A   1      47.784  60.970  14.201  1.00  0.00    +0.000 H 
ATOM    127  H31 UNL A   1      47.761  59.777  11.937  1.00  0.00    +0.000 H 
ATOM    128  H32 UNL A   1      50.369  51.144  16.364  1.00  0.00    +0.000 H 
ENDROOT
BRANCH   25   24
ATOM    130  H34 UNL A   1      51.635  54.832  19.898  1.00  0.00    +0.000 H 
ATOM    131  H35 UNL A   1      52.033  54.013  22.144  1.00  0.00    +0.000 H 
ATOM     82  C58 UNL A   1      50.843  54.511  20.476  1.00  0.00    +0.000 C 
ATOM     83  C59 UNL A   1      51.070  54.078  21.781  1.00  0.00    +0.000 C 
ATOM     21  C16 UNL A   1      49.990  53.733  22.599  1.00  0.00    +0.000 C 
ATOM     22  C17 UNL A   1      48.695  53.702  22.071  1.00  0.00    +0.000 C 
ATOM    118  H22 UNL A   1      47.902  53.406  22.662  1.00  0.00    +0.000 H 
ATOM     23  C18 UNL A   1      48.477  54.074  20.743  1.00  0.00    +0.000 C 
ATOM    119  H23 UNL A   1      47.525  54.027  20.346  1.00  0.00    +0.000 H 
ATOM     24  C19 UNL A   1      49.546  54.510  19.943  1.00  0.00    +0.000 C 
BRANCH   21   19
ATOM     19  C15 UNL A   1      50.189  53.367  24.018  1.00  0.00    +0.000 C 
ATOM     20  O3  UNL A   1      51.145  53.826  24.634  1.00  0.00    +0.000 O 
BRANCH   19   18
ATOM     18  N2  UNL A   1      49.317  52.508  24.639  1.00  0.00    +0.000 N 
ATOM    117  H21 UNL A   1      48.445  52.897  24.879  1.00  0.00    +0.000 H 
BRANCH   18   17
ATOM     17  C14 UNL A   1      49.492  51.109  24.996  1.00  0.00    +0.000 C 
ATOM    115  H19 UNL A   1      49.845  51.053  26.005  1.00  0.00    +0.000 H 
ATOM    116  H20 UNL A   1      48.546  50.622  24.885  1.00  0.00    +0.000 H 
BRANCH   17   16
ATOM    113  H17 UNL A   1      51.311  51.066  23.913  1.00  0.00    +0.000 H 
ATOM    114  H18 UNL A   1      50.777  49.504  24.596  1.00  0.00    +0.000 H 
ATOM     16  C13 UNL A   1      50.492  50.401  24.087  1.00  0.00    +0.000 C 
BRANCH   16   15
ATOM    111  H15 UNL A   1      49.871  48.898  22.725  1.00  0.00    +0.000 H 
ATOM     15  C12 UNL A   1      49.934  49.966  22.729  1.00  0.00    +0.000 C 
ATOM    112  H16 UNL A   1      48.986  50.452  22.631  1.00  0.00    +0.000 H 
BRANCH   15   14
ATOM    110  H14 UNL A   1      51.618  49.759  21.497  1.00  0.00    +0.000 H 
ATOM    109  H13 UNL A   1      50.997  51.434  21.626  1.00  0.00    +0.000 H 
ATOM     14  C11 UNL A   1      50.760  50.397  21.512  1.00  0.00    +0.000 C 
BRANCH   14   13
ATOM    107  H11 UNL A   1      49.018  50.169  20.310  1.00  0.00    +0.000 H 
ATOM    108  H12 UNL A   1      50.368  51.046  19.546  1.00  0.00    +0.000 H 
ATOM     13  C10 UNL A   1      50.075  50.215  20.151  1.00  0.00    +0.000 C 
BRANCH   13   12
ATOM    105  H9  UNL A   1      51.510  49.077  19.066  1.00  0.00    +0.000 H 
ATOM    106  H10 UNL A   1      50.416  48.125  20.072  1.00  0.00    +0.000 H 
ATOM     12  C9  UNL A   1      50.501  48.954  19.402  1.00  0.00    +0.000 C 
BRANCH   12   11
ATOM     11  N1  UNL A   1      49.657  48.692  18.257  1.00  0.00    +0.000 N 
ATOM    104  H8  UNL A   1      50.127  48.348  17.463  1.00  0.00    +0.000 H 
BRANCH   11    9
ATOM      9  C8  UNL A   1      48.309  48.849  18.110  1.00  0.00    +0.000 C 
ATOM     10  O2  UNL A   1      47.608  48.538  19.078  1.00  0.00    +0.000 O 
BRANCH    9    8
ATOM    102  H6  UNL A   1      48.159  50.145  16.449  1.00  0.00    +0.000 H 
ATOM    103  H7  UNL A   1      47.836  48.403  16.132  1.00  0.00    +0.000 H 
ATOM      8  C7  UNL A   1      47.685  49.243  16.777  1.00  0.00    +0.000 C 
BRANCH    8    7
ATOM      3  C2  UNL A   1      42.810  46.969  16.797  1.00  0.00    +0.000 C 
ATOM    100  H4  UNL A   1      44.066  45.281  16.850  1.00  0.00    +0.000 H 
ATOM      4  C3  UNL A   1      44.037  46.312  16.832  1.00  0.00    +0.000 C 
ATOM      5  C4  UNL A   1      45.231  47.043  16.843  1.00  0.00    +0.000 C 
ATOM    101  H5  UNL A   1      46.138  46.552  16.879  1.00  0.00    +0.000 H 
ATOM      6  C5  UNL A   1      45.193  48.454  16.805  1.00  0.00    +0.000 C 
ATOM      7  C6  UNL A   1      46.196  49.483  16.781  1.00  0.00    +0.000 C 
ATOM    138  H42 UNL A   1      43.480  51.114  16.621  1.00  0.00    +0.000 H 
ATOM    139  H43 UNL A   1      41.840  48.854  16.657  1.00  0.00    +0.000 H 
ATOM     84  C60 UNL A   1      45.530  50.710  16.829  1.00  0.00    +0.000 C 
ATOM     94  N8  UNL A   1      44.184  50.430  16.714  1.00  0.00    +0.000 N 
ATOM     95  C68 UNL A   1      43.953  49.078  16.746  1.00  0.00    +0.000 C 
ATOM     96  C69 UNL A   1      42.746  48.365  16.725  1.00  0.00    +0.000 C 
BRANCH    3    2
ATOM      2  O1  UNL A   1      41.604  46.318  16.776  1.00  0.00    +0.000 O 
BRANCH    2    1
ATOM      1  C1  UNL A   1      41.388  45.474  17.906  1.00  0.00    +0.000 C 
ATOM     98  H2  UNL A   1      41.753  45.958  18.788  1.00  0.00    +0.000 H 
ATOM     99  H3  UNL A   1      41.908  44.550  17.765  1.00  0.00    +0.000 H 
ATOM     97  H1  UNL A   1      40.341  45.282  18.013  1.00  0.00    +0.000 H 
ENDBRANCH    2    1
ENDBRANCH    3    2
BRANCH   84   85
ATOM     85  C61 UNL A   1      46.108  52.045  16.950  1.00  0.00    +0.000 C 
ATOM     86  O4  UNL A   1      46.654  52.451  17.971  1.00  0.00    +0.000 O 
BRANCH   85   87
ATOM    132  H36 UNL A   1      45.820  51.500  14.325  1.00  0.00    +0.000 H 
ATOM    136  H40 UNL A   1      45.570  55.509  13.049  1.00  0.00    +0.000 H 
ATOM    137  H41 UNL A   1      45.830  56.192  15.334  1.00  0.00    +0.000 H 
ATOM     87  C62 UNL A   1      45.990  52.996  15.811  1.00  0.00    +0.000 C 
ATOM     88  C63 UNL A   1      45.833  52.514  14.514  1.00  0.00    +0.000 C 
ATOM     89  C64 UNL A   1      45.695  53.439  13.476  1.00  0.00    +0.000 C 
ATOM     91  C66 UNL A   1      45.689  54.801  13.790  1.00  0.00    +0.000 C 
ATOM     92  C67 UNL A   1      45.846  55.184  15.114  1.00  0.00    +0.000 C 
ATOM     93  N7  UNL A   1      46.016  54.315  16.128  1.00  0.00    +0.000 N 
BRANCH   89   90
ATOM     90  C65 UNL A   1      45.522  52.995  12.054  1.00  0.00    +0.000 C 
ATOM    133  H37 UNL A   1      44.842  53.653  11.555  1.00  0.00    +0.000 H 
ATOM    134  H38 UNL A   1      45.135  51.999  12.036  1.00  0.00    +0.000 H 
ATOM    135  H39 UNL A   1      46.470  53.018  11.556  1.00  0.00    +0.000 H 
ENDBRANCH   89   90
ENDBRANCH   85   87
ENDBRANCH   84   85
ENDBRANCH    8    7
ENDBRANCH    9    8
ENDBRANCH   11    9
ENDBRANCH   12   11
ENDBRANCH   13   12
ENDBRANCH   14   13
ENDBRANCH   15   14
ENDBRANCH   16   15
ENDBRANCH   17   16
ENDBRANCH   18   17
ENDBRANCH   19   18
ENDBRANCH   21   19
ENDBRANCH   25   24
BRANCH   29   30
ATOM     33  C26 UNL A   1      51.757  49.688  13.211  1.00  0.00    +0.000 C 
ATOM     34  F2  UNL A   1      53.039  49.358  12.999  1.00  0.00    +0.000 F 
ATOM     35  C27 UNL A   1      50.761  48.736  13.047  1.00  0.00    +0.000 C 
ATOM     36  F3  UNL A   1      51.082  47.483  12.698  1.00  0.00    +0.000 F 
ATOM     37  C28 UNL A   1      49.434  49.085  13.240  1.00  0.00    +0.000 C 
ATOM     38  F4  UNL A   1      48.472  48.164  13.094  1.00  0.00    +0.000 F 
ATOM     39  C29 UNL A   1      49.097  50.393  13.581  1.00  0.00    +0.000 C 
ATOM     40  F5  UNL A   1      47.802  50.703  13.746  1.00  0.00    +0.000 F 
ATOM     30  C24 UNL A   1      50.087  51.371  13.760  1.00  0.00    +0.000 C 
ATOM     31  C25 UNL A   1      51.426  50.989  13.580  1.00  0.00    +0.000 C 
ATOM     32  F1  UNL A   1      52.410  51.888  13.728  1.00  0.00    +0.000 F 
ENDBRANCH   29   30
BRANCH   46   47
ATOM     47  C35 UNL A   1      48.205  57.574  10.603  1.00  0.00    +0.000 C 
ATOM     48  C36 UNL A   1      46.916  57.914  10.170  1.00  0.00    +0.000 C 
ATOM     49  F6  UNL A   1      45.862  57.737  10.982  1.00  0.00    +0.000 F 
ATOM     50  C37 UNL A   1      46.698  58.400   8.883  1.00  0.00    +0.000 C 
ATOM     51  F7  UNL A   1      45.452  58.676   8.475  1.00  0.00    +0.000 F 
ATOM     52  C38 UNL A   1      47.768  58.587   8.020  1.00  0.00    +0.000 C 
ATOM     53  F8  UNL A   1      47.557  59.061   6.783  1.00  0.00    +0.000 F 
ATOM     54  C39 UNL A   1      49.054  58.274   8.434  1.00  0.00    +0.000 C 
ATOM     55  F9  UNL A   1      50.089  58.465   7.604  1.00  0.00    +0.000 F 
ATOM     56  C40 UNL A   1      49.271  57.761   9.709  1.00  0.00    +0.000 C 
ATOM     57  F10 UNL A   1      50.525  57.456  10.077  1.00  0.00    +0.000 F 
ENDBRANCH   46   47
BRANCH   61   62
ATOM     65  C46 UNL A   1      48.749  62.872  17.371  1.00  0.00    +0.000 C 
ATOM     66  F12 UNL A   1      49.753  63.754  17.467  1.00  0.00    +0.000 F 
ATOM     67  C47 UNL A   1      47.460  63.245  17.723  1.00  0.00    +0.000 C 
ATOM     68  F13 UNL A   1      47.215  64.494  18.144  1.00  0.00    +0.000 F 
ATOM     69  C48 UNL A   1      46.429  62.321  17.647  1.00  0.00    +0.000 C 
ATOM     70  F14 UNL A   1      45.181  62.682  17.975  1.00  0.00    +0.000 F 
ATOM     71  C49 UNL A   1      46.688  61.017  17.231  1.00  0.00    +0.000 C 
ATOM     72  F15 UNL A   1      45.675  60.140  17.180  1.00  0.00    +0.000 F 
ATOM     62  C44 UNL A   1      47.980  60.619  16.861  1.00  0.00    +0.000 C 
ATOM     63  C45 UNL A   1      49.004  61.575  16.930  1.00  0.00    +0.000 C 
ATOM     64  F11 UNL A   1      50.260  61.235  16.606  1.00  0.00    +0.000 F 
ENDBRANCH   61   62
TORSDOF 21
ENDMDL
MODEL 7
REMARK VINA RESULT:      -9.4     33.030     38.554
ROOT
ATOM    129  H33 UNL A   1      40.260  27.599  27.799  1.00  0.00    +0.000 H 
ATOM     25  C20 UNL A   1      42.052  27.525  30.013  1.00  0.00    +0.000 C 
ATOM     26  C21 UNL A   1      40.810  28.359  29.865  1.00  0.00    +0.000 C 
ATOM     27  N3  UNL A   1      40.281  29.215  30.702  1.00  0.00    +0.000 N 
ATOM     28  C22 UNL A   1      39.168  29.737  30.057  1.00  0.00    +0.000 C 
ATOM     29  C23 UNL A   1      38.256  30.620  30.529  1.00  0.00    +0.000 C 
ATOM     41  C30 UNL A   1      38.287  31.192  31.850  1.00  0.00    +0.000 C 
ATOM     42  C31 UNL A   1      37.371  32.043  32.445  1.00  0.00    +0.000 C 
ATOM     43  C32 UNL A   1      37.842  32.370  33.721  1.00  0.00    +0.000 C 
ATOM     44  C33 UNL A   1      39.028  31.688  33.939  1.00  0.00    +0.000 C 
ATOM     45  N4  UNL A   1      39.291  30.971  32.781  1.00  0.00    +0.000 N 
ATOM     46  C34 UNL A   1      39.861  31.689  35.113  1.00  0.00    +0.000 C 
ATOM     58  C41 UNL A   1      41.005  30.975  35.256  1.00  0.00    +0.000 C 
ATOM     59  N5  UNL A   1      41.616  30.116  34.352  1.00  0.00    +0.000 N 
ATOM     60  C42 UNL A   1      42.701  29.682  34.944  1.00  0.00    +0.000 C 
ATOM     61  C43 UNL A   1      43.732  28.709  34.443  1.00  0.00    +0.000 C 
ATOM     73  C50 UNL A   1      43.574  28.150  33.228  1.00  0.00    +0.000 C 
ATOM     74  C51 UNL A   1      44.483  27.186  32.614  1.00  0.00    +0.000 C 
ATOM     75  C52 UNL A   1      44.032  26.879  31.387  1.00  0.00    +0.000 C 
ATOM     76  C53 UNL A   1      42.783  27.600  31.142  1.00  0.00    +0.000 C 
ATOM     77  N6  UNL A   1      42.586  28.326  32.290  1.00  0.00    +0.000 N 
ATOM     78  C54 UNL A   1      42.914  30.237  36.288  1.00  0.00    +0.000 C 
ATOM     79  C55 UNL A   1      41.833  30.988  36.444  1.00  0.00    +0.000 C 
ATOM     80  C56 UNL A   1      39.123  29.138  28.741  1.00  0.00    +0.000 C 
ATOM     81  C57 UNL A   1      40.077  28.230  28.595  1.00  0.00    +0.000 C 
ATOM    120  H24 UNL A   1      36.492  32.378  32.019  1.00  0.00    +0.000 H 
ATOM    121  H25 UNL A   1      37.383  33.011  34.387  1.00  0.00    +0.000 H 
ATOM    122  H26 UNL A   1      40.074  30.392  32.641  1.00  0.00    +0.000 H 
ATOM    123  H27 UNL A   1      45.335  26.804  33.053  1.00  0.00    +0.000 H 
ATOM    124  H28 UNL A   1      44.494  26.237  30.724  1.00  0.00    +0.000 H 
ATOM    125  H29 UNL A   1      41.810  28.916  32.428  1.00  0.00    +0.000 H 
ATOM    126  H30 UNL A   1      43.700  30.084  36.940  1.00  0.00    +0.000 H 
ATOM    127  H31 UNL A   1      41.609  31.515  37.302  1.00  0.00    +0.000 H 
ATOM    128  H32 UNL A   1      38.437  29.386  28.011  1.00  0.00    +0.000 H 
ENDROOT
BRANCH   25   24
ATOM    130  H34 UNL A   1      41.561  24.921  29.604  1.00  0.00    +0.000 H 
ATOM    131  H35 UNL A   1      42.371  23.488  27.824  1.00  0.00    +0.000 H 
ATOM     82  C58 UNL A   1      42.152  25.314  28.854  1.00  0.00    +0.000 C 
ATOM     83  C59 UNL A   1      42.582  24.498  27.811  1.00  0.00    +0.000 C 
ATOM     21  C16 UNL A   1      43.301  25.048  26.746  1.00  0.00    +0.000 C 
ATOM     22  C17 UNL A   1      43.695  26.389  26.786  1.00  0.00    +0.000 C 
ATOM    118  H22 UNL A   1      44.262  26.785  26.021  1.00  0.00    +0.000 H 
ATOM     23  C18 UNL A   1      43.318  27.192  27.865  1.00  0.00    +0.000 C 
ATOM    119  H23 UNL A   1      43.630  28.175  27.908  1.00  0.00    +0.000 H 
ATOM     24  C19 UNL A   1      42.518  26.668  28.894  1.00  0.00    +0.000 C 
BRANCH   21   19
ATOM     19  C15 UNL A   1      43.685  24.228  25.576  1.00  0.00    +0.000 C 
ATOM     20  O3  UNL A   1      44.523  24.653  24.786  1.00  0.00    +0.000 O 
BRANCH   19   18
ATOM     18  N2  UNL A   1      43.100  23.005  25.365  1.00  0.00    +0.000 N 
ATOM    117  H21 UNL A   1      42.124  23.024  25.238  1.00  0.00    +0.000 H 
BRANCH   18   17
ATOM     17  C14 UNL A   1      43.708  21.686  25.304  1.00  0.00    +0.000 C 
ATOM    115  H19 UNL A   1      43.873  21.431  24.277  1.00  0.00    +0.000 H 
ATOM    116  H20 UNL A   1      44.628  21.724  25.849  1.00  0.00    +0.000 H 
BRANCH   17   16
ATOM    113  H17 UNL A   1      42.293  20.117  25.159  1.00  0.00    +0.000 H 
ATOM    114  H18 UNL A   1      43.490  19.964  26.477  1.00  0.00    +0.000 H 
ATOM     16  C13 UNL A   1      42.830  20.613  25.940  1.00  0.00    +0.000 C 
BRANCH   16   15
ATOM    111  H15 UNL A   1      42.014  20.657  27.898  1.00  0.00    +0.000 H 
ATOM     15  C12 UNL A   1      41.815  21.133  26.961  1.00  0.00    +0.000 C 
ATOM    112  H16 UNL A   1      41.938  22.196  26.985  1.00  0.00    +0.000 H 
BRANCH   15   14
ATOM    110  H14 UNL A   1      39.942  20.307  27.413  1.00  0.00    +0.000 H 
ATOM    109  H13 UNL A   1      40.311  20.387  25.662  1.00  0.00    +0.000 H 
ATOM     14  C11 UNL A   1      40.344  20.886  26.608  1.00  0.00    +0.000 C 
BRANCH   14   13
ATOM    107  H11 UNL A   1      39.255  22.480  27.505  1.00  0.00    +0.000 H 
ATOM    108  H12 UNL A   1      40.017  22.857  25.939  1.00  0.00    +0.000 H 
ATOM     13  C10 UNL A   1      39.467  22.141  26.513  1.00  0.00    +0.000 C 
BRANCH   13   12
ATOM    105  H9  UNL A   1      38.318  21.330  24.915  1.00  0.00    +0.000 H 
ATOM    106  H10 UNL A   1      37.472  21.428  26.461  1.00  0.00    +0.000 H 
ATOM     12  C9  UNL A   1      38.140  21.923  25.788  1.00  0.00    +0.000 C 
BRANCH   12   11
ATOM     11  N1  UNL A   1      37.529  23.171  25.388  1.00  0.00    +0.000 N 
ATOM    104  H8  UNL A   1      38.160  23.870  25.099  1.00  0.00    +0.000 H 
BRANCH   11    9
ATOM      9  C8  UNL A   1      36.212  23.528  25.350  1.00  0.00    +0.000 C 
ATOM     10  O2  UNL A   1      35.592  23.464  26.417  1.00  0.00    +0.000 O 
BRANCH    9    8
ATOM    102  H6  UNL A   1      35.235  24.883  24.058  1.00  0.00    +0.000 H 
ATOM    103  H7  UNL A   1      36.192  23.580  23.270  1.00  0.00    +0.000 H 
ATOM      8  C7  UNL A   1      35.501  23.847  24.042  1.00  0.00    +0.000 C 
BRANCH    8    7
ATOM      3  C2  UNL A   1      33.105  19.039  24.328  1.00  0.00    +0.000 C 
ATOM    100  H4  UNL A   1      34.969  18.639  25.221  1.00  0.00    +0.000 H 
ATOM      4  C3  UNL A   1      34.379  19.365  24.786  1.00  0.00    +0.000 C 
ATOM      5  C4  UNL A   1      34.863  20.673  24.660  1.00  0.00    +0.000 C 
ATOM    101  H5  UNL A   1      35.804  20.911  25.011  1.00  0.00    +0.000 H 
ATOM      6  C5  UNL A   1      34.062  21.664  24.054  1.00  0.00    +0.000 C 
ATOM      7  C6  UNL A   1      34.250  23.057  23.751  1.00  0.00    +0.000 C 
ATOM    138  H42 UNL A   1      31.362  22.445  22.591  1.00  0.00    +0.000 H 
ATOM    139  H43 UNL A   1      31.378  19.748  23.314  1.00  0.00    +0.000 H 
ATOM     84  C60 UNL A   1      33.050  23.527  23.213  1.00  0.00    +0.000 C 
ATOM     94  N8  UNL A   1      32.237  22.426  23.043  1.00  0.00    +0.000 N 
ATOM     95  C68 UNL A   1      32.806  21.301  23.585  1.00  0.00    +0.000 C 
ATOM     96  C69 UNL A   1      32.306  19.996  23.692  1.00  0.00    +0.000 C 
BRANCH    3    2
ATOM      2  O1  UNL A   1      32.571  17.780  24.410  1.00  0.00    +0.000 O 
BRANCH    2    1
ATOM      1  C1  UNL A   1      32.685  17.192  25.706  1.00  0.00    +0.000 C 
ATOM     98  H2  UNL A   1      31.720  16.864  26.034  1.00  0.00    +0.000 H 
ATOM     99  H3  UNL A   1      33.069  17.916  26.394  1.00  0.00    +0.000 H 
ATOM     97  H1  UNL A   1      33.348  16.355  25.660  1.00  0.00    +0.000 H 
ENDBRANCH    2    1
ENDBRANCH    3    2
BRANCH   84   85
ATOM     85  C61 UNL A   1      32.696  24.900  22.862  1.00  0.00    +0.000 C 
ATOM     86  O4  UNL A   1      32.724  25.328  21.712  1.00  0.00    +0.000 O 
BRANCH   85   87
ATOM    132  H36 UNL A   1      33.567  27.425  23.229  1.00  0.00    +0.000 H 
ATOM    136  H40 UNL A   1      31.240  28.219  26.652  1.00  0.00    +0.000 H 
ATOM    137  H41 UNL A   1      30.358  25.994  26.498  1.00  0.00    +0.000 H 
ATOM     87  C62 UNL A   1      32.337  25.859  23.943  1.00  0.00    +0.000 C 
ATOM     88  C63 UNL A   1      32.890  27.137  23.952  1.00  0.00    +0.000 C 
ATOM     89  C64 UNL A   1      32.504  28.018  24.965  1.00  0.00    +0.000 C 
ATOM     91  C66 UNL A   1      31.560  27.587  25.902  1.00  0.00    +0.000 C 
ATOM     92  C67 UNL A   1      31.062  26.296  25.806  1.00  0.00    +0.000 C 
ATOM     93  N7  UNL A   1      31.443  25.416  24.861  1.00  0.00    +0.000 N 
BRANCH   89   90
ATOM     90  C65 UNL A   1      33.057  29.409  25.042  1.00  0.00    +0.000 C 
ATOM    133  H37 UNL A   1      32.360  30.043  25.549  1.00  0.00    +0.000 H 
ATOM    134  H38 UNL A   1      33.224  29.781  24.053  1.00  0.00    +0.000 H 
ATOM    135  H39 UNL A   1      33.982  29.396  25.579  1.00  0.00    +0.000 H 
ENDBRANCH   89   90
ENDBRANCH   85   87
ENDBRANCH   84   85
ENDBRANCH    8    7
ENDBRANCH    9    8
ENDBRANCH   11    9
ENDBRANCH   12   11
ENDBRANCH   13   12
ENDBRANCH   14   13
ENDBRANCH   15   14
ENDBRANCH   16   15
ENDBRANCH   17   16
ENDBRANCH   18   17
ENDBRANCH   19   18
ENDBRANCH   21   19
ENDBRANCH   25   24
BRANCH   29   30
ATOM     33  C26 UNL A   1      36.071  32.632  28.134  1.00  0.00    +0.000 C 
ATOM     34  F2  UNL A   1      36.041  33.856  27.590  1.00  0.00    +0.000 F 
ATOM     35  C27 UNL A   1      35.058  31.725  27.856  1.00  0.00    +0.000 C 
ATOM     36  F3  UNL A   1      34.061  32.066  27.028  1.00  0.00    +0.000 F 
ATOM     37  C28 UNL A   1      35.076  30.469  28.442  1.00  0.00    +0.000 C 
ATOM     38  F4  UNL A   1      34.105  29.588  28.165  1.00  0.00    +0.000 F 
ATOM     39  C29 UNL A   1      36.099  30.122  29.320  1.00  0.00    +0.000 C 
ATOM     40  F5  UNL A   1      36.081  28.903  29.883  1.00  0.00    +0.000 F 
ATOM     30  C24 UNL A   1      37.138  31.019  29.611  1.00  0.00    +0.000 C 
ATOM     31  C25 UNL A   1      37.110  32.277  28.989  1.00  0.00    +0.000 C 
ATOM     32  F1  UNL A   1      38.074  33.176  29.242  1.00  0.00    +0.000 F 
ENDBRANCH   29   30
BRANCH   46   47
ATOM     47  C35 UNL A   1      39.427  32.527  36.280  1.00  0.00    +0.000 C 
ATOM     48  C36 UNL A   1      38.501  32.052  37.220  1.00  0.00    +0.000 C 
ATOM     49  F6  UNL A   1      37.942  30.842  37.065  1.00  0.00    +0.000 F 
ATOM     50  C37 UNL A   1      38.115  32.838  38.303  1.00  0.00    +0.000 C 
ATOM     51  F7  UNL A   1      37.195  32.382  39.164  1.00  0.00    +0.000 F 
ATOM     52  C38 UNL A   1      38.672  34.095  38.484  1.00  0.00    +0.000 C 
ATOM     53  F8  UNL A   1      38.304  34.847  39.531  1.00  0.00    +0.000 F 
ATOM     54  C39 UNL A   1      39.603  34.577  37.576  1.00  0.00    +0.000 C 
ATOM     55  F9  UNL A   1      40.151  35.786  37.757  1.00  0.00    +0.000 F 
ATOM     56  C40 UNL A   1      39.970  33.806  36.477  1.00  0.00    +0.000 C 
ATOM     57  F10 UNL A   1      40.864  34.303  35.610  1.00  0.00    +0.000 F 
ENDBRANCH   46   47
BRANCH   61   62
ATOM     65  C46 UNL A   1      45.930  26.890  36.945  1.00  0.00    +0.000 C 
ATOM     66  F12 UNL A   1      45.834  25.855  37.790  1.00  0.00    +0.000 F 
ATOM     67  C47 UNL A   1      47.102  27.629  36.881  1.00  0.00    +0.000 C 
ATOM     68  F13 UNL A   1      48.147  27.297  37.652  1.00  0.00    +0.000 F 
ATOM     69  C48 UNL A   1      47.186  28.716  36.025  1.00  0.00    +0.000 C 
ATOM     70  F14 UNL A   1      48.322  29.424  35.952  1.00  0.00    +0.000 F 
ATOM     71  C49 UNL A   1      46.092  29.075  35.240  1.00  0.00    +0.000 C 
ATOM     72  F15 UNL A   1      46.197  30.139  34.431  1.00  0.00    +0.000 F 
ATOM     62  C44 UNL A   1      44.901  28.338  35.281  1.00  0.00    +0.000 C 
ATOM     63  C45 UNL A   1      44.844  27.233  36.141  1.00  0.00    +0.000 C 
ATOM     64  F11 UNL A   1      43.718  26.510  36.229  1.00  0.00    +0.000 F 
ENDBRANCH   61   62
TORSDOF 21
ENDMDL
MODEL 8
REMARK VINA RESULT:      -9.3     33.043     40.393
ROOT
ATOM    129  H33 UNL A   1      25.632  34.181  44.186  1.00  0.00    +0.000 H 
ATOM     25  C20 UNL A   1      24.584  36.222  45.874  1.00  0.00    +0.000 C 
ATOM     26  C21 UNL A   1      26.002  36.060  45.402  1.00  0.00    +0.000 C 
ATOM     27  N3  UNL A   1      27.049  36.805  45.650  1.00  0.00    +0.000 N 
ATOM     28  C22 UNL A   1      28.114  36.188  45.009  1.00  0.00    +0.000 C 
ATOM     29  C23 UNL A   1      29.400  36.601  44.919  1.00  0.00    +0.000 C 
ATOM     41  C30 UNL A   1      29.905  37.817  45.501  1.00  0.00    +0.000 C 
ATOM     42  C31 UNL A   1      31.177  38.357  45.409  1.00  0.00    +0.000 C 
ATOM     43  C32 UNL A   1      31.212  39.527  46.175  1.00  0.00    +0.000 C 
ATOM     44  C33 UNL A   1      29.952  39.741  46.708  1.00  0.00    +0.000 C 
ATOM     45  N4  UNL A   1      29.160  38.682  46.289  1.00  0.00    +0.000 N 
ATOM     46  C34 UNL A   1      29.501  40.828  47.537  1.00  0.00    +0.000 C 
ATOM     58  C41 UNL A   1      28.237  40.976  48.006  1.00  0.00    +0.000 C 
ATOM     59  N5  UNL A   1      27.131  40.159  47.809  1.00  0.00    +0.000 N 
ATOM     60  C42 UNL A   1      26.150  40.714  48.475  1.00  0.00    +0.000 C 
ATOM     61  C43 UNL A   1      24.717  40.274  48.596  1.00  0.00    +0.000 C 
ATOM     73  C50 UNL A   1      24.309  39.171  47.941  1.00  0.00    +0.000 C 
ATOM     74  C51 UNL A   1      22.953  38.630  47.956  1.00  0.00    +0.000 C 
ATOM     75  C52 UNL A   1      22.923  37.504  47.226  1.00  0.00    +0.000 C 
ATOM     76  C53 UNL A   1      24.251  37.263  46.663  1.00  0.00    +0.000 C 
ATOM     77  N6  UNL A   1      25.008  38.305  47.136  1.00  0.00    +0.000 N 
ATOM     78  C54 UNL A   1      26.528  41.940  49.192  1.00  0.00    +0.000 C 
ATOM     79  C55 UNL A   1      27.799  42.075  48.841  1.00  0.00    +0.000 C 
ATOM     80  C56 UNL A   1      27.597  34.981  44.398  1.00  0.00    +0.000 C 
ATOM     81  C57 UNL A   1      26.285  34.889  44.557  1.00  0.00    +0.000 C 
ATOM    120  H24 UNL A   1      31.963  37.963  44.868  1.00  0.00    +0.000 H 
ATOM    121  H25 UNL A   1      32.039  40.129  46.318  1.00  0.00    +0.000 H 
ATOM    122  H26 UNL A   1      28.210  38.562  46.517  1.00  0.00    +0.000 H 
ATOM    123  H27 UNL A   1      22.147  39.047  48.449  1.00  0.00    +0.000 H 
ATOM    124  H28 UNL A   1      22.094  36.905  47.084  1.00  0.00    +0.000 H 
ATOM    125  H29 UNL A   1      25.961  38.421  46.921  1.00  0.00    +0.000 H 
ATOM    126  H30 UNL A   1      25.955  42.538  49.808  1.00  0.00    +0.000 H 
ATOM    127  H31 UNL A   1      28.401  42.863  49.127  1.00  0.00    +0.000 H 
ATOM    128  H32 UNL A   1      28.176  34.283  43.906  1.00  0.00    +0.000 H 
ENDROOT
BRANCH   25   24
ATOM    130  H34 UNL A   1      22.671  36.361  44.001  1.00  0.00    +0.000 H 
ATOM    131  H35 UNL A   1      20.943  34.743  43.477  1.00  0.00    +0.000 H 
ATOM     82  C58 UNL A   1      22.634  35.464  44.510  1.00  0.00    +0.000 C 
ATOM     83  C59 UNL A   1      21.665  34.520  44.179  1.00  0.00    +0.000 C 
ATOM     21  C16 UNL A   1      21.672  33.266  44.800  1.00  0.00    +0.000 C 
ATOM     22  C17 UNL A   1      22.571  33.006  45.839  1.00  0.00    +0.000 C 
ATOM    118  H22 UNL A   1      22.548  32.097  46.327  1.00  0.00    +0.000 H 
ATOM     23  C18 UNL A   1      23.500  33.978  46.214  1.00  0.00    +0.000 C 
ATOM    119  H23 UNL A   1      24.147  33.795  46.998  1.00  0.00    +0.000 H 
ATOM     24  C19 UNL A   1      23.559  35.205  45.533  1.00  0.00    +0.000 C 
BRANCH   21   19
ATOM     19  C15 UNL A   1      20.720  32.207  44.399  1.00  0.00    +0.000 C 
ATOM     20  O3  UNL A   1      21.019  31.029  44.566  1.00  0.00    +0.000 O 
BRANCH   19   18
ATOM     18  N2  UNL A   1      19.515  32.538  43.833  1.00  0.00    +0.000 N 
ATOM    117  H21 UNL A   1      19.249  33.481  43.934  1.00  0.00    +0.000 H 
BRANCH   18   17
ATOM     17  C14 UNL A   1      18.574  31.702  43.104  1.00  0.00    +0.000 C 
ATOM    115  H19 UNL A   1      17.988  32.325  42.460  1.00  0.00    +0.000 H 
ATOM    116  H20 UNL A   1      19.137  30.984  42.546  1.00  0.00    +0.000 H 
BRANCH   17   16
ATOM    113  H17 UNL A   1      17.947  31.122  45.042  1.00  0.00    +0.000 H 
ATOM    114  H18 UNL A   1      16.649  31.299  43.827  1.00  0.00    +0.000 H 
ATOM     16  C13 UNL A   1      17.636  30.940  44.035  1.00  0.00    +0.000 C 
BRANCH   16   15
ATOM    111  H15 UNL A   1      17.929  29.229  42.816  1.00  0.00    +0.000 H 
ATOM     15  C12 UNL A   1      17.598  29.426  43.815  1.00  0.00    +0.000 C 
ATOM    112  H16 UNL A   1      18.229  29.002  44.568  1.00  0.00    +0.000 H 
BRANCH   15   14
ATOM    110  H14 UNL A   1      15.571  29.262  43.305  1.00  0.00    +0.000 H 
ATOM    109  H13 UNL A   1      15.935  28.888  45.019  1.00  0.00    +0.000 H 
ATOM     14  C11 UNL A   1      16.224  28.771  43.995  1.00  0.00    +0.000 C 
BRANCH   14   13
ATOM    107  H11 UNL A   1      17.082  26.992  43.201  1.00  0.00    +0.000 H 
ATOM    108  H12 UNL A   1      15.962  26.760  44.568  1.00  0.00    +0.000 H 
ATOM     13  C10 UNL A   1      16.154  27.277  43.651  1.00  0.00    +0.000 C 
BRANCH   13   12
ATOM    105  H9  UNL A   1      14.457  27.790  42.473  1.00  0.00    +0.000 H 
ATOM    106  H10 UNL A   1      15.460  26.498  41.807  1.00  0.00    +0.000 H 
ATOM     12  C9  UNL A   1      15.023  26.909  42.693  1.00  0.00    +0.000 C 
BRANCH   12   11
ATOM     11  N1  UNL A   1      14.137  25.914  43.257  1.00  0.00    +0.000 N 
ATOM    104  H8  UNL A   1      13.917  26.043  44.208  1.00  0.00    +0.000 H 
BRANCH   11    9
ATOM      9  C8  UNL A   1      13.560  24.824  42.672  1.00  0.00    +0.000 C 
ATOM     10  O2  UNL A   1      12.326  24.805  42.637  1.00  0.00    +0.000 O 
BRANCH    9    8
ATOM    102  H6  UNL A   1      15.324  23.987  41.867  1.00  0.00    +0.000 H 
ATOM    103  H7  UNL A   1      14.446  22.983  43.075  1.00  0.00    +0.000 H 
ATOM      8  C7  UNL A   1      14.381  23.624  42.220  1.00  0.00    +0.000 C 
BRANCH    8    7
ATOM      3  C2  UNL A   1      11.135  19.491  41.070  1.00  0.00    +0.000 C 
ATOM    100  H4  UNL A   1      10.983  19.581  43.168  1.00  0.00    +0.000 H 
ATOM      4  C3  UNL A   1      11.411  20.009  42.333  1.00  0.00    +0.000 C 
ATOM      5  C4  UNL A   1      12.266  21.109  42.475  1.00  0.00    +0.000 C 
ATOM    101  H5  UNL A   1      12.459  21.495  43.412  1.00  0.00    +0.000 H 
ATOM      6  C5  UNL A   1      12.864  21.688  41.335  1.00  0.00    +0.000 C 
ATOM      7  C6  UNL A   1      13.780  22.775  41.128  1.00  0.00    +0.000 C 
ATOM    138  H42 UNL A   1      13.308  21.655  38.198  1.00  0.00    +0.000 H 
ATOM    139  H43 UNL A   1      11.573  19.617  38.996  1.00  0.00    +0.000 H 
ATOM     84  C60 UNL A   1      13.940  22.922  39.748  1.00  0.00    +0.000 C 
ATOM     94  N8  UNL A   1      13.282  21.862  39.161  1.00  0.00    +0.000 N 
ATOM     95  C68 UNL A   1      12.587  21.132  40.092  1.00  0.00    +0.000 C 
ATOM     96  C69 UNL A   1      11.742  20.025  39.929  1.00  0.00    +0.000 C 
BRANCH    3    2
ATOM      2  O1  UNL A   1      10.316  18.413  40.858  1.00  0.00    +0.000 O 
BRANCH    2    1
ATOM      1  C1  UNL A   1      10.524  17.773  39.599  1.00  0.00    +0.000 C 
ATOM     98  H2  UNL A   1      11.337  18.247  39.089  1.00  0.00    +0.000 H 
ATOM     99  H3  UNL A   1       9.637  17.853  39.008  1.00  0.00    +0.000 H 
ATOM     97  H1  UNL A   1      10.757  16.742  39.758  1.00  0.00    +0.000 H 
ENDBRANCH    2    1
ENDBRANCH    3    2
BRANCH   84   85
ATOM     85  C61 UNL A   1      14.671  23.963  39.031  1.00  0.00    +0.000 C 
ATOM     86  O4  UNL A   1      14.731  25.128  39.414  1.00  0.00    +0.000 O 
BRANCH   85   87
ATOM    132  H36 UNL A   1      14.012  24.763  36.542  1.00  0.00    +0.000 H 
ATOM    136  H40 UNL A   1      17.191  22.814  34.577  1.00  0.00    +0.000 H 
ATOM    137  H41 UNL A   1      17.927  21.992  36.707  1.00  0.00    +0.000 H 
ATOM     87  C62 UNL A   1      15.336  23.630  37.741  1.00  0.00    +0.000 C 
ATOM     88  C63 UNL A   1      14.848  24.158  36.549  1.00  0.00    +0.000 C 
ATOM     89  C64 UNL A   1      15.518  23.847  35.363  1.00  0.00    +0.000 C 
ATOM     91  C66 UNL A   1      16.662  23.047  35.432  1.00  0.00    +0.000 C 
ATOM     92  C67 UNL A   1      17.075  22.573  36.668  1.00  0.00    +0.000 C 
ATOM     93  N7  UNL A   1      16.428  22.829  37.821  1.00  0.00    +0.000 N 
BRANCH   89   90
ATOM     90  C65 UNL A   1      15.051  24.377  34.041  1.00  0.00    +0.000 C 
ATOM    133  H37 UNL A   1      14.003  24.190  33.931  1.00  0.00    +0.000 H 
ATOM    134  H38 UNL A   1      15.585  23.891  33.253  1.00  0.00    +0.000 H 
ATOM    135  H39 UNL A   1      15.231  25.431  33.996  1.00  0.00    +0.000 H 
ENDBRANCH   89   90
ENDBRANCH   85   87
ENDBRANCH   84   85
ENDBRANCH    8    7
ENDBRANCH    9    8
ENDBRANCH   11    9
ENDBRANCH   12   11
ENDBRANCH   13   12
ENDBRANCH   14   13
ENDBRANCH   15   14
ENDBRANCH   16   15
ENDBRANCH   17   16
ENDBRANCH   18   17
ENDBRANCH   19   18
ENDBRANCH   21   19
ENDBRANCH   25   24
BRANCH   29   30
ATOM     33  C26 UNL A   1      31.748  33.744  43.978  1.00  0.00    +0.000 C 
ATOM     34  F2  UNL A   1      32.260  32.639  44.537  1.00  0.00    +0.000 F 
ATOM     35  C27 UNL A   1      32.107  34.096  42.685  1.00  0.00    +0.000 C 
ATOM     36  F3  UNL A   1      32.950  33.321  41.989  1.00  0.00    +0.000 F 
ATOM     37  C28 UNL A   1      31.598  35.254  42.118  1.00  0.00    +0.000 C 
ATOM     38  F4  UNL A   1      31.935  35.588  40.865  1.00  0.00    +0.000 F 
ATOM     39  C29 UNL A   1      30.740  36.071  42.849  1.00  0.00    +0.000 C 
ATOM     40  F5  UNL A   1      30.276  37.193  42.277  1.00  0.00    +0.000 F 
ATOM     30  C24 UNL A   1      30.356  35.732  44.155  1.00  0.00    +0.000 C 
ATOM     31  C25 UNL A   1      30.867  34.544  44.701  1.00  0.00    +0.000 C 
ATOM     32  F1  UNL A   1      30.540  34.180  45.950  1.00  0.00    +0.000 F 
ENDBRANCH   29   30
BRANCH   46   47
ATOM     47  C35 UNL A   1      30.494  41.893  47.899  1.00  0.00    +0.000 C 
ATOM     48  C36 UNL A   1      31.387  41.732  48.968  1.00  0.00    +0.000 C 
ATOM     49  F6  UNL A   1      31.337  40.627  49.729  1.00  0.00    +0.000 F 
ATOM     50  C37 UNL A   1      32.309  42.725  49.285  1.00  0.00    +0.000 C 
ATOM     51  F7  UNL A   1      33.122  42.570  50.339  1.00  0.00    +0.000 F 
ATOM     52  C38 UNL A   1      32.379  43.880  48.520  1.00  0.00    +0.000 C 
ATOM     53  F8  UNL A   1      33.272  44.833  48.823  1.00  0.00    +0.000 F 
ATOM     54  C39 UNL A   1      31.517  44.052  47.447  1.00  0.00    +0.000 C 
ATOM     55  F9  UNL A   1      31.592  45.162  46.700  1.00  0.00    +0.000 F 
ATOM     56  C40 UNL A   1      30.575  43.074  47.145  1.00  0.00    +0.000 C 
ATOM     57  F10 UNL A   1      29.747  43.273  46.108  1.00  0.00    +0.000 F 
ENDBRANCH   46   47
BRANCH   61   62
ATOM     65  C46 UNL A   1      22.187  42.913  49.614  1.00  0.00    +0.000 C 
ATOM     66  F12 UNL A   1      21.601  43.993  49.080  1.00  0.00    +0.000 F 
ATOM     67  C47 UNL A   1      21.913  42.551  50.925  1.00  0.00    +0.000 C 
ATOM     68  F13 UNL A   1      21.047  43.271  51.653  1.00  0.00    +0.000 F 
ATOM     69  C48 UNL A   1      22.543  41.449  51.483  1.00  0.00    +0.000 C 
ATOM     70  F14 UNL A   1      22.270  41.090  52.744  1.00  0.00    +0.000 F 
ATOM     71  C49 UNL A   1      23.460  40.714  50.734  1.00  0.00    +0.000 C 
ATOM     72  F15 UNL A   1      24.064  39.662  51.302  1.00  0.00    +0.000 F 
ATOM     62  C44 UNL A   1      23.746  41.056  49.405  1.00  0.00    +0.000 C 
ATOM     63  C45 UNL A   1      23.085  42.164  48.856  1.00  0.00    +0.000 C 
ATOM     64  F11 UNL A   1      23.342  42.540  47.595  1.00  0.00    +0.000 F 
ENDBRANCH   61   62
TORSDOF 21
ENDMDL
MODEL 9
REMARK VINA RESULT:      -9.3     44.669     50.455
ROOT
ATOM    129  H33 UNL A   1      15.207  56.587   4.683  1.00  0.00    +0.000 H 
ATOM     25  C20 UNL A   1      14.091  54.001   5.110  1.00  0.00    +0.000 C 
ATOM     26  C21 UNL A   1      15.004  54.435   3.998  1.00  0.00    +0.000 C 
ATOM     27  N3  UNL A   1      15.485  53.736   3.000  1.00  0.00    +0.000 N 
ATOM     28  C22 UNL A   1      16.235  54.626   2.243  1.00  0.00    +0.000 C 
ATOM     29  C23 UNL A   1      16.978  54.376   1.139  1.00  0.00    +0.000 C 
ATOM     41  C30 UNL A   1      17.126  53.077   0.536  1.00  0.00    +0.000 C 
ATOM     42  C31 UNL A   1      17.911  52.710  -0.544  1.00  0.00    +0.000 C 
ATOM     43  C32 UNL A   1      17.699  51.350  -0.797  1.00  0.00    +0.000 C 
ATOM     44  C33 UNL A   1      16.816  50.860   0.151  1.00  0.00    +0.000 C 
ATOM     45  N4  UNL A   1      16.471  51.931   0.961  1.00  0.00    +0.000 N 
ATOM     46  C34 UNL A   1      16.324  49.516   0.309  1.00  0.00    +0.000 C 
ATOM     58  C41 UNL A   1      15.471  49.110   1.282  1.00  0.00    +0.000 C 
ATOM     59  N5  UNL A   1      14.898  49.852   2.306  1.00  0.00    +0.000 N 
ATOM     60  C42 UNL A   1      14.138  49.019   2.973  1.00  0.00    +0.000 C 
ATOM     61  C43 UNL A   1      13.300  49.270   4.196  1.00  0.00    +0.000 C 
ATOM     73  C50 UNL A   1      13.293  50.497   4.749  1.00  0.00    +0.000 C 
ATOM     74  C51 UNL A   1      12.539  50.887   5.937  1.00  0.00    +0.000 C 
ATOM     75  C52 UNL A   1      12.739  52.193   6.174  1.00  0.00    +0.000 C 
ATOM     76  C53 UNL A   1      13.664  52.725   5.173  1.00  0.00    +0.000 C 
ATOM     77  N6  UNL A   1      13.944  51.647   4.372  1.00  0.00    +0.000 N 
ATOM     78  C54 UNL A   1      14.125  47.653   2.432  1.00  0.00    +0.000 C 
ATOM     79  C55 UNL A   1      14.984  47.754   1.426  1.00  0.00    +0.000 C 
ATOM     80  C56 UNL A   1      16.109  55.924   2.868  1.00  0.00    +0.000 C 
ATOM     81  C57 UNL A   1      15.412  55.848   3.993  1.00  0.00    +0.000 C 
ATOM    120  H24 UNL A   1      18.544  53.333  -1.071  1.00  0.00    +0.000 H 
ATOM    121  H25 UNL A   1      18.128  50.805  -1.562  1.00  0.00    +0.000 H 
ATOM    122  H26 UNL A   1      15.852  51.885   1.725  1.00  0.00    +0.000 H 
ATOM    123  H27 UNL A   1      11.946  50.259   6.503  1.00  0.00    +0.000 H 
ATOM    124  H28 UNL A   1      12.309  52.734   6.941  1.00  0.00    +0.000 H 
ATOM    125  H29 UNL A   1      14.552  51.692   3.599  1.00  0.00    +0.000 H 
ATOM    126  H30 UNL A   1      13.589  46.831   2.750  1.00  0.00    +0.000 H 
ATOM    127  H31 UNL A   1      15.268  46.967   0.822  1.00  0.00    +0.000 H 
ATOM    128  H32 UNL A   1      16.509  56.796   2.487  1.00  0.00    +0.000 H 
ENDROOT
BRANCH   25   24
ATOM    130  H34 UNL A   1      11.981  55.643   4.914  1.00  0.00    +0.000 H 
ATOM    131  H35 UNL A   1      11.206  57.310   6.493  1.00  0.00    +0.000 H 
ATOM     82  C58 UNL A   1      12.467  55.763   5.816  1.00  0.00    +0.000 C 
ATOM     83  C59 UNL A   1      11.995  56.693   6.738  1.00  0.00    +0.000 C 
ATOM     21  C16 UNL A   1      12.592  56.790   7.999  1.00  0.00    +0.000 C 
ATOM     22  C17 UNL A   1      13.738  56.043   8.289  1.00  0.00    +0.000 C 
ATOM    118  H22 UNL A   1      14.205  56.146   9.204  1.00  0.00    +0.000 H 
ATOM     23  C18 UNL A   1      14.250  55.157   7.339  1.00  0.00    +0.000 C 
ATOM    119  H23 UNL A   1      15.110  54.625   7.543  1.00  0.00    +0.000 H 
ATOM     24  C19 UNL A   1      13.600  54.988   6.105  1.00  0.00    +0.000 C 
BRANCH   21   19
ATOM     19  C15 UNL A   1      12.052  57.697   9.036  1.00  0.00    +0.000 C 
ATOM     20  O3  UNL A   1      12.236  58.906   8.940  1.00  0.00    +0.000 O 
BRANCH   19   18
ATOM     18  N2  UNL A   1      11.360  57.189  10.106  1.00  0.00    +0.000 N 
ATOM    117  H21 UNL A   1      11.862  57.156  10.953  1.00  0.00    +0.000 H 
BRANCH   18   17
ATOM     17  C14 UNL A   1       9.994  56.692  10.175  1.00  0.00    +0.000 C 
ATOM    115  H19 UNL A   1       9.647  56.779  11.184  1.00  0.00    +0.000 H 
ATOM    116  H20 UNL A   1       9.399  57.278   9.506  1.00  0.00    +0.000 H 
BRANCH   17   16
ATOM    113  H17 UNL A   1       8.967  54.842  10.122  1.00  0.00    +0.000 H 
ATOM    114  H18 UNL A   1       9.939  55.232   8.675  1.00  0.00    +0.000 H 
ATOM     16  C13 UNL A   1       9.887  55.233   9.743  1.00  0.00    +0.000 C 
BRANCH   16   15
ATOM    111  H15 UNL A   1      11.939  54.883  10.153  1.00  0.00    +0.000 H 
ATOM     15  C12 UNL A   1      11.025  54.332  10.230  1.00  0.00    +0.000 C 
ATOM    112  H16 UNL A   1      10.773  54.055  11.233  1.00  0.00    +0.000 H 
BRANCH   15   14
ATOM    110  H14 UNL A   1      12.047  52.533   9.890  1.00  0.00    +0.000 H 
ATOM    109  H13 UNL A   1      11.319  53.258   8.423  1.00  0.00    +0.000 H 
ATOM     14  C11 UNL A   1      11.197  53.019   9.459  1.00  0.00    +0.000 C 
BRANCH   14   13
ATOM    107  H11 UNL A   1       9.848  51.852  10.621  1.00  0.00    +0.000 H 
ATOM    108  H12 UNL A   1       9.201  52.461   9.076  1.00  0.00    +0.000 H 
ATOM     13  C10 UNL A   1      10.036  52.023   9.582  1.00  0.00    +0.000 C 
BRANCH   13   12
ATOM    105  H9  UNL A   1       9.605  50.550   8.106  1.00  0.00    +0.000 H 
ATOM    106  H10 UNL A   1      11.307  50.669   8.561  1.00  0.00    +0.000 H 
ATOM     12  C9  UNL A   1      10.297  50.674   8.913  1.00  0.00    +0.000 C 
BRANCH   12   11
ATOM     11  N1  UNL A   1      10.139  49.572   9.836  1.00  0.00    +0.000 N 
ATOM    104  H8  UNL A   1       9.210  49.378  10.098  1.00  0.00    +0.000 H 
BRANCH   11    9
ATOM      9  C8  UNL A   1      11.081  48.761  10.399  1.00  0.00    +0.000 C 
ATOM     10  O2  UNL A   1      11.363  47.730   9.780  1.00  0.00    +0.000 O 
BRANCH    9    8
ATOM    102  H6  UNL A   1      10.825  49.173  12.455  1.00  0.00    +0.000 H 
ATOM    103  H7  UNL A   1      12.260  48.180  12.014  1.00  0.00    +0.000 H 
ATOM      8  C7  UNL A   1      11.649  49.029  11.787  1.00  0.00    +0.000 C 
BRANCH    8    7
ATOM      3  C2  UNL A   1      12.213  53.998  13.768  1.00  0.00    +0.000 C 
ATOM    100  H4  UNL A   1      10.292  53.482  14.456  1.00  0.00    +0.000 H 
ATOM      4  C3  UNL A   1      11.114  53.157  13.924  1.00  0.00    +0.000 C 
ATOM      5  C4  UNL A   1      11.120  51.874  13.364  1.00  0.00    +0.000 C 
ATOM    101  H5  UNL A   1      10.307  51.251  13.492  1.00  0.00    +0.000 H 
ATOM      6  C5  UNL A   1      12.239  51.433  12.626  1.00  0.00    +0.000 C 
ATOM      7  C6  UNL A   1      12.559  50.224  11.917  1.00  0.00    +0.000 C 
ATOM    138  H42 UNL A   1      15.099  52.055  11.412  1.00  0.00    +0.000 H 
ATOM    139  H43 UNL A   1      14.118  54.234  12.859  1.00  0.00    +0.000 H 
ATOM     84  C60 UNL A   1      13.868  50.355  11.449  1.00  0.00    +0.000 C 
ATOM     94  N8  UNL A   1      14.254  51.651  11.718  1.00  0.00    +0.000 N 
ATOM     95  C68 UNL A   1      13.309  52.306  12.468  1.00  0.00    +0.000 C 
ATOM     96  C69 UNL A   1      13.319  53.598  13.012  1.00  0.00    +0.000 C 
BRANCH    3    2
ATOM      2  O1  UNL A   1      12.273  55.268  14.281  1.00  0.00    +0.000 O 
BRANCH    2    1
ATOM      1  C1  UNL A   1      11.040  55.981  14.192  1.00  0.00    +0.000 C 
ATOM     98  H2  UNL A   1      10.300  55.358  13.733  1.00  0.00    +0.000 H 
ATOM     99  H3  UNL A   1      11.180  56.863  13.602  1.00  0.00    +0.000 H 
ATOM     97  H1  UNL A   1      10.715  56.256  15.173  1.00  0.00    +0.000 H 
ENDBRANCH    2    1
ENDBRANCH    3    2
BRANCH   84   85
ATOM     85  C61 UNL A   1      14.690  49.351  10.780  1.00  0.00    +0.000 C 
ATOM     86  O4  UNL A   1      14.513  48.143  10.908  1.00  0.00    +0.000 O 
BRANCH   85   87
ATOM    132  H36 UNL A   1      14.734  49.912   8.143  1.00  0.00    +0.000 H 
ATOM    136  H40 UNL A   1      18.797  51.022   7.978  1.00  0.00    +0.000 H 
ATOM    137  H41 UNL A   1      18.959  50.561  10.326  1.00  0.00    +0.000 H 
ATOM     87  C62 UNL A   1      15.840  49.791   9.942  1.00  0.00    +0.000 C 
ATOM     88  C63 UNL A   1      15.657  50.046   8.586  1.00  0.00    +0.000 C 
ATOM     89  C64 UNL A   1      16.753  50.486   7.840  1.00  0.00    +0.000 C 
ATOM     91  C66 UNL A   1      17.972  50.680   8.496  1.00  0.00    +0.000 C 
ATOM     92  C67 UNL A   1      18.055  50.404   9.852  1.00  0.00    +0.000 C 
ATOM     93  N7  UNL A   1      17.024  49.945  10.586  1.00  0.00    +0.000 N 
BRANCH   89   90
ATOM     90  C65 UNL A   1      16.632  50.780   6.375  1.00  0.00    +0.000 C 
ATOM    133  H37 UNL A   1      17.593  50.693   5.913  1.00  0.00    +0.000 H 
ATOM    134  H38 UNL A   1      16.260  51.773   6.240  1.00  0.00    +0.000 H 
ATOM    135  H39 UNL A   1      15.957  50.081   5.926  1.00  0.00    +0.000 H 
ENDBRANCH   89   90
ENDBRANCH   85   87
ENDBRANCH   84   85
ENDBRANCH    8    7
ENDBRANCH    9    8
ENDBRANCH   11    9
ENDBRANCH   12   11
ENDBRANCH   13   12
ENDBRANCH   14   13
ENDBRANCH   15   14
ENDBRANCH   16   15
ENDBRANCH   17   16
ENDBRANCH   18   17
ENDBRANCH   19   18
ENDBRANCH   21   19
ENDBRANCH   25   24
BRANCH   29   30
ATOM     33  C26 UNL A   1      19.635  56.996   0.343  1.00  0.00    +0.000 C 
ATOM     34  F2  UNL A   1      20.836  57.381   0.800  1.00  0.00    +0.000 F 
ATOM     35  C27 UNL A   1      19.046  57.677  -0.712  1.00  0.00    +0.000 C 
ATOM     36  F3  UNL A   1      19.684  58.704  -1.288  1.00  0.00    +0.000 F 
ATOM     37  C28 UNL A   1      17.792  57.295  -1.165  1.00  0.00    +0.000 C 
ATOM     38  F4  UNL A   1      17.227  57.944  -2.192  1.00  0.00    +0.000 F 
ATOM     39  C29 UNL A   1      17.118  56.242  -0.552  1.00  0.00    +0.000 C 
ATOM     40  F5  UNL A   1      15.900  55.906  -1.004  1.00  0.00    +0.000 F 
ATOM     30  C24 UNL A   1      17.698  55.534   0.511  1.00  0.00    +0.000 C 
ATOM     31  C25 UNL A   1      18.977  55.924   0.939  1.00  0.00    +0.000 C 
ATOM     32  F1  UNL A   1      19.571  55.287   1.960  1.00  0.00    +0.000 F 
ENDBRANCH   29   30
BRANCH   46   47
ATOM     47  C35 UNL A   1      16.802  48.476  -0.661  1.00  0.00    +0.000 C 
ATOM     48  C36 UNL A   1      18.015  47.799  -0.473  1.00  0.00    +0.000 C 
ATOM     49  F6  UNL A   1      18.806  48.107   0.567  1.00  0.00    +0.000 F 
ATOM     50  C37 UNL A   1      18.440  46.830  -1.377  1.00  0.00    +0.000 C 
ATOM     51  F7  UNL A   1      19.625  46.227  -1.202  1.00  0.00    +0.000 F 
ATOM     52  C38 UNL A   1      17.646  46.495  -2.464  1.00  0.00    +0.000 C 
ATOM     53  F8  UNL A   1      18.055  45.557  -3.330  1.00  0.00    +0.000 F 
ATOM     54  C39 UNL A   1      16.434  47.140  -2.659  1.00  0.00    +0.000 C 
ATOM     55  F9  UNL A   1      15.661  46.810  -3.703  1.00  0.00    +0.000 F 
ATOM     56  C40 UNL A   1      16.019  48.130  -1.773  1.00  0.00    +0.000 C 
ATOM     57  F10 UNL A   1      14.847  48.744  -1.995  1.00  0.00    +0.000 F 
ENDBRANCH   46   47
BRANCH   61   62
ATOM     65  C46 UNL A   1      12.264  46.434   6.495  1.00  0.00    +0.000 C 
ATOM     66  F12 UNL A   1      12.773  45.751   7.529  1.00  0.00    +0.000 F 
ATOM     67  C47 UNL A   1      11.018  46.097   5.985  1.00  0.00    +0.000 C 
ATOM     68  F13 UNL A   1      10.315  45.099   6.538  1.00  0.00    +0.000 F 
ATOM     69  C48 UNL A   1      10.508  46.790   4.898  1.00  0.00    +0.000 C 
ATOM     70  F14 UNL A   1       9.300  46.475   4.411  1.00  0.00    +0.000 F 
ATOM     71  C49 UNL A   1      11.249  47.812   4.309  1.00  0.00    +0.000 C 
ATOM     72  F15 UNL A   1      10.737  48.456   3.251  1.00  0.00    +0.000 F 
ATOM     62  C44 UNL A   1      12.506  48.177   4.812  1.00  0.00    +0.000 C 
ATOM     63  C45 UNL A   1      12.995  47.474   5.923  1.00  0.00    +0.000 C 
ATOM     64  F11 UNL A   1      14.201  47.773   6.426  1.00  0.00    +0.000 F 
ENDBRANCH   61   62
TORSDOF 21
ENDMDL
MODEL 10
REMARK VINA RESULT:      -9.3     44.642     50.798
ROOT
ATOM    129  H33 UNL A   1      11.813  51.123   5.842  1.00  0.00    +0.000 H 
ATOM     25  C20 UNL A   1      13.263  49.836   3.755  1.00  0.00    +0.000 C 
ATOM     26  C21 UNL A   1      13.289  51.292   4.129  1.00  0.00    +0.000 C 
ATOM     27  N3  UNL A   1      13.972  52.273   3.594  1.00  0.00    +0.000 N 
ATOM     28  C22 UNL A   1      13.597  53.416   4.286  1.00  0.00    +0.000 C 
ATOM     29  C23 UNL A   1      14.064  54.680   4.146  1.00  0.00    +0.000 C 
ATOM     41  C30 UNL A   1      15.086  55.069   3.210  1.00  0.00    +0.000 C 
ATOM     42  C31 UNL A   1      15.675  56.310   3.039  1.00  0.00    +0.000 C 
ATOM     43  C32 UNL A   1      16.585  56.220   1.980  1.00  0.00    +0.000 C 
ATOM     44  C33 UNL A   1      16.597  54.914   1.521  1.00  0.00    +0.000 C 
ATOM     45  N4  UNL A   1      15.670  54.218   2.282  1.00  0.00    +0.000 N 
ATOM     46  C34 UNL A   1      17.392  54.341   0.466  1.00  0.00    +0.000 C 
ATOM     58  C41 UNL A   1      17.358  53.039   0.086  1.00  0.00    +0.000 C 
ATOM     59  N5  UNL A   1      16.590  52.001   0.596  1.00  0.00    +0.000 N 
ATOM     60  C42 UNL A   1      16.902  50.942  -0.109  1.00  0.00    +0.000 C 
ATOM     61  C43 UNL A   1      16.395  49.532   0.021  1.00  0.00    +0.000 C 
ATOM     73  C50 UNL A   1      15.505  49.238   0.988  1.00  0.00    +0.000 C 
ATOM     74  C51 UNL A   1      14.934  47.919   1.240  1.00  0.00    +0.000 C 
ATOM     75  C52 UNL A   1      14.056  48.008   2.252  1.00  0.00    +0.000 C 
ATOM     76  C53 UNL A   1      14.029  49.387   2.742  1.00  0.00    +0.000 C 
ATOM     77  N6  UNL A   1      14.924  50.045   1.936  1.00  0.00    +0.000 N 
ATOM     78  C54 UNL A   1      17.891  51.194  -1.166  1.00  0.00    +0.000 C 
ATOM     79  C55 UNL A   1      18.164  52.478  -0.977  1.00  0.00    +0.000 C 
ATOM     80  C56 UNL A   1      12.591  53.018   5.247  1.00  0.00    +0.000 C 
ATOM     81  C57 UNL A   1      12.412  51.704   5.235  1.00  0.00    +0.000 C 
ATOM    120  H24 UNL A   1      15.476  57.155   3.597  1.00  0.00    +0.000 H 
ATOM    121  H25 UNL A   1      17.152  56.998   1.606  1.00  0.00    +0.000 H 
ATOM    122  H26 UNL A   1      15.457  53.263   2.179  1.00  0.00    +0.000 H 
ATOM    123  H27 UNL A   1      15.167  47.056   0.723  1.00  0.00    +0.000 H 
ATOM    124  H28 UNL A   1      13.491  47.228   2.624  1.00  0.00    +0.000 H 
ATOM    125  H29 UNL A   1      15.129  51.003   2.027  1.00  0.00    +0.000 H 
ATOM    126  H30 UNL A   1      18.273  50.544  -1.871  1.00  0.00    +0.000 H 
ATOM    127  H31 UNL A   1      18.862  53.010  -1.521  1.00  0.00    +0.000 H 
ATOM    128  H32 UNL A   1      12.080  53.671   5.861  1.00  0.00    +0.000 H 
ENDROOT
BRANCH   25   24
ATOM    130  H34 UNL A   1      10.691  49.319   3.203  1.00  0.00    +0.000 H 
ATOM    131  H35 UNL A   1       9.156  47.850   4.370  1.00  0.00    +0.000 H 
ATOM     82  C58 UNL A   1      11.020  48.766   4.009  1.00  0.00    +0.000 C 
ATOM     83  C59 UNL A   1      10.147  47.893   4.653  1.00  0.00    +0.000 C 
ATOM     21  C16 UNL A   1      10.616  47.071   5.683  1.00  0.00    +0.000 C 
ATOM     22  C17 UNL A   1      11.926  47.215   6.151  1.00  0.00    +0.000 C 
ATOM    118  H22 UNL A   1      12.259  46.640   6.940  1.00  0.00    +0.000 H 
ATOM     23  C18 UNL A   1      12.782  48.138   5.547  1.00  0.00    +0.000 C 
ATOM    119  H23 UNL A   1      13.741  48.262   5.908  1.00  0.00    +0.000 H 
ATOM     24  C19 UNL A   1      12.345  48.900   4.451  1.00  0.00    +0.000 C 
BRANCH   21   19
ATOM     19  C15 UNL A   1       9.739  46.063   6.319  1.00  0.00    +0.000 C 
ATOM     20  O3  UNL A   1       8.850  45.532   5.660  1.00  0.00    +0.000 O 
BRANCH   19   18
ATOM     18  N2  UNL A   1       9.910  45.732   7.639  1.00  0.00    +0.000 N 
ATOM    117  H21 UNL A   1      10.565  45.017   7.811  1.00  0.00    +0.000 H 
BRANCH   18   17
ATOM     17  C14 UNL A   1       9.266  46.282   8.822  1.00  0.00    +0.000 C 
ATOM    115  H19 UNL A   1       8.535  47.000   8.513  1.00  0.00    +0.000 H 
ATOM    116  H20 UNL A   1       8.816  45.472   9.356  1.00  0.00    +0.000 H 
BRANCH   17   16
ATOM    113  H17 UNL A   1       9.829  46.995  10.735  1.00  0.00    +0.000 H 
ATOM    114  H18 UNL A   1      11.161  46.391   9.709  1.00  0.00    +0.000 H 
ATOM     16  C13 UNL A   1      10.259  46.966   9.757  1.00  0.00    +0.000 C 
BRANCH   16   15
ATOM    111  H15 UNL A   1      10.400  48.525   8.325  1.00  0.00    +0.000 H 
ATOM     15  C12 UNL A   1      10.640  48.394   9.360  1.00  0.00    +0.000 C 
ATOM    112  H16 UNL A   1      10.088  49.039  10.012  1.00  0.00    +0.000 H 
BRANCH   15   14
ATOM    110  H14 UNL A   1      12.437  49.186   8.627  1.00  0.00    +0.000 H 
ATOM    109  H13 UNL A   1      12.643  47.867   9.822  1.00  0.00    +0.000 H 
ATOM     14  C11 UNL A   1      12.115  48.759   9.554  1.00  0.00    +0.000 C 
BRANCH   14   13
ATOM    107  H11 UNL A   1      13.192  50.445  10.280  1.00  0.00    +0.000 H 
ATOM    108  H12 UNL A   1      11.485  50.350  10.783  1.00  0.00    +0.000 H 
ATOM     13  C10 UNL A   1      12.399  49.817  10.628  1.00  0.00    +0.000 C 
BRANCH   13   12
ATOM    105  H9  UNL A   1      12.143  48.435  12.226  1.00  0.00    +0.000 H 
ATOM    106  H10 UNL A   1      13.817  48.898  11.906  1.00  0.00    +0.000 H 
ATOM     12  C9  UNL A   1      12.806  49.239  11.982  1.00  0.00    +0.000 C 
BRANCH   12   11
ATOM     11  N1  UNL A   1      12.745  50.229  13.034  1.00  0.00    +0.000 N 
ATOM    104  H8  UNL A   1      11.847  50.590  13.215  1.00  0.00    +0.000 H 
BRANCH   11    9
ATOM      9  C8  UNL A   1      13.743  50.740  13.814  1.00  0.00    +0.000 C 
ATOM     10  O2  UNL A   1      13.607  50.617  15.035  1.00  0.00    +0.000 O 
BRANCH    9    8
ATOM    102  H6  UNL A   1      15.130  52.328  13.918  1.00  0.00    +0.000 H 
ATOM    103  H7  UNL A   1      15.680  50.846  13.059  1.00  0.00    +0.000 H 
ATOM      8  C7  UNL A   1      14.891  51.549  13.225  1.00  0.00    +0.000 C 
BRANCH    8    7
ATOM      3  C2  UNL A   1      12.133  55.305  10.536  1.00  0.00    +0.000 C 
ATOM    100  H4  UNL A   1      11.448  55.601  12.504  1.00  0.00    +0.000 H 
ATOM      4  C3  UNL A   1      12.079  55.049  11.904  1.00  0.00    +0.000 C 
ATOM      5  C4  UNL A   1      12.876  54.045  12.468  1.00  0.00    +0.000 C 
ATOM    101  H5  UNL A   1      12.839  53.866  13.484  1.00  0.00    +0.000 H 
ATOM      6  C5  UNL A   1      13.730  53.279  11.646  1.00  0.00    +0.000 C 
ATOM      7  C6  UNL A   1      14.638  52.191  11.884  1.00  0.00    +0.000 C 
ATOM    138  H42 UNL A   1      14.811  52.607   8.744  1.00  0.00    +0.000 H 
ATOM    139  H43 UNL A   1      12.958  54.696   8.676  1.00  0.00    +0.000 H 
ATOM     84  C60 UNL A   1      15.266  51.905  10.669  1.00  0.00    +0.000 C 
ATOM     94  N8  UNL A   1      14.639  52.674   9.712  1.00  0.00    +0.000 N 
ATOM     95  C68 UNL A   1      13.743  53.544  10.282  1.00  0.00    +0.000 C 
ATOM     96  C69 UNL A   1      12.946  54.537   9.696  1.00  0.00    +0.000 C 
BRANCH    3    2
ATOM      2  O1  UNL A   1      11.377  56.264   9.916  1.00  0.00    +0.000 O 
BRANCH    2    1
ATOM      1  C1  UNL A   1      10.182  56.598  10.621  1.00  0.00    +0.000 C 
ATOM     98  H2  UNL A   1       9.695  55.700  10.941  1.00  0.00    +0.000 H 
ATOM     99  H3  UNL A   1       9.529  57.149   9.977  1.00  0.00    +0.000 H 
ATOM     97  H1  UNL A   1      10.427  57.193  11.476  1.00  0.00    +0.000 H 
ENDBRANCH    2    1
ENDBRANCH    3    2
BRANCH   84   85
ATOM     85  C61 UNL A   1      16.357  50.967  10.418  1.00  0.00    +0.000 C 
ATOM     86  O4  UNL A   1      17.476  51.092  10.904  1.00  0.00    +0.000 O 
BRANCH   85   87
ATOM    132  H36 UNL A   1      16.579  50.928   7.731  1.00  0.00    +0.000 H 
ATOM    136  H40 UNL A   1      15.680  46.838   7.256  1.00  0.00    +0.000 H 
ATOM    137  H41 UNL A   1      15.423  46.677   9.635  1.00  0.00    +0.000 H 
ATOM     87  C62 UNL A   1      16.138  49.829   9.483  1.00  0.00    +0.000 C 
ATOM     88  C63 UNL A   1      16.317  50.007   8.114  1.00  0.00    +0.000 C 
ATOM     89  C64 UNL A   1      16.131  48.907   7.273  1.00  0.00    +0.000 C 
ATOM     91  C66 UNL A   1      15.806  47.674   7.847  1.00  0.00    +0.000 C 
ATOM     92  C67 UNL A   1      15.654  47.595   9.223  1.00  0.00    +0.000 C 
ATOM     93  N7  UNL A   1      15.793  48.647  10.053  1.00  0.00    +0.000 N 
BRANCH   89   90
ATOM     90  C65 UNL A   1      16.306  49.021   5.789  1.00  0.00    +0.000 C 
ATOM    133  H37 UNL A   1      17.195  49.578   5.575  1.00  0.00    +0.000 H 
ATOM    134  H38 UNL A   1      15.461  49.523   5.368  1.00  0.00    +0.000 H 
ATOM    135  H39 UNL A   1      16.388  48.043   5.363  1.00  0.00    +0.000 H 
ENDBRANCH   89   90
ENDBRANCH   85   87
ENDBRANCH   84   85
ENDBRANCH    8    7
ENDBRANCH    9    8
ENDBRANCH   11    9
ENDBRANCH   12   11
ENDBRANCH   13   12
ENDBRANCH   14   13
ENDBRANCH   15   14
ENDBRANCH   16   15
ENDBRANCH   17   16
ENDBRANCH   18   17
ENDBRANCH   19   18
ENDBRANCH   21   19
ENDBRANCH   25   24
BRANCH   29   30
ATOM     33  C26 UNL A   1      13.501  57.047   7.085  1.00  0.00    +0.000 C 
ATOM     34  F2  UNL A   1      14.038  57.303   8.286  1.00  0.00    +0.000 F 
ATOM     35  C27 UNL A   1      12.389  57.758   6.658  1.00  0.00    +0.000 C 
ATOM     36  F3  UNL A   1      11.864  58.713   7.437  1.00  0.00    +0.000 F 
ATOM     37  C28 UNL A   1      11.818  57.474   5.427  1.00  0.00    +0.000 C 
ATOM     38  F4  UNL A   1      10.751  58.168   5.009  1.00  0.00    +0.000 F 
ATOM     39  C29 UNL A   1      12.349  56.465   4.627  1.00  0.00    +0.000 C 
ATOM     40  F5  UNL A   1      11.765  56.204   3.447  1.00  0.00    +0.000 F 
ATOM     30  C24 UNL A   1      13.478  55.738   5.034  1.00  0.00    +0.000 C 
ATOM     31  C25 UNL A   1      14.051  56.058   6.274  1.00  0.00    +0.000 C 
ATOM     32  F1  UNL A   1      15.125  55.385   6.715  1.00  0.00    +0.000 F 
ENDBRANCH   29   30
BRANCH   46   47
ATOM     47  C35 UNL A   1      18.348  55.241  -0.260  1.00  0.00    +0.000 C 
ATOM     48  C36 UNL A   1      19.555  55.652   0.323  1.00  0.00    +0.000 C 
ATOM     49  F6  UNL A   1      19.861  55.282   1.576  1.00  0.00    +0.000 F 
ATOM     50  C37 UNL A   1      20.437  56.480  -0.367  1.00  0.00    +0.000 C 
ATOM     51  F7  UNL A   1      21.564  56.897   0.226  1.00  0.00    +0.000 F 
ATOM     52  C38 UNL A   1      20.144  56.883  -1.662  1.00  0.00    +0.000 C 
ATOM     53  F8  UNL A   1      20.997  57.675  -2.326  1.00  0.00    +0.000 F 
ATOM     54  C39 UNL A   1      18.964  56.474  -2.263  1.00  0.00    +0.000 C 
ATOM     55  F9  UNL A   1      18.685  56.853  -3.518  1.00  0.00    +0.000 F 
ATOM     56  C40 UNL A   1      18.067  55.670  -1.566  1.00  0.00    +0.000 C 
ATOM     57  F10 UNL A   1      16.928  55.299  -2.170  1.00  0.00    +0.000 F 
ENDBRANCH   46   47
BRANCH   61   62
ATOM     65  C46 UNL A   1      18.556  46.789  -1.464  1.00  0.00    +0.000 C 
ATOM     66  F12 UNL A   1      19.723  46.185  -1.202  1.00  0.00    +0.000 F 
ATOM     67  C47 UNL A   1      17.830  46.436  -2.592  1.00  0.00    +0.000 C 
ATOM     68  F13 UNL A   1      18.286  45.479  -3.412  1.00  0.00    +0.000 F 
ATOM     69  C48 UNL A   1      16.636  47.083  -2.874  1.00  0.00    +0.000 C 
ATOM     70  F14 UNL A   1      15.926  46.735  -3.956  1.00  0.00    +0.000 F 
ATOM     71  C49 UNL A   1      16.173  48.094  -2.035  1.00  0.00    +0.000 C 
ATOM     72  F15 UNL A   1      15.022  48.711  -2.338  1.00  0.00    +0.000 F 
ATOM     62  C44 UNL A   1      16.884  48.461  -0.884  1.00  0.00    +0.000 C 
ATOM     63  C45 UNL A   1      18.080  47.782  -0.610  1.00  0.00    +0.000 C 
ATOM     64  F11 UNL A   1      18.806  48.113   0.468  1.00  0.00    +0.000 F 
ENDBRANCH   61   62
TORSDOF 21
ENDMDL
