MODEL 1
REMARK VINA RESULT:      -9.6      0.000      0.000
ROOT
ATOM    145  H37 UNL A   1      18.268  53.453  -0.371  1.00  0.00    +0.000 H 
ATOM    146  H38 UNL A   1      17.915  50.956  -1.034  1.00  0.00    +0.000 H 
ATOM    147  H39 UNL A   1      15.564  51.768   2.278  1.00  0.00    +0.000 H 
ATOM    148  H40 UNL A   1      11.648  49.747   6.879  1.00  0.00    +0.000 H 
ATOM    149  H41 UNL A   1      11.916  52.204   7.464  1.00  0.00    +0.000 H 
ATOM    150  H42 UNL A   1      14.362  51.398   4.200  1.00  0.00    +0.000 H 
ATOM    151  H43 UNL A   1      13.421  46.602   2.942  1.00  0.00    +0.000 H 
ATOM    152  H44 UNL A   1      15.060  46.921   1.001  1.00  0.00    +0.000 H 
ATOM    153  H45 UNL A   1      16.206  56.606   3.439  1.00  0.00    +0.000 H 
ATOM    154  H46 UNL A   1      14.900  56.212   5.607  1.00  0.00    +0.000 H 
ATOM     36  C30 UNL A   1      13.720  53.623   5.772  1.00  0.00    +0.000 C 
ATOM     37  C31 UNL A   1      14.672  54.134   4.726  1.00  0.00    +0.000 C 
ATOM     38  N4  UNL A   1      15.164  53.518   3.680  1.00  0.00    +0.000 N 
ATOM     39  C32 UNL A   1      15.923  54.466   3.008  1.00  0.00    +0.000 C 
ATOM     40  C33 UNL A   1      16.669  54.309   1.889  1.00  0.00    +0.000 C 
ATOM     52  C40 UNL A   1      16.837  53.060   1.194  1.00  0.00    +0.000 C 
ATOM     53  C41 UNL A   1      17.642  52.784   0.104  1.00  0.00    +0.000 C 
ATOM     54  C42 UNL A   1      17.463  51.442  -0.242  1.00  0.00    +0.000 C 
ATOM     55  C43 UNL A   1      16.575  50.873   0.656  1.00  0.00    +0.000 C 
ATOM     56  N5  UNL A   1      16.195  51.878   1.530  1.00  0.00    +0.000 N 
ATOM     57  C44 UNL A   1      16.104  49.512   0.708  1.00  0.00    +0.000 C 
ATOM     69  C51 UNL A   1      15.249  49.021   1.636  1.00  0.00    +0.000 C 
ATOM     70  N6  UNL A   1      14.663  49.676   2.710  1.00  0.00    +0.000 N 
ATOM     71  C52 UNL A   1      13.920  48.783   3.316  1.00  0.00    +0.000 C 
ATOM     72  C53 UNL A   1      13.069  48.941   4.544  1.00  0.00    +0.000 C 
ATOM     84  C60 UNL A   1      13.044  50.124   5.188  1.00  0.00    +0.000 C 
ATOM     85  C61 UNL A   1      12.239  50.422   6.371  1.00  0.00    +0.000 C 
ATOM     86  C62 UNL A   1      12.394  51.717   6.689  1.00  0.00    +0.000 C 
ATOM     87  C63 UNL A   1      13.345  52.329   5.762  1.00  0.00    +0.000 C 
ATOM     88  N7  UNL A   1      13.700  51.300   4.923  1.00  0.00    +0.000 N 
ATOM     89  C64 UNL A   1      13.934  47.458   2.677  1.00  0.00    +0.000 C 
ATOM     90  C65 UNL A   1      14.777  47.652   1.672  1.00  0.00    +0.000 C 
ATOM     91  C66 UNL A   1      15.800  55.707   3.741  1.00  0.00    +0.000 C 
ATOM     92  C67 UNL A   1      15.098  55.537   4.852  1.00  0.00    +0.000 C 
ENDROOT
BRANCH   36   35
ATOM     33  C27 UNL A   1      11.390  56.210   7.324  1.00  0.00    +0.000 C 
ATOM     34  C28 UNL A   1      11.892  55.250   6.435  1.00  0.00    +0.000 C 
ATOM     35  C29 UNL A   1      13.086  54.570   6.727  1.00  0.00    +0.000 C 
ATOM    143  H35 UNL A   1      10.527  56.726   7.095  1.00  0.00    +0.000 H 
ATOM    144  H36 UNL A   1      11.383  55.042   5.563  1.00  0.00    +0.000 H 
ATOM    155  H47 UNL A   1      14.584  54.296   8.191  1.00  0.00    +0.000 H 
ATOM    156  H48 UNL A   1      13.612  55.823   9.798  1.00  0.00    +0.000 H 
ATOM     93  C68 UNL A   1      13.716  54.803   7.958  1.00  0.00    +0.000 C 
ATOM     94  C69 UNL A   1      13.182  55.709   8.867  1.00  0.00    +0.000 C 
ATOM     32  C26 UNL A   1      12.063  56.466   8.520  1.00  0.00    +0.000 C 
BRANCH   32   30
ATOM     30  C25 UNL A   1      11.572  57.524   9.432  1.00  0.00    +0.000 C 
ATOM     31  O2  UNL A   1      12.061  58.639   9.392  1.00  0.00    +0.000 O 
BRANCH   30   29
ATOM     29  N3  UNL A   1      10.551  57.237  10.316  1.00  0.00    +0.000 N 
ATOM    142  H34 UNL A   1       9.722  57.754  10.189  1.00  0.00    +0.000 H 
BRANCH   29   28
ATOM    141  H33 UNL A   1      10.120  56.763  12.270  1.00  0.00    +0.000 H 
ATOM     28  C24 UNL A   1      10.528  56.275  11.409  1.00  0.00    +0.000 C 
ATOM    140  H32 UNL A   1      11.525  55.937  11.592  1.00  0.00    +0.000 H 
BRANCH   28   27
ATOM    138  H30 UNL A   1       9.154  54.768  11.990  1.00  0.00    +0.000 H 
ATOM     27  C23 UNL A   1       9.647  55.067  11.089  1.00  0.00    +0.000 C 
ATOM    139  H31 UNL A   1       8.972  55.382  10.321  1.00  0.00    +0.000 H 
BRANCH   27   26
ATOM    137  H29 UNL A   1      11.222  53.692  11.195  1.00  0.00    +0.000 H 
ATOM     26  C22 UNL A   1      10.398  53.853  10.531  1.00  0.00    +0.000 C 
ATOM    136  H28 UNL A   1      10.686  54.079   9.526  1.00  0.00    +0.000 H 
BRANCH   26   25
ATOM     25  C21 UNL A   1       9.616  52.533  10.512  1.00  0.00    +0.000 C 
ATOM    134  H26 UNL A   1       9.808  52.021  11.432  1.00  0.00    +0.000 H 
ATOM    135  H27 UNL A   1       8.589  52.799  10.375  1.00  0.00    +0.000 H 
BRANCH   25   24
ATOM    132  H24 UNL A   1      10.725  52.041   8.768  1.00  0.00    +0.000 H 
ATOM    133  H25 UNL A   1      10.277  50.664   9.811  1.00  0.00    +0.000 H 
ATOM     24  C20 UNL A   1       9.963  51.582   9.361  1.00  0.00    +0.000 C 
BRANCH   24   23
ATOM    130  H22 UNL A   1       7.956  51.866   8.692  1.00  0.00    +0.000 H 
ATOM    131  H23 UNL A   1       9.096  51.390   7.431  1.00  0.00    +0.000 H 
ATOM     23  C19 UNL A   1       8.784  51.236   8.442  1.00  0.00    +0.000 C 
BRANCH   23   22
ATOM    129  H21 UNL A   1       7.678  49.710   9.259  1.00  0.00    +0.000 H 
ATOM     22  N2  UNL A   1       8.375  49.851   8.579  1.00  0.00    +0.000 N 
BRANCH   22   20
ATOM     20  C18 UNL A   1       8.766  48.707   7.952  1.00  0.00    +0.000 C 
ATOM     21  O1  UNL A   1       8.837  48.766   6.716  1.00  0.00    +0.000 O 
BRANCH   20   18
ATOM     18  C16 UNL A   1       9.106  47.385   8.668  1.00  0.00    +0.000 C 
ATOM    125  H17 UNL A   1       9.610  46.792   7.934  1.00  0.00    +0.000 H 
BRANCH   18   17
ATOM     14  C12 UNL A   1      11.893  48.214  11.941  1.00  0.00    +0.000 C 
ATOM     15  C13 UNL A   1      10.699  47.497  12.128  1.00  0.00    +0.000 C 
ATOM     16  C14 UNL A   1       9.873  47.121  11.073  1.00  0.00    +0.000 C 
ATOM     17  C15 UNL A   1      10.122  47.558   9.784  1.00  0.00    +0.000 C 
ATOM    123  H15 UNL A   1      10.423  47.238  13.089  1.00  0.00    +0.000 H 
ATOM    124  H16 UNL A   1       9.064  46.506  11.255  1.00  0.00    +0.000 H 
ATOM    157  H49 UNL A   1      11.582  48.489   8.590  1.00  0.00    +0.000 H 
ATOM     95  C70 UNL A   1      11.346  48.201   9.553  1.00  0.00    +0.000 C 
ATOM     96  C71 UNL A   1      12.272  48.471  10.594  1.00  0.00    +0.000 C 
BRANCH   14    6
ATOM    118  H10 UNL A   1      13.698  48.201  12.865  1.00  0.00    +0.000 H 
ATOM      6  C5  UNL A   1      12.770  48.649  13.153  1.00  0.00    +0.000 C 
BRANCH    6    5
ATOM      2  C2  UNL A   1      10.830  46.319  16.181  1.00  0.00    +0.000 C 
ATOM      3  C3  UNL A   1      12.264  45.915  15.848  1.00  0.00    +0.000 C 
ATOM      4  C4  UNL A   1      12.802  46.645  14.612  1.00  0.00    +0.000 C 
ATOM    164  H56 UNL A   1      11.498  48.085  17.166  1.00  0.00    +0.000 H 
ATOM    165  H57 UNL A   1       9.821  48.130  16.659  1.00  0.00    +0.000 H 
ATOM    162  H54 UNL A   1      10.427  48.410  14.390  1.00  0.00    +0.000 H 
ATOM    163  H55 UNL A   1      11.383  49.562  15.368  1.00  0.00    +0.000 H 
ATOM      5  N1  UNL A   1      12.458  48.064  14.497  1.00  0.00    +0.000 N 
ATOM    107  C79 UNL A   1      11.214  48.540  15.102  1.00  0.00    +0.000 C 
ATOM    108  C80 UNL A   1      10.811  47.827  16.388  1.00  0.00    +0.000 C 
ATOM    112  H4  UNL A   1      10.179  46.044  15.378  1.00  0.00    +0.000 H 
ATOM    113  H5  UNL A   1      12.291  44.862  15.665  1.00  0.00    +0.000 H 
ATOM    114  H6  UNL A   1      12.881  46.183  16.681  1.00  0.00    +0.000 H 
ATOM    115  H7  UNL A   1      12.421  46.145  13.747  1.00  0.00    +0.000 H 
ATOM    116  H8  UNL A   1      13.868  46.616  14.705  1.00  0.00    +0.000 H 
ATOM    117  H9  UNL A   1      13.120  48.477  15.153  1.00  0.00    +0.000 H 
BRANCH    2    1
ATOM      1  C1  UNL A   1      10.326  45.598  17.421  1.00  0.00    +0.000 C 
ATOM    109  H1  UNL A   1      10.079  44.588  17.170  1.00  0.00    +0.000 H 
ATOM    110  H2  UNL A   1       9.455  46.096  17.793  1.00  0.00    +0.000 H 
ATOM    111  H3  UNL A   1      11.088  45.603  18.171  1.00  0.00    +0.000 H 
ENDBRANCH    2    1
ENDBRANCH    6    5
BRANCH    6    7
ATOM      7  C6  UNL A   1      12.937  50.177  13.287  1.00  0.00    +0.000 C 
ATOM      8  C7  UNL A   1      14.203  50.781  13.428  1.00  0.00    +0.000 C 
ATOM      9  C8  UNL A   1      14.322  52.168  13.535  1.00  0.00    +0.000 C 
ATOM     10  C9  UNL A   1      13.179  52.957  13.518  1.00  0.00    +0.000 C 
ATOM     11  F1  UNL A   1      13.295  54.287  13.631  1.00  0.00    +0.000 F 
ATOM     12  C10 UNL A   1      11.920  52.389  13.382  1.00  0.00    +0.000 C 
ATOM     13  C11 UNL A   1      11.798  51.004  13.252  1.00  0.00    +0.000 C 
ATOM    119  H11 UNL A   1      15.049  50.193  13.454  1.00  0.00    +0.000 H 
ATOM    120  H12 UNL A   1      15.253  52.603  13.626  1.00  0.00    +0.000 H 
ATOM    121  H13 UNL A   1      11.078  52.987  13.376  1.00  0.00    +0.000 H 
ATOM    122  H14 UNL A   1      10.864  50.583  13.130  1.00  0.00    +0.000 H 
ENDBRANCH    6    7
ENDBRANCH   14    6
BRANCH   96   97
ATOM     97  C72 UNL A   1      13.610  48.955  10.203  1.00  0.00    +0.000 C 
ATOM     98  C73 UNL A   1      13.819  50.275   9.777  1.00  0.00    +0.000 C 
ATOM     99  C74 UNL A   1      15.094  50.716   9.405  1.00  0.00    +0.000 C 
ATOM    161  H53 UNL A   1      14.574  47.098  10.494  1.00  0.00    +0.000 H 
ATOM    100  C75 UNL A   1      16.193  49.846   9.450  1.00  0.00    +0.000 C 
ATOM    101  C76 UNL A   1      17.563  50.329   9.046  1.00  0.00    +0.000 C 
ATOM    102  F17 UNL A   1      17.682  50.486   7.699  1.00  0.00    +0.000 F 
ATOM    103  F18 UNL A   1      17.883  51.534   9.594  1.00  0.00    +0.000 F 
ATOM    105  C77 UNL A   1      15.986  48.520   9.850  1.00  0.00    +0.000 C 
ATOM    106  C78 UNL A   1      14.711  48.081  10.213  1.00  0.00    +0.000 C 
ATOM    104  F19 UNL A   1      18.566  49.480   9.411  1.00  0.00    +0.000 F 
ATOM    158  H50 UNL A   1      13.022  50.929   9.735  1.00  0.00    +0.000 H 
ATOM    159  H51 UNL A   1      15.227  51.692   9.096  1.00  0.00    +0.000 H 
ATOM    160  H52 UNL A   1      16.782  47.862   9.875  1.00  0.00    +0.000 H 
ENDBRANCH   96   97
ENDBRANCH   18   17
BRANCH   18   19
ATOM     19  C17 UNL A   1       7.899  46.517   9.016  1.00  0.00    +0.000 C 
ATOM    126  H18 UNL A   1       8.232  45.618   9.492  1.00  0.00    +0.000 H 
ATOM    127  H19 UNL A   1       7.366  46.271   8.121  1.00  0.00    +0.000 H 
ATOM    128  H20 UNL A   1       7.253  47.054   9.679  1.00  0.00    +0.000 H 
ENDBRANCH   18   19
ENDBRANCH   20   18
ENDBRANCH   22   20
ENDBRANCH   23   22
ENDBRANCH   24   23
ENDBRANCH   25   24
ENDBRANCH   26   25
ENDBRANCH   27   26
ENDBRANCH   28   27
ENDBRANCH   29   28
ENDBRANCH   30   29
ENDBRANCH   32   30
ENDBRANCH   36   35
BRANCH   40   41
ATOM     41  C34 UNL A   1      17.377  55.514   1.345  1.00  0.00    +0.000 C 
ATOM     42  C35 UNL A   1      18.709  55.776   1.703  1.00  0.00    +0.000 C 
ATOM     43  F2  UNL A   1      19.377  54.925   2.496  1.00  0.00    +0.000 F 
ATOM     44  C36 UNL A   1      19.357  56.926   1.258  1.00  0.00    +0.000 C 
ATOM     45  F3  UNL A   1      20.621  57.169   1.632  1.00  0.00    +0.000 F 
ATOM     46  C37 UNL A   1      18.695  57.821   0.430  1.00  0.00    +0.000 C 
ATOM     47  F4  UNL A   1      19.324  58.919  -0.009  1.00  0.00    +0.000 F 
ATOM     48  C38 UNL A   1      17.382  57.576   0.055  1.00  0.00    +0.000 C 
ATOM     49  F5  UNL A   1      16.749  58.427  -0.762  1.00  0.00    +0.000 F 
ATOM     50  C39 UNL A   1      16.724  56.441   0.521  1.00  0.00    +0.000 C 
ATOM     51  F6  UNL A   1      15.453  56.231   0.145  1.00  0.00    +0.000 F 
ENDBRANCH   40   41
BRANCH   57   58
ATOM     65  C49 UNL A   1      18.300  47.033  -1.165  1.00  0.00    +0.000 C 
ATOM     66  F10 UNL A   1      19.522  46.494  -1.063  1.00  0.00    +0.000 F 
ATOM     67  C50 UNL A   1      17.884  47.992  -0.247  1.00  0.00    +0.000 C 
ATOM     68  F11 UNL A   1      18.720  48.359   0.736  1.00  0.00    +0.000 F 
ATOM     58  C45 UNL A   1      16.613  48.575  -0.343  1.00  0.00    +0.000 C 
ATOM     59  C46 UNL A   1      15.777  48.170  -1.395  1.00  0.00    +0.000 C 
ATOM     60  F7  UNL A   1      14.549  48.695  -1.524  1.00  0.00    +0.000 F 
ATOM     61  C47 UNL A   1      16.188  47.195  -2.299  1.00  0.00    +0.000 C 
ATOM     62  F8  UNL A   1      15.360  46.794  -3.274  1.00  0.00    +0.000 F 
ATOM     63  C48 UNL A   1      17.447  46.626  -2.183  1.00  0.00    +0.000 C 
ATOM     64  F9  UNL A   1      17.840  45.683  -3.051  1.00  0.00    +0.000 F 
ENDBRANCH   57   58
BRANCH   72   73
ATOM     73  C54 UNL A   1      12.281  47.804   5.081  1.00  0.00    +0.000 C 
ATOM     74  C55 UNL A   1      12.701  47.087   6.211  1.00  0.00    +0.000 C 
ATOM     75  F12 UNL A   1      13.817  47.451   6.859  1.00  0.00    +0.000 F 
ATOM     76  C56 UNL A   1      11.989  45.977   6.662  1.00  0.00    +0.000 C 
ATOM     77  F13 UNL A   1      12.431  45.286   7.722  1.00  0.00    +0.000 F 
ATOM     78  C57 UNL A   1      10.836  45.576   6.005  1.00  0.00    +0.000 C 
ATOM     79  F14 UNL A   1      10.152  44.508   6.439  1.00  0.00    +0.000 F 
ATOM     80  C58 UNL A   1      10.391  46.282   4.897  1.00  0.00    +0.000 C 
ATOM     81  F15 UNL A   1       9.266  45.909   4.271  1.00  0.00    +0.000 F 
ATOM     82  C59 UNL A   1      11.111  47.381   4.435  1.00  0.00    +0.000 C 
ATOM     83  F16 UNL A   1      10.663  48.047   3.361  1.00  0.00    +0.000 F 
ENDBRANCH   72   73
TORSDOF 22
ENDMDL
MODEL 2
REMARK VINA RESULT:      -9.6     21.839     28.732
ROOT
ATOM    145  H37 UNL A   1      28.694  20.920  -6.058  1.00  0.00    +0.000 H 
ATOM    146  H38 UNL A   1      29.628  21.461  -8.431  1.00  0.00    +0.000 H 
ATOM    147  H39 UNL A   1      26.699  24.244  -7.521  1.00  0.00    +0.000 H 
ATOM    148  H40 UNL A   1      23.025  29.143  -9.277  1.00  0.00    +0.000 H 
ATOM    149  H41 UNL A   1      22.183  28.676  -6.927  1.00  0.00    +0.000 H 
ATOM    150  H42 UNL A   1      25.048  25.808  -7.847  1.00  0.00    +0.000 H 
ATOM    151  H43 UNL A   1      26.874  27.106 -12.369  1.00  0.00    +0.000 H 
ATOM    152  H44 UNL A   1      28.475  25.119 -12.153  1.00  0.00    +0.000 H 
ATOM    153  H45 UNL A   1      25.015  23.215  -2.909  1.00  0.00    +0.000 H 
ATOM    154  H46 UNL A   1      23.142  24.928  -3.260  1.00  0.00    +0.000 H 
ATOM     36  C30 UNL A   1      23.413  26.435  -5.664  1.00  0.00    +0.000 C 
ATOM     37  C31 UNL A   1      24.233  25.254  -5.222  1.00  0.00    +0.000 C 
ATOM     38  N4  UNL A   1      25.233  24.665  -5.829  1.00  0.00    +0.000 N 
ATOM     39  C32 UNL A   1      25.680  23.685  -4.954  1.00  0.00    +0.000 C 
ATOM     40  C33 UNL A   1      26.667  22.776  -5.139  1.00  0.00    +0.000 C 
ATOM     52  C40 UNL A   1      27.433  22.645  -6.350  1.00  0.00    +0.000 C 
ATOM     53  C41 UNL A   1      28.393  21.700  -6.663  1.00  0.00    +0.000 C 
ATOM     54  C42 UNL A   1      28.884  21.982  -7.941  1.00  0.00    +0.000 C 
ATOM     55  C43 UNL A   1      28.203  23.081  -8.439  1.00  0.00    +0.000 C 
ATOM     56  N5  UNL A   1      27.318  23.481  -7.451  1.00  0.00    +0.000 N 
ATOM     57  C44 UNL A   1      28.354  23.721  -9.720  1.00  0.00    +0.000 C 
ATOM     69  C51 UNL A   1      27.631  24.783 -10.148  1.00  0.00    +0.000 C 
ATOM     70  N6  UNL A   1      26.616  25.465  -9.490  1.00  0.00    +0.000 N 
ATOM     71  C52 UNL A   1      26.226  26.411 -10.309  1.00  0.00    +0.000 C 
ATOM     72  C53 UNL A   1      25.150  27.440 -10.116  1.00  0.00    +0.000 C 
ATOM     84  C60 UNL A   1      24.415  27.431  -8.987  1.00  0.00    +0.000 C 
ATOM     85  C61 UNL A   1      23.363  28.390  -8.659  1.00  0.00    +0.000 C 
ATOM     86  C62 UNL A   1      22.908  28.133  -7.423  1.00  0.00    +0.000 C 
ATOM     87  C63 UNL A   1      23.602  26.962  -6.889  1.00  0.00    +0.000 C 
ATOM     88  N7  UNL A   1      24.459  26.595  -7.899  1.00  0.00    +0.000 N 
ATOM     89  C64 UNL A   1      26.971  26.450 -11.577  1.00  0.00    +0.000 C 
ATOM     90  C65 UNL A   1      27.798  25.423 -11.436  1.00  0.00    +0.000 C 
ATOM     91  C66 UNL A   1      24.868  23.779  -3.761  1.00  0.00    +0.000 C 
ATOM     92  C67 UNL A   1      23.911  24.685  -3.904  1.00  0.00    +0.000 C 
ENDROOT
BRANCH   36   35
ATOM     33  C27 UNL A   1      20.347  27.339  -3.588  1.00  0.00    +0.000 C 
ATOM     34  C28 UNL A   1      21.211  26.615  -4.420  1.00  0.00    +0.000 C 
ATOM     35  C29 UNL A   1      22.497  27.105  -4.703  1.00  0.00    +0.000 C 
ATOM    143  H35 UNL A   1      19.395  26.989  -3.402  1.00  0.00    +0.000 H 
ATOM    144  H36 UNL A   1      20.901  25.720  -4.827  1.00  0.00    +0.000 H 
ATOM    155  H47 UNL A   1      23.880  28.638  -4.257  1.00  0.00    +0.000 H 
ATOM    156  H48 UNL A   1      22.446  29.784  -2.680  1.00  0.00    +0.000 H 
ATOM     93  C68 UNL A   1      22.931  28.278  -4.071  1.00  0.00    +0.000 C 
ATOM     94  C69 UNL A   1      22.095  28.962  -3.194  1.00  0.00    +0.000 C 
ATOM     32  C26 UNL A   1      20.780  28.535  -3.011  1.00  0.00    +0.000 C 
BRANCH   32   30
ATOM     30  C25 UNL A   1      19.849  29.335  -2.182  1.00  0.00    +0.000 C 
ATOM     31  O2  UNL A   1      20.129  30.482  -1.887  1.00  0.00    +0.000 O 
BRANCH   30   29
ATOM     29  N3  UNL A   1      18.662  28.770  -1.760  1.00  0.00    +0.000 N 
ATOM    142  H34 UNL A   1      18.743  28.096  -1.047  1.00  0.00    +0.000 H 
BRANCH   29   28
ATOM    141  H33 UNL A   1      16.787  28.098  -2.270  1.00  0.00    +0.000 H 
ATOM     28  C24 UNL A   1      17.306  29.032  -2.223  1.00  0.00    +0.000 C 
ATOM    140  H32 UNL A   1      17.353  29.496  -3.184  1.00  0.00    +0.000 H 
BRANCH   28   27
ATOM    138  H30 UNL A   1      16.776  29.652  -0.266  1.00  0.00    +0.000 H 
ATOM     27  C23 UNL A   1      16.544  29.949  -1.267  1.00  0.00    +0.000 C 
ATOM    139  H31 UNL A   1      16.855  30.946  -1.495  1.00  0.00    +0.000 H 
BRANCH   27   26
ATOM    137  H29 UNL A   1      14.687  30.915  -1.195  1.00  0.00    +0.000 H 
ATOM     26  C22 UNL A   1      15.020  29.925  -1.430  1.00  0.00    +0.000 C 
ATOM    136  H28 UNL A   1      14.632  29.169  -0.779  1.00  0.00    +0.000 H 
BRANCH   26   25
ATOM     25  C21 UNL A   1      14.502  29.637  -2.846  1.00  0.00    +0.000 C 
ATOM    134  H26 UNL A   1      14.261  30.573  -3.306  1.00  0.00    +0.000 H 
ATOM    135  H27 UNL A   1      15.284  29.103  -3.344  1.00  0.00    +0.000 H 
BRANCH   25   24
ATOM    132  H24 UNL A   1      13.245  28.121  -2.049  1.00  0.00    +0.000 H 
ATOM    133  H25 UNL A   1      12.419  29.395  -2.986  1.00  0.00    +0.000 H 
ATOM     24  C20 UNL A   1      13.262  28.741  -2.920  1.00  0.00    +0.000 C 
BRANCH   24   23
ATOM    130  H22 UNL A   1      14.180  27.787  -4.596  1.00  0.00    +0.000 H 
ATOM    131  H23 UNL A   1      12.879  26.864  -3.840  1.00  0.00    +0.000 H 
ATOM     23  C19 UNL A   1      13.206  27.832  -4.156  1.00  0.00    +0.000 C 
BRANCH   23   22
ATOM    129  H21 UNL A   1      11.324  28.220  -4.882  1.00  0.00    +0.000 H 
ATOM     22  N2  UNL A   1      12.267  28.320  -5.149  1.00  0.00    +0.000 N 
BRANCH   22   20
ATOM     20  C18 UNL A   1      12.430  28.887  -6.375  1.00  0.00    +0.000 C 
ATOM     21  O1  UNL A   1      12.951  28.167  -7.238  1.00  0.00    +0.000 O 
BRANCH   20   18
ATOM     18  C16 UNL A   1      12.025  30.329  -6.737  1.00  0.00    +0.000 C 
ATOM    125  H17 UNL A   1      11.367  30.232  -7.575  1.00  0.00    +0.000 H 
BRANCH   18   17
ATOM     14  C12 UNL A   1       9.690  32.572  -3.789  1.00  0.00    +0.000 C 
ATOM     15  C13 UNL A   1       9.121  32.043  -4.960  1.00  0.00    +0.000 C 
ATOM     16  C14 UNL A   1       9.826  31.223  -5.836  1.00  0.00    +0.000 C 
ATOM     17  C15 UNL A   1      11.180  30.996  -5.665  1.00  0.00    +0.000 C 
ATOM    123  H15 UNL A   1       8.138  32.272  -5.180  1.00  0.00    +0.000 H 
ATOM    124  H16 UNL A   1       9.331  30.777  -6.624  1.00  0.00    +0.000 H 
ATOM    157  H49 UNL A   1      12.750  31.235  -4.286  1.00  0.00    +0.000 H 
ATOM     95  C70 UNL A   1      11.754  31.439  -4.465  1.00  0.00    +0.000 C 
ATOM     96  C71 UNL A   1      11.017  32.158  -3.488  1.00  0.00    +0.000 C 
BRANCH   14    6
ATOM    118  H10 UNL A   1       9.687  33.959  -2.311  1.00  0.00    +0.000 H 
ATOM      6  C5  UNL A   1       8.878  33.518  -2.854  1.00  0.00    +0.000 C 
BRANCH    6    5
ATOM      2  C2  UNL A   1       7.697  31.249   0.584  1.00  0.00    +0.000 C 
ATOM      3  C3  UNL A   1       7.493  32.759   0.681  1.00  0.00    +0.000 C 
ATOM      4  C4  UNL A   1       8.141  33.510  -0.487  1.00  0.00    +0.000 C 
ATOM    164  H56 UNL A   1       6.086  31.065  -0.797  1.00  0.00    +0.000 H 
ATOM    165  H57 UNL A   1       7.217  29.726  -0.821  1.00  0.00    +0.000 H 
ATOM    162  H54 UNL A   1       8.854  31.020  -1.936  1.00  0.00    +0.000 H 
ATOM    163  H55 UNL A   1       7.294  31.248  -2.780  1.00  0.00    +0.000 H 
ATOM      5  N1  UNL A   1       8.002  32.896  -1.809  1.00  0.00    +0.000 N 
ATOM    107  C79 UNL A   1       7.871  31.441  -1.901  1.00  0.00    +0.000 C 
ATOM    108  C80 UNL A   1       7.119  30.789  -0.746  1.00  0.00    +0.000 C 
ATOM    112  H4  UNL A   1       8.741  31.019   0.637  1.00  0.00    +0.000 H 
ATOM    113  H5  UNL A   1       7.925  33.106   1.596  1.00  0.00    +0.000 H 
ATOM    114  H6  UNL A   1       6.440  32.949   0.649  1.00  0.00    +0.000 H 
ATOM    115  H7  UNL A   1       9.186  33.600  -0.276  1.00  0.00    +0.000 H 
ATOM    116  H8  UNL A   1       7.621  34.443  -0.550  1.00  0.00    +0.000 H 
ATOM    117  H9  UNL A   1       7.045  33.155  -2.042  1.00  0.00    +0.000 H 
BRANCH    2    1
ATOM      1  C1  UNL A   1       7.029  30.524   1.742  1.00  0.00    +0.000 C 
ATOM    109  H1  UNL A   1       7.572  30.716   2.643  1.00  0.00    +0.000 H 
ATOM    110  H2  UNL A   1       7.022  29.472   1.547  1.00  0.00    +0.000 H 
ATOM    111  H3  UNL A   1       6.024  30.875   1.850  1.00  0.00    +0.000 H 
ENDBRANCH    2    1
ENDBRANCH    6    5
BRANCH    6    7
ATOM      7  C6  UNL A   1       8.084  34.607  -3.605  1.00  0.00    +0.000 C 
ATOM      8  C7  UNL A   1       6.821  34.351  -4.176  1.00  0.00    +0.000 C 
ATOM      9  C8  UNL A   1       6.122  35.362  -4.839  1.00  0.00    +0.000 C 
ATOM     10  C9  UNL A   1       6.685  36.626  -4.948  1.00  0.00    +0.000 C 
ATOM     11  F1  UNL A   1       6.016  37.592  -5.593  1.00  0.00    +0.000 F 
ATOM     12  C10 UNL A   1       7.928  36.906  -4.397  1.00  0.00    +0.000 C 
ATOM     13  C11 UNL A   1       8.621  35.904  -3.714  1.00  0.00    +0.000 C 
ATOM    119  H11 UNL A   1       6.411  33.408  -4.105  1.00  0.00    +0.000 H 
ATOM    120  H12 UNL A   1       5.192  35.169  -5.243  1.00  0.00    +0.000 H 
ATOM    121  H13 UNL A   1       8.337  37.849  -4.491  1.00  0.00    +0.000 H 
ATOM    122  H14 UNL A   1       9.535  36.117  -3.286  1.00  0.00    +0.000 H 
ENDBRANCH    6    7
ENDBRANCH   14    6
BRANCH   96   97
ATOM     97  C72 UNL A   1      11.664  32.384  -2.181  1.00  0.00    +0.000 C 
ATOM     98  C73 UNL A   1      12.505  33.483  -1.957  1.00  0.00    +0.000 C 
ATOM     99  C74 UNL A   1      13.114  33.680  -0.712  1.00  0.00    +0.000 C 
ATOM    161  H53 UNL A   1      10.887  30.636  -1.284  1.00  0.00    +0.000 H 
ATOM    100  C75 UNL A   1      12.896  32.779   0.340  1.00  0.00    +0.000 C 
ATOM    101  C76 UNL A   1      13.557  32.997   1.678  1.00  0.00    +0.000 C 
ATOM    102  F17 UNL A   1      14.890  32.717   1.651  1.00  0.00    +0.000 F 
ATOM    103  F18 UNL A   1      13.453  34.282   2.117  1.00  0.00    +0.000 F 
ATOM    105  C77 UNL A   1      12.078  31.665   0.115  1.00  0.00    +0.000 C 
ATOM    106  C78 UNL A   1      11.477  31.468  -1.131  1.00  0.00    +0.000 C 
ATOM    104  F19 UNL A   1      13.035  32.224   2.672  1.00  0.00    +0.000 F 
ATOM    158  H50 UNL A   1      12.679  34.155  -2.720  1.00  0.00    +0.000 H 
ATOM    159  H51 UNL A   1      13.728  34.496  -0.567  1.00  0.00    +0.000 H 
ATOM    160  H52 UNL A   1      11.918  30.984   0.875  1.00  0.00    +0.000 H 
ENDBRANCH   96   97
ENDBRANCH   18   17
BRANCH   18   19
ATOM     19  C17 UNL A   1      13.152  31.188  -7.304  1.00  0.00    +0.000 C 
ATOM    126  H18 UNL A   1      14.033  31.058  -6.711  1.00  0.00    +0.000 H 
ATOM    127  H19 UNL A   1      12.860  32.218  -7.288  1.00  0.00    +0.000 H 
ATOM    128  H20 UNL A   1      13.354  30.891  -8.312  1.00  0.00    +0.000 H 
ENDBRANCH   18   19
ENDBRANCH   20   18
ENDBRANCH   22   20
ENDBRANCH   23   22
ENDBRANCH   24   23
ENDBRANCH   25   24
ENDBRANCH   26   25
ENDBRANCH   27   26
ENDBRANCH   28   27
ENDBRANCH   29   28
ENDBRANCH   30   29
ENDBRANCH   32   30
ENDBRANCH   36   35
BRANCH   40   41
ATOM     41  C34 UNL A   1      26.973  21.836  -4.012  1.00  0.00    +0.000 C 
ATOM     42  C35 UNL A   1      28.121  22.018  -3.226  1.00  0.00    +0.000 C 
ATOM     43  F2  UNL A   1      28.932  23.065  -3.445  1.00  0.00    +0.000 F 
ATOM     44  C36 UNL A   1      28.452  21.114  -2.219  1.00  0.00    +0.000 C 
ATOM     45  F3  UNL A   1      29.567  21.294  -1.498  1.00  0.00    +0.000 F 
ATOM     46  C37 UNL A   1      27.629  20.027  -1.964  1.00  0.00    +0.000 C 
ATOM     47  F4  UNL A   1      27.940  19.166  -0.986  1.00  0.00    +0.000 F 
ATOM     48  C38 UNL A   1      26.483  19.834  -2.721  1.00  0.00    +0.000 C 
ATOM     49  F5  UNL A   1      25.676  18.797  -2.461  1.00  0.00    +0.000 F 
ATOM     50  C39 UNL A   1      26.166  20.721  -3.746  1.00  0.00    +0.000 C 
ATOM     51  F6  UNL A   1      25.053  20.507  -4.464  1.00  0.00    +0.000 F 
ENDBRANCH   40   41
BRANCH   57   58
ATOM     65  C49 UNL A   1      31.679  23.023 -11.432  1.00  0.00    +0.000 C 
ATOM     66  F10 UNL A   1      32.931  23.502 -11.433  1.00  0.00    +0.000 F 
ATOM     67  C50 UNL A   1      30.701  23.635 -10.654  1.00  0.00    +0.000 C 
ATOM     68  F11 UNL A   1      31.035  24.698  -9.906  1.00  0.00    +0.000 F 
ATOM     58  C45 UNL A   1      29.385  23.155 -10.647  1.00  0.00    +0.000 C 
ATOM     59  C46 UNL A   1      29.080  22.048 -11.454  1.00  0.00    +0.000 C 
ATOM     60  F7  UNL A   1      27.834  21.550 -11.475  1.00  0.00    +0.000 F 
ATOM     61  C47 UNL A   1      30.064  21.426 -12.215  1.00  0.00    +0.000 C 
ATOM     62  F8  UNL A   1      29.761  20.347 -12.949  1.00  0.00    +0.000 F 
ATOM     63  C48 UNL A   1      31.363  21.912 -12.203  1.00  0.00    +0.000 C 
ATOM     64  F9  UNL A   1      32.312  21.310 -12.932  1.00  0.00    +0.000 F 
ENDBRANCH   57   58
BRANCH   72   73
ATOM     73  C54 UNL A   1      24.858  28.449 -11.165  1.00  0.00    +0.000 C 
ATOM     74  C55 UNL A   1      25.377  29.750 -11.098  1.00  0.00    +0.000 C 
ATOM     75  F12 UNL A   1      26.194  30.095 -10.092  1.00  0.00    +0.000 F 
ATOM     76  C56 UNL A   1      25.037  30.709 -12.051  1.00  0.00    +0.000 C 
ATOM     77  F13 UNL A   1      25.518  31.955 -11.945  1.00  0.00    +0.000 F 
ATOM     78  C57 UNL A   1      24.189  30.380 -13.097  1.00  0.00    +0.000 C 
ATOM     79  F14 UNL A   1      23.861  31.302 -14.013  1.00  0.00    +0.000 F 
ATOM     80  C58 UNL A   1      23.678  29.093 -13.194  1.00  0.00    +0.000 C 
ATOM     81  F15 UNL A   1      22.873  28.766 -14.213  1.00  0.00    +0.000 F 
ATOM     82  C59 UNL A   1      24.003  28.139 -12.232  1.00  0.00    +0.000 C 
ATOM     83  F16 UNL A   1      23.497  26.903 -12.345  1.00  0.00    +0.000 F 
ENDBRANCH   72   73
TORSDOF 22
ENDMDL
MODEL 3
REMARK VINA RESULT:      -9.5      1.255      2.949
ROOT
ATOM    145  H37 UNL A   1      18.347  53.043  -0.790  1.00  0.00    +0.000 H 
ATOM    146  H38 UNL A   1      17.784  50.590  -1.472  1.00  0.00    +0.000 H 
ATOM    147  H39 UNL A   1      15.620  51.523   1.934  1.00  0.00    +0.000 H 
ATOM    148  H40 UNL A   1      11.729  49.727   6.648  1.00  0.00    +0.000 H 
ATOM    149  H41 UNL A   1      12.202  52.147   7.256  1.00  0.00    +0.000 H 
ATOM    150  H42 UNL A   1      14.462  51.213   3.894  1.00  0.00    +0.000 H 
ATOM    151  H43 UNL A   1      13.120  46.521   2.609  1.00  0.00    +0.000 H 
ATOM    152  H44 UNL A   1      14.709  46.748   0.613  1.00  0.00    +0.000 H 
ATOM    153  H45 UNL A   1      16.664  56.281   3.134  1.00  0.00    +0.000 H 
ATOM    154  H46 UNL A   1      15.410  55.951   5.343  1.00  0.00    +0.000 H 
ATOM     36  C30 UNL A   1      14.045  53.455   5.517  1.00  0.00    +0.000 C 
ATOM     37  C31 UNL A   1      14.995  53.910   4.444  1.00  0.00    +0.000 C 
ATOM     38  N4  UNL A   1      15.402  53.276   3.373  1.00  0.00    +0.000 N 
ATOM     39  C32 UNL A   1      16.206  54.175   2.685  1.00  0.00    +0.000 C 
ATOM     40  C33 UNL A   1      16.898  53.980   1.538  1.00  0.00    +0.000 C 
ATOM     52  C40 UNL A   1      16.947  52.734   0.821  1.00  0.00    +0.000 C 
ATOM     53  C41 UNL A   1      17.690  52.415  -0.301  1.00  0.00    +0.000 C 
ATOM     54  C42 UNL A   1      17.398  51.096  -0.658  1.00  0.00    +0.000 C 
ATOM     55  C43 UNL A   1      16.502  50.580   0.264  1.00  0.00    +0.000 C 
ATOM     56  N5  UNL A   1      16.230  51.597   1.165  1.00  0.00    +0.000 N 
ATOM     57  C44 UNL A   1      15.933  49.258   0.316  1.00  0.00    +0.000 C 
ATOM     69  C51 UNL A   1      15.077  48.817   1.268  1.00  0.00    +0.000 C 
ATOM     70  N6  UNL A   1      14.580  49.497   2.372  1.00  0.00    +0.000 N 
ATOM     71  C52 UNL A   1      13.794  48.653   2.993  1.00  0.00    +0.000 C 
ATOM     72  C53 UNL A   1      13.002  48.854   4.253  1.00  0.00    +0.000 C 
ATOM     84  C60 UNL A   1      13.089  50.025   4.913  1.00  0.00    +0.000 C 
ATOM     85  C61 UNL A   1      12.351  50.364   6.128  1.00  0.00    +0.000 C 
ATOM     86  C62 UNL A   1      12.613  51.639   6.457  1.00  0.00    +0.000 C 
ATOM     87  C63 UNL A   1      13.575  52.193   5.504  1.00  0.00    +0.000 C 
ATOM     88  N7  UNL A   1      13.821  51.154   4.639  1.00  0.00    +0.000 N 
ATOM     89  C64 UNL A   1      13.686  47.341   2.336  1.00  0.00    +0.000 C 
ATOM     90  C65 UNL A   1      14.505  47.487   1.304  1.00  0.00    +0.000 C 
ATOM     91  C66 UNL A   1      16.203  55.409   3.439  1.00  0.00    +0.000 C 
ATOM     92  C67 UNL A   1      15.529  55.275   4.573  1.00  0.00    +0.000 C 
ENDROOT
BRANCH   36   35
ATOM     33  C27 UNL A   1      13.519  55.482   8.701  1.00  0.00    +0.000 C 
ATOM     34  C28 UNL A   1      14.113  54.627   7.764  1.00  0.00    +0.000 C 
ATOM     35  C29 UNL A   1      13.518  54.432   6.507  1.00  0.00    +0.000 C 
ATOM    143  H35 UNL A   1      13.944  55.604   9.633  1.00  0.00    +0.000 H 
ATOM    144  H36 UNL A   1      14.990  54.139   7.999  1.00  0.00    +0.000 H 
ATOM    155  H47 UNL A   1      11.939  55.050   5.246  1.00  0.00    +0.000 H 
ATOM    156  H48 UNL A   1      11.024  56.660   6.805  1.00  0.00    +0.000 H 
ATOM     93  C68 UNL A   1      12.375  55.172   6.174  1.00  0.00    +0.000 C 
ATOM     94  C69 UNL A   1      11.823  56.069   7.082  1.00  0.00    +0.000 C 
ATOM     32  C26 UNL A   1      12.349  56.169   8.370  1.00  0.00    +0.000 C 
BRANCH   32   30
ATOM     30  C25 UNL A   1      11.683  57.024   9.379  1.00  0.00    +0.000 C 
ATOM     31  O2  UNL A   1      11.492  58.204   9.148  1.00  0.00    +0.000 O 
BRANCH   30   29
ATOM     29  N3  UNL A   1      11.273  56.467  10.575  1.00  0.00    +0.000 N 
ATOM    142  H34 UNL A   1      11.850  56.656  11.350  1.00  0.00    +0.000 H 
BRANCH   29   28
ATOM    141  H33 UNL A   1       9.252  56.122  10.426  1.00  0.00    +0.000 H 
ATOM     28  C24 UNL A   1      10.107  55.639  10.849  1.00  0.00    +0.000 C 
ATOM    140  H32 UNL A   1      10.004  55.526  11.907  1.00  0.00    +0.000 H 
BRANCH   28   27
ATOM    138  H30 UNL A   1      11.215  54.159   9.808  1.00  0.00    +0.000 H 
ATOM     27  C23 UNL A   1      10.229  54.253  10.214  1.00  0.00    +0.000 C 
ATOM    139  H31 UNL A   1      10.023  53.548  10.991  1.00  0.00    +0.000 H 
BRANCH   27   26
ATOM    137  H29 UNL A   1       8.855  54.924   8.784  1.00  0.00    +0.000 H 
ATOM     26  C22 UNL A   1       9.223  53.968   9.093  1.00  0.00    +0.000 C 
ATOM    136  H28 UNL A   1       8.470  53.318   9.486  1.00  0.00    +0.000 H 
BRANCH   26   25
ATOM     25  C21 UNL A   1       9.797  53.314   7.829  1.00  0.00    +0.000 C 
ATOM    134  H26 UNL A   1      10.705  53.821   7.577  1.00  0.00    +0.000 H 
ATOM    135  H27 UNL A   1       9.934  52.280   8.067  1.00  0.00    +0.000 H 
BRANCH   25   24
ATOM    132  H24 UNL A   1       7.881  53.152   6.925  1.00  0.00    +0.000 H 
ATOM    133  H25 UNL A   1       8.998  54.315   6.162  1.00  0.00    +0.000 H 
ATOM     24  C20 UNL A   1       8.881  53.347   6.601  1.00  0.00    +0.000 C 
BRANCH   24   23
ATOM    130  H22 UNL A   1       8.917  52.707   4.565  1.00  0.00    +0.000 H 
ATOM    131  H23 UNL A   1      10.299  52.182   5.530  1.00  0.00    +0.000 H 
ATOM     23  C19 UNL A   1       9.239  52.328   5.511  1.00  0.00    +0.000 C 
BRANCH   23   22
ATOM    129  H21 UNL A   1       9.107  50.283   5.358  1.00  0.00    +0.000 H 
ATOM     22  N2  UNL A   1       8.608  51.041   5.740  1.00  0.00    +0.000 N 
BRANCH   22   20
ATOM     20  C18 UNL A   1       7.462  50.675   6.377  1.00  0.00    +0.000 C 
ATOM     21  O1  UNL A   1       6.423  50.754   5.707  1.00  0.00    +0.000 O 
BRANCH   20   18
ATOM     18  C16 UNL A   1       7.386  50.189   7.837  1.00  0.00    +0.000 C 
ATOM    125  H17 UNL A   1       6.696  49.372   7.824  1.00  0.00    +0.000 H 
BRANCH   18   17
ATOM     14  C12 UNL A   1      10.961  48.343   9.563  1.00  0.00    +0.000 C 
ATOM     15  C13 UNL A   1      10.121  47.666   8.662  1.00  0.00    +0.000 C 
ATOM     16  C14 UNL A   1       9.057  48.287   8.013  1.00  0.00    +0.000 C 
ATOM     17  C15 UNL A   1       8.688  49.582   8.331  1.00  0.00    +0.000 C 
ATOM    123  H15 UNL A   1      10.300  46.667   8.474  1.00  0.00    +0.000 H 
ATOM    124  H16 UNL A   1       8.538  47.774   7.284  1.00  0.00    +0.000 H 
ATOM    157  H49 UNL A   1       9.333  51.294   9.369  1.00  0.00    +0.000 H 
ATOM     95  C70 UNL A   1       9.555  50.308   9.159  1.00  0.00    +0.000 C 
ATOM     96  C71 UNL A   1      10.726  49.737   9.722  1.00  0.00    +0.000 C 
BRANCH   14    6
ATOM    118  H10 UNL A   1      11.976  46.620   9.897  1.00  0.00    +0.000 H 
ATOM      6  C5  UNL A   1      12.117  47.602  10.298  1.00  0.00    +0.000 C 
BRANCH    6    5
ATOM      2  C2  UNL A   1      11.043  45.940  14.099  1.00  0.00    +0.000 C 
ATOM      3  C3  UNL A   1      12.529  45.905  13.755  1.00  0.00    +0.000 C 
ATOM      4  C4  UNL A   1      12.799  46.309  12.301  1.00  0.00    +0.000 C 
ATOM    164  H56 UNL A   1      11.106  48.048  14.400  1.00  0.00    +0.000 H 
ATOM    165  H57 UNL A   1       9.503  47.408  14.092  1.00  0.00    +0.000 H 
ATOM    162  H54 UNL A   1       9.980  47.087  11.797  1.00  0.00    +0.000 H 
ATOM    163  H55 UNL A   1      10.514  48.732  12.253  1.00  0.00    +0.000 H 
ATOM      5  N1  UNL A   1      12.015  47.432  11.784  1.00  0.00    +0.000 N 
ATOM    107  C79 UNL A   1      10.685  47.680  12.342  1.00  0.00    +0.000 C 
ATOM    108  C80 UNL A   1      10.537  47.349  13.823  1.00  0.00    +0.000 C 
ATOM    112  H4  UNL A   1      10.514  45.229  13.500  1.00  0.00    +0.000 H 
ATOM    113  H5  UNL A   1      12.895  44.913  13.910  1.00  0.00    +0.000 H 
ATOM    114  H6  UNL A   1      13.028  46.609  14.388  1.00  0.00    +0.000 H 
ATOM    115  H7  UNL A   1      12.598  45.458  11.685  1.00  0.00    +0.000 H 
ATOM    116  H8  UNL A   1      13.817  46.638  12.281  1.00  0.00    +0.000 H 
ATOM    117  H9  UNL A   1      12.509  48.220  12.200  1.00  0.00    +0.000 H 
BRANCH    2    1
ATOM      1  C1  UNL A   1      10.801  45.557  15.551  1.00  0.00    +0.000 C 
ATOM    109  H1  UNL A   1      11.502  46.070  16.176  1.00  0.00    +0.000 H 
ATOM    110  H2  UNL A   1      10.927  44.500  15.666  1.00  0.00    +0.000 H 
ATOM    111  H3  UNL A   1       9.806  45.830  15.832  1.00  0.00    +0.000 H 
ENDBRANCH    2    1
ENDBRANCH    6    5
BRANCH    6    7
ATOM      7  C6  UNL A   1      13.524  48.125   9.939  1.00  0.00    +0.000 C 
ATOM      8  C7  UNL A   1      14.440  48.541  10.926  1.00  0.00    +0.000 C 
ATOM      9  C8  UNL A   1      15.710  48.999  10.570  1.00  0.00    +0.000 C 
ATOM     10  C9  UNL A   1      16.065  49.058   9.229  1.00  0.00    +0.000 C 
ATOM     11  F1  UNL A   1      17.281  49.508   8.889  1.00  0.00    +0.000 F 
ATOM     12  C10 UNL A   1      15.182  48.658   8.236  1.00  0.00    +0.000 C 
ATOM     13  C11 UNL A   1      13.919  48.178   8.589  1.00  0.00    +0.000 C 
ATOM    119  H11 UNL A   1      14.170  48.508  11.921  1.00  0.00    +0.000 H 
ATOM    120  H12 UNL A   1      16.380  49.290  11.299  1.00  0.00    +0.000 H 
ATOM    121  H13 UNL A   1      15.458  48.713   7.242  1.00  0.00    +0.000 H 
ATOM    122  H14 UNL A   1      13.270  47.860   7.853  1.00  0.00    +0.000 H 
ENDBRANCH    6    7
ENDBRANCH   14    6
BRANCH   96   97
ATOM     97  C72 UNL A   1      11.668  50.649  10.399  1.00  0.00    +0.000 C 
ATOM     98  C73 UNL A   1      12.684  51.311   9.695  1.00  0.00    +0.000 C 
ATOM     99  C74 UNL A   1      13.572  52.169  10.353  1.00  0.00    +0.000 C 
ATOM    161  H53 UNL A   1      10.869  50.344  12.331  1.00  0.00    +0.000 H 
ATOM    100  C75 UNL A   1      13.466  52.385  11.734  1.00  0.00    +0.000 C 
ATOM    101  C76 UNL A   1      14.428  53.310  12.437  1.00  0.00    +0.000 C 
ATOM    102  F17 UNL A   1      15.669  52.765  12.569  1.00  0.00    +0.000 F 
ATOM    103  F18 UNL A   1      14.605  54.489  11.779  1.00  0.00    +0.000 F 
ATOM    105  C77 UNL A   1      12.470  51.706  12.448  1.00  0.00    +0.000 C 
ATOM    106  C78 UNL A   1      11.589  50.845  11.789  1.00  0.00    +0.000 C 
ATOM    104  F19 UNL A   1      14.034  53.646  13.697  1.00  0.00    +0.000 F 
ATOM    158  H50 UNL A   1      12.779  51.162   8.678  1.00  0.00    +0.000 H 
ATOM    159  H51 UNL A   1      14.312  52.648   9.816  1.00  0.00    +0.000 H 
ATOM    160  H52 UNL A   1      12.386  51.843  13.468  1.00  0.00    +0.000 H 
ENDBRANCH   96   97
ENDBRANCH   18   17
BRANCH   18   19
ATOM     19  C17 UNL A   1       6.717  51.166   8.802  1.00  0.00    +0.000 C 
ATOM    126  H18 UNL A   1       7.372  51.357   9.627  1.00  0.00    +0.000 H 
ATOM    127  H19 UNL A   1       5.803  50.742   9.163  1.00  0.00    +0.000 H 
ATOM    128  H20 UNL A   1       6.508  52.084   8.293  1.00  0.00    +0.000 H 
ENDBRANCH   18   19
ENDBRANCH   20   18
ENDBRANCH   22   20
ENDBRANCH   23   22
ENDBRANCH   24   23
ENDBRANCH   25   24
ENDBRANCH   26   25
ENDBRANCH   27   26
ENDBRANCH   28   27
ENDBRANCH   29   28
ENDBRANCH   30   29
ENDBRANCH   32   30
ENDBRANCH   36   35
BRANCH   40   41
ATOM     41  C34 UNL A   1      17.675  55.137   0.984  1.00  0.00    +0.000 C 
ATOM     42  C35 UNL A   1      17.198  55.846  -0.129  1.00  0.00    +0.000 C 
ATOM     43  F2  UNL A   1      16.017  55.526  -0.680  1.00  0.00    +0.000 F 
ATOM     44  C36 UNL A   1      17.942  56.879  -0.694  1.00  0.00    +0.000 C 
ATOM     45  F3  UNL A   1      17.479  57.526  -1.772  1.00  0.00    +0.000 F 
ATOM     46  C37 UNL A   1      19.163  57.238  -0.142  1.00  0.00    +0.000 C 
ATOM     47  F4  UNL A   1      19.871  58.242  -0.676  1.00  0.00    +0.000 F 
ATOM     48  C38 UNL A   1      19.648  56.559   0.966  1.00  0.00    +0.000 C 
ATOM     49  F5  UNL A   1      20.816  56.919   1.514  1.00  0.00    +0.000 F 
ATOM     50  C39 UNL A   1      18.919  55.508   1.514  1.00  0.00    +0.000 C 
ATOM     51  F6  UNL A   1      19.414  54.866   2.584  1.00  0.00    +0.000 F 
ENDBRANCH   40   41
BRANCH   57   58
ATOM     65  C49 UNL A   1      15.941  47.274  -2.931  1.00  0.00    +0.000 C 
ATOM     66  F10 UNL A   1      15.135  47.058  -3.980  1.00  0.00    +0.000 F 
ATOM     67  C50 UNL A   1      15.509  48.072  -1.876  1.00  0.00    +0.000 C 
ATOM     68  F11 UNL A   1      14.285  48.619  -1.932  1.00  0.00    +0.000 F 
ATOM     58  C45 UNL A   1      16.332  48.302  -0.765  1.00  0.00    +0.000 C 
ATOM     59  C46 UNL A   1      17.599  47.699  -0.745  1.00  0.00    +0.000 C 
ATOM     60  F7  UNL A   1      18.424  47.896   0.295  1.00  0.00    +0.000 F 
ATOM     61  C47 UNL A   1      18.036  46.919  -1.810  1.00  0.00    +0.000 C 
ATOM     62  F8  UNL A   1      19.265  46.383  -1.789  1.00  0.00    +0.000 F 
ATOM     63  C48 UNL A   1      17.209  46.708  -2.903  1.00  0.00    +0.000 C 
ATOM     64  F9  UNL A   1      17.632  45.961  -3.932  1.00  0.00    +0.000 F 
ENDBRANCH   57   58
BRANCH   72   73
ATOM     73  C54 UNL A   1      12.150  47.771   4.804  1.00  0.00    +0.000 C 
ATOM     74  C55 UNL A   1      12.693  46.720   5.557  1.00  0.00    +0.000 C 
ATOM     75  F12 UNL A   1      14.006  46.700   5.831  1.00  0.00    +0.000 F 
ATOM     76  C56 UNL A   1      11.893  45.671   6.006  1.00  0.00    +0.000 C 
ATOM     77  F13 UNL A   1      12.442  44.660   6.694  1.00  0.00    +0.000 F 
ATOM     78  C57 UNL A   1      10.534  45.664   5.730  1.00  0.00    +0.000 C 
ATOM     79  F14 UNL A   1       9.765  44.655   6.162  1.00  0.00    +0.000 F 
ATOM     80  C58 UNL A   1       9.972  46.704   5.003  1.00  0.00    +0.000 C 
ATOM     81  F15 UNL A   1       8.656  46.710   4.749  1.00  0.00    +0.000 F 
ATOM     82  C59 UNL A   1      10.774  47.743   4.537  1.00  0.00    +0.000 C 
ATOM     83  F16 UNL A   1      10.209  48.736   3.835  1.00  0.00    +0.000 F 
ENDBRANCH   72   73
TORSDOF 22
ENDMDL
MODEL 4
REMARK VINA RESULT:      -9.3     44.183     52.315
ROOT
ATOM    145  H37 UNL A   1       5.337  10.405  24.162  1.00  0.00    +0.000 H 
ATOM    146  H38 UNL A   1       7.244  11.668  25.413  1.00  0.00    +0.000 H 
ATOM    147  H39 UNL A   1       7.722   7.607  26.075  1.00  0.00    +0.000 H 
ATOM    148  H40 UNL A   1      10.735   2.826  29.015  1.00  0.00    +0.000 H 
ATOM    149  H41 UNL A   1       8.937   1.589  27.717  1.00  0.00    +0.000 H 
ATOM    150  H42 UNL A   1       8.370   5.663  27.112  1.00  0.00    +0.000 H 
ATOM    151  H43 UNL A   1      12.231   7.937  29.435  1.00  0.00    +0.000 H 
ATOM    152  H44 UNL A   1      11.283  10.153  28.570  1.00  0.00    +0.000 H 
ATOM    153  H45 UNL A   1       4.091   5.228  23.561  1.00  0.00    +0.000 H 
ATOM    154  H46 UNL A   1       4.769   3.052  24.732  1.00  0.00    +0.000 H 
ATOM     36  C30 UNL A   1       7.153   3.285  26.277  1.00  0.00    +0.000 C 
ATOM     37  C31 UNL A   1       6.390   4.386  25.593  1.00  0.00    +0.000 C 
ATOM     38  N4  UNL A   1       6.643   5.670  25.555  1.00  0.00    +0.000 N 
ATOM     39  C32 UNL A   1       5.676   6.219  24.723  1.00  0.00    +0.000 C 
ATOM     40  C33 UNL A   1       5.483   7.520  24.400  1.00  0.00    +0.000 C 
ATOM     52  C40 UNL A   1       6.265   8.611  24.919  1.00  0.00    +0.000 C 
ATOM     53  C41 UNL A   1       6.089   9.968  24.719  1.00  0.00    +0.000 C 
ATOM     54  C42 UNL A   1       7.103  10.645  25.401  1.00  0.00    +0.000 C 
ATOM     55  C43 UNL A   1       7.889   9.712  26.057  1.00  0.00    +0.000 C 
ATOM     56  N5  UNL A   1       7.366   8.467  25.750  1.00  0.00    +0.000 N 
ATOM     57  C44 UNL A   1       9.035   9.941  26.898  1.00  0.00    +0.000 C 
ATOM     69  C51 UNL A   1       9.742   8.973  27.529  1.00  0.00    +0.000 C 
ATOM     70  N6  UNL A   1       9.532   7.601  27.524  1.00  0.00    +0.000 N 
ATOM     71  C52 UNL A   1      10.471   7.089  28.281  1.00  0.00    +0.000 C 
ATOM     72  C53 UNL A   1      10.716   5.650  28.635  1.00  0.00    +0.000 C 
ATOM     84  C60 UNL A   1       9.876   4.700  28.181  1.00  0.00    +0.000 C 
ATOM     85  C61 UNL A   1      10.016   3.266  28.422  1.00  0.00    +0.000 C 
ATOM     86  C62 UNL A   1       9.055   2.614  27.748  1.00  0.00    +0.000 C 
ATOM     87  C63 UNL A   1       8.203   3.587  27.065  1.00  0.00    +0.000 C 
ATOM     88  N7  UNL A   1       8.750   4.802  27.402  1.00  0.00    +0.000 N 
ATOM     89  C64 UNL A   1      11.402   8.083  28.836  1.00  0.00    +0.000 C 
ATOM     90  C65 UNL A   1      10.899   9.216  28.366  1.00  0.00    +0.000 C 
ATOM     91  C66 UNL A   1       4.853   5.128  24.250  1.00  0.00    +0.000 C 
ATOM     92  C67 UNL A   1       5.208   3.983  24.816  1.00  0.00    +0.000 C 
ENDROOT
BRANCH   36   35
ATOM     33  C27 UNL A   1       7.151  -0.184  24.697  1.00  0.00    +0.000 C 
ATOM     34  C28 UNL A   1       7.552   1.119  25.021  1.00  0.00    +0.000 C 
ATOM     35  C29 UNL A   1       6.839   1.863  25.974  1.00  0.00    +0.000 C 
ATOM    143  H35 UNL A   1       7.662  -0.718  23.978  1.00  0.00    +0.000 H 
ATOM    144  H36 UNL A   1       8.374   1.533  24.556  1.00  0.00    +0.000 H 
ATOM    155  H47 UNL A   1       5.258   1.783  27.375  1.00  0.00    +0.000 H 
ATOM    156  H48 UNL A   1       4.688  -0.529  26.938  1.00  0.00    +0.000 H 
ATOM     93  C68 UNL A   1       5.779   1.252  26.659  1.00  0.00    +0.000 C 
ATOM     94  C69 UNL A   1       5.422  -0.064  26.382  1.00  0.00    +0.000 C 
ATOM     32  C26 UNL A   1       6.058  -0.755  25.351  1.00  0.00    +0.000 C 
BRANCH   32   30
ATOM     30  C25 UNL A   1       5.592  -2.107  24.968  1.00  0.00    +0.000 C 
ATOM     31  O2  UNL A   1       5.452  -2.968  25.817  1.00  0.00    +0.000 O 
BRANCH   30   29
ATOM     29  N3  UNL A   1       5.307  -2.375  23.643  1.00  0.00    +0.000 N 
ATOM    142  H34 UNL A   1       4.657  -1.770  23.218  1.00  0.00    +0.000 H 
BRANCH   29   28
ATOM    141  H33 UNL A   1       5.040  -3.773  22.159  1.00  0.00    +0.000 H 
ATOM     28  C24 UNL A   1       5.835  -3.428  22.787  1.00  0.00    +0.000 C 
ATOM    140  H32 UNL A   1       6.213  -4.217  23.402  1.00  0.00    +0.000 H 
BRANCH   28   27
ATOM    138  H30 UNL A   1       7.871  -2.938  22.451  1.00  0.00    +0.000 H 
ATOM     27  C23 UNL A   1       6.962  -2.921  21.886  1.00  0.00    +0.000 C 
ATOM    139  H31 UNL A   1       6.981  -3.568  21.035  1.00  0.00    +0.000 H 
BRANCH   27   26
ATOM    137  H29 UNL A   1       6.171  -0.992  22.078  1.00  0.00    +0.000 H 
ATOM     26  C22 UNL A   1       6.764  -1.500  21.346  1.00  0.00    +0.000 C 
ATOM    136  H28 UNL A   1       6.299  -1.577  20.385  1.00  0.00    +0.000 H 
BRANCH   26   25
ATOM     25  C21 UNL A   1       8.038  -0.661  21.186  1.00  0.00    +0.000 C 
ATOM    134  H26 UNL A   1       7.810   0.345  21.473  1.00  0.00    +0.000 H 
ATOM    135  H27 UNL A   1       8.778  -1.126  21.804  1.00  0.00    +0.000 H 
BRANCH   25   24
ATOM    132  H24 UNL A   1       9.682  -0.790  19.846  1.00  0.00    +0.000 H 
ATOM    133  H25 UNL A   1       8.123  -1.389  19.216  1.00  0.00    +0.000 H 
ATOM     24  C20 UNL A   1       8.628  -0.627  19.773  1.00  0.00    +0.000 C 
BRANCH   24   23
ATOM    130  H22 UNL A   1       7.977   0.468  18.059  1.00  0.00    +0.000 H 
ATOM    131  H23 UNL A   1       7.737   1.295  19.601  1.00  0.00    +0.000 H 
ATOM     23  C19 UNL A   1       8.398   0.689  19.017  1.00  0.00    +0.000 C 
BRANCH   23   22
ATOM    129  H21 UNL A   1       9.830   1.630  17.883  1.00  0.00    +0.000 H 
ATOM     22  N2  UNL A   1       9.631   1.430  18.827  1.00  0.00    +0.000 N 
BRANCH   22   20
ATOM     20  C18 UNL A   1      10.568   1.903  19.694  1.00  0.00    +0.000 C 
ATOM     21  O1  UNL A   1      10.248   2.912  20.337  1.00  0.00    +0.000 O 
BRANCH   20   18
ATOM     18  C16 UNL A   1      11.961   1.279  19.908  1.00  0.00    +0.000 C 
ATOM    125  H17 UNL A   1      12.647   2.097  19.838  1.00  0.00    +0.000 H 
BRANCH   18   17
ATOM     14  C12 UNL A   1      12.824  -0.468  23.829  1.00  0.00    +0.000 C 
ATOM     15  C13 UNL A   1      13.248   0.822  23.466  1.00  0.00    +0.000 C 
ATOM     16  C14 UNL A   1      12.870   1.431  22.274  1.00  0.00    +0.000 C 
ATOM     17  C15 UNL A   1      12.159   0.734  21.312  1.00  0.00    +0.000 C 
ATOM    123  H15 UNL A   1      13.867   1.339  24.112  1.00  0.00    +0.000 H 
ATOM    124  H16 UNL A   1      13.124   2.417  22.104  1.00  0.00    +0.000 H 
ATOM    157  H49 UNL A   1      11.069  -1.038  21.001  1.00  0.00    +0.000 H 
ATOM     95  C70 UNL A   1      11.651  -0.519  21.679  1.00  0.00    +0.000 C 
ATOM     96  C71 UNL A   1      11.906  -1.103  22.947  1.00  0.00    +0.000 C 
BRANCH   14    6
ATOM    118  H10 UNL A   1      13.225  -2.159  24.874  1.00  0.00    +0.000 H 
ATOM      6  C5  UNL A   1      13.301  -1.130  25.156  1.00  0.00    +0.000 C 
BRANCH    6    5
ATOM      2  C2  UNL A   1       9.843  -1.368  27.676  1.00  0.00    +0.000 C 
ATOM      3  C3  UNL A   1      11.023  -2.247  28.082  1.00  0.00    +0.000 C 
ATOM      4  C4  UNL A   1      12.123  -2.273  27.016  1.00  0.00    +0.000 C 
ATOM    164  H56 UNL A   1      10.872   0.393  28.291  1.00  0.00    +0.000 H 
ATOM    165  H57 UNL A   1       9.562   0.676  27.162  1.00  0.00    +0.000 H 
ATOM    162  H54 UNL A   1      10.821  -0.187  25.354  1.00  0.00    +0.000 H 
ATOM    163  H55 UNL A   1      11.855   0.959  26.256  1.00  0.00    +0.000 H 
ATOM      5  N1  UNL A   1      12.427  -0.996  26.367  1.00  0.00    +0.000 N 
ATOM    107  C79 UNL A   1      11.367   0.007  26.253  1.00  0.00    +0.000 C 
ATOM    108  C80 UNL A   1      10.378   0.032  27.413  1.00  0.00    +0.000 C 
ATOM    112  H4  UNL A   1       9.381  -1.764  26.796  1.00  0.00    +0.000 H 
ATOM    113  H5  UNL A   1      10.672  -3.245  28.238  1.00  0.00    +0.000 H 
ATOM    114  H6  UNL A   1      11.444  -1.836  28.977  1.00  0.00    +0.000 H 
ATOM    115  H7  UNL A   1      11.823  -2.962  26.255  1.00  0.00    +0.000 H 
ATOM    116  H8  UNL A   1      13.018  -2.549  27.534  1.00  0.00    +0.000 H 
ATOM    117  H9  UNL A   1      12.994  -0.545  27.084  1.00  0.00    +0.000 H 
BRANCH    2    1
ATOM      1  C1  UNL A   1       8.774  -1.342  28.758  1.00  0.00    +0.000 C 
ATOM    109  H1  UNL A   1       8.381  -2.328  28.894  1.00  0.00    +0.000 H 
ATOM    110  H2  UNL A   1       7.986  -0.681  28.464  1.00  0.00    +0.000 H 
ATOM    111  H3  UNL A   1       9.204  -1.000  29.676  1.00  0.00    +0.000 H 
ENDBRANCH    2    1
ENDBRANCH    6    5
BRANCH    6    7
ATOM      7  C6  UNL A   1      14.757  -0.790  25.537  1.00  0.00    +0.000 C 
ATOM      8  C7  UNL A   1      15.067   0.154  26.537  1.00  0.00    +0.000 C 
ATOM      9  C8  UNL A   1      16.394   0.432  26.867  1.00  0.00    +0.000 C 
ATOM     10  C9  UNL A   1      17.418  -0.218  26.190  1.00  0.00    +0.000 C 
ATOM     11  F1  UNL A   1      18.692   0.058  26.501  1.00  0.00    +0.000 F 
ATOM     12  C10 UNL A   1      17.143  -1.150  25.199  1.00  0.00    +0.000 C 
ATOM     13  C11 UNL A   1      15.816  -1.447  24.881  1.00  0.00    +0.000 C 
ATOM    119  H11 UNL A   1      14.305   0.644  27.029  1.00  0.00    +0.000 H 
ATOM    120  H12 UNL A   1      16.612   1.115  27.609  1.00  0.00    +0.000 H 
ATOM    121  H13 UNL A   1      17.914  -1.621  24.700  1.00  0.00    +0.000 H 
ATOM    122  H14 UNL A   1      15.610  -2.155  24.160  1.00  0.00    +0.000 H 
ENDBRANCH    6    7
ENDBRANCH   14    6
BRANCH   96   97
ATOM     97  C72 UNL A   1      11.148  -2.320  23.300  1.00  0.00    +0.000 C 
ATOM     98  C73 UNL A   1      11.554  -3.590  22.865  1.00  0.00    +0.000 C 
ATOM     99  C74 UNL A   1      10.821  -4.733  23.204  1.00  0.00    +0.000 C 
ATOM    161  H53 UNL A   1       9.633  -1.296  24.359  1.00  0.00    +0.000 H 
ATOM    100  C75 UNL A   1       9.661  -4.633  23.987  1.00  0.00    +0.000 C 
ATOM    101  C76 UNL A   1       8.876  -5.868  24.346  1.00  0.00    +0.000 C 
ATOM    102  F17 UNL A   1       8.176  -6.365  23.289  1.00  0.00    +0.000 F 
ATOM    103  F18 UNL A   1       9.664  -6.888  24.786  1.00  0.00    +0.000 F 
ATOM    105  C77 UNL A   1       9.236  -3.364  24.401  1.00  0.00    +0.000 C 
ATOM    106  C78 UNL A   1       9.966  -2.224  24.055  1.00  0.00    +0.000 C 
ATOM    104  F19 UNL A   1       7.959  -5.659  25.333  1.00  0.00    +0.000 F 
ATOM    158  H50 UNL A   1      12.403  -3.683  22.287  1.00  0.00    +0.000 H 
ATOM    159  H51 UNL A   1      11.137  -5.659  22.876  1.00  0.00    +0.000 H 
ATOM    160  H52 UNL A   1       8.377  -3.270  24.966  1.00  0.00    +0.000 H 
ENDBRANCH   96   97
ENDBRANCH   18   17
BRANCH   18   19
ATOM     19  C17 UNL A   1      12.431   0.360  18.783  1.00  0.00    +0.000 C 
ATOM    126  H18 UNL A   1      13.406  -0.016  19.013  1.00  0.00    +0.000 H 
ATOM    127  H19 UNL A   1      12.468   0.910  17.865  1.00  0.00    +0.000 H 
ATOM    128  H20 UNL A   1      11.748  -0.457  18.681  1.00  0.00    +0.000 H 
ENDBRANCH   18   19
ENDBRANCH   20   18
ENDBRANCH   22   20
ENDBRANCH   23   22
ENDBRANCH   24   23
ENDBRANCH   25   24
ENDBRANCH   26   25
ENDBRANCH   27   26
ENDBRANCH   28   27
ENDBRANCH   29   28
ENDBRANCH   30   29
ENDBRANCH   32   30
ENDBRANCH   36   35
BRANCH   40   41
ATOM     41  C34 UNL A   1       4.371   7.847  23.448  1.00  0.00    +0.000 C 
ATOM     42  C35 UNL A   1       4.604   7.872  22.065  1.00  0.00    +0.000 C 
ATOM     43  F2  UNL A   1       5.813   7.555  21.577  1.00  0.00    +0.000 F 
ATOM     44  C36 UNL A   1       3.598   8.238  21.175  1.00  0.00    +0.000 C 
ATOM     45  F3  UNL A   1       3.850   8.279  19.859  1.00  0.00    +0.000 F 
ATOM     46  C37 UNL A   1       2.336   8.563  21.648  1.00  0.00    +0.000 C 
ATOM     47  F4  UNL A   1       1.364   8.901  20.790  1.00  0.00    +0.000 F 
ATOM     48  C38 UNL A   1       2.079   8.535  23.011  1.00  0.00    +0.000 C 
ATOM     49  F5  UNL A   1       0.855   8.826  23.468  1.00  0.00    +0.000 F 
ATOM     50  C39 UNL A   1       3.092   8.195  23.904  1.00  0.00    +0.000 C 
ATOM     51  F6  UNL A   1       2.817   8.179  25.218  1.00  0.00    +0.000 F 
ENDBRANCH   40   41
BRANCH   57   58
ATOM     65  C49 UNL A   1       9.441  13.422  28.378  1.00  0.00    +0.000 C 
ATOM     66  F10 UNL A   1       8.929  14.159  29.374  1.00  0.00    +0.000 F 
ATOM     67  C50 UNL A   1       8.949  12.144  28.135  1.00  0.00    +0.000 C 
ATOM     68  F11 UNL A   1       7.966  11.666  28.913  1.00  0.00    +0.000 F 
ATOM     58  C45 UNL A   1       9.465  11.362  27.092  1.00  0.00    +0.000 C 
ATOM     59  C46 UNL A   1      10.483  11.909  26.297  1.00  0.00    +0.000 C 
ATOM     60  F7  UNL A   1      11.012  11.195  25.291  1.00  0.00    +0.000 F 
ATOM     61  C47 UNL A   1      10.988  13.179  26.556  1.00  0.00    +0.000 C 
ATOM     62  F8  UNL A   1      11.988  13.668  25.809  1.00  0.00    +0.000 F 
ATOM     63  C48 UNL A   1      10.469  13.935  27.597  1.00  0.00    +0.000 C 
ATOM     64  F9  UNL A   1      10.959  15.156  27.849  1.00  0.00    +0.000 F 
ENDBRANCH   57   58
BRANCH   72   73
ATOM     73  C54 UNL A   1      11.852   5.258  29.508  1.00  0.00    +0.000 C 
ATOM     74  C55 UNL A   1      13.116   4.963  28.980  1.00  0.00    +0.000 C 
ATOM     75  F12 UNL A   1      13.335   5.073  27.661  1.00  0.00    +0.000 F 
ATOM     76  C56 UNL A   1      14.154   4.526  29.802  1.00  0.00    +0.000 C 
ATOM     77  F13 UNL A   1      15.343   4.216  29.268  1.00  0.00    +0.000 F 
ATOM     78  C57 UNL A   1      13.952   4.397  31.167  1.00  0.00    +0.000 C 
ATOM     79  F14 UNL A   1      14.949   3.977  31.958  1.00  0.00    +0.000 F 
ATOM     80  C58 UNL A   1      12.714   4.702  31.714  1.00  0.00    +0.000 C 
ATOM     81  F15 UNL A   1      12.520   4.596  33.036  1.00  0.00    +0.000 F 
ATOM     82  C59 UNL A   1      11.671   5.121  30.891  1.00  0.00    +0.000 C 
ATOM     83  F16 UNL A   1      10.483   5.409  31.442  1.00  0.00    +0.000 F 
ENDBRANCH   72   73
TORSDOF 22
ENDMDL
MODEL 5
REMARK VINA RESULT:      -9.3      0.867      1.780
ROOT
ATOM    145  H37 UNL A   1      18.463  53.551  -0.878  1.00  0.00    +0.000 H 
ATOM    146  H38 UNL A   1      18.126  51.043  -1.505  1.00  0.00    +0.000 H 
ATOM    147  H39 UNL A   1      15.839  51.864   1.850  1.00  0.00    +0.000 H 
ATOM    148  H40 UNL A   1      12.051  49.848   6.558  1.00  0.00    +0.000 H 
ATOM    149  H41 UNL A   1      12.302  52.314   7.111  1.00  0.00    +0.000 H 
ATOM    150  H42 UNL A   1      14.684  51.501   3.802  1.00  0.00    +0.000 H 
ATOM    151  H43 UNL A   1      13.774  46.681   2.617  1.00  0.00    +0.000 H 
ATOM    152  H44 UNL A   1      15.366  46.998   0.636  1.00  0.00    +0.000 H 
ATOM    153  H45 UNL A   1      16.449  56.722   2.944  1.00  0.00    +0.000 H 
ATOM    154  H46 UNL A   1      15.195  56.337   5.145  1.00  0.00    +0.000 H 
ATOM     36  C30 UNL A   1      14.050  53.736   5.364  1.00  0.00    +0.000 C 
ATOM     37  C31 UNL A   1      14.973  54.246   4.291  1.00  0.00    +0.000 C 
ATOM     38  N4  UNL A   1      15.449  53.625   3.241  1.00  0.00    +0.000 N 
ATOM     39  C32 UNL A   1      16.181  54.574   2.542  1.00  0.00    +0.000 C 
ATOM     40  C33 UNL A   1      16.904  54.413   1.408  1.00  0.00    +0.000 C 
ATOM     52  C40 UNL A   1      17.072  53.159   0.723  1.00  0.00    +0.000 C 
ATOM     53  C41 UNL A   1      17.856  52.880  -0.381  1.00  0.00    +0.000 C 
ATOM     54  C42 UNL A   1      17.686  51.532  -0.709  1.00  0.00    +0.000 C 
ATOM     55  C43 UNL A   1      16.824  50.963   0.215  1.00  0.00    +0.000 C 
ATOM     56  N5  UNL A   1      16.452  51.973   1.086  1.00  0.00    +0.000 N 
ATOM     57  C44 UNL A   1      16.371  49.597   0.292  1.00  0.00    +0.000 C 
ATOM     69  C51 UNL A   1      15.543  49.106   1.244  1.00  0.00    +0.000 C 
ATOM     70  N6  UNL A   1      14.973  49.766   2.324  1.00  0.00    +0.000 N 
ATOM     71  C52 UNL A   1      14.255  48.872   2.956  1.00  0.00    +0.000 C 
ATOM     72  C53 UNL A   1      13.430  49.033   4.201  1.00  0.00    +0.000 C 
ATOM     84  C60 UNL A   1      13.405  50.222   4.833  1.00  0.00    +0.000 C 
ATOM     85  C61 UNL A   1      12.622  50.524   6.030  1.00  0.00    +0.000 C 
ATOM     86  C62 UNL A   1      12.768  51.824   6.330  1.00  0.00    +0.000 C 
ATOM     87  C63 UNL A   1      13.692  52.437   5.376  1.00  0.00    +0.000 C 
ATOM     88  N7  UNL A   1      14.040  51.404   4.540  1.00  0.00    +0.000 N 
ATOM     89  C64 UNL A   1      14.271  47.540   2.331  1.00  0.00    +0.000 C 
ATOM     90  C65 UNL A   1      15.088  47.733   1.306  1.00  0.00    +0.000 C 
ATOM     91  C66 UNL A   1      16.060  55.821   3.264  1.00  0.00    +0.000 C 
ATOM     92  C67 UNL A   1      15.385  55.655   4.393  1.00  0.00    +0.000 C 
ENDROOT
BRANCH   36   35
ATOM     33  C27 UNL A   1      11.714  56.297   6.946  1.00  0.00    +0.000 C 
ATOM     34  C28 UNL A   1      12.208  55.332   6.059  1.00  0.00    +0.000 C 
ATOM     35  C29 UNL A   1      13.426  54.686   6.322  1.00  0.00    +0.000 C 
ATOM    143  H35 UNL A   1      10.831  56.788   6.737  1.00  0.00    +0.000 H 
ATOM    144  H36 UNL A   1      11.675  55.097   5.207  1.00  0.00    +0.000 H 
ATOM    155  H47 UNL A   1      14.979  54.473   7.740  1.00  0.00    +0.000 H 
ATOM    156  H48 UNL A   1      14.025  56.007   9.351  1.00  0.00    +0.000 H 
ATOM     93  C68 UNL A   1      14.091  54.955   7.527  1.00  0.00    +0.000 C 
ATOM     94  C69 UNL A   1      13.566  55.866   8.437  1.00  0.00    +0.000 C 
ATOM     32  C26 UNL A   1      12.420  56.591   8.114  1.00  0.00    +0.000 C 
BRANCH   32   30
ATOM     30  C25 UNL A   1      11.934  57.654   9.023  1.00  0.00    +0.000 C 
ATOM     31  O2  UNL A   1      12.441  58.762   8.991  1.00  0.00    +0.000 O 
BRANCH   30   29
ATOM     29  N3  UNL A   1      10.899  57.380   9.895  1.00  0.00    +0.000 N 
ATOM    142  H34 UNL A   1       9.993  57.491   9.525  1.00  0.00    +0.000 H 
BRANCH   29   28
ATOM    141  H33 UNL A   1      10.357  57.618  11.863  1.00  0.00    +0.000 H 
ATOM     28  C24 UNL A   1      10.959  56.951  11.284  1.00  0.00    +0.000 C 
ATOM    140  H32 UNL A   1      11.978  56.970  11.608  1.00  0.00    +0.000 H 
BRANCH   28   27
ATOM    138  H30 UNL A   1      10.414  55.313  12.516  1.00  0.00    +0.000 H 
ATOM     27  C23 UNL A   1      10.409  55.536  11.470  1.00  0.00    +0.000 C 
ATOM    139  H31 UNL A   1       9.429  55.537  11.042  1.00  0.00    +0.000 H 
BRANCH   27   26
ATOM    137  H29 UNL A   1      11.860  54.027  11.477  1.00  0.00    +0.000 H 
ATOM     26  C22 UNL A   1      11.197  54.439  10.745  1.00  0.00    +0.000 C 
ATOM    136  H28 UNL A   1      11.694  54.889   9.911  1.00  0.00    +0.000 H 
BRANCH   26   25
ATOM     25  C21 UNL A   1      10.371  53.258  10.219  1.00  0.00    +0.000 C 
ATOM    134  H26 UNL A   1      10.552  52.418  10.857  1.00  0.00    +0.000 H 
ATOM    135  H27 UNL A   1       9.352  53.585  10.219  1.00  0.00    +0.000 H 
BRANCH   25   24
ATOM    132  H24 UNL A   1      11.360  53.542   8.360  1.00  0.00    +0.000 H 
ATOM    133  H25 UNL A   1      11.081  51.844   8.835  1.00  0.00    +0.000 H 
ATOM     24  C20 UNL A   1      10.678  52.833   8.779  1.00  0.00    +0.000 C 
BRANCH   24   23
ATOM    130  H22 UNL A   1       8.701  53.423   8.229  1.00  0.00    +0.000 H 
ATOM    131  H23 UNL A   1       9.756  53.016   6.873  1.00  0.00    +0.000 H 
ATOM     23  C19 UNL A   1       9.449  52.752   7.863  1.00  0.00    +0.000 C 
BRANCH   23   22
ATOM    129  H21 UNL A   1       8.359  51.178   8.609  1.00  0.00    +0.000 H 
ATOM     22  N2  UNL A   1       8.893  51.413   7.815  1.00  0.00    +0.000 N 
BRANCH   22   20
ATOM     20  C18 UNL A   1       8.963  50.415   6.891  1.00  0.00    +0.000 C 
ATOM     21  O1  UNL A   1       8.698  50.740   5.725  1.00  0.00    +0.000 O 
BRANCH   20   18
ATOM     18  C16 UNL A   1       9.335  48.953   7.203  1.00  0.00    +0.000 C 
ATOM    125  H17 UNL A   1      10.075  48.692   6.476  1.00  0.00    +0.000 H 
BRANCH   18   17
ATOM     14  C12 UNL A   1      11.255  48.823  11.136  1.00  0.00    +0.000 C 
ATOM     15  C13 UNL A   1       9.974  48.295  10.903  1.00  0.00    +0.000 C 
ATOM     16  C14 UNL A   1       9.411  48.219   9.632  1.00  0.00    +0.000 C 
ATOM     17  C15 UNL A   1      10.039  48.791   8.539  1.00  0.00    +0.000 C 
ATOM    123  H15 UNL A   1       9.427  47.949  11.707  1.00  0.00    +0.000 H 
ATOM    124  H16 UNL A   1       8.513  47.727   9.503  1.00  0.00    +0.000 H 
ATOM    157  H49 UNL A   1      11.864  49.630   7.914  1.00  0.00    +0.000 H 
ATOM     95  C70 UNL A   1      11.351  49.248   8.725  1.00  0.00    +0.000 C 
ATOM     96  C71 UNL A   1      12.000  49.207   9.987  1.00  0.00    +0.000 C 
BRANCH   14    6
ATOM    118  H10 UNL A   1      12.818  48.548  12.399  1.00  0.00    +0.000 H 
ATOM      6  C5  UNL A   1      11.833  48.927  12.579  1.00  0.00    +0.000 C 
BRANCH    6    5
ATOM      2  C2  UNL A   1      11.641  46.126  15.816  1.00  0.00    +0.000 C 
ATOM      3  C3  UNL A   1      11.158  47.539  16.131  1.00  0.00    +0.000 C 
ATOM      4  C4  UNL A   1      11.466  48.525  14.998  1.00  0.00    +0.000 C 
ATOM    164  H56 UNL A   1       9.914  45.741  14.631  1.00  0.00    +0.000 H 
ATOM    165  H57 UNL A   1      11.272  44.684  14.296  1.00  0.00    +0.000 H 
ATOM    162  H54 UNL A   1      12.439  46.403  13.165  1.00  0.00    +0.000 H 
ATOM    163  H55 UNL A   1      10.759  46.375  12.554  1.00  0.00    +0.000 H 
ATOM      5  N1  UNL A   1      11.261  48.031  13.635  1.00  0.00    +0.000 N 
ATOM    107  C79 UNL A   1      11.408  46.598  13.374  1.00  0.00    +0.000 C 
ATOM    108  C80 UNL A   1      10.976  45.689  14.518  1.00  0.00    +0.000 C 
ATOM    112  H4  UNL A   1      12.705  46.120  15.712  1.00  0.00    +0.000 H 
ATOM    113  H5  UNL A   1      11.641  47.878  17.022  1.00  0.00    +0.000 H 
ATOM    114  H6  UNL A   1      10.095  47.503  16.252  1.00  0.00    +0.000 H 
ATOM    115  H7  UNL A   1      12.492  48.814  15.089  1.00  0.00    +0.000 H 
ATOM    116  H8  UNL A   1      10.769  49.327  15.119  1.00  0.00    +0.000 H 
ATOM    117  H9  UNL A   1      10.247  48.101  13.556  1.00  0.00    +0.000 H 
BRANCH    2    1
ATOM      1  C1  UNL A   1      11.306  45.163  16.944  1.00  0.00    +0.000 C 
ATOM    109  H1  UNL A   1      11.916  45.384  17.795  1.00  0.00    +0.000 H 
ATOM    110  H2  UNL A   1      11.492  44.159  16.623  1.00  0.00    +0.000 H 
ATOM    111  H3  UNL A   1      10.274  45.268  17.209  1.00  0.00    +0.000 H 
ENDBRANCH    2    1
ENDBRANCH    6    5
BRANCH    6    7
ATOM      7  C6  UNL A   1      11.911  50.370  13.120  1.00  0.00    +0.000 C 
ATOM      8  C7  UNL A   1      13.140  50.988  13.427  1.00  0.00    +0.000 C 
ATOM      9  C8  UNL A   1      13.178  52.299  13.903  1.00  0.00    +0.000 C 
ATOM     10  C9  UNL A   1      11.990  52.994  14.090  1.00  0.00    +0.000 C 
ATOM     11  F1  UNL A   1      12.029  54.250  14.558  1.00  0.00    +0.000 F 
ATOM     12  C10 UNL A   1      10.765  52.410  13.798  1.00  0.00    +0.000 C 
ATOM     13  C11 UNL A   1      10.725  51.107  13.301  1.00  0.00    +0.000 C 
ATOM    119  H11 UNL A   1      14.020  50.465  13.299  1.00  0.00    +0.000 H 
ATOM    120  H12 UNL A   1      14.083  52.748  14.114  1.00  0.00    +0.000 H 
ATOM    121  H13 UNL A   1       9.890  52.937  13.948  1.00  0.00    +0.000 H 
ATOM    122  H14 UNL A   1       9.816  50.679  13.063  1.00  0.00    +0.000 H 
ENDBRANCH    6    7
ENDBRANCH   14    6
BRANCH   96   97
ATOM     97  C72 UNL A   1      13.443  49.514  10.017  1.00  0.00    +0.000 C 
ATOM     98  C73 UNL A   1      13.914  50.835  10.038  1.00  0.00    +0.000 C 
ATOM     99  C74 UNL A   1      15.286  51.108  10.062  1.00  0.00    +0.000 C 
ATOM    161  H53 UNL A   1      14.065  47.496   9.940  1.00  0.00    +0.000 H 
ATOM    100  C75 UNL A   1      16.223  50.064  10.065  1.00  0.00    +0.000 C 
ATOM    101  C76 UNL A   1      17.700  50.366  10.090  1.00  0.00    +0.000 C 
ATOM    102  F17 UNL A   1      18.154  50.834   8.894  1.00  0.00    +0.000 F 
ATOM    103  F18 UNL A   1      18.032  51.311  11.012  1.00  0.00    +0.000 F 
ATOM    105  C77 UNL A   1      15.760  48.743  10.018  1.00  0.00    +0.000 C 
ATOM    106  C78 UNL A   1      14.389  48.474   9.987  1.00  0.00    +0.000 C 
ATOM    104  F19 UNL A   1      18.471  49.280  10.381  1.00  0.00    +0.000 F 
ATOM    158  H50 UNL A   1      13.240  51.615  10.034  1.00  0.00    +0.000 H 
ATOM    159  H51 UNL A   1      15.613  52.087  10.079  1.00  0.00    +0.000 H 
ATOM    160  H52 UNL A   1      16.436  47.962  10.006  1.00  0.00    +0.000 H 
ENDBRANCH   96   97
ENDBRANCH   18   17
BRANCH   18   19
ATOM     19  C17 UNL A   1       8.230  47.938   6.923  1.00  0.00    +0.000 C 
ATOM    126  H18 UNL A   1       7.544  47.921   7.744  1.00  0.00    +0.000 H 
ATOM    127  H19 UNL A   1       8.661  46.966   6.799  1.00  0.00    +0.000 H 
ATOM    128  H20 UNL A   1       7.710  48.214   6.029  1.00  0.00    +0.000 H 
ENDBRANCH   18   19
ENDBRANCH   20   18
ENDBRANCH   22   20
ENDBRANCH   23   22
ENDBRANCH   24   23
ENDBRANCH   25   24
ENDBRANCH   26   25
ENDBRANCH   27   26
ENDBRANCH   28   27
ENDBRANCH   29   28
ENDBRANCH   30   29
ENDBRANCH   32   30
ENDBRANCH   36   35
BRANCH   40   41
ATOM     41  C34 UNL A   1      17.586  55.621   0.836  1.00  0.00    +0.000 C 
ATOM     42  C35 UNL A   1      18.889  55.957   1.235  1.00  0.00    +0.000 C 
ATOM     43  F2  UNL A   1      19.556  55.173   2.096  1.00  0.00    +0.000 F 
ATOM     44  C36 UNL A   1      19.508  57.111   0.761  1.00  0.00    +0.000 C 
ATOM     45  F3  UNL A   1      20.743  57.425   1.176  1.00  0.00    +0.000 F 
ATOM     46  C37 UNL A   1      18.847  57.936  -0.136  1.00  0.00    +0.000 C 
ATOM     47  F4  UNL A   1      19.449  59.039  -0.601  1.00  0.00    +0.000 F 
ATOM     48  C38 UNL A   1      17.563  57.618  -0.552  1.00  0.00    +0.000 C 
ATOM     49  F5  UNL A   1      16.932  58.401  -1.436  1.00  0.00    +0.000 F 
ATOM     50  C39 UNL A   1      16.932  56.479  -0.059  1.00  0.00    +0.000 C 
ATOM     51  F6  UNL A   1      15.688  56.197  -0.476  1.00  0.00    +0.000 F 
ENDBRANCH   40   41
BRANCH   57   58
ATOM     65  C49 UNL A   1      16.706  47.690  -2.983  1.00  0.00    +0.000 C 
ATOM     66  F10 UNL A   1      16.025  47.524  -4.125  1.00  0.00    +0.000 F 
ATOM     67  C50 UNL A   1      16.175  48.477  -1.965  1.00  0.00    +0.000 C 
ATOM     68  F11 UNL A   1      14.983  49.064  -2.150  1.00  0.00    +0.000 F 
ATOM     58  C45 UNL A   1      16.868  48.655  -0.760  1.00  0.00    +0.000 C 
ATOM     59  C46 UNL A   1      18.105  48.011  -0.607  1.00  0.00    +0.000 C 
ATOM     60  F7  UNL A   1      18.807  48.157   0.528  1.00  0.00    +0.000 F 
ATOM     61  C47 UNL A   1      18.643  47.242  -1.634  1.00  0.00    +0.000 C 
ATOM     62  F8  UNL A   1      19.844  46.667  -1.483  1.00  0.00    +0.000 F 
ATOM     63  C48 UNL A   1      17.945  47.084  -2.822  1.00  0.00    +0.000 C 
ATOM     64  F9  UNL A   1      18.465  46.348  -3.814  1.00  0.00    +0.000 F 
ENDBRANCH   57   58
BRANCH   72   73
ATOM     73  C54 UNL A   1      12.667  47.893   4.768  1.00  0.00    +0.000 C 
ATOM     74  C55 UNL A   1      11.475  47.443   4.183  1.00  0.00    +0.000 C 
ATOM     75  F12 UNL A   1      11.020  48.017   3.059  1.00  0.00    +0.000 F 
ATOM     76  C56 UNL A   1      10.730  46.419   4.766  1.00  0.00    +0.000 C 
ATOM     77  F13 UNL A   1       9.576  46.031   4.207  1.00  0.00    +0.000 F 
ATOM     78  C57 UNL A   1      11.174  45.813   5.931  1.00  0.00    +0.000 C 
ATOM     79  F14 UNL A   1      10.458  44.828   6.492  1.00  0.00    +0.000 F 
ATOM     80  C58 UNL A   1      12.361  46.229   6.517  1.00  0.00    +0.000 C 
ATOM     81  F15 UNL A   1      12.802  45.634   7.634  1.00  0.00    +0.000 F 
ATOM     82  C59 UNL A   1      13.096  47.265   5.945  1.00  0.00    +0.000 C 
ATOM     83  F16 UNL A   1      14.239  47.652   6.530  1.00  0.00    +0.000 F 
ENDBRANCH   72   73
TORSDOF 22
ENDMDL
MODEL 6
REMARK VINA RESULT:      -9.2      3.030      8.380
ROOT
ATOM    145  H37 UNL A   1      18.076  50.847  -2.548  1.00  0.00    +0.000 H 
ATOM    146  H38 UNL A   1      18.580  53.397  -2.337  1.00  0.00    +0.000 H 
ATOM    147  H39 UNL A   1      16.393  52.224   0.979  1.00  0.00    +0.000 H 
ATOM    148  H40 UNL A   1      13.283  53.723   6.334  1.00  0.00    +0.000 H 
ATOM    149  H41 UNL A   1      12.877  51.221   6.178  1.00  0.00    +0.000 H 
ATOM    150  H42 UNL A   1      14.987  52.382   2.789  1.00  0.00    +0.000 H 
ATOM    151  H43 UNL A   1      16.033  57.276   3.445  1.00  0.00    +0.000 H 
ATOM    152  H44 UNL A   1      17.299  57.174   1.221  1.00  0.00    +0.000 H 
ATOM    153  H45 UNL A   1      15.545  47.297   0.568  1.00  0.00    +0.000 H 
ATOM    154  H46 UNL A   1      13.945  47.452   2.562  1.00  0.00    +0.000 H 
ATOM     36  C30 UNL A   1      13.958  50.000   3.839  1.00  0.00    +0.000 C 
ATOM     37  C31 UNL A   1      14.648  49.609   2.561  1.00  0.00    +0.000 C 
ATOM     38  N4  UNL A   1      15.392  50.334   1.764  1.00  0.00    +0.000 N 
ATOM     39  C32 UNL A   1      15.844  49.468   0.778  1.00  0.00    +0.000 C 
ATOM     40  C33 UNL A   1      16.611  49.747  -0.302  1.00  0.00    +0.000 C 
ATOM     52  C40 UNL A   1      17.081  51.063  -0.646  1.00  0.00    +0.000 C 
ATOM     53  C41 UNL A   1      17.789  51.458  -1.767  1.00  0.00    +0.000 C 
ATOM     54  C42 UNL A   1      18.046  52.828  -1.660  1.00  0.00    +0.000 C 
ATOM     55  C43 UNL A   1      17.466  53.293  -0.491  1.00  0.00    +0.000 C 
ATOM     56  N5  UNL A   1      16.880  52.199   0.124  1.00  0.00    +0.000 N 
ATOM     57  C44 UNL A   1      17.453  54.636   0.028  1.00  0.00    +0.000 C 
ATOM     69  C51 UNL A   1      16.840  55.021   1.172  1.00  0.00    +0.000 C 
ATOM     70  N6  UNL A   1      16.107  54.253   2.066  1.00  0.00    +0.000 N 
ATOM     71  C52 UNL A   1      15.717  55.071   3.011  1.00  0.00    +0.000 C 
ATOM     72  C53 UNL A   1      14.885  54.780   4.228  1.00  0.00    +0.000 C 
ATOM     84  C60 UNL A   1      14.406  53.536   4.423  1.00  0.00    +0.000 C 
ATOM     85  C61 UNL A   1      13.614  53.109   5.575  1.00  0.00    +0.000 C 
ATOM     86  C62 UNL A   1      13.386  51.790   5.483  1.00  0.00    +0.000 C 
ATOM     87  C63 UNL A   1      13.975  51.286   4.243  1.00  0.00    +0.000 C 
ATOM     88  N7  UNL A   1      14.536  52.399   3.664  1.00  0.00    +0.000 N 
ATOM     89  C64 UNL A   1      16.182  56.456   2.835  1.00  0.00    +0.000 C 
ATOM     90  C65 UNL A   1      16.842  56.375   1.687  1.00  0.00    +0.000 C 
ATOM     91  C66 UNL A   1      15.321  48.157   1.093  1.00  0.00    +0.000 C 
ATOM     92  C67 UNL A   1      14.515  48.204   2.144  1.00  0.00    +0.000 C 
ENDROOT
BRANCH   36   35
ATOM     33  C27 UNL A   1      13.588  47.038   6.208  1.00  0.00    +0.000 C 
ATOM     34  C28 UNL A   1      14.177  48.074   5.472  1.00  0.00    +0.000 C 
ATOM     35  C29 UNL A   1      13.380  48.954   4.723  1.00  0.00    +0.000 C 
ATOM    143  H35 UNL A   1      14.178  46.378   6.737  1.00  0.00    +0.000 H 
ATOM    144  H36 UNL A   1      15.203  48.190   5.480  1.00  0.00    +0.000 H 
ATOM    155  H47 UNL A   1      11.388  49.486   4.262  1.00  0.00    +0.000 H 
ATOM    156  H48 UNL A   1      10.372  47.808   5.680  1.00  0.00    +0.000 H 
ATOM     93  C68 UNL A   1      11.985  48.834   4.795  1.00  0.00    +0.000 C 
ATOM     94  C69 UNL A   1      11.398  47.845   5.577  1.00  0.00    +0.000 C 
ATOM     32  C26 UNL A   1      12.198  46.902   6.223  1.00  0.00    +0.000 C 
BRANCH   32   30
ATOM     30  C25 UNL A   1      11.574  45.772   6.947  1.00  0.00    +0.000 C 
ATOM     31  O2  UNL A   1      11.687  44.637   6.520  1.00  0.00    +0.000 O 
BRANCH   30   29
ATOM     29  N3  UNL A   1      10.874  46.017   8.112  1.00  0.00    +0.000 N 
ATOM    142  H34 UNL A   1       9.902  45.868   8.063  1.00  0.00    +0.000 H 
BRANCH   29   28
ATOM    141  H33 UNL A   1      12.319  45.996   9.575  1.00  0.00    +0.000 H 
ATOM     28  C24 UNL A   1      11.374  46.466   9.404  1.00  0.00    +0.000 C 
ATOM    140  H32 UNL A   1      10.667  46.198  10.160  1.00  0.00    +0.000 H 
BRANCH   28   27
ATOM    138  H30 UNL A   1      11.134  48.399   8.565  1.00  0.00    +0.000 H 
ATOM     27  C23 UNL A   1      11.585  47.980   9.440  1.00  0.00    +0.000 C 
ATOM    139  H31 UNL A   1      11.142  48.324  10.351  1.00  0.00    +0.000 H 
BRANCH   27   26
ATOM    137  H29 UNL A   1      13.130  49.093  10.311  1.00  0.00    +0.000 H 
ATOM     26  C22 UNL A   1      13.052  48.425   9.479  1.00  0.00    +0.000 C 
ATOM    136  H28 UNL A   1      13.283  48.874   8.536  1.00  0.00    +0.000 H 
BRANCH   26   25
ATOM     25  C21 UNL A   1      14.081  47.316   9.737  1.00  0.00    +0.000 C 
ATOM    134  H26 UNL A   1      13.829  46.840  10.662  1.00  0.00    +0.000 H 
ATOM    135  H27 UNL A   1      14.031  46.663   8.891  1.00  0.00    +0.000 H 
BRANCH   25   24
ATOM    132  H24 UNL A   1      15.602  48.532  10.586  1.00  0.00    +0.000 H 
ATOM    133  H25 UNL A   1      16.121  46.912  10.045  1.00  0.00    +0.000 H 
ATOM     24  C20 UNL A   1      15.537  47.782   9.826  1.00  0.00    +0.000 C 
BRANCH   24   23
ATOM    130  H22 UNL A   1      16.327  47.566   7.855  1.00  0.00    +0.000 H 
ATOM    131  H23 UNL A   1      15.362  49.022   8.110  1.00  0.00    +0.000 H 
ATOM     23  C19 UNL A   1      16.100  48.368   8.524  1.00  0.00    +0.000 C 
BRANCH   23   22
ATOM    129  H21 UNL A   1      18.136  48.633   8.607  1.00  0.00    +0.000 H 
ATOM     22  N2  UNL A   1      17.306  49.143   8.752  1.00  0.00    +0.000 N 
BRANCH   22   20
ATOM     20  C18 UNL A   1      17.517  50.434   9.127  1.00  0.00    +0.000 C 
ATOM     21  O1  UNL A   1      18.069  51.157   8.286  1.00  0.00    +0.000 O 
BRANCH   20   18
ATOM     18  C16 UNL A   1      17.127  51.026  10.495  1.00  0.00    +0.000 C 
ATOM    125  H17 UNL A   1      17.569  52.000  10.514  1.00  0.00    +0.000 H 
BRANCH   18   17
ATOM     14  C12 UNL A   1      12.912  52.054  11.082  1.00  0.00    +0.000 C 
ATOM     15  C13 UNL A   1      13.627  52.423   9.929  1.00  0.00    +0.000 C 
ATOM     16  C14 UNL A   1      14.926  51.992   9.679  1.00  0.00    +0.000 C 
ATOM     17  C15 UNL A   1      15.636  51.280  10.631  1.00  0.00    +0.000 C 
ATOM    123  H15 UNL A   1      13.168  53.038   9.239  1.00  0.00    +0.000 H 
ATOM    124  H16 UNL A   1      15.366  52.205   8.770  1.00  0.00    +0.000 H 
ATOM    157  H49 UNL A   1      15.416  50.248  12.450  1.00  0.00    +0.000 H 
ATOM     95  C70 UNL A   1      14.925  50.828  11.750  1.00  0.00    +0.000 C 
ATOM     96  C71 UNL A   1      13.555  51.137  11.959  1.00  0.00    +0.000 C 
BRANCH   14    6
ATOM    118  H10 UNL A   1      10.988  51.669  11.593  1.00  0.00    +0.000 H 
ATOM      6  C5  UNL A   1      11.473  52.590  11.344  1.00  0.00    +0.000 C 
BRANCH    6    5
ATOM      2  C2  UNL A   1      10.555  53.859   7.355  1.00  0.00    +0.000 C 
ATOM      3  C3  UNL A   1       9.797  52.631   7.852  1.00  0.00    +0.000 C 
ATOM      4  C4  UNL A   1      10.341  52.114   9.189  1.00  0.00    +0.000 C 
ATOM    164  H56 UNL A   1       9.427  55.139   8.630  1.00  0.00    +0.000 H 
ATOM    165  H57 UNL A   1      10.951  55.816   8.090  1.00  0.00    +0.000 H 
ATOM    162  H54 UNL A   1      12.185  54.413   9.541  1.00  0.00    +0.000 H 
ATOM    163  H55 UNL A   1      10.848  55.144  10.477  1.00  0.00    +0.000 H 
ATOM      5  N1  UNL A   1      10.699  53.131  10.180  1.00  0.00    +0.000 N 
ATOM    107  C79 UNL A   1      11.130  54.449   9.713  1.00  0.00    +0.000 C 
ATOM    108  C80 UNL A   1      10.457  54.930   8.432  1.00  0.00    +0.000 C 
ATOM    112  H4  UNL A   1      11.578  53.606   7.171  1.00  0.00    +0.000 H 
ATOM    113  H5  UNL A   1       9.884  51.854   7.123  1.00  0.00    +0.000 H 
ATOM    114  H6  UNL A   1       8.776  52.915   8.002  1.00  0.00    +0.000 H 
ATOM    115  H7  UNL A   1      11.217  51.537   8.983  1.00  0.00    +0.000 H 
ATOM    116  H8  UNL A   1       9.539  51.558   9.628  1.00  0.00    +0.000 H 
ATOM    117  H9  UNL A   1       9.778  53.384  10.537  1.00  0.00    +0.000 H 
BRANCH    2    1
ATOM      1  C1  UNL A   1       9.985  54.365   6.039  1.00  0.00    +0.000 C 
ATOM    109  H1  UNL A   1      10.288  53.714   5.246  1.00  0.00    +0.000 H 
ATOM    110  H2  UNL A   1      10.351  55.353   5.849  1.00  0.00    +0.000 H 
ATOM    111  H3  UNL A   1       8.917  54.384   6.096  1.00  0.00    +0.000 H 
ENDBRANCH    2    1
ENDBRANCH    6    5
BRANCH    6    7
ATOM      7  C6  UNL A   1      11.378  53.577  12.525  1.00  0.00    +0.000 C 
ATOM      8  C7  UNL A   1      10.210  53.701  13.304  1.00  0.00    +0.000 C 
ATOM      9  C8  UNL A   1      10.159  54.595  14.375  1.00  0.00    +0.000 C 
ATOM     10  C9  UNL A   1      11.267  55.381  14.663  1.00  0.00    +0.000 C 
ATOM     11  F1  UNL A   1      11.212  56.247  15.685  1.00  0.00    +0.000 F 
ATOM     12  C10 UNL A   1      12.430  55.283  13.911  1.00  0.00    +0.000 C 
ATOM     13  C11 UNL A   1      12.492  54.374  12.854  1.00  0.00    +0.000 C 
ATOM    119  H11 UNL A   1       9.384  53.125  13.080  1.00  0.00    +0.000 H 
ATOM    120  H12 UNL A   1       9.304  54.670  14.948  1.00  0.00    +0.000 H 
ATOM    121  H13 UNL A   1      13.243  55.878  14.133  1.00  0.00    +0.000 H 
ATOM    122  H14 UNL A   1      13.363  54.284  12.308  1.00  0.00    +0.000 H 
ENDBRANCH    6    7
ENDBRANCH   14    6
BRANCH   96   97
ATOM     97  C72 UNL A   1      12.860  50.433  13.053  1.00  0.00    +0.000 C 
ATOM     98  C73 UNL A   1      12.841  50.942  14.360  1.00  0.00    +0.000 C 
ATOM     99  C74 UNL A   1      12.180  50.259  15.387  1.00  0.00    +0.000 C 
ATOM    161  H53 UNL A   1      12.254  48.793  11.866  1.00  0.00    +0.000 H 
ATOM    100  C75 UNL A   1      11.522  49.047  15.133  1.00  0.00    +0.000 C 
ATOM    101  C76 UNL A   1      10.814  48.316  16.245  1.00  0.00    +0.000 C 
ATOM    102  F17 UNL A   1      11.681  47.719  17.108  1.00  0.00    +0.000 F 
ATOM    103  F18 UNL A   1      10.034  49.135  17.005  1.00  0.00    +0.000 F 
ATOM    105  C77 UNL A   1      11.559  48.521  13.835  1.00  0.00    +0.000 C 
ATOM    106  C78 UNL A   1      12.226  49.201  12.813  1.00  0.00    +0.000 C 
ATOM    104  F19 UNL A   1       9.988  47.326  15.803  1.00  0.00    +0.000 F 
ATOM    158  H50 UNL A   1      13.321  51.831  14.567  1.00  0.00    +0.000 H 
ATOM    159  H51 UNL A   1      12.176  50.651  16.342  1.00  0.00    +0.000 H 
ATOM    160  H52 UNL A   1      11.092  47.622  13.633  1.00  0.00    +0.000 H 
ENDBRANCH   96   97
ENDBRANCH   18   17
BRANCH   18   19
ATOM     19  C17 UNL A   1      17.783  50.348  11.696  1.00  0.00    +0.000 C 
ATOM    126  H18 UNL A   1      17.729  50.996  12.546  1.00  0.00    +0.000 H 
ATOM    127  H19 UNL A   1      18.808  50.137  11.473  1.00  0.00    +0.000 H 
ATOM    128  H20 UNL A   1      17.270  49.434  11.913  1.00  0.00    +0.000 H 
ENDBRANCH   18   19
ENDBRANCH   20   18
ENDBRANCH   22   20
ENDBRANCH   23   22
ENDBRANCH   24   23
ENDBRANCH   25   24
ENDBRANCH   26   25
ENDBRANCH   27   26
ENDBRANCH   28   27
ENDBRANCH   29   28
ENDBRANCH   30   29
ENDBRANCH   32   30
ENDBRANCH   36   35
BRANCH   40   41
ATOM     41  C34 UNL A   1      16.984  48.611  -1.208  1.00  0.00    +0.000 C 
ATOM     42  C35 UNL A   1      18.095  47.806  -0.916  1.00  0.00    +0.000 C 
ATOM     43  F2  UNL A   1      18.806  48.013   0.203  1.00  0.00    +0.000 F 
ATOM     44  C36 UNL A   1      18.492  46.790  -1.783  1.00  0.00    +0.000 C 
ATOM     45  F3  UNL A   1      19.571  46.049  -1.496  1.00  0.00    +0.000 F 
ATOM     46  C37 UNL A   1      17.772  46.546  -2.943  1.00  0.00    +0.000 C 
ATOM     47  F4  UNL A   1      18.146  45.560  -3.769  1.00  0.00    +0.000 F 
ATOM     48  C38 UNL A   1      16.664  47.323  -3.246  1.00  0.00    +0.000 C 
ATOM     49  F5  UNL A   1      15.954  47.075  -4.354  1.00  0.00    +0.000 F 
ATOM     50  C39 UNL A   1      16.283  48.357  -2.395  1.00  0.00    +0.000 C 
ATOM     51  F6  UNL A   1      15.208  49.095  -2.714  1.00  0.00    +0.000 F 
ENDBRANCH   40   41
BRANCH   57   58
ATOM     65  C49 UNL A   1      20.208  56.831  -1.410  1.00  0.00    +0.000 C 
ATOM     66  F10 UNL A   1      21.510  57.075  -1.206  1.00  0.00    +0.000 F 
ATOM     67  C50 UNL A   1      19.529  55.943  -0.582  1.00  0.00    +0.000 C 
ATOM     68  F11 UNL A   1      20.199  55.337   0.411  1.00  0.00    +0.000 F 
ATOM     58  C45 UNL A   1      18.166  55.682  -0.773  1.00  0.00    +0.000 C 
ATOM     59  C46 UNL A   1      17.505  56.348  -1.815  1.00  0.00    +0.000 C 
ATOM     60  F7  UNL A   1      16.200  56.126  -2.040  1.00  0.00    +0.000 F 
ATOM     61  C47 UNL A   1      18.191  57.220  -2.655  1.00  0.00    +0.000 C 
ATOM     62  F8  UNL A   1      17.550  57.817  -3.670  1.00  0.00    +0.000 F 
ATOM     63  C48 UNL A   1      19.542  57.460  -2.454  1.00  0.00    +0.000 C 
ATOM     64  F9  UNL A   1      20.204  58.295  -3.266  1.00  0.00    +0.000 F 
ENDBRANCH   57   58
BRANCH   72   73
ATOM     73  C54 UNL A   1      14.553  55.848   5.203  1.00  0.00    +0.000 C 
ATOM     74  C55 UNL A   1      15.516  56.370   6.078  1.00  0.00    +0.000 C 
ATOM     75  F12 UNL A   1      16.783  55.935   6.017  1.00  0.00    +0.000 F 
ATOM     76  C56 UNL A   1      15.174  57.320   7.038  1.00  0.00    +0.000 C 
ATOM     77  F13 UNL A   1      16.104  57.778   7.887  1.00  0.00    +0.000 F 
ATOM     78  C57 UNL A   1      13.869  57.782   7.127  1.00  0.00    +0.000 C 
ATOM     79  F14 UNL A   1      13.540  58.696   8.050  1.00  0.00    +0.000 F 
ATOM     80  C58 UNL A   1      12.904  57.294   6.258  1.00  0.00    +0.000 C 
ATOM     81  F15 UNL A   1      11.646  57.750   6.328  1.00  0.00    +0.000 F 
ATOM     82  C59 UNL A   1      13.241  56.329   5.311  1.00  0.00    +0.000 C 
ATOM     83  F16 UNL A   1      12.291  55.871   4.483  1.00  0.00    +0.000 F 
ENDBRANCH   72   73
TORSDOF 22
ENDMDL
MODEL 7
REMARK VINA RESULT:      -9.1      2.677      8.279
ROOT
ATOM    145  H37 UNL A   1      17.971  50.772  -2.290  1.00  0.00    +0.000 H 
ATOM    146  H38 UNL A   1      18.469  53.326  -2.133  1.00  0.00    +0.000 H 
ATOM    147  H39 UNL A   1      16.252  52.226   1.188  1.00  0.00    +0.000 H 
ATOM    148  H40 UNL A   1      13.089  53.841   6.477  1.00  0.00    +0.000 H 
ATOM    149  H41 UNL A   1      12.687  51.335   6.374  1.00  0.00    +0.000 H 
ATOM    150  H42 UNL A   1      14.828  52.423   2.981  1.00  0.00    +0.000 H 
ATOM    151  H43 UNL A   1      15.861  57.332   3.534  1.00  0.00    +0.000 H 
ATOM    152  H44 UNL A   1      17.148  57.181   1.326  1.00  0.00    +0.000 H 
ATOM    153  H45 UNL A   1      15.416  47.289   0.881  1.00  0.00    +0.000 H 
ATOM    154  H46 UNL A   1      13.795  47.487   2.856  1.00  0.00    +0.000 H 
ATOM     36  C30 UNL A   1      13.793  50.063   4.074  1.00  0.00    +0.000 C 
ATOM     37  C31 UNL A   1      14.496  49.644   2.812  1.00  0.00    +0.000 C 
ATOM     38  N4  UNL A   1      15.247  50.353   2.006  1.00  0.00    +0.000 N 
ATOM     39  C32 UNL A   1      15.709  49.465   1.045  1.00  0.00    +0.000 C 
ATOM     40  C33 UNL A   1      16.486  49.720  -0.035  1.00  0.00    +0.000 C 
ATOM     52  C40 UNL A   1      16.957  51.029  -0.404  1.00  0.00    +0.000 C 
ATOM     53  C41 UNL A   1      17.675  51.400  -1.526  1.00  0.00    +0.000 C 
ATOM     54  C42 UNL A   1      17.930  52.772  -1.448  1.00  0.00    +0.000 C 
ATOM     55  C43 UNL A   1      17.338  53.262  -0.296  1.00  0.00    +0.000 C 
ATOM     56  N5  UNL A   1      16.747  52.182   0.338  1.00  0.00    +0.000 N 
ATOM     57  C44 UNL A   1      17.318  54.617   0.192  1.00  0.00    +0.000 C 
ATOM     69  C51 UNL A   1      16.693  55.027   1.321  1.00  0.00    +0.000 C 
ATOM     70  N6  UNL A   1      15.952  54.278   2.225  1.00  0.00    +0.000 N 
ATOM     71  C52 UNL A   1      15.552  55.117   3.148  1.00  0.00    +0.000 C 
ATOM     72  C53 UNL A   1      14.709  54.852   4.363  1.00  0.00    +0.000 C 
ATOM     84  C60 UNL A   1      14.230  53.612   4.581  1.00  0.00    +0.000 C 
ATOM     85  C61 UNL A   1      13.427  53.211   5.735  1.00  0.00    +0.000 C 
ATOM     86  C62 UNL A   1      13.203  51.889   5.671  1.00  0.00    +0.000 C 
ATOM     87  C63 UNL A   1      13.804  51.358   4.449  1.00  0.00    +0.000 C 
ATOM     88  N7  UNL A   1      14.369  52.458   3.851  1.00  0.00    +0.000 N 
ATOM     89  C64 UNL A   1      16.017  56.498   2.944  1.00  0.00    +0.000 C 
ATOM     90  C65 UNL A   1      16.688  56.392   1.806  1.00  0.00    +0.000 C 
ATOM     91  C66 UNL A   1      15.184  48.160   1.384  1.00  0.00    +0.000 C 
ATOM     92  C67 UNL A   1      14.369  48.230   2.426  1.00  0.00    +0.000 C 
ENDROOT
BRANCH   36   35
ATOM     33  C27 UNL A   1      13.387  47.368   6.737  1.00  0.00    +0.000 C 
ATOM     34  C28 UNL A   1      13.954  48.403   5.983  1.00  0.00    +0.000 C 
ATOM     35  C29 UNL A   1      13.208  49.036   4.976  1.00  0.00    +0.000 C 
ATOM    143  H35 UNL A   1      13.946  46.888   7.459  1.00  0.00    +0.000 H 
ATOM    144  H36 UNL A   1      14.924  48.700   6.167  1.00  0.00    +0.000 H 
ATOM    155  H47 UNL A   1      11.300  49.149   4.074  1.00  0.00    +0.000 H 
ATOM    156  H48 UNL A   1      10.276  47.486   5.505  1.00  0.00    +0.000 H 
ATOM     93  C68 UNL A   1      11.864  48.678   4.800  1.00  0.00    +0.000 C 
ATOM     94  C69 UNL A   1      11.283  47.694   5.593  1.00  0.00    +0.000 C 
ATOM     32  C26 UNL A   1      12.063  46.988   6.509  1.00  0.00    +0.000 C 
BRANCH   32   30
ATOM     30  C25 UNL A   1      11.480  45.853   7.259  1.00  0.00    +0.000 C 
ATOM     31  O2  UNL A   1      11.307  44.782   6.707  1.00  0.00    +0.000 O 
BRANCH   30   29
ATOM     29  N3  UNL A   1      11.146  46.020   8.589  1.00  0.00    +0.000 N 
ATOM    142  H34 UNL A   1      10.281  46.460   8.757  1.00  0.00    +0.000 H 
BRANCH   29   28
ATOM    141  H33 UNL A   1      12.902  45.429   9.481  1.00  0.00    +0.000 H 
ATOM     28  C24 UNL A   1      11.895  45.636   9.777  1.00  0.00    +0.000 C 
ATOM    140  H32 UNL A   1      11.435  44.775  10.213  1.00  0.00    +0.000 H 
BRANCH   28   27
ATOM    138  H30 UNL A   1      11.244  47.518  10.508  1.00  0.00    +0.000 H 
ATOM     27  C23 UNL A   1      11.930  46.757  10.817  1.00  0.00    +0.000 C 
ATOM    139  H31 UNL A   1      11.669  46.307  11.752  1.00  0.00    +0.000 H 
BRANCH   27   26
ATOM    137  H29 UNL A   1      13.864  46.718  11.618  1.00  0.00    +0.000 H 
ATOM     26  C22 UNL A   1      13.304  47.406  11.018  1.00  0.00    +0.000 C 
ATOM    136  H28 UNL A   1      13.152  48.360  11.477  1.00  0.00    +0.000 H 
BRANCH   26   25
ATOM     25  C21 UNL A   1      14.135  47.622   9.746  1.00  0.00    +0.000 C 
ATOM    134  H26 UNL A   1      13.992  46.773   9.110  1.00  0.00    +0.000 H 
ATOM    135  H27 UNL A   1      13.790  48.540   9.320  1.00  0.00    +0.000 H 
BRANCH   25   24
ATOM    132  H24 UNL A   1      15.782  48.579  10.686  1.00  0.00    +0.000 H 
ATOM    133  H25 UNL A   1      16.010  46.851  10.303  1.00  0.00    +0.000 H 
ATOM     24  C20 UNL A   1      15.640  47.798   9.970  1.00  0.00    +0.000 C 
BRANCH   24   23
ATOM    130  H22 UNL A   1      16.982  47.293   8.387  1.00  0.00    +0.000 H 
ATOM    131  H23 UNL A   1      15.740  48.472   7.957  1.00  0.00    +0.000 H 
ATOM     23  C19 UNL A   1      16.435  48.155   8.706  1.00  0.00    +0.000 C 
BRANCH   23   22
ATOM    129  H21 UNL A   1      18.312  48.970   8.880  1.00  0.00    +0.000 H 
ATOM     22  N2  UNL A   1      17.367  49.242   8.938  1.00  0.00    +0.000 N 
BRANCH   22   20
ATOM     20  C18 UNL A   1      17.195  50.563   9.221  1.00  0.00    +0.000 C 
ATOM     21  O1  UNL A   1      17.130  51.320   8.242  1.00  0.00    +0.000 O 
BRANCH   20   18
ATOM     18  C16 UNL A   1      17.088  51.150  10.641  1.00  0.00    +0.000 C 
ATOM    125  H17 UNL A   1      17.451  52.153  10.557  1.00  0.00    +0.000 H 
BRANCH   18   17
ATOM     14  C12 UNL A   1      12.941  51.228  12.045  1.00  0.00    +0.000 C 
ATOM     15  C13 UNL A   1      14.033  51.451  12.901  1.00  0.00    +0.000 C 
ATOM     16  C14 UNL A   1      15.342  51.554  12.440  1.00  0.00    +0.000 C 
ATOM     17  C15 UNL A   1      15.653  51.303  11.115  1.00  0.00    +0.000 C 
ATOM    123  H15 UNL A   1      13.857  51.543  13.914  1.00  0.00    +0.000 H 
ATOM    124  H16 UNL A   1      16.092  51.822  13.096  1.00  0.00    +0.000 H 
ATOM    157  H49 UNL A   1      14.781  51.027   9.220  1.00  0.00    +0.000 H 
ATOM     95  C70 UNL A   1      14.579  51.161  10.224  1.00  0.00    +0.000 C 
ATOM     96  C71 UNL A   1      13.226  51.194  10.651  1.00  0.00    +0.000 C 
BRANCH   14    6
ATOM    118  H10 UNL A   1      10.951  51.085  11.683  1.00  0.00    +0.000 H 
ATOM      6  C5  UNL A   1      11.495  51.080  12.605  1.00  0.00    +0.000 C 
BRANCH    6    5
ATOM      2  C2  UNL A   1      11.271  54.785  14.747  1.00  0.00    +0.000 C 
ATOM      3  C3  UNL A   1      10.489  54.726  13.438  1.00  0.00    +0.000 C 
ATOM      4  C4  UNL A   1      10.799  53.460  12.631  1.00  0.00    +0.000 C 
ATOM    164  H56 UNL A   1       9.874  53.492  15.703  1.00  0.00    +0.000 H 
ATOM    165  H57 UNL A   1      11.440  53.571  16.486  1.00  0.00    +0.000 H 
ATOM    162  H54 UNL A   1      12.446  52.263  14.790  1.00  0.00    +0.000 H 
ATOM    163  H55 UNL A   1      10.930  51.457  15.289  1.00  0.00    +0.000 H 
ATOM      5  N1  UNL A   1      10.925  52.218  13.397  1.00  0.00    +0.000 N 
ATOM    107  C79 UNL A   1      11.377  52.289  14.786  1.00  0.00    +0.000 C 
ATOM    108  C80 UNL A   1      10.931  53.534  15.545  1.00  0.00    +0.000 C 
ATOM    112  H4  UNL A   1      12.320  54.824  14.543  1.00  0.00    +0.000 H 
ATOM    113  H5  UNL A   1      10.741  55.581  12.847  1.00  0.00    +0.000 H 
ATOM    114  H6  UNL A   1       9.446  54.712  13.680  1.00  0.00    +0.000 H 
ATOM    115  H7  UNL A   1      11.723  53.621  12.116  1.00  0.00    +0.000 H 
ATOM    116  H8  UNL A   1       9.955  53.316  11.990  1.00  0.00    +0.000 H 
ATOM    117  H9  UNL A   1       9.944  51.994  13.561  1.00  0.00    +0.000 H 
BRANCH    2    1
ATOM      1  C1  UNL A   1      10.931  56.038  15.539  1.00  0.00    +0.000 C 
ATOM    109  H1  UNL A   1      11.582  56.111  16.386  1.00  0.00    +0.000 H 
ATOM    110  H2  UNL A   1       9.916  55.985  15.872  1.00  0.00    +0.000 H 
ATOM    111  H3  UNL A   1      11.059  56.899  14.917  1.00  0.00    +0.000 H 
ENDBRANCH    2    1
ENDBRANCH    6    5
BRANCH    6    7
ATOM      7  C6  UNL A   1      11.249  49.758  13.360  1.00  0.00    +0.000 C 
ATOM      8  C7  UNL A   1      12.280  49.088  14.049  1.00  0.00    +0.000 C 
ATOM      9  C8  UNL A   1      12.023  47.899  14.734  1.00  0.00    +0.000 C 
ATOM     10  C9  UNL A   1      10.742  47.365  14.721  1.00  0.00    +0.000 C 
ATOM     11  F1  UNL A   1      10.500  46.217  15.370  1.00  0.00    +0.000 F 
ATOM     12  C10 UNL A   1       9.707  48.001  14.049  1.00  0.00    +0.000 C 
ATOM     13  C11 UNL A   1       9.955  49.202  13.382  1.00  0.00    +0.000 C 
ATOM    119  H11 UNL A   1      13.234  49.480  14.047  1.00  0.00    +0.000 H 
ATOM    120  H12 UNL A   1      12.781  47.422  15.246  1.00  0.00    +0.000 H 
ATOM    121  H13 UNL A   1       8.761  47.589  14.043  1.00  0.00    +0.000 H 
ATOM    122  H14 UNL A   1       9.183  49.687  12.900  1.00  0.00    +0.000 H 
ENDBRANCH    6    7
ENDBRANCH   14    6
BRANCH   96   97
ATOM     97  C72 UNL A   1      12.186  51.250   9.606  1.00  0.00    +0.000 C 
ATOM     98  C73 UNL A   1      11.632  52.467   9.183  1.00  0.00    +0.000 C 
ATOM     99  C74 UNL A   1      10.643  52.501   8.194  1.00  0.00    +0.000 C 
ATOM    161  H53 UNL A   1      12.065  49.156   9.351  1.00  0.00    +0.000 H 
ATOM    100  C75 UNL A   1      10.181  51.316   7.604  1.00  0.00    +0.000 C 
ATOM    101  C76 UNL A   1       9.114  51.361   6.540  1.00  0.00    +0.000 C 
ATOM    102  F17 UNL A   1       7.883  51.642   7.051  1.00  0.00    +0.000 F 
ATOM    103  F18 UNL A   1       9.351  52.309   5.591  1.00  0.00    +0.000 F 
ATOM    105  C77 UNL A   1      10.711  50.095   8.040  1.00  0.00    +0.000 C 
ATOM    106  C78 UNL A   1      11.693  50.064   9.033  1.00  0.00    +0.000 C 
ATOM    104  F19 UNL A   1       8.975  50.187   5.862  1.00  0.00    +0.000 F 
ATOM    158  H50 UNL A   1      11.958  53.349   9.608  1.00  0.00    +0.000 H 
ATOM    159  H51 UNL A   1      10.250  53.408   7.896  1.00  0.00    +0.000 H 
ATOM    160  H52 UNL A   1      10.372  49.212   7.626  1.00  0.00    +0.000 H 
ENDBRANCH   96   97
ENDBRANCH   18   17
BRANCH   18   19
ATOM     19  C17 UNL A   1      18.047  50.540  11.661  1.00  0.00    +0.000 C 
ATOM    126  H18 UNL A   1      19.029  50.939  11.510  1.00  0.00    +0.000 H 
ATOM    127  H19 UNL A   1      18.072  49.477  11.536  1.00  0.00    +0.000 H 
ATOM    128  H20 UNL A   1      17.714  50.775  12.650  1.00  0.00    +0.000 H 
ENDBRANCH   18   19
ENDBRANCH   20   18
ENDBRANCH   22   20
ENDBRANCH   23   22
ENDBRANCH   24   23
ENDBRANCH   25   24
ENDBRANCH   26   25
ENDBRANCH   27   26
ENDBRANCH   28   27
ENDBRANCH   29   28
ENDBRANCH   30   29
ENDBRANCH   32   30
ENDBRANCH   36   35
BRANCH   40   41
ATOM     41  C34 UNL A   1      16.869  48.565  -0.911  1.00  0.00    +0.000 C 
ATOM     42  C35 UNL A   1      18.042  47.838  -0.654  1.00  0.00    +0.000 C 
ATOM     43  F2  UNL A   1      18.806  48.138   0.407  1.00  0.00    +0.000 F 
ATOM     44  C36 UNL A   1      18.444  46.805  -1.498  1.00  0.00    +0.000 C 
ATOM     45  F3  UNL A   1      19.580  46.141  -1.248  1.00  0.00    +0.000 F 
ATOM     46  C37 UNL A   1      17.670  46.466  -2.598  1.00  0.00    +0.000 C 
ATOM     47  F4  UNL A   1      18.050  45.463  -3.401  1.00  0.00    +0.000 F 
ATOM     48  C38 UNL A   1      16.502  47.164  -2.864  1.00  0.00    +0.000 C 
ATOM     49  F5  UNL A   1      15.742  46.823  -3.913  1.00  0.00    +0.000 F 
ATOM     50  C39 UNL A   1      16.113  48.215  -2.038  1.00  0.00    +0.000 C 
ATOM     51  F6  UNL A   1      14.979  48.875  -2.321  1.00  0.00    +0.000 F 
ENDBRANCH   40   41
BRANCH   57   58
ATOM     65  C49 UNL A   1      18.018  57.425  -2.278  1.00  0.00    +0.000 C 
ATOM     66  F10 UNL A   1      17.368  58.121  -3.222  1.00  0.00    +0.000 F 
ATOM     67  C50 UNL A   1      17.371  56.391  -1.608  1.00  0.00    +0.000 C 
ATOM     68  F11 UNL A   1      16.096  56.111  -1.918  1.00  0.00    +0.000 F 
ATOM     58  C45 UNL A   1      18.036  55.646  -0.625  1.00  0.00    +0.000 C 
ATOM     59  C46 UNL A   1      19.373  55.967  -0.344  1.00  0.00    +0.000 C 
ATOM     60  F7  UNL A   1      20.048  55.284   0.594  1.00  0.00    +0.000 F 
ATOM     61  C47 UNL A   1      20.010  57.014  -1.001  1.00  0.00    +0.000 C 
ATOM     62  F8  UNL A   1      21.275  57.330  -0.689  1.00  0.00    +0.000 F 
ATOM     63  C48 UNL A   1      19.332  57.745  -1.966  1.00  0.00    +0.000 C 
ATOM     64  F9  UNL A   1      19.945  58.757  -2.594  1.00  0.00    +0.000 F 
ENDBRANCH   57   58
BRANCH   72   73
ATOM     73  C54 UNL A   1      14.366  55.942   5.310  1.00  0.00    +0.000 C 
ATOM     74  C55 UNL A   1      13.095  56.533   5.319  1.00  0.00    +0.000 C 
ATOM     75  F12 UNL A   1      12.141  56.088   4.488  1.00  0.00    +0.000 F 
ATOM     76  C56 UNL A   1      12.807  57.605   6.164  1.00  0.00    +0.000 C 
ATOM     77  F13 UNL A   1      11.596  58.176   6.129  1.00  0.00    +0.000 F 
ATOM     78  C57 UNL A   1      13.777  58.089   7.028  1.00  0.00    +0.000 C 
ATOM     79  F14 UNL A   1      13.501  59.119   7.840  1.00  0.00    +0.000 F 
ATOM     80  C58 UNL A   1      15.036  57.506   7.049  1.00  0.00    +0.000 C 
ATOM     81  F15 UNL A   1      15.971  57.959   7.896  1.00  0.00    +0.000 F 
ATOM     82  C59 UNL A   1      15.330  56.448   6.192  1.00  0.00    +0.000 C 
ATOM     83  F16 UNL A   1      16.554  55.901   6.230  1.00  0.00    +0.000 F 
ENDBRANCH   72   73
TORSDOF 22
ENDMDL
MODEL 8
REMARK VINA RESULT:      -9.0      2.191      8.007
ROOT
ATOM    145  H37 UNL A   1      13.311  46.496   2.637  1.00  0.00    +0.000 H 
ATOM    146  H38 UNL A   1      15.006  46.677   0.665  1.00  0.00    +0.000 H 
ATOM    147  H39 UNL A   1      14.746  50.381   2.500  1.00  0.00    +0.000 H 
ATOM    148  H40 UNL A   1      16.258  56.568   2.653  1.00  0.00    +0.000 H 
ATOM    149  H41 UNL A   1      14.682  56.367   4.634  1.00  0.00    +0.000 H 
ATOM    150  H42 UNL A   1      14.845  52.662   2.757  1.00  0.00    +0.000 H 
ATOM    151  H43 UNL A   1      18.290  53.137  -0.901  1.00  0.00    +0.000 H 
ATOM    152  H44 UNL A   1      17.897  50.660  -1.421  1.00  0.00    +0.000 H 
ATOM    153  H45 UNL A   1      11.554  49.942   6.345  1.00  0.00    +0.000 H 
ATOM    154  H46 UNL A   1      11.618  52.488   6.630  1.00  0.00    +0.000 H 
ATOM     36  C30 UNL A   1      13.557  53.770   4.981  1.00  0.00    +0.000 C 
ATOM     37  C31 UNL A   1      13.145  52.324   4.959  1.00  0.00    +0.000 C 
ATOM     38  N4  UNL A   1      13.572  51.350   4.195  1.00  0.00    +0.000 N 
ATOM     39  C32 UNL A   1      12.925  50.207   4.643  1.00  0.00    +0.000 C 
ATOM     40  C33 UNL A   1      12.997  48.949   4.149  1.00  0.00    +0.000 C 
ATOM     52  C40 UNL A   1      13.769  48.573   2.994  1.00  0.00    +0.000 C 
ATOM     53  C41 UNL A   1      13.835  47.343   2.366  1.00  0.00    +0.000 C 
ATOM     54  C42 UNL A   1      14.734  47.444   1.300  1.00  0.00    +0.000 C 
ATOM     55  C43 UNL A   1      15.198  48.748   1.241  1.00  0.00    +0.000 C 
ATOM     56  N5  UNL A   1      14.601  49.430   2.289  1.00  0.00    +0.000 N 
ATOM     57  C44 UNL A   1      16.123  49.326   0.300  1.00  0.00    +0.000 C 
ATOM     69  C51 UNL A   1      16.513  50.623   0.291  1.00  0.00    +0.000 C 
ATOM     70  N6  UNL A   1      16.124  51.653   1.137  1.00  0.00    +0.000 N 
ATOM     71  C52 UNL A   1      16.769  52.718   0.730  1.00  0.00    +0.000 C 
ATOM     72  C53 UNL A   1      16.720  54.116   1.275  1.00  0.00    +0.000 C 
ATOM     84  C60 UNL A   1      15.896  54.401   2.302  1.00  0.00    +0.000 C 
ATOM     85  C61 UNL A   1      15.774  55.707   2.947  1.00  0.00    +0.000 C 
ATOM     86  C62 UNL A   1      14.928  55.603   3.985  1.00  0.00    +0.000 C 
ATOM     87  C63 UNL A   1      14.412  54.236   4.050  1.00  0.00    +0.000 C 
ATOM     88  N7  UNL A   1      15.021  53.601   2.994  1.00  0.00    +0.000 N 
ATOM     89  C64 UNL A   1      17.662  52.477  -0.414  1.00  0.00    +0.000 C 
ATOM     90  C65 UNL A   1      17.451  51.190  -0.656  1.00  0.00    +0.000 C 
ATOM     91  C66 UNL A   1      12.102  50.598   5.767  1.00  0.00    +0.000 C 
ATOM     92  C67 UNL A   1      12.146  51.909   5.957  1.00  0.00    +0.000 C 
ENDROOT
BRANCH   36   35
ATOM     33  C27 UNL A   1      13.368  55.501   8.371  1.00  0.00    +0.000 C 
ATOM     34  C28 UNL A   1      13.862  54.741   7.303  1.00  0.00    +0.000 C 
ATOM     35  C29 UNL A   1      13.135  54.647   6.105  1.00  0.00    +0.000 C 
ATOM    143  H35 UNL A   1      13.892  55.547   9.259  1.00  0.00    +0.000 H 
ATOM    144  H36 UNL A   1      14.763  54.247   7.397  1.00  0.00    +0.000 H 
ATOM    155  H47 UNL A   1      11.425  55.348   5.082  1.00  0.00    +0.000 H 
ATOM    156  H48 UNL A   1      10.674  56.800   6.867  1.00  0.00    +0.000 H 
ATOM     93  C68 UNL A   1      11.958  55.395   5.964  1.00  0.00    +0.000 C 
ATOM     94  C69 UNL A   1      11.502  56.200   7.003  1.00  0.00    +0.000 C 
ATOM     32  C26 UNL A   1      12.165  56.195   8.230  1.00  0.00    +0.000 C 
BRANCH   32   30
ATOM     30  C25 UNL A   1      11.607  56.947   9.377  1.00  0.00    +0.000 C 
ATOM     31  O2  UNL A   1      11.720  58.158   9.424  1.00  0.00    +0.000 O 
BRANCH   30   29
ATOM     29  N3  UNL A   1      10.951  56.263  10.382  1.00  0.00    +0.000 N 
ATOM    142  H34 UNL A   1       9.976  56.185  10.274  1.00  0.00    +0.000 H 
BRANCH   29   28
ATOM    141  H33 UNL A   1      10.769  55.712  12.354  1.00  0.00    +0.000 H 
ATOM     28  C24 UNL A   1      11.501  55.641  11.578  1.00  0.00    +0.000 C 
ATOM    140  H32 UNL A   1      12.402  56.149  11.848  1.00  0.00    +0.000 H 
BRANCH   28   27
ATOM    138  H30 UNL A   1      11.155  53.587  11.975  1.00  0.00    +0.000 H 
ATOM     27  C23 UNL A   1      11.815  54.160  11.359  1.00  0.00    +0.000 C 
ATOM    139  H31 UNL A   1      11.684  53.977  10.314  1.00  0.00    +0.000 H 
BRANCH   27   26
ATOM    137  H29 UNL A   1      13.406  54.032  12.715  1.00  0.00    +0.000 H 
ATOM     26  C22 UNL A   1      13.255  53.752  11.693  1.00  0.00    +0.000 C 
ATOM    136  H28 UNL A   1      13.905  54.250  11.004  1.00  0.00    +0.000 H 
BRANCH   26   25
ATOM     25  C21 UNL A   1      13.557  52.249  11.624  1.00  0.00    +0.000 C 
ATOM    134  H26 UNL A   1      12.642  51.720  11.791  1.00  0.00    +0.000 H 
ATOM    135  H27 UNL A   1      13.982  52.077  10.657  1.00  0.00    +0.000 H 
BRANCH   25   24
ATOM    132  H24 UNL A   1      14.692  52.477  13.405  1.00  0.00    +0.000 H 
ATOM    133  H25 UNL A   1      14.220  50.805  13.000  1.00  0.00    +0.000 H 
ATOM     24  C20 UNL A   1      14.588  51.741  12.637  1.00  0.00    +0.000 C 
BRANCH   24   23
ATOM    130  H22 UNL A   1      16.664  52.195  12.422  1.00  0.00    +0.000 H 
ATOM    131  H23 UNL A   1      16.269  50.476  12.334  1.00  0.00    +0.000 H 
ATOM     23  C19 UNL A   1      15.978  51.465  12.047  1.00  0.00    +0.000 C 
BRANCH   23   22
ATOM    129  H21 UNL A   1      15.724  52.408  10.239  1.00  0.00    +0.000 H 
ATOM     22  N2  UNL A   1      15.977  51.526  10.597  1.00  0.00    +0.000 N 
BRANCH   22   20
ATOM     20  C18 UNL A   1      16.255  50.605   9.634  1.00  0.00    +0.000 C 
ATOM     21  O1  UNL A   1      16.836  51.035   8.628  1.00  0.00    +0.000 O 
BRANCH   20   18
ATOM     18  C16 UNL A   1      15.893  49.110   9.717  1.00  0.00    +0.000 C 
ATOM    125  H17 UNL A   1      16.351  48.762  10.620  1.00  0.00    +0.000 H 
BRANCH   18   17
ATOM     14  C12 UNL A   1      11.592  48.747  10.450  1.00  0.00    +0.000 C 
ATOM     15  C13 UNL A   1      12.117  49.117   9.200  1.00  0.00    +0.000 C 
ATOM     16  C14 UNL A   1      13.481  49.111   8.925  1.00  0.00    +0.000 C 
ATOM     17  C15 UNL A   1      14.408  48.867   9.924  1.00  0.00    +0.000 C 
ATOM    123  H15 UNL A   1      11.464  49.406   8.455  1.00  0.00    +0.000 H 
ATOM    124  H16 UNL A   1      13.806  49.290   7.962  1.00  0.00    +0.000 H 
ATOM    157  H49 UNL A   1      14.586  48.172  11.901  1.00  0.00    +0.000 H 
ATOM     95  C70 UNL A   1      13.914  48.414  11.155  1.00  0.00    +0.000 C 
ATOM     96  C71 UNL A   1      12.526  48.277  11.415  1.00  0.00    +0.000 C 
BRANCH   14    6
ATOM    118  H10 UNL A   1       9.876  47.765  10.897  1.00  0.00    +0.000 H 
ATOM      6  C5  UNL A   1      10.060  48.805  10.730  1.00  0.00    +0.000 C 
BRANCH    6    5
ATOM      2  C2  UNL A   1       8.700  49.604   6.746  1.00  0.00    +0.000 C 
ATOM      3  C3  UNL A   1       8.067  48.399   7.435  1.00  0.00    +0.000 C 
ATOM      4  C4  UNL A   1       8.763  48.052   8.756  1.00  0.00    +0.000 C 
ATOM    164  H56 UNL A   1       7.622  50.953   7.993  1.00  0.00    +0.000 H 
ATOM    165  H57 UNL A   1       9.046  51.644   7.240  1.00  0.00    +0.000 H 
ATOM    162  H54 UNL A   1      10.491  50.463   8.694  1.00  0.00    +0.000 H 
ATOM    163  H55 UNL A   1       9.206  51.221   9.680  1.00  0.00    +0.000 H 
ATOM      5  N1  UNL A   1       9.150  49.183   9.601  1.00  0.00    +0.000 N 
ATOM    107  C79 UNL A   1       9.457  50.466   8.965  1.00  0.00    +0.000 C 
ATOM    108  C80 UNL A   1       8.640  50.775   7.716  1.00  0.00    +0.000 C 
ATOM    112  H4  UNL A   1       9.715  49.384   6.488  1.00  0.00    +0.000 H 
ATOM    113  H5  UNL A   1       8.131  47.555   6.781  1.00  0.00    +0.000 H 
ATOM    114  H6  UNL A   1       7.049  48.645   7.656  1.00  0.00    +0.000 H 
ATOM    115  H7  UNL A   1       9.649  47.500   8.522  1.00  0.00    +0.000 H 
ATOM    116  H8  UNL A   1       8.040  47.506   9.325  1.00  0.00    +0.000 H 
ATOM    117  H9  UNL A   1       8.254  49.426  10.021  1.00  0.00    +0.000 H 
BRANCH    2    1
ATOM      1  C1  UNL A   1       7.981  49.941   5.449  1.00  0.00    +0.000 C 
ATOM    109  H1  UNL A   1       6.931  50.030   5.636  1.00  0.00    +0.000 H 
ATOM    110  H2  UNL A   1       8.152  49.164   4.734  1.00  0.00    +0.000 H 
ATOM    111  H3  UNL A   1       8.354  50.868   5.065  1.00  0.00    +0.000 H 
ENDBRANCH    2    1
ENDBRANCH    6    5
BRANCH    6    7
ATOM      7  C6  UNL A   1       9.684  49.620  11.985  1.00  0.00    +0.000 C 
ATOM      8  C7  UNL A   1       8.751  49.149  12.930  1.00  0.00    +0.000 C 
ATOM      9  C8  UNL A   1       8.440  49.905  14.062  1.00  0.00    +0.000 C 
ATOM     10  C9  UNL A   1       9.047  51.140  14.248  1.00  0.00    +0.000 C 
ATOM     11  F1  UNL A   1       8.739  51.868  15.330  1.00  0.00    +0.000 F 
ATOM     12  C10 UNL A   1       9.968  51.630  13.332  1.00  0.00    +0.000 C 
ATOM     13  C11 UNL A   1      10.298  50.867  12.211  1.00  0.00    +0.000 C 
ATOM    119  H11 UNL A   1       8.292  48.237  12.783  1.00  0.00    +0.000 H 
ATOM    120  H12 UNL A   1       7.765  49.547  14.755  1.00  0.00    +0.000 H 
ATOM    121  H13 UNL A   1      10.407  52.553  13.481  1.00  0.00    +0.000 H 
ATOM    122  H14 UNL A   1      10.998  51.221  11.541  1.00  0.00    +0.000 H 
ENDBRANCH    6    7
ENDBRANCH   14    6
BRANCH   96   97
ATOM     97  C72 UNL A   1      12.133  47.593  12.662  1.00  0.00    +0.000 C 
ATOM     98  C73 UNL A   1      12.240  48.222  13.911  1.00  0.00    +0.000 C 
ATOM     99  C74 UNL A   1      11.867  47.557  15.084  1.00  0.00    +0.000 C 
ATOM    161  H53 UNL A   1      11.617  45.772  11.722  1.00  0.00    +0.000 H 
ATOM    100  C75 UNL A   1      11.379  46.243  15.037  1.00  0.00    +0.000 C 
ATOM    101  C76 UNL A   1      10.981  45.532  16.306  1.00  0.00    +0.000 C 
ATOM    102  F17 UNL A   1      12.058  45.156  17.050  1.00  0.00    +0.000 F 
ATOM    103  F18 UNL A   1      10.210  46.301  17.124  1.00  0.00    +0.000 F 
ATOM    105  C77 UNL A   1      11.295  45.600  13.795  1.00  0.00    +0.000 C 
ATOM    106  C78 UNL A   1      11.675  46.264  12.627  1.00  0.00    +0.000 C 
ATOM    104  F19 UNL A   1      10.264  44.394  16.087  1.00  0.00    +0.000 F 
ATOM    158  H50 UNL A   1      12.599  49.188  13.965  1.00  0.00    +0.000 H 
ATOM    159  H51 UNL A   1      11.951  48.038  15.993  1.00  0.00    +0.000 H 
ATOM    160  H52 UNL A   1      10.951  44.628  13.744  1.00  0.00    +0.000 H 
ENDBRANCH   96   97
ENDBRANCH   18   17
BRANCH   18   19
ATOM     19  C17 UNL A   1      16.554  48.231   8.658  1.00  0.00    +0.000 C 
ATOM    126  H18 UNL A   1      15.923  47.393   8.445  1.00  0.00    +0.000 H 
ATOM    127  H19 UNL A   1      17.499  47.883   9.021  1.00  0.00    +0.000 H 
ATOM    128  H20 UNL A   1      16.703  48.801   7.764  1.00  0.00    +0.000 H 
ENDBRANCH   18   19
ENDBRANCH   20   18
ENDBRANCH   22   20
ENDBRANCH   23   22
ENDBRANCH   24   23
ENDBRANCH   25   24
ENDBRANCH   26   25
ENDBRANCH   27   26
ENDBRANCH   28   27
ENDBRANCH   29   28
ENDBRANCH   30   29
ENDBRANCH   32   30
ENDBRANCH   36   35
BRANCH   40   41
ATOM     41  C34 UNL A   1      12.209  47.878   4.843  1.00  0.00    +0.000 C 
ATOM     42  C35 UNL A   1      10.894  47.592   4.444  1.00  0.00    +0.000 C 
ATOM     43  F2  UNL A   1      10.346  48.240   3.405  1.00  0.00    +0.000 F 
ATOM     44  C36 UNL A   1      10.129  46.646   5.122  1.00  0.00    +0.000 C 
ATOM     45  F3  UNL A   1       8.867  46.407   4.739  1.00  0.00    +0.000 F 
ATOM     46  C37 UNL A   1      10.671  45.954   6.195  1.00  0.00    +0.000 C 
ATOM     47  F4  UNL A   1       9.939  45.034   6.838  1.00  0.00    +0.000 F 
ATOM     48  C38 UNL A   1      11.972  46.213   6.599  1.00  0.00    +0.000 C 
ATOM     49  F5  UNL A   1      12.504  45.529   7.621  1.00  0.00    +0.000 F 
ATOM     50  C39 UNL A   1      12.729  47.177   5.940  1.00  0.00    +0.000 C 
ATOM     51  F6  UNL A   1      13.984  47.410   6.355  1.00  0.00    +0.000 F 
ENDBRANCH   40   41
BRANCH   57   58
ATOM     65  C49 UNL A   1      18.400  46.887  -1.528  1.00  0.00    +0.000 C 
ATOM     66  F10 UNL A   1      19.611  46.334  -1.375  1.00  0.00    +0.000 F 
ATOM     67  C50 UNL A   1      17.941  47.821  -0.604  1.00  0.00    +0.000 C 
ATOM     68  F11 UNL A   1      18.725  48.148   0.436  1.00  0.00    +0.000 F 
ATOM     58  C45 UNL A   1      16.682  48.418  -0.751  1.00  0.00    +0.000 C 
ATOM     59  C46 UNL A   1      15.903  48.055  -1.859  1.00  0.00    +0.000 C 
ATOM     60  F7  UNL A   1      14.688  48.596  -2.039  1.00  0.00    +0.000 F 
ATOM     61  C47 UNL A   1      16.356  47.106  -2.771  1.00  0.00    +0.000 C 
ATOM     62  F8  UNL A   1      15.580  46.744  -3.802  1.00  0.00    +0.000 F 
ATOM     63  C48 UNL A   1      17.602  46.521  -2.604  1.00  0.00    +0.000 C 
ATOM     64  F9  UNL A   1      18.036  45.603  -3.478  1.00  0.00    +0.000 F 
ENDBRANCH   57   58
BRANCH   72   73
ATOM     73  C54 UNL A   1      17.541  55.200   0.680  1.00  0.00    +0.000 C 
ATOM     74  C55 UNL A   1      17.126  55.890  -0.467  1.00  0.00    +0.000 C 
ATOM     75  F12 UNL A   1      15.942  55.606  -1.030  1.00  0.00    +0.000 F 
ATOM     76  C56 UNL A   1      17.940  56.856  -1.058  1.00  0.00    +0.000 C 
ATOM     77  F13 UNL A   1      17.537  57.476  -2.175  1.00  0.00    +0.000 F 
ATOM     78  C57 UNL A   1      19.171  57.164  -0.501  1.00  0.00    +0.000 C 
ATOM     79  F14 UNL A   1      19.953  58.092  -1.069  1.00  0.00    +0.000 F 
ATOM     80  C58 UNL A   1      19.593  56.507   0.646  1.00  0.00    +0.000 C 
ATOM     81  F15 UNL A   1      20.775  56.815   1.199  1.00  0.00    +0.000 F 
ATOM     82  C59 UNL A   1      18.789  55.529   1.227  1.00  0.00    +0.000 C 
ATOM     83  F16 UNL A   1      19.219  54.906   2.334  1.00  0.00    +0.000 F 
ENDBRANCH   72   73
TORSDOF 22
ENDMDL
MODEL 9
REMARK VINA RESULT:      -9.0      1.940      4.792
ROOT
ATOM    145  H37 UNL A   1      17.812  53.426  -0.173  1.00  0.00    +0.000 H 
ATOM    146  H38 UNL A   1      17.319  50.997  -0.984  1.00  0.00    +0.000 H 
ATOM    147  H39 UNL A   1      15.173  51.669   2.494  1.00  0.00    +0.000 H 
ATOM    148  H40 UNL A   1      11.405  49.488   7.146  1.00  0.00    +0.000 H 
ATOM    149  H41 UNL A   1      11.808  51.885   7.882  1.00  0.00    +0.000 H 
ATOM    150  H42 UNL A   1      14.052  51.213   4.447  1.00  0.00    +0.000 H 
ATOM    151  H43 UNL A   1      12.844  46.558   2.918  1.00  0.00    +0.000 H 
ATOM    152  H44 UNL A   1      14.397  46.947   0.919  1.00  0.00    +0.000 H 
ATOM    153  H45 UNL A   1      16.080  56.384   3.945  1.00  0.00    +0.000 H 
ATOM    154  H46 UNL A   1      14.866  55.892   6.147  1.00  0.00    +0.000 H 
ATOM     36  C30 UNL A   1      13.585  53.347   6.197  1.00  0.00    +0.000 C 
ATOM     37  C31 UNL A   1      14.506  53.891   5.140  1.00  0.00    +0.000 C 
ATOM     38  N4  UNL A   1      14.918  53.331   4.031  1.00  0.00    +0.000 N 
ATOM     39  C32 UNL A   1      15.683  54.293   3.385  1.00  0.00    +0.000 C 
ATOM     40  C33 UNL A   1      16.365  54.185   2.220  1.00  0.00    +0.000 C 
ATOM     52  C40 UNL A   1      16.445  52.982   1.435  1.00  0.00    +0.000 C 
ATOM     53  C41 UNL A   1      17.182  52.750   0.288  1.00  0.00    +0.000 C 
ATOM     54  C42 UNL A   1      16.928  51.444  -0.139  1.00  0.00    +0.000 C 
ATOM     55  C43 UNL A   1      16.062  50.849   0.764  1.00  0.00    +0.000 C 
ATOM     56  N5  UNL A   1      15.770  51.805   1.723  1.00  0.00    +0.000 N 
ATOM     57  C44 UNL A   1      15.536  49.508   0.748  1.00  0.00    +0.000 C 
ATOM     69  C51 UNL A   1      14.708  48.987   1.685  1.00  0.00    +0.000 C 
ATOM     70  N6  UNL A   1      14.204  49.589   2.830  1.00  0.00    +0.000 N 
ATOM     71  C52 UNL A   1      13.454  48.686   3.412  1.00  0.00    +0.000 C 
ATOM     72  C53 UNL A   1      12.673  48.791   4.691  1.00  0.00    +0.000 C 
ATOM     84  C60 UNL A   1      12.731  49.926   5.414  1.00  0.00    +0.000 C 
ATOM     85  C61 UNL A   1      11.999  50.173   6.655  1.00  0.00    +0.000 C 
ATOM     86  C62 UNL A   1      12.225  51.435   7.051  1.00  0.00    +0.000 C 
ATOM     87  C63 UNL A   1      13.155  52.072   6.119  1.00  0.00    +0.000 C 
ATOM     88  N7  UNL A   1      13.423  51.091   5.195  1.00  0.00    +0.000 N 
ATOM     89  C64 UNL A   1      13.379  47.409   2.685  1.00  0.00    +0.000 C 
ATOM     90  C65 UNL A   1      14.179  47.639   1.652  1.00  0.00    +0.000 C 
ATOM     91  C66 UNL A   1      15.651  55.483   4.206  1.00  0.00    +0.000 C 
ATOM     92  C67 UNL A   1      14.997  55.264   5.339  1.00  0.00    +0.000 C 
ENDROOT
BRANCH   36   35
ATOM     33  C27 UNL A   1      13.108  55.265   9.456  1.00  0.00    +0.000 C 
ATOM     34  C28 UNL A   1      13.710  54.490   8.457  1.00  0.00    +0.000 C 
ATOM     35  C29 UNL A   1      13.040  54.249   7.246  1.00  0.00    +0.000 C 
ATOM    143  H35 UNL A   1      13.592  55.419  10.354  1.00  0.00    +0.000 H 
ATOM    144  H36 UNL A   1      14.650  54.094   8.611  1.00  0.00    +0.000 H 
ATOM    155  H47 UNL A   1      11.309  54.713   6.127  1.00  0.00    +0.000 H 
ATOM    156  H48 UNL A   1      10.359  56.197   7.787  1.00  0.00    +0.000 H 
ATOM     93  C68 UNL A   1      11.803  54.868   7.020  1.00  0.00    +0.000 C 
ATOM     94  C69 UNL A   1      11.235  55.690   7.988  1.00  0.00    +0.000 C 
ATOM     32  C26 UNL A   1      11.850  55.828   9.232  1.00  0.00    +0.000 C 
BRANCH   32   30
ATOM     30  C25 UNL A   1      11.182  56.595  10.308  1.00  0.00    +0.000 C 
ATOM     31  O2  UNL A   1      11.067  57.803  10.215  1.00  0.00    +0.000 O 
BRANCH   30   29
ATOM     29  N3  UNL A   1      10.683  55.925  11.408  1.00  0.00    +0.000 N 
ATOM    142  H34 UNL A   1       9.803  55.501  11.283  1.00  0.00    +0.000 H 
BRANCH   29   28
ATOM    141  H33 UNL A   1      10.641  56.237  13.440  1.00  0.00    +0.000 H 
ATOM     28  C24 UNL A   1      11.277  55.757  12.727  1.00  0.00    +0.000 C 
ATOM    140  H32 UNL A   1      12.253  56.193  12.724  1.00  0.00    +0.000 H 
BRANCH   28   27
ATOM    138  H30 UNL A   1      11.609  54.233  14.164  1.00  0.00    +0.000 H 
ATOM     27  C23 UNL A   1      11.396  54.283  13.116  1.00  0.00    +0.000 C 
ATOM    139  H31 UNL A   1      10.466  53.826  12.851  1.00  0.00    +0.000 H 
BRANCH   27   26
ATOM    137  H29 UNL A   1      12.600  53.999  11.427  1.00  0.00    +0.000 H 
ATOM     26  C22 UNL A   1      12.487  53.506  12.371  1.00  0.00    +0.000 C 
ATOM    136  H28 UNL A   1      12.170  52.487  12.295  1.00  0.00    +0.000 H 
BRANCH   26   25
ATOM     25  C21 UNL A   1      13.879  53.520  13.016  1.00  0.00    +0.000 C 
ATOM    134  H26 UNL A   1      14.499  54.185  12.451  1.00  0.00    +0.000 H 
ATOM    135  H27 UNL A   1      13.732  53.828  14.030  1.00  0.00    +0.000 H 
BRANCH   25   24
ATOM    132  H24 UNL A   1      14.702  51.898  14.115  1.00  0.00    +0.000 H 
ATOM    133  H25 UNL A   1      13.966  51.473  12.546  1.00  0.00    +0.000 H 
ATOM     24  C20 UNL A   1      14.583  52.161  13.085  1.00  0.00    +0.000 C 
BRANCH   24   23
ATOM    130  H22 UNL A   1      15.967  52.805  11.593  1.00  0.00    +0.000 H 
ATOM    131  H23 UNL A   1      16.693  52.399  13.150  1.00  0.00    +0.000 H 
ATOM     23  C19 UNL A   1      15.964  52.124  12.417  1.00  0.00    +0.000 C 
BRANCH   23   22
ATOM    129  H21 UNL A   1      16.552  50.168  12.644  1.00  0.00    +0.000 H 
ATOM     22  N2  UNL A   1      16.298  50.798  11.931  1.00  0.00    +0.000 N 
BRANCH   22   20
ATOM     20  C18 UNL A   1      16.331  50.253  10.684  1.00  0.00    +0.000 C 
ATOM     21  O1  UNL A   1      16.775  50.983   9.787  1.00  0.00    +0.000 O 
BRANCH   20   18
ATOM     18  C16 UNL A   1      15.856  48.829  10.336  1.00  0.00    +0.000 C 
ATOM    125  H17 UNL A   1      16.242  48.207  11.116  1.00  0.00    +0.000 H 
BRANCH   18   17
ATOM     14  C12 UNL A   1      11.483  48.711  10.514  1.00  0.00    +0.000 C 
ATOM     15  C13 UNL A   1      12.203  48.327   9.370  1.00  0.00    +0.000 C 
ATOM     16  C14 UNL A   1      13.592  48.241   9.349  1.00  0.00    +0.000 C 
ATOM     17  C15 UNL A   1      14.349  48.666  10.427  1.00  0.00    +0.000 C 
ATOM    123  H15 UNL A   1      11.680  48.099   8.510  1.00  0.00    +0.000 H 
ATOM    124  H16 UNL A   1      14.065  47.854   8.517  1.00  0.00    +0.000 H 
ATOM    157  H49 UNL A   1      14.202  49.239  12.445  1.00  0.00    +0.000 H 
ATOM     95  C70 UNL A   1      13.659  48.972  11.608  1.00  0.00    +0.000 C 
ATOM     96  C71 UNL A   1      12.243  48.931  11.696  1.00  0.00    +0.000 C 
BRANCH   14    6
ATOM    118  H10 UNL A   1       9.694  48.238  11.344  1.00  0.00    +0.000 H 
ATOM      6  C5  UNL A   1       9.930  48.832  10.486  1.00  0.00    +0.000 C 
BRANCH    6    5
ATOM      2  C2  UNL A   1       6.685  47.587   7.980  1.00  0.00    +0.000 C 
ATOM      3  C3  UNL A   1       7.660  48.582   7.358  1.00  0.00    +0.000 C 
ATOM      4  C4  UNL A   1       8.652  49.143   8.384  1.00  0.00    +0.000 C 
ATOM    164  H56 UNL A   1       8.123  46.021   7.864  1.00  0.00    +0.000 H 
ATOM    165  H57 UNL A   1       6.839  45.739   9.023  1.00  0.00    +0.000 H 
ATOM    162  H54 UNL A   1       7.746  47.313  10.538  1.00  0.00    +0.000 H 
ATOM    163  H55 UNL A   1       9.071  46.249   9.980  1.00  0.00    +0.000 H 
ATOM      5  N1  UNL A   1       9.192  48.186   9.352  1.00  0.00    +0.000 N 
ATOM    107  C79 UNL A   1       8.382  47.027   9.726  1.00  0.00    +0.000 C 
ATOM    108  C80 UNL A   1       7.504  46.470   8.611  1.00  0.00    +0.000 C 
ATOM    112  H4  UNL A   1       6.087  48.077   8.720  1.00  0.00    +0.000 H 
ATOM    113  H5  UNL A   1       7.104  49.394   6.939  1.00  0.00    +0.000 H 
ATOM    114  H6  UNL A   1       8.222  48.065   6.608  1.00  0.00    +0.000 H 
ATOM    115  H7  UNL A   1       8.154  49.915   8.930  1.00  0.00    +0.000 H 
ATOM    116  H8  UNL A   1       9.493  49.477   7.814  1.00  0.00    +0.000 H 
ATOM    117  H9  UNL A   1       9.893  47.712   8.784  1.00  0.00    +0.000 H 
BRANCH    2    1
ATOM      1  C1  UNL A   1       5.724  47.030   6.941  1.00  0.00    +0.000 C 
ATOM    109  H1  UNL A   1       6.279  46.519   6.181  1.00  0.00    +0.000 H 
ATOM    110  H2  UNL A   1       5.171  47.833   6.500  1.00  0.00    +0.000 H 
ATOM    111  H3  UNL A   1       5.049  46.345   7.410  1.00  0.00    +0.000 H 
ENDBRANCH    2    1
ENDBRANCH    6    5
BRANCH    6    7
ATOM      7  C6  UNL A   1       9.412  50.273  10.678  1.00  0.00    +0.000 C 
ATOM      8  C7  UNL A   1       8.258  50.557  11.436  1.00  0.00    +0.000 C 
ATOM      9  C8  UNL A   1       7.821  51.872  11.602  1.00  0.00    +0.000 C 
ATOM     10  C9  UNL A   1       8.523  52.908  11.000  1.00  0.00    +0.000 C 
ATOM     11  F1  UNL A   1       8.096  54.169  11.152  1.00  0.00    +0.000 F 
ATOM     12  C10 UNL A   1       9.662  52.657  10.246  1.00  0.00    +0.000 C 
ATOM     13  C11 UNL A   1      10.114  51.346  10.097  1.00  0.00    +0.000 C 
ATOM    119  H11 UNL A   1       7.731  49.785  11.872  1.00  0.00    +0.000 H 
ATOM    120  H12 UNL A   1       6.982  52.072  12.169  1.00  0.00    +0.000 H 
ATOM    121  H13 UNL A   1      10.170  53.437   9.800  1.00  0.00    +0.000 H 
ATOM    122  H14 UNL A   1      10.972  51.161   9.554  1.00  0.00    +0.000 H 
ENDBRANCH    6    7
ENDBRANCH   14    6
BRANCH   96   97
ATOM     97  C72 UNL A   1      11.643  49.063  13.038  1.00  0.00    +0.000 C 
ATOM     98  C73 UNL A   1      11.388  50.319  13.609  1.00  0.00    +0.000 C 
ATOM     99  C74 UNL A   1      10.823  50.427  14.884  1.00  0.00    +0.000 C 
ATOM    161  H53 UNL A   1      11.552  46.985  13.408  1.00  0.00    +0.000 H 
ATOM    100  C75 UNL A   1      10.497  49.279  15.621  1.00  0.00    +0.000 C 
ATOM    101  C76 UNL A   1       9.889  49.403  16.995  1.00  0.00    +0.000 C 
ATOM    102  F17 UNL A   1      10.795  49.804  17.929  1.00  0.00    +0.000 F 
ATOM    103  F18 UNL A   1       8.873  50.308  17.045  1.00  0.00    +0.000 F 
ATOM    105  C77 UNL A   1      10.773  48.022  15.067  1.00  0.00    +0.000 C 
ATOM    106  C78 UNL A   1      11.345  47.918  13.797  1.00  0.00    +0.000 C 
ATOM    104  F19 UNL A   1       9.366  48.234  17.463  1.00  0.00    +0.000 F 
ATOM    158  H50 UNL A   1      11.623  51.175  13.082  1.00  0.00    +0.000 H 
ATOM    159  H51 UNL A   1      10.641  51.360  15.286  1.00  0.00    +0.000 H 
ATOM    160  H52 UNL A   1      10.553  47.166  15.602  1.00  0.00    +0.000 H 
ENDBRANCH   96   97
ENDBRANCH   18   17
BRANCH   18   19
ATOM     19  C17 UNL A   1      16.501  48.226   9.089  1.00  0.00    +0.000 C 
ATOM    126  H18 UNL A   1      16.923  47.273   9.332  1.00  0.00    +0.000 H 
ATOM    127  H19 UNL A   1      17.272  48.878   8.736  1.00  0.00    +0.000 H 
ATOM    128  H20 UNL A   1      15.759  48.105   8.328  1.00  0.00    +0.000 H 
ENDBRANCH   18   19
ENDBRANCH   20   18
ENDBRANCH   22   20
ENDBRANCH   23   22
ENDBRANCH   24   23
ENDBRANCH   25   24
ENDBRANCH   26   25
ENDBRANCH   27   26
ENDBRANCH   28   27
ENDBRANCH   29   28
ENDBRANCH   30   29
ENDBRANCH   32   30
ENDBRANCH   36   35
BRANCH   40   41
ATOM     41  C34 UNL A   1      17.097  55.395   1.723  1.00  0.00    +0.000 C 
ATOM     42  C35 UNL A   1      16.445  56.337   0.913  1.00  0.00    +0.000 C 
ATOM     43  F2  UNL A   1      15.145  56.189   0.616  1.00  0.00    +0.000 F 
ATOM     44  C36 UNL A   1      17.131  57.431   0.391  1.00  0.00    +0.000 C 
ATOM     45  F3  UNL A   1      16.494  58.305  -0.401  1.00  0.00    +0.000 F 
ATOM     46  C37 UNL A   1      18.473  57.615   0.687  1.00  0.00    +0.000 C 
ATOM     47  F4  UNL A   1      19.129  58.676   0.196  1.00  0.00    +0.000 F 
ATOM     48  C38 UNL A   1      19.135  56.703   1.494  1.00  0.00    +0.000 C 
ATOM     49  F5  UNL A   1      20.425  56.891   1.800  1.00  0.00    +0.000 F 
ATOM     50  C39 UNL A   1      18.458  55.594   1.995  1.00  0.00    +0.000 C 
ATOM     51  F6  UNL A   1      19.125  54.725   2.771  1.00  0.00    +0.000 F 
ENDBRANCH   40   41
BRANCH   57   58
ATOM     65  C49 UNL A   1      15.567  47.713  -2.606  1.00  0.00    +0.000 C 
ATOM     66  F10 UNL A   1      14.758  47.534  -3.659  1.00  0.00    +0.000 F 
ATOM     67  C50 UNL A   1      15.124  48.437  -1.504  1.00  0.00    +0.000 C 
ATOM     68  F11 UNL A   1      13.884  48.952  -1.519  1.00  0.00    +0.000 F 
ATOM     58  C45 UNL A   1      15.951  48.627  -0.389  1.00  0.00    +0.000 C 
ATOM     59  C46 UNL A   1      17.234  48.060  -0.414  1.00  0.00    +0.000 C 
ATOM     60  F7  UNL A   1      18.064  48.221   0.629  1.00  0.00    +0.000 F 
ATOM     61  C47 UNL A   1      17.683  47.355  -1.526  1.00  0.00    +0.000 C 
ATOM     62  F8  UNL A   1      18.926  46.854  -1.545  1.00  0.00    +0.000 F 
ATOM     63  C48 UNL A   1      16.850  47.184  -2.622  1.00  0.00    +0.000 C 
ATOM     64  F9  UNL A   1      17.285  46.509  -3.696  1.00  0.00    +0.000 F 
ENDBRANCH   57   58
BRANCH   72   73
ATOM     73  C54 UNL A   1      11.863  47.652   5.190  1.00  0.00    +0.000 C 
ATOM     74  C55 UNL A   1      10.516  47.496   4.836  1.00  0.00    +0.000 C 
ATOM     75  F12 UNL A   1       9.940  48.366   3.992  1.00  0.00    +0.000 F 
ATOM     76  C56 UNL A   1       9.747  46.463   5.369  1.00  0.00    +0.000 C 
ATOM     77  F13 UNL A   1       8.452  46.357   5.042  1.00  0.00    +0.000 F 
ATOM     78  C57 UNL A   1      10.317  45.556   6.249  1.00  0.00    +0.000 C 
ATOM     79  F14 UNL A   1       9.578  44.562   6.762  1.00  0.00    +0.000 F 
ATOM     80  C58 UNL A   1      11.653  45.678   6.599  1.00  0.00    +0.000 C 
ATOM     81  F15 UNL A   1      12.212  44.793   7.435  1.00  0.00    +0.000 F 
ATOM     82  C59 UNL A   1      12.417  46.722   6.081  1.00  0.00    +0.000 C 
ATOM     83  F16 UNL A   1      13.707  46.822   6.434  1.00  0.00    +0.000 F 
ENDBRANCH   72   73
TORSDOF 22
ENDMDL
MODEL 10
REMARK VINA RESULT:      -8.9      2.834      8.630
ROOT
ATOM    145  H37 UNL A   1      17.916  50.868  -2.364  1.00  0.00    +0.000 H 
ATOM    146  H38 UNL A   1      18.358  53.429  -2.161  1.00  0.00    +0.000 H 
ATOM    147  H39 UNL A   1      16.231  52.208   1.177  1.00  0.00    +0.000 H 
ATOM    148  H40 UNL A   1      13.135  53.637   6.558  1.00  0.00    +0.000 H 
ATOM    149  H41 UNL A   1      12.790  51.126   6.409  1.00  0.00    +0.000 H 
ATOM    150  H42 UNL A   1      14.839  52.334   2.999  1.00  0.00    +0.000 H 
ATOM    151  H43 UNL A   1      15.768  57.253   3.638  1.00  0.00    +0.000 H 
ATOM    152  H44 UNL A   1      17.015  57.179   1.403  1.00  0.00    +0.000 H 
ATOM    153  H45 UNL A   1      15.504  47.260   0.780  1.00  0.00    +0.000 H 
ATOM    154  H46 UNL A   1      13.918  47.379   2.789  1.00  0.00    +0.000 H 
ATOM     36  C30 UNL A   1      13.879  49.928   4.062  1.00  0.00    +0.000 C 
ATOM     37  C31 UNL A   1      14.567  49.552   2.778  1.00  0.00    +0.000 C 
ATOM     38  N4  UNL A   1      15.286  50.295   1.974  1.00  0.00    +0.000 N 
ATOM     39  C32 UNL A   1      15.750  49.439   0.984  1.00  0.00    +0.000 C 
ATOM     40  C33 UNL A   1      16.500  49.735  -0.104  1.00  0.00    +0.000 C 
ATOM     52  C40 UNL A   1      16.933  51.061  -0.454  1.00  0.00    +0.000 C 
ATOM     53  C41 UNL A   1      17.621  51.472  -1.581  1.00  0.00    +0.000 C 
ATOM     54  C42 UNL A   1      17.845  52.848  -1.479  1.00  0.00    +0.000 C 
ATOM     55  C43 UNL A   1      17.264  53.300  -0.305  1.00  0.00    +0.000 C 
ATOM     56  N5  UNL A   1      16.711  52.193   0.317  1.00  0.00    +0.000 N 
ATOM     57  C44 UNL A   1      17.222  54.644   0.212  1.00  0.00    +0.000 C 
ATOM     69  C51 UNL A   1      16.610  55.016   1.361  1.00  0.00    +0.000 C 
ATOM     70  N6  UNL A   1      15.904  54.231   2.263  1.00  0.00    +0.000 N 
ATOM     71  C52 UNL A   1      15.503  55.041   3.211  1.00  0.00    +0.000 C 
ATOM     72  C53 UNL A   1      14.690  54.730   4.435  1.00  0.00    +0.000 C 
ATOM     84  C60 UNL A   1      14.244  53.475   4.636  1.00  0.00    +0.000 C 
ATOM     85  C61 UNL A   1      13.473  53.031   5.796  1.00  0.00    +0.000 C 
ATOM     86  C62 UNL A   1      13.278  51.706   5.708  1.00  0.00    +0.000 C 
ATOM     87  C63 UNL A   1      13.868  51.214   4.464  1.00  0.00    +0.000 C 
ATOM     88  N7  UNL A   1      14.395  52.340   3.878  1.00  0.00    +0.000 N 
ATOM     89  C64 UNL A   1      15.931  56.436   3.028  1.00  0.00    +0.000 C 
ATOM     90  C65 UNL A   1      16.583  56.370   1.875  1.00  0.00    +0.000 C 
ATOM     91  C66 UNL A   1      15.263  48.115   1.306  1.00  0.00    +0.000 C 
ATOM     92  C67 UNL A   1      14.466  48.144   2.365  1.00  0.00    +0.000 C 
ENDROOT
BRANCH   36   35
ATOM     33  C27 UNL A   1      13.581  47.193   6.698  1.00  0.00    +0.000 C 
ATOM     34  C28 UNL A   1      14.106  48.258   5.955  1.00  0.00    +0.000 C 
ATOM     35  C29 UNL A   1      13.336  48.869   4.952  1.00  0.00    +0.000 C 
ATOM    143  H35 UNL A   1      14.158  46.729   7.417  1.00  0.00    +0.000 H 
ATOM    144  H36 UNL A   1      15.063  48.594   6.145  1.00  0.00    +0.000 H 
ATOM    155  H47 UNL A   1      11.427  48.911   4.047  1.00  0.00    +0.000 H 
ATOM    156  H48 UNL A   1      10.471  47.193   5.459  1.00  0.00    +0.000 H 
ATOM     93  C68 UNL A   1      12.008  48.457   4.769  1.00  0.00    +0.000 C 
ATOM     94  C69 UNL A   1      11.467  47.442   5.552  1.00  0.00    +0.000 C 
ATOM     32  C26 UNL A   1      12.274  46.761   6.463  1.00  0.00    +0.000 C 
BRANCH   32   30
ATOM     30  C25 UNL A   1      11.737  45.595   7.201  1.00  0.00    +0.000 C 
ATOM     31  O2  UNL A   1      11.678  44.505   6.661  1.00  0.00    +0.000 O 
BRANCH   30   29
ATOM     29  N3  UNL A   1      11.317  45.755   8.507  1.00  0.00    +0.000 N 
ATOM    142  H34 UNL A   1      10.388  46.063   8.618  1.00  0.00    +0.000 H 
BRANCH   29   28
ATOM    141  H33 UNL A   1      13.099  45.568   9.514  1.00  0.00    +0.000 H 
ATOM     28  C24 UNL A   1      12.055  45.532   9.742  1.00  0.00    +0.000 C 
ATOM    140  H32 UNL A   1      11.779  44.580  10.142  1.00  0.00    +0.000 H 
BRANCH   28   27
ATOM    138  H30 UNL A   1      10.992  47.245  10.399  1.00  0.00    +0.000 H 
ATOM     27  C23 UNL A   1      11.762  46.611  10.785  1.00  0.00    +0.000 C 
ATOM    139  H31 UNL A   1      11.477  46.096  11.678  1.00  0.00    +0.000 H 
BRANCH   27   26
ATOM    137  H29 UNL A   1      13.603  46.869  11.747  1.00  0.00    +0.000 H 
ATOM     26  C22 UNL A   1      12.961  47.490  11.157  1.00  0.00    +0.000 C 
ATOM    136  H28 UNL A   1      12.591  48.349  11.674  1.00  0.00    +0.000 H 
BRANCH   26   25
ATOM     25  C21 UNL A   1      13.821  47.980   9.984  1.00  0.00    +0.000 C 
ATOM    134  H26 UNL A   1      13.607  47.362   9.136  1.00  0.00    +0.000 H 
ATOM    135  H27 UNL A   1      13.567  49.009   9.841  1.00  0.00    +0.000 H 
BRANCH   25   24
ATOM    132  H24 UNL A   1      15.600  48.809  10.798  1.00  0.00    +0.000 H 
ATOM    133  H25 UNL A   1      15.542  47.026  10.725  1.00  0.00    +0.000 H 
ATOM     24  C20 UNL A   1      15.334  47.948  10.223  1.00  0.00    +0.000 C 
BRANCH   24   23
ATOM    130  H22 UNL A   1      16.851  47.113   8.973  1.00  0.00    +0.000 H 
ATOM    131  H23 UNL A   1      15.517  47.880   8.107  1.00  0.00    +0.000 H 
ATOM     23  C19 UNL A   1      16.181  47.947   8.943  1.00  0.00    +0.000 C 
BRANCH   23   22
ATOM    129  H21 UNL A   1      17.925  49.033   8.928  1.00  0.00    +0.000 H 
ATOM     22  N2  UNL A   1      16.957  49.165   8.802  1.00  0.00    +0.000 N 
BRANCH   22   20
ATOM     20  C18 UNL A   1      16.612  50.453   8.530  1.00  0.00    +0.000 C 
ATOM     21  O1  UNL A   1      16.570  50.759   7.330  1.00  0.00    +0.000 O 
BRANCH   20   18
ATOM     18  C16 UNL A   1      16.288  51.519   9.595  1.00  0.00    +0.000 C 
ATOM    125  H17 UNL A   1      16.927  52.346   9.366  1.00  0.00    +0.000 H 
BRANCH   18   17
ATOM     14  C12 UNL A   1      12.226  53.153   9.596  1.00  0.00    +0.000 C 
ATOM     15  C13 UNL A   1      13.363  53.955   9.399  1.00  0.00    +0.000 C 
ATOM     16  C14 UNL A   1      14.644  53.426   9.270  1.00  0.00    +0.000 C 
ATOM     17  C15 UNL A   1      14.881  52.077   9.469  1.00  0.00    +0.000 C 
ATOM    123  H15 UNL A   1      13.243  54.979   9.346  1.00  0.00    +0.000 H 
ATOM    124  H16 UNL A   1      15.428  54.049   9.022  1.00  0.00    +0.000 H 
ATOM    157  H49 UNL A   1      13.905  50.225   9.678  1.00  0.00    +0.000 H 
ATOM     95  C70 UNL A   1      13.760  51.243   9.583  1.00  0.00    +0.000 C 
ATOM     96  C71 UNL A   1      12.433  51.746   9.575  1.00  0.00    +0.000 C 
BRANCH   14    6
ATOM    118  H10 UNL A   1      10.403  53.099  10.483  1.00  0.00    +0.000 H 
ATOM      6  C5  UNL A   1      10.814  53.787   9.774  1.00  0.00    +0.000 C 
BRANCH    6    5
ATOM      2  C2  UNL A   1       8.365  55.140   6.527  1.00  0.00    +0.000 C 
ATOM      3  C3  UNL A   1       9.577  54.297   6.140  1.00  0.00    +0.000 C 
ATOM      4  C4  UNL A   1      10.514  54.045   7.326  1.00  0.00    +0.000 C 
ATOM    164  H56 UNL A   1       7.364  53.435   7.320  1.00  0.00    +0.000 H 
ATOM    165  H57 UNL A   1       6.763  54.970   7.915  1.00  0.00    +0.000 H 
ATOM    162  H54 UNL A   1       8.663  55.277   9.291  1.00  0.00    +0.000 H 
ATOM    163  H55 UNL A   1       8.061  53.611   9.536  1.00  0.00    +0.000 H 
ATOM      5  N1  UNL A   1       9.872  53.750   8.608  1.00  0.00    +0.000 N 
ATOM    107  C79 UNL A   1       8.542  54.299   8.873  1.00  0.00    +0.000 C 
ATOM    108  C80 UNL A   1       7.639  54.415   7.651  1.00  0.00    +0.000 C 
ATOM    112  H4  UNL A   1       8.685  56.108   6.852  1.00  0.00    +0.000 H 
ATOM    113  H5  UNL A   1      10.121  54.807   5.374  1.00  0.00    +0.000 H 
ATOM    114  H6  UNL A   1       9.219  53.347   5.798  1.00  0.00    +0.000 H 
ATOM    115  H7  UNL A   1      11.117  54.919   7.455  1.00  0.00    +0.000 H 
ATOM    116  H8  UNL A   1      11.064  53.162   7.073  1.00  0.00    +0.000 H 
ATOM    117  H9  UNL A   1       9.615  52.773   8.475  1.00  0.00    +0.000 H 
BRANCH    2    1
ATOM      1  C1  UNL A   1       7.441  55.359   5.341  1.00  0.00    +0.000 C 
ATOM    109  H1  UNL A   1       7.977  55.855   4.558  1.00  0.00    +0.000 H 
ATOM    110  H2  UNL A   1       6.610  55.962   5.642  1.00  0.00    +0.000 H 
ATOM    111  H3  UNL A   1       7.086  54.414   4.985  1.00  0.00    +0.000 H 
ENDBRANCH    2    1
ENDBRANCH    6    5
BRANCH    6    7
ATOM      7  C6  UNL A   1      10.838  55.210  10.367  1.00  0.00    +0.000 C 
ATOM      8  C7  UNL A   1      10.629  55.451  11.740  1.00  0.00    +0.000 C 
ATOM      9  C8  UNL A   1      10.668  56.750  12.250  1.00  0.00    +0.000 C 
ATOM     10  C9  UNL A   1      10.900  57.816  11.390  1.00  0.00    +0.000 C 
ATOM     11  F1  UNL A   1      10.928  59.063  11.879  1.00  0.00    +0.000 F 
ATOM     12  C10 UNL A   1      11.107  57.609  10.033  1.00  0.00    +0.000 C 
ATOM     13  C11 UNL A   1      11.090  56.309   9.523  1.00  0.00    +0.000 C 
ATOM    119  H11 UNL A   1      10.444  54.659  12.375  1.00  0.00    +0.000 H 
ATOM    120  H12 UNL A   1      10.526  56.916  13.258  1.00  0.00    +0.000 H 
ATOM    121  H13 UNL A   1      11.273  58.411   9.404  1.00  0.00    +0.000 H 
ATOM    122  H14 UNL A   1      11.265  56.152   8.519  1.00  0.00    +0.000 H 
ENDBRANCH    6    7
ENDBRANCH   14    6
BRANCH   96   97
ATOM     97  C72 UNL A   1      11.335  50.763   9.487  1.00  0.00    +0.000 C 
ATOM     98  C73 UNL A   1      10.546  50.440  10.600  1.00  0.00    +0.000 C 
ATOM     99  C74 UNL A   1       9.512  49.502  10.499  1.00  0.00    +0.000 C 
ATOM    161  H53 UNL A   1      11.669  50.293   7.454  1.00  0.00    +0.000 H 
ATOM    100  C75 UNL A   1       9.243  48.862   9.281  1.00  0.00    +0.000 C 
ATOM    101  C76 UNL A   1       8.129  47.852   9.180  1.00  0.00    +0.000 C 
ATOM    102  F17 UNL A   1       8.442  46.672   9.785  1.00  0.00    +0.000 F 
ATOM    103  F18 UNL A   1       6.974  48.277   9.764  1.00  0.00    +0.000 F 
ATOM    105  C77 UNL A   1      10.045  49.161   8.172  1.00  0.00    +0.000 C 
ATOM    106  C78 UNL A   1      11.081  50.093   8.277  1.00  0.00    +0.000 C 
ATOM    104  F19 UNL A   1       7.799  47.535   7.897  1.00  0.00    +0.000 F 
ATOM    158  H50 UNL A   1      10.730  50.899  11.505  1.00  0.00    +0.000 H 
ATOM    159  H51 UNL A   1       8.941  49.279  11.330  1.00  0.00    +0.000 H 
ATOM    160  H52 UNL A   1       9.870  48.689   7.270  1.00  0.00    +0.000 H 
ENDBRANCH   96   97
ENDBRANCH   18   17
BRANCH   18   19
ATOM     19  C17 UNL A   1      16.719  51.157  11.014  1.00  0.00    +0.000 C 
ATOM    126  H18 UNL A   1      15.855  50.921  11.601  1.00  0.00    +0.000 H 
ATOM    127  H19 UNL A   1      17.233  51.987  11.454  1.00  0.00    +0.000 H 
ATOM    128  H20 UNL A   1      17.371  50.309  10.984  1.00  0.00    +0.000 H 
ENDBRANCH   18   19
ENDBRANCH   20   18
ENDBRANCH   22   20
ENDBRANCH   23   22
ENDBRANCH   24   23
ENDBRANCH   25   24
ENDBRANCH   26   25
ENDBRANCH   27   26
ENDBRANCH   28   27
ENDBRANCH   29   28
ENDBRANCH   30   29
ENDBRANCH   32   30
ENDBRANCH   36   35
BRANCH   40   41
ATOM     41  C34 UNL A   1      16.893  48.607  -1.011  1.00  0.00    +0.000 C 
ATOM     42  C35 UNL A   1      18.057  47.866  -0.759  1.00  0.00    +0.000 C 
ATOM     43  F2  UNL A   1      18.805  48.127   0.324  1.00  0.00    +0.000 F 
ATOM     44  C36 UNL A   1      18.469  46.860  -1.631  1.00  0.00    +0.000 C 
ATOM     45  F3  UNL A   1      19.598  46.182  -1.383  1.00  0.00    +0.000 F 
ATOM     46  C37 UNL A   1      17.713  46.562  -2.754  1.00  0.00    +0.000 C 
ATOM     47  F4  UNL A   1      18.102  45.584  -3.584  1.00  0.00    +0.000 F 
ATOM     48  C38 UNL A   1      16.552  47.274  -3.016  1.00  0.00    +0.000 C 
ATOM     49  F5  UNL A   1      15.809  46.972  -4.089  1.00  0.00    +0.000 F 
ATOM     50  C39 UNL A   1      16.154  48.299  -2.162  1.00  0.00    +0.000 C 
ATOM     51  F6  UNL A   1      15.029  48.974  -2.442  1.00  0.00    +0.000 F 
ENDBRANCH   40   41
BRANCH   57   58
ATOM     65  C49 UNL A   1      19.918  56.853  -1.315  1.00  0.00    +0.000 C 
ATOM     66  F10 UNL A   1      21.232  57.077  -1.179  1.00  0.00    +0.000 F 
ATOM     67  C50 UNL A   1      19.276  55.947  -0.476  1.00  0.00    +0.000 C 
ATOM     68  F11 UNL A   1      19.993  55.305   0.459  1.00  0.00    +0.000 F 
ATOM     58  C45 UNL A   1      17.901  55.706  -0.597  1.00  0.00    +0.000 C 
ATOM     59  C46 UNL A   1      17.190  56.410  -1.580  1.00  0.00    +0.000 C 
ATOM     60  F7  UNL A   1      15.872  56.208  -1.736  1.00  0.00    +0.000 F 
ATOM     61  C47 UNL A   1      17.838  57.300  -2.431  1.00  0.00    +0.000 C 
ATOM     62  F8  UNL A   1      17.147  57.933  -3.390  1.00  0.00    +0.000 F 
ATOM     63  C48 UNL A   1      19.201  57.519  -2.300  1.00  0.00    +0.000 C 
ATOM     64  F9  UNL A   1      19.826  58.372  -3.124  1.00  0.00    +0.000 F 
ENDBRANCH   57   58
BRANCH   72   73
ATOM     73  C54 UNL A   1      14.340  55.792   5.412  1.00  0.00    +0.000 C 
ATOM     74  C55 UNL A   1      13.038  56.303   5.505  1.00  0.00    +0.000 C 
ATOM     75  F12 UNL A   1      12.063  55.803   4.730  1.00  0.00    +0.000 F 
ATOM     76  C56 UNL A   1      12.738  57.350   6.375  1.00  0.00    +0.000 C 
ATOM     77  F13 UNL A   1      11.494  57.845   6.421  1.00  0.00    +0.000 F 
ATOM     78  C57 UNL A   1      13.728  57.889   7.182  1.00  0.00    +0.000 C 
ATOM     79  F14 UNL A   1      13.440  58.895   8.019  1.00  0.00    +0.000 F 
ATOM     80  C58 UNL A   1      15.019  57.385   7.120  1.00  0.00    +0.000 C 
ATOM     81  F15 UNL A   1      15.976  57.892   7.911  1.00  0.00    +0.000 F 
ATOM     82  C59 UNL A   1      15.324  56.352   6.237  1.00  0.00    +0.000 C 
ATOM     83  F16 UNL A   1      16.580  55.882   6.193  1.00  0.00    +0.000 F 
ENDBRANCH   72   73
TORSDOF 22
ENDMDL
