MODEL 1
REMARK VINA RESULT:      -8.8      0.000      0.000
ROOT
ATOM    129  H32 UNL A   1      16.551  56.631   2.764  1.00  0.00    +0.000 H 
ATOM    130  H33 UNL A   1      15.151  56.378   4.894  1.00  0.00    +0.000 H 
ATOM     28  C21 UNL A   1      13.946  53.813   5.173  1.00  0.00    +0.000 C 
ATOM     29  C22 UNL A   1      14.908  54.263   4.112  1.00  0.00    +0.000 C 
ATOM     30  N4  UNL A   1      15.400  53.591   3.101  1.00  0.00    +0.000 N 
ATOM     31  C23 UNL A   1      16.203  54.486   2.408  1.00  0.00    +0.000 C 
ATOM     32  C24 UNL A   1      16.967  54.259   1.313  1.00  0.00    +0.000 C 
ATOM     44  C31 UNL A   1      17.088  52.983   0.658  1.00  0.00    +0.000 C 
ATOM     45  C32 UNL A   1      17.898  52.635  -0.409  1.00  0.00    +0.000 C 
ATOM     46  C33 UNL A   1      17.642  51.298  -0.734  1.00  0.00    +0.000 C 
ATOM     47  C34 UNL A   1      16.700  50.804   0.154  1.00  0.00    +0.000 C 
ATOM     48  N5  UNL A   1      16.373  51.847   1.005  1.00  0.00    +0.000 N 
ATOM     49  C35 UNL A   1      16.132  49.482   0.217  1.00  0.00    +0.000 C 
ATOM     61  C42 UNL A   1      15.259  49.055   1.161  1.00  0.00    +0.000 C 
ATOM     62  N6  UNL A   1      14.724  49.755   2.233  1.00  0.00    +0.000 N 
ATOM     63  C43 UNL A   1      13.924  48.918   2.846  1.00  0.00    +0.000 C 
ATOM     64  C44 UNL A   1      13.087  49.136   4.077  1.00  0.00    +0.000 C 
ATOM     76  C51 UNL A   1      13.121  50.331   4.695  1.00  0.00    +0.000 C 
ATOM     77  C52 UNL A   1      12.347  50.693   5.880  1.00  0.00    +0.000 C 
ATOM     78  C53 UNL A   1      12.561  51.988   6.163  1.00  0.00    +0.000 C 
ATOM     79  C54 UNL A   1      13.521  52.536   5.203  1.00  0.00    +0.000 C 
ATOM     80  N7  UNL A   1      13.823  51.472   4.390  1.00  0.00    +0.000 N 
ATOM     81  C55 UNL A   1      13.847  47.591   2.219  1.00  0.00    +0.000 C 
ATOM     82  C56 UNL A   1      14.704  47.719   1.215  1.00  0.00    +0.000 C 
ATOM     83  C57 UNL A   1      16.102  55.759   3.088  1.00  0.00    +0.000 C 
ATOM     84  C58 UNL A   1      15.360  55.661   4.181  1.00  0.00    +0.000 C 
ATOM    121  H24 UNL A   1      18.576  53.253  -0.883  1.00  0.00    +0.000 H 
ATOM    122  H25 UNL A   1      18.080  50.770  -1.505  1.00  0.00    +0.000 H 
ATOM    123  H26 UNL A   1      15.729  51.790   1.748  1.00  0.00    +0.000 H 
ATOM    124  H27 UNL A   1      11.735  50.056   6.412  1.00  0.00    +0.000 H 
ATOM    125  H28 UNL A   1      12.119  52.513   6.934  1.00  0.00    +0.000 H 
ATOM    126  H29 UNL A   1      14.481  51.522   3.659  1.00  0.00    +0.000 H 
ATOM    127  H30 UNL A   1      13.277  46.774   2.490  1.00  0.00    +0.000 H 
ATOM    128  H31 UNL A   1      14.943  46.963   0.555  1.00  0.00    +0.000 H 
ENDROOT
BRANCH   28   27
ATOM    131  H34 UNL A   1      15.018  54.641   7.475  1.00  0.00    +0.000 H 
ATOM    132  H35 UNL A   1      14.139  56.233   9.077  1.00  0.00    +0.000 H 
ATOM     27  C20 UNL A   1      13.387  54.793   6.137  1.00  0.00    +0.000 C 
ATOM     85  C59 UNL A   1      14.117  55.109   7.293  1.00  0.00    +0.000 C 
ATOM     86  C60 UNL A   1      13.631  56.051   8.198  1.00  0.00    +0.000 C 
ATOM    119  H22 UNL A   1      10.800  56.889   6.603  1.00  0.00    +0.000 H 
ATOM     24  C17 UNL A   1      12.453  56.746   7.911  1.00  0.00    +0.000 C 
ATOM     25  C18 UNL A   1      11.696  56.410   6.785  1.00  0.00    +0.000 C 
ATOM     26  C19 UNL A   1      12.155  55.425   5.907  1.00  0.00    +0.000 C 
ATOM    120  H23 UNL A   1      11.587  55.160   5.088  1.00  0.00    +0.000 H 
BRANCH   24   22
ATOM     22  C16 UNL A   1      11.978  57.832   8.795  1.00  0.00    +0.000 C 
ATOM     23  O4  UNL A   1      12.669  58.836   8.951  1.00  0.00    +0.000 O 
BRANCH   22   21
ATOM     21  N3  UNL A   1      10.777  57.712   9.447  1.00  0.00    +0.000 N 
ATOM    118  H21 UNL A   1       9.978  57.802   8.879  1.00  0.00    +0.000 H 
BRANCH   21   20
ATOM    116  H19 UNL A   1      11.080  58.171  11.439  1.00  0.00    +0.000 H 
ATOM     20  C15 UNL A   1      10.514  57.472  10.859  1.00  0.00    +0.000 C 
ATOM    117  H20 UNL A   1       9.464  57.590  11.023  1.00  0.00    +0.000 H 
BRANCH   20   19
ATOM    114  H17 UNL A   1      10.840  55.423  10.422  1.00  0.00    +0.000 H 
ATOM     19  C14 UNL A   1      10.899  56.056  11.282  1.00  0.00    +0.000 C 
ATOM    115  H18 UNL A   1      11.885  56.121  11.691  1.00  0.00    +0.000 H 
BRANCH   19   18
ATOM    113  H16 UNL A   1       9.005  55.588  12.053  1.00  0.00    +0.000 H 
ATOM     18  C13 UNL A   1      10.015  55.454  12.378  1.00  0.00    +0.000 C 
ATOM    112  H15 UNL A   1      10.240  55.956  13.297  1.00  0.00    +0.000 H 
BRANCH   18   17
ATOM     17  C12 UNL A   1      10.190  53.947  12.608  1.00  0.00    +0.000 C 
ATOM    110  H13 UNL A   1       9.374  53.606  13.209  1.00  0.00    +0.000 H 
ATOM    111  H14 UNL A   1      10.220  53.501  11.636  1.00  0.00    +0.000 H 
BRANCH   17   16
ATOM    108  H11 UNL A   1      12.317  53.855  12.694  1.00  0.00    +0.000 H 
ATOM    109  H12 UNL A   1      11.499  54.013  14.265  1.00  0.00    +0.000 H 
ATOM     16  C11 UNL A   1      11.496  53.541  13.304  1.00  0.00    +0.000 C 
BRANCH   16   15
ATOM    106  H9  UNL A   1      10.698  51.671  13.951  1.00  0.00    +0.000 H 
ATOM    107  H10 UNL A   1      11.833  51.559  12.610  1.00  0.00    +0.000 H 
ATOM     15  C10 UNL A   1      11.619  52.035  13.544  1.00  0.00    +0.000 C 
BRANCH   15   14
ATOM    105  H8  UNL A   1      12.448  51.729  15.421  1.00  0.00    +0.000 H 
ATOM     14  N2  UNL A   1      12.694  51.737  14.468  1.00  0.00    +0.000 N 
BRANCH   14   12
ATOM     12  C9  UNL A   1      14.006  51.465  14.193  1.00  0.00    +0.000 C 
ATOM     13  O3  UNL A   1      14.485  50.415  14.628  1.00  0.00    +0.000 O 
BRANCH   12   11
ATOM     11  C8  UNL A   1      14.866  52.484  13.470  1.00  0.00    +0.000 C 
ATOM    103  H6  UNL A   1      14.245  53.300  13.163  1.00  0.00    +0.000 H 
ATOM    104  H7  UNL A   1      15.629  52.804  14.149  1.00  0.00    +0.000 H 
BRANCH   11   10
ATOM      7  C6  UNL A   1      16.287  51.014  10.394  1.00  0.00    +0.000 C 
ATOM      8  N1  UNL A   1      17.324  51.041  11.244  1.00  0.00    +0.000 N 
ATOM      9  O2  UNL A   1      16.858  51.626  12.404  1.00  0.00    +0.000 O 
ATOM     10  C7  UNL A   1      15.537  51.920  12.275  1.00  0.00    +0.000 C 
ATOM     87  C61 UNL A   1      15.126  51.585  11.000  1.00  0.00    +0.000 C 
BRANCH    7    6
ATOM     97  C70 UNL A   1      16.490  50.671   6.648  1.00  0.00    +0.000 C 
ATOM      3  C2  UNL A   1      16.385  49.290   6.492  1.00  0.00    +0.000 C 
ATOM      4  C3  UNL A   1      16.297  48.476   7.625  1.00  0.00    +0.000 C 
ATOM    101  H4  UNL A   1      16.220  47.453   7.514  1.00  0.00    +0.000 H 
ATOM      5  C4  UNL A   1      16.313  49.033   8.906  1.00  0.00    +0.000 C 
ATOM    102  H5  UNL A   1      16.263  48.420   9.736  1.00  0.00    +0.000 H 
ATOM      6  C5  UNL A   1      16.396  50.420   9.067  1.00  0.00    +0.000 C 
ATOM    140  H43 UNL A   1      16.580  52.256   8.038  1.00  0.00    +0.000 H 
ATOM    141  H44 UNL A   1      16.562  51.279   5.818  1.00  0.00    +0.000 H 
ATOM     96  C69 UNL A   1      16.498  51.233   7.930  1.00  0.00    +0.000 C 
BRANCH    3    2
ATOM      2  O1  UNL A   1      16.333  48.622   5.299  1.00  0.00    +0.000 O 
BRANCH    2    1
ATOM      1  C1  UNL A   1      17.305  48.983   4.327  1.00  0.00    +0.000 C 
ATOM     98  H1  UNL A   1      18.220  48.465   4.528  1.00  0.00    +0.000 H 
ATOM     99  H2  UNL A   1      17.477  50.038   4.368  1.00  0.00    +0.000 H 
ATOM    100  H3  UNL A   1      16.952  48.716   3.352  1.00  0.00    +0.000 H 
ENDBRANCH    2    1
ENDBRANCH    3    2
ENDBRANCH    7    6
BRANCH   87   88
ATOM    133  H36 UNL A   1      13.325  49.637  10.847  1.00  0.00    +0.000 H 
ATOM    134  H37 UNL A   1      11.045  49.763  10.042  1.00  0.00    +0.000 H 
ATOM    138  H41 UNL A   1      11.544  53.852   9.234  1.00  0.00    +0.000 H 
ATOM    139  H42 UNL A   1      13.834  53.730  10.032  1.00  0.00    +0.000 H 
ATOM     88  C62 UNL A   1      13.762  51.676  10.514  1.00  0.00    +0.000 C 
ATOM     89  C63 UNL A   1      12.949  50.536  10.506  1.00  0.00    +0.000 C 
ATOM     90  C64 UNL A   1      11.636  50.610  10.042  1.00  0.00    +0.000 C 
ATOM     91  C65 UNL A   1      11.113  51.817   9.579  1.00  0.00    +0.000 C 
ATOM     94  C67 UNL A   1      11.921  52.956   9.578  1.00  0.00    +0.000 C 
ATOM     95  C68 UNL A   1      13.242  52.885  10.041  1.00  0.00    +0.000 C 
BRANCH   91   92
ATOM     92  O5  UNL A   1       9.815  51.747   9.158  1.00  0.00    +0.000 O 
BRANCH   92   93
ATOM    137  H40 UNL A   1       8.884  51.449   7.363  1.00  0.00    +0.000 H 
ATOM     93  C66 UNL A   1       9.545  50.931   8.027  1.00  0.00    +0.000 C 
ATOM    135  H38 UNL A   1       9.085  50.020   8.347  1.00  0.00    +0.000 H 
ATOM    136  H39 UNL A   1      10.459  50.710   7.519  1.00  0.00    +0.000 H 
ENDBRANCH   92   93
ENDBRANCH   91   92
ENDBRANCH   87   88
ENDBRANCH   11   10
ENDBRANCH   12   11
ENDBRANCH   14   12
ENDBRANCH   15   14
ENDBRANCH   16   15
ENDBRANCH   17   16
ENDBRANCH   18   17
ENDBRANCH   19   18
ENDBRANCH   20   19
ENDBRANCH   21   20
ENDBRANCH   22   21
ENDBRANCH   24   22
ENDBRANCH   28   27
BRANCH   32   33
ATOM     33  C25 UNL A   1      17.738  55.417   0.752  1.00  0.00    +0.000 C 
ATOM     34  C26 UNL A   1      19.013  55.751   1.232  1.00  0.00    +0.000 C 
ATOM     35  F1  UNL A   1      19.553  55.064   2.249  1.00  0.00    +0.000 F 
ATOM     36  C27 UNL A   1      19.725  56.817   0.689  1.00  0.00    +0.000 C 
ATOM     37  F2  UNL A   1      20.924  57.144   1.191  1.00  0.00    +0.000 F 
ATOM     38  C28 UNL A   1      19.191  57.549  -0.362  1.00  0.00    +0.000 C 
ATOM     39  F3  UNL A   1      19.882  58.570  -0.889  1.00  0.00    +0.000 F 
ATOM     40  C29 UNL A   1      17.940  57.223  -0.864  1.00  0.00    +0.000 C 
ATOM     41  F4  UNL A   1      17.428  57.921  -1.888  1.00  0.00    +0.000 F 
ATOM     42  C30 UNL A   1      17.214  56.174  -0.306  1.00  0.00    +0.000 C 
ATOM     43  F5  UNL A   1      16.002  55.891  -0.806  1.00  0.00    +0.000 F 
ENDBRANCH   32   33
BRANCH   49   50
ATOM     50  C36 UNL A   1      16.546  48.494  -0.831  1.00  0.00    +0.000 C 
ATOM     51  C37 UNL A   1      17.743  47.771  -0.719  1.00  0.00    +0.000 C 
ATOM     52  F6  UNL A   1      18.577  48.002   0.306  1.00  0.00    +0.000 F 
ATOM     53  C38 UNL A   1      18.100  46.830  -1.680  1.00  0.00    +0.000 C 
ATOM     54  F7  UNL A   1      19.265  46.175  -1.573  1.00  0.00    +0.000 F 
ATOM     55  C39 UNL A   1      17.259  46.574  -2.753  1.00  0.00    +0.000 C 
ATOM     56  F8  UNL A   1      17.601  45.660  -3.672  1.00  0.00    +0.000 F 
ATOM     57  C40 UNL A   1      16.067  47.272  -2.877  1.00  0.00    +0.000 C 
ATOM     58  F9  UNL A   1      15.248  47.018  -3.908  1.00  0.00    +0.000 F 
ATOM     59  C41 UNL A   1      15.717  48.231  -1.932  1.00  0.00    +0.000 C 
ATOM     60  F10 UNL A   1      14.561  48.895  -2.081  1.00  0.00    +0.000 F 
ENDBRANCH   49   50
BRANCH   64   65
ATOM     65  C45 UNL A   1      12.234  48.048   4.618  1.00  0.00    +0.000 C 
ATOM     66  C46 UNL A   1      10.897  47.921   4.222  1.00  0.00    +0.000 C 
ATOM     67  F11 UNL A   1      10.366  48.806   3.365  1.00  0.00    +0.000 F 
ATOM     68  C47 UNL A   1      10.088  46.908   4.732  1.00  0.00    +0.000 C 
ATOM     69  F12 UNL A   1       8.801  46.832   4.366  1.00  0.00    +0.000 F 
ATOM     70  C48 UNL A   1      10.610  45.987   5.629  1.00  0.00    +0.000 C 
ATOM     71  F13 UNL A   1       9.833  45.010   6.117  1.00  0.00    +0.000 F 
ATOM     72  C49 UNL A   1      11.935  46.085   6.026  1.00  0.00    +0.000 C 
ATOM     73  F14 UNL A   1      12.445  45.191   6.884  1.00  0.00    +0.000 F 
ATOM     74  C50 UNL A   1      12.738  47.112   5.535  1.00  0.00    +0.000 C 
ATOM     75  F15 UNL A   1      14.012  47.191   5.943  1.00  0.00    +0.000 F 
ENDBRANCH   64   65
TORSDOF 22
ENDMDL
MODEL 2
REMARK VINA RESULT:      -8.4     41.660     46.610
ROOT
ATOM    129  H32 UNL A   1      23.654  38.267  47.992  1.00  0.00    +0.000 H 
ATOM    130  H33 UNL A   1      23.608  35.802  47.295  1.00  0.00    +0.000 H 
ATOM     28  C21 UNL A   1      26.099  34.850  46.298  1.00  0.00    +0.000 C 
ATOM     29  C22 UNL A   1      25.804  36.198  46.890  1.00  0.00    +0.000 C 
ATOM     30  N4  UNL A   1      26.609  37.213  47.079  1.00  0.00    +0.000 N 
ATOM     31  C23 UNL A   1      25.822  38.224  47.614  1.00  0.00    +0.000 C 
ATOM     32  C24 UNL A   1      26.201  39.457  48.026  1.00  0.00    +0.000 C 
ATOM     44  C31 UNL A   1      27.553  39.948  47.982  1.00  0.00    +0.000 C 
ATOM     45  C32 UNL A   1      28.048  41.154  48.449  1.00  0.00    +0.000 C 
ATOM     46  C33 UNL A   1      29.412  41.212  48.145  1.00  0.00    +0.000 C 
ATOM     47  C34 UNL A   1      29.775  40.028  47.523  1.00  0.00    +0.000 C 
ATOM     48  N5  UNL A   1      28.625  39.260  47.434  1.00  0.00    +0.000 N 
ATOM     49  C35 UNL A   1      31.070  39.629  47.036  1.00  0.00    +0.000 C 
ATOM     61  C42 UNL A   1      31.359  38.421  46.495  1.00  0.00    +0.000 C 
ATOM     62  N6  UNL A   1      30.517  37.338  46.282  1.00  0.00    +0.000 N 
ATOM     63  C43 UNL A   1      31.257  36.413  45.724  1.00  0.00    +0.000 C 
ATOM     64  C44 UNL A   1      30.869  35.027  45.283  1.00  0.00    +0.000 C 
ATOM     76  C51 UNL A   1      29.603  34.606  45.466  1.00  0.00    +0.000 C 
ATOM     77  C52 UNL A   1      29.080  33.303  45.069  1.00  0.00    +0.000 C 
ATOM     78  C53 UNL A   1      27.761  33.266  45.321  1.00  0.00    +0.000 C 
ATOM     79  C54 UNL A   1      27.356  34.529  45.937  1.00  0.00    +0.000 C 
ATOM     80  N7  UNL A   1      28.521  35.251  46.014  1.00  0.00    +0.000 N 
ATOM     81  C55 UNL A   1      32.654  36.811  45.501  1.00  0.00    +0.000 C 
ATOM     82  C56 UNL A   1      32.669  38.033  46.017  1.00  0.00    +0.000 C 
ATOM     83  C57 UNL A   1      24.470  37.715  47.684  1.00  0.00    +0.000 C 
ATOM     84  C58 UNL A   1      24.415  36.447  47.303  1.00  0.00    +0.000 C 
ATOM    121  H24 UNL A   1      27.506  41.883  48.938  1.00  0.00    +0.000 H 
ATOM    122  H25 UNL A   1      30.043  42.004  48.349  1.00  0.00    +0.000 H 
ATOM    123  H26 UNL A   1      28.576  38.359  47.041  1.00  0.00    +0.000 H 
ATOM    124  H27 UNL A   1      29.634  32.535  44.660  1.00  0.00    +0.000 H 
ATOM    125  H28 UNL A   1      27.135  32.472  45.113  1.00  0.00    +0.000 H 
ATOM    126  H29 UNL A   1      28.576  36.145  46.424  1.00  0.00    +0.000 H 
ATOM    127  H30 UNL A   1      33.421  36.280  45.060  1.00  0.00    +0.000 H 
ATOM    128  H31 UNL A   1      33.509  38.631  46.071  1.00  0.00    +0.000 H 
ENDROOT
BRANCH   28   27
ATOM    131  H34 UNL A   1      24.655  34.614  44.062  1.00  0.00    +0.000 H 
ATOM    132  H35 UNL A   1      22.843  33.079  43.577  1.00  0.00    +0.000 H 
ATOM     27  C20 UNL A   1      24.994  33.898  46.024  1.00  0.00    +0.000 C 
ATOM     85  C59 UNL A   1      24.364  33.922  44.770  1.00  0.00    +0.000 C 
ATOM     86  C60 UNL A   1      23.346  33.017  44.475  1.00  0.00    +0.000 C 
ATOM    119  H22 UNL A   1      23.310  31.318  47.369  1.00  0.00    +0.000 H 
ATOM     24  C17 UNL A   1      23.009  32.026  45.401  1.00  0.00    +0.000 C 
ATOM     25  C18 UNL A   1      23.598  32.019  46.669  1.00  0.00    +0.000 C 
ATOM     26  C19 UNL A   1      24.578  32.962  46.985  1.00  0.00    +0.000 C 
ATOM    120  H23 UNL A   1      24.998  32.973  47.926  1.00  0.00    +0.000 H 
BRANCH   24   22
ATOM     22  C16 UNL A   1      22.015  30.983  45.068  1.00  0.00    +0.000 C 
ATOM     23  O4  UNL A   1      22.345  29.800  45.089  1.00  0.00    +0.000 O 
BRANCH   22   21
ATOM     21  N3  UNL A   1      20.734  31.336  44.726  1.00  0.00    +0.000 N 
ATOM    118  H21 UNL A   1      20.373  30.892  43.925  1.00  0.00    +0.000 H 
BRANCH   21   20
ATOM    116  H19 UNL A   1      19.519  31.858  46.314  1.00  0.00    +0.000 H 
ATOM     20  C15 UNL A   1      19.832  32.274  45.379  1.00  0.00    +0.000 C 
ATOM    117  H20 UNL A   1      20.358  33.195  45.519  1.00  0.00    +0.000 H 
BRANCH   20   19
ATOM    114  H17 UNL A   1      17.730  32.413  45.142  1.00  0.00    +0.000 H 
ATOM     19  C14 UNL A   1      18.595  32.565  44.532  1.00  0.00    +0.000 C 
ATOM    115  H18 UNL A   1      18.696  33.572  44.186  1.00  0.00    +0.000 H 
BRANCH   19   18
ATOM    113  H16 UNL A   1      19.410  31.232  43.133  1.00  0.00    +0.000 H 
ATOM     18  C13 UNL A   1      18.456  31.691  43.282  1.00  0.00    +0.000 C 
ATOM    112  H15 UNL A   1      18.151  32.320  42.471  1.00  0.00    +0.000 H 
BRANCH   18   17
ATOM     17  C12 UNL A   1      17.445  30.542  43.395  1.00  0.00    +0.000 C 
ATOM    110  H13 UNL A   1      16.736  30.798  44.154  1.00  0.00    +0.000 H 
ATOM    111  H14 UNL A   1      17.010  30.433  42.424  1.00  0.00    +0.000 H 
BRANCH   17   16
ATOM    108  H11 UNL A   1      18.724  28.893  42.970  1.00  0.00    +0.000 H 
ATOM    109  H12 UNL A   1      18.537  29.284  44.694  1.00  0.00    +0.000 H 
ATOM     16  C11 UNL A   1      18.048  29.176  43.749  1.00  0.00    +0.000 C 
BRANCH   16   15
ATOM    106  H9  UNL A   1      17.415  27.284  44.508  1.00  0.00    +0.000 H 
ATOM    107  H10 UNL A   1      16.136  28.487  44.378  1.00  0.00    +0.000 H 
ATOM     15  C10 UNL A   1      17.003  28.070  43.909  1.00  0.00    +0.000 C 
BRANCH   15   14
ATOM    105  H8  UNL A   1      17.239  26.879  42.226  1.00  0.00    +0.000 H 
ATOM     14  N2  UNL A   1      16.613  27.527  42.623  1.00  0.00    +0.000 N 
BRANCH   14   12
ATOM     12  C9  UNL A   1      15.492  27.794  41.888  1.00  0.00    +0.000 C 
ATOM     13  O3  UNL A   1      14.719  28.661  42.302  1.00  0.00    +0.000 O 
BRANCH   12   11
ATOM     11  C8  UNL A   1      15.161  26.963  40.662  1.00  0.00    +0.000 C 
ATOM    103  H6  UNL A   1      14.435  27.489  40.078  1.00  0.00    +0.000 H 
ATOM    104  H7  UNL A   1      16.071  26.813  40.118  1.00  0.00    +0.000 H 
BRANCH   11   10
ATOM      7  C6  UNL A   1      13.802  23.579  41.250  1.00  0.00    +0.000 C 
ATOM      8  N1  UNL A   1      13.544  24.230  42.393  1.00  0.00    +0.000 N 
ATOM      9  O2  UNL A   1      14.074  25.496  42.246  1.00  0.00    +0.000 O 
ATOM     10  C7  UNL A   1      14.618  25.628  41.007  1.00  0.00    +0.000 C 
ATOM     87  C61 UNL A   1      14.506  24.424  40.339  1.00  0.00    +0.000 C 
BRANCH    7    6
ATOM     97  C70 UNL A   1      13.393  19.852  41.616  1.00  0.00    +0.000 C 
ATOM      3  C2  UNL A   1      12.659  19.542  40.472  1.00  0.00    +0.000 C 
ATOM      4  C3  UNL A   1      12.261  20.570  39.613  1.00  0.00    +0.000 C 
ATOM    101  H4  UNL A   1      11.716  20.345  38.766  1.00  0.00    +0.000 H 
ATOM      5  C4  UNL A   1      12.592  21.899  39.889  1.00  0.00    +0.000 C 
ATOM    102  H5  UNL A   1      12.278  22.651  39.255  1.00  0.00    +0.000 H 
ATOM      6  C5  UNL A   1      13.348  22.212  41.024  1.00  0.00    +0.000 C 
ATOM    140  H43 UNL A   1      14.275  21.404  42.741  1.00  0.00    +0.000 H 
ATOM    141  H44 UNL A   1      13.686  19.101  42.259  1.00  0.00    +0.000 H 
ATOM     96  C69 UNL A   1      13.734  21.181  41.891  1.00  0.00    +0.000 C 
BRANCH    3    2
ATOM      2  O1  UNL A   1      12.292  18.286  40.074  1.00  0.00    +0.000 O 
BRANCH    2    1
ATOM      1  C1  UNL A   1      11.638  18.184  38.816  1.00  0.00    +0.000 C 
ATOM     98  H1  UNL A   1      12.342  17.872  38.072  1.00  0.00    +0.000 H 
ATOM     99  H2  UNL A   1      11.234  19.136  38.545  1.00  0.00    +0.000 H 
ATOM    100  H3  UNL A   1      10.847  17.465  38.882  1.00  0.00    +0.000 H 
ENDBRANCH    2    1
ENDBRANCH    3    2
ENDBRANCH    7    6
BRANCH   87   88
ATOM    133  H36 UNL A   1      16.192  22.589  39.413  1.00  0.00    +0.000 H 
ATOM    134  H37 UNL A   1      16.863  22.192  37.121  1.00  0.00    +0.000 H 
ATOM    138  H41 UNL A   1      14.405  25.344  35.840  1.00  0.00    +0.000 H 
ATOM    139  H42 UNL A   1      13.734  25.754  38.137  1.00  0.00    +0.000 H 
ATOM     88  C62 UNL A   1      14.900  24.198  38.960  1.00  0.00    +0.000 C 
ATOM     89  C63 UNL A   1      15.808  23.177  38.656  1.00  0.00    +0.000 C 
ATOM     90  C64 UNL A   1      16.194  22.949  37.334  1.00  0.00    +0.000 C 
ATOM     91  C65 UNL A   1      15.684  23.732  36.299  1.00  0.00    +0.000 C 
ATOM     94  C67 UNL A   1      14.785  24.757  36.598  1.00  0.00    +0.000 C 
ATOM     95  C68 UNL A   1      14.396  24.991  37.924  1.00  0.00    +0.000 C 
BRANCH   91   92
ATOM     92  O5  UNL A   1      16.144  23.398  35.057  1.00  0.00    +0.000 O 
BRANCH   92   93
ATOM    137  H40 UNL A   1      16.042  25.018  33.816  1.00  0.00    +0.000 H 
ATOM     93  C66 UNL A   1      15.562  24.071  33.949  1.00  0.00    +0.000 C 
ATOM    135  H38 UNL A   1      14.520  24.223  34.132  1.00  0.00    +0.000 H 
ATOM    136  H39 UNL A   1      15.688  23.481  33.066  1.00  0.00    +0.000 H 
ENDBRANCH   92   93
ENDBRANCH   91   92
ENDBRANCH   87   88
ENDBRANCH   11   10
ENDBRANCH   12   11
ENDBRANCH   14   12
ENDBRANCH   15   14
ENDBRANCH   16   15
ENDBRANCH   17   16
ENDBRANCH   18   17
ENDBRANCH   19   18
ENDBRANCH   20   19
ENDBRANCH   21   20
ENDBRANCH   22   21
ENDBRANCH   24   22
ENDBRANCH   28   27
BRANCH   32   33
ATOM     33  C25 UNL A   1      25.136  40.366  48.563  1.00  0.00    +0.000 C 
ATOM     34  C26 UNL A   1      24.708  40.288  49.897  1.00  0.00    +0.000 C 
ATOM     35  F1  UNL A   1      25.215  39.353  50.714  1.00  0.00    +0.000 F 
ATOM     36  C27 UNL A   1      23.732  41.152  50.387  1.00  0.00    +0.000 C 
ATOM     37  F2  UNL A   1      23.310  41.032  51.654  1.00  0.00    +0.000 F 
ATOM     38  C28 UNL A   1      23.188  42.127  49.565  1.00  0.00    +0.000 C 
ATOM     39  F3  UNL A   1      22.254  42.962  50.041  1.00  0.00    +0.000 F 
ATOM     40  C29 UNL A   1      23.610  42.234  48.248  1.00  0.00    +0.000 C 
ATOM     41  F4  UNL A   1      23.094  43.184  47.455  1.00  0.00    +0.000 F 
ATOM     42  C30 UNL A   1      24.567  41.355  47.747  1.00  0.00    +0.000 C 
ATOM     43  F5  UNL A   1      24.946  41.476  46.466  1.00  0.00    +0.000 F 
ENDBRANCH   32   33
BRANCH   49   50
ATOM     50  C36 UNL A   1      32.192  40.617  47.148  1.00  0.00    +0.000 C 
ATOM     51  C37 UNL A   1      32.339  41.661  46.224  1.00  0.00    +0.000 C 
ATOM     52  F6  UNL A   1      31.508  41.755  45.175  1.00  0.00    +0.000 F 
ATOM     53  C38 UNL A   1      33.363  42.594  46.358  1.00  0.00    +0.000 C 
ATOM     54  F7  UNL A   1      33.507  43.563  45.444  1.00  0.00    +0.000 F 
ATOM     55  C39 UNL A   1      34.238  42.518  47.431  1.00  0.00    +0.000 C 
ATOM     56  F8  UNL A   1      35.218  43.424  47.564  1.00  0.00    +0.000 F 
ATOM     57  C40 UNL A   1      34.105  41.499  48.362  1.00  0.00    +0.000 C 
ATOM     58  F9  UNL A   1      34.945  41.430  49.404  1.00  0.00    +0.000 F 
ATOM     59  C41 UNL A   1      33.097  40.549  48.217  1.00  0.00    +0.000 C 
ATOM     60  F10 UNL A   1      32.996  39.571  49.129  1.00  0.00    +0.000 F 
ENDBRANCH   49   50
BRANCH   64   65
ATOM     65  C45 UNL A   1      31.866  34.121  44.660  1.00  0.00    +0.000 C 
ATOM     66  C46 UNL A   1      32.200  34.245  43.305  1.00  0.00    +0.000 C 
ATOM     67  F11 UNL A   1      31.594  35.173  42.550  1.00  0.00    +0.000 F 
ATOM     68  C47 UNL A   1      33.127  33.393  42.712  1.00  0.00    +0.000 C 
ATOM     69  F12 UNL A   1      33.400  33.508  41.405  1.00  0.00    +0.000 F 
ATOM     70  C48 UNL A   1      33.759  32.417  43.469  1.00  0.00    +0.000 C 
ATOM     71  F13 UNL A   1      34.656  31.600  42.899  1.00  0.00    +0.000 F 
ATOM     72  C49 UNL A   1      33.455  32.283  44.815  1.00  0.00    +0.000 C 
ATOM     73  F14 UNL A   1      34.071  31.349  45.551  1.00  0.00    +0.000 F 
ATOM     74  C50 UNL A   1      32.509  33.120  45.404  1.00  0.00    +0.000 C 
ATOM     75  F15 UNL A   1      32.225  32.963  46.705  1.00  0.00    +0.000 F 
ENDBRANCH   64   65
TORSDOF 22
ENDMDL
MODEL 3
REMARK VINA RESULT:      -8.4     41.430     46.022
ROOT
ATOM    129  H32 UNL A   1      29.213  34.315  42.768  1.00  0.00    +0.000 H 
ATOM    130  H33 UNL A   1      26.746  34.128  43.434  1.00  0.00    +0.000 H 
ATOM     28  C21 UNL A   1      25.940  36.043  45.381  1.00  0.00    +0.000 C 
ATOM     29  C22 UNL A   1      27.271  35.940  44.694  1.00  0.00    +0.000 C 
ATOM     30  N4  UNL A   1      28.334  36.692  44.831  1.00  0.00    +0.000 N 
ATOM     31  C23 UNL A   1      29.298  36.137  44.001  1.00  0.00    +0.000 C 
ATOM     32  C24 UNL A   1      30.554  36.580  43.756  1.00  0.00    +0.000 C 
ATOM     44  C31 UNL A   1      31.126  37.765  44.339  1.00  0.00    +0.000 C 
ATOM     45  C32 UNL A   1      32.361  38.338  44.092  1.00  0.00    +0.000 C 
ATOM     46  C33 UNL A   1      32.500  39.453  44.926  1.00  0.00    +0.000 C 
ATOM     47  C34 UNL A   1      31.337  39.596  45.665  1.00  0.00    +0.000 C 
ATOM     48  N5  UNL A   1      30.500  38.556  45.291  1.00  0.00    +0.000 N 
ATOM     49  C35 UNL A   1      31.013  40.599  46.647  1.00  0.00    +0.000 C 
ATOM     61  C42 UNL A   1      29.822  40.709  47.282  1.00  0.00    +0.000 C 
ATOM     62  N6  UNL A   1      28.689  39.918  47.154  1.00  0.00    +0.000 N 
ATOM     63  C43 UNL A   1      27.807  40.415  47.984  1.00  0.00    +0.000 C 
ATOM     64  C44 UNL A   1      26.398  39.961  48.254  1.00  0.00    +0.000 C 
ATOM     76  C51 UNL A   1      25.903  38.908  47.578  1.00  0.00    +0.000 C 
ATOM     77  C52 UNL A   1      24.568  38.343  47.752  1.00  0.00    +0.000 C 
ATOM     78  C53 UNL A   1      24.453  37.247  46.984  1.00  0.00    +0.000 C 
ATOM     79  C54 UNL A   1      25.694  37.058  46.231  1.00  0.00    +0.000 C 
ATOM     80  N7  UNL A   1      26.485  38.110  46.623  1.00  0.00    +0.000 N 
ATOM     81  C55 UNL A   1      28.288  41.574  48.750  1.00  0.00    +0.000 C 
ATOM     82  C56 UNL A   1      29.511  41.729  48.261  1.00  0.00    +0.000 C 
ATOM     83  C57 UNL A   1      28.709  34.963  43.394  1.00  0.00    +0.000 C 
ATOM     84  C58 UNL A   1      27.438  34.829  43.745  1.00  0.00    +0.000 C 
ATOM    121  H24 UNL A   1      33.059  38.003  43.410  1.00  0.00    +0.000 H 
ATOM    122  H25 UNL A   1      33.329  40.065  44.982  1.00  0.00    +0.000 H 
ATOM    123  H26 UNL A   1      29.596  38.402  45.648  1.00  0.00    +0.000 H 
ATOM    124  H27 UNL A   1      23.833  38.724  48.367  1.00  0.00    +0.000 H 
ATOM    125  H28 UNL A   1      23.623  36.637  46.933  1.00  0.00    +0.000 H 
ATOM    126  H29 UNL A   1      27.383  38.276  46.254  1.00  0.00    +0.000 H 
ATOM    127  H30 UNL A   1      27.801  42.122  49.477  1.00  0.00    +0.000 H 
ATOM    128  H31 UNL A   1      30.158  42.482  48.543  1.00  0.00    +0.000 H 
ENDROOT
BRANCH   28   27
ATOM    131  H34 UNL A   1      25.626  33.811  46.816  1.00  0.00    +0.000 H 
ATOM    132  H35 UNL A   1      23.983  32.050  46.547  1.00  0.00    +0.000 H 
ATOM     27  C20 UNL A   1      24.922  34.979  45.199  1.00  0.00    +0.000 C 
ATOM     85  C59 UNL A   1      24.913  33.881  46.073  1.00  0.00    +0.000 C 
ATOM     86  C60 UNL A   1      23.947  32.885  45.944  1.00  0.00    +0.000 C 
ATOM    119  H22 UNL A   1      22.234  34.158  43.354  1.00  0.00    +0.000 H 
ATOM     24  C17 UNL A   1      22.932  33.022  44.993  1.00  0.00    +0.000 C 
ATOM     25  C18 UNL A   1      22.955  34.087  44.088  1.00  0.00    +0.000 C 
ATOM     26  C19 UNL A   1      23.957  35.056  44.182  1.00  0.00    +0.000 C 
ATOM    120  H23 UNL A   1      23.989  35.831  43.501  1.00  0.00    +0.000 H 
BRANCH   24   22
ATOM     22  C16 UNL A   1      21.830  32.039  44.913  1.00  0.00    +0.000 C 
ATOM     23  O4  UNL A   1      22.069  30.883  44.573  1.00  0.00    +0.000 O 
BRANCH   22   21
ATOM     21  N3  UNL A   1      20.545  32.419  45.209  1.00  0.00    +0.000 N 
ATOM    118  H21 UNL A   1      20.078  31.852  45.864  1.00  0.00    +0.000 H 
BRANCH   21   20
ATOM    116  H19 UNL A   1      19.320  34.055  45.514  1.00  0.00    +0.000 H 
ATOM     20  C15 UNL A   1      19.774  33.541  44.693  1.00  0.00    +0.000 C 
ATOM    117  H20 UNL A   1      20.443  34.181  44.156  1.00  0.00    +0.000 H 
BRANCH   20   19
ATOM    114  H17 UNL A   1      18.540  33.861  42.999  1.00  0.00    +0.000 H 
ATOM     19  C14 UNL A   1      18.680  33.091  43.728  1.00  0.00    +0.000 C 
ATOM    115  H18 UNL A   1      19.011  32.166  43.306  1.00  0.00    +0.000 H 
BRANCH   19   18
ATOM    113  H16 UNL A   1      16.588  33.244  43.748  1.00  0.00    +0.000 H 
ATOM     18  C13 UNL A   1      17.326  32.806  44.385  1.00  0.00    +0.000 C 
ATOM    112  H15 UNL A   1      17.343  33.222  45.371  1.00  0.00    +0.000 H 
BRANCH   18   17
ATOM     17  C12 UNL A   1      16.956  31.322  44.505  1.00  0.00    +0.000 C 
ATOM    110  H13 UNL A   1      17.816  30.743  44.241  1.00  0.00    +0.000 H 
ATOM    111  H14 UNL A   1      16.639  31.176  45.517  1.00  0.00    +0.000 H 
BRANCH   17   16
ATOM    108  H11 UNL A   1      15.109  30.298  44.223  1.00  0.00    +0.000 H 
ATOM    109  H12 UNL A   1      15.333  31.751  43.223  1.00  0.00    +0.000 H 
ATOM     16  C11 UNL A   1      15.786  30.868  43.622  1.00  0.00    +0.000 C 
BRANCH   16   15
ATOM    106  H9  UNL A   1      16.219  30.612  41.548  1.00  0.00    +0.000 H 
ATOM    107  H10 UNL A   1      17.195  29.623  42.628  1.00  0.00    +0.000 H 
ATOM     15  C10 UNL A   1      16.217  30.008  42.431  1.00  0.00    +0.000 C 
BRANCH   15   14
ATOM    105  H8  UNL A   1      14.357  29.118  42.200  1.00  0.00    +0.000 H 
ATOM     14  N2  UNL A   1      15.314  28.891  42.237  1.00  0.00    +0.000 N 
BRANCH   14   12
ATOM     12  C9  UNL A   1      15.614  27.565  42.099  1.00  0.00    +0.000 C 
ATOM     13  O3  UNL A   1      16.336  27.041  42.950  1.00  0.00    +0.000 O 
BRANCH   12   11
ATOM     11  C8  UNL A   1      15.158  26.798  40.872  1.00  0.00    +0.000 C 
ATOM    103  H6  UNL A   1      14.388  27.359  40.384  1.00  0.00    +0.000 H 
ATOM    104  H7  UNL A   1      16.010  26.664  40.238  1.00  0.00    +0.000 H 
BRANCH   11   10
ATOM      7  C6  UNL A   1      13.821  23.399  41.425  1.00  0.00    +0.000 C 
ATOM      8  N1  UNL A   1      13.629  24.014  42.602  1.00  0.00    +0.000 N 
ATOM      9  O2  UNL A   1      14.154  25.283  42.466  1.00  0.00    +0.000 O 
ATOM     10  C7  UNL A   1      14.630  25.453  41.203  1.00  0.00    +0.000 C 
ATOM     87  C61 UNL A   1      14.477  24.272  40.504  1.00  0.00    +0.000 C 
BRANCH    7    6
ATOM     97  C70 UNL A   1      13.486  19.652  41.627  1.00  0.00    +0.000 C 
ATOM      3  C2  UNL A   1      12.613  19.397  40.570  1.00  0.00    +0.000 C 
ATOM      4  C3  UNL A   1      12.101  20.466  39.830  1.00  0.00    +0.000 C 
ATOM    101  H4  UNL A   1      11.454  20.281  39.047  1.00  0.00    +0.000 H 
ATOM      5  C4  UNL A   1      12.457  21.781  40.137  1.00  0.00    +0.000 C 
ATOM    102  H5  UNL A   1      12.060  22.564  39.592  1.00  0.00    +0.000 H 
ATOM      6  C5  UNL A   1      13.351  22.041  41.181  1.00  0.00    +0.000 C 
ATOM    140  H43 UNL A   1      14.495  21.151  42.717  1.00  0.00    +0.000 H 
ATOM    141  H44 UNL A   1      13.863  18.870  42.183  1.00  0.00    +0.000 H 
ATOM     96  C69 UNL A   1      13.851  20.969  41.932  1.00  0.00    +0.000 C 
BRANCH    3    2
ATOM      2  O1  UNL A   1      12.206  18.160  40.151  1.00  0.00    +0.000 O 
BRANCH    2    1
ATOM      1  C1  UNL A   1      11.016  18.112  39.375  1.00  0.00    +0.000 C 
ATOM     98  H1  UNL A   1      11.164  17.466  38.535  1.00  0.00    +0.000 H 
ATOM     99  H2  UNL A   1      10.775  19.095  39.029  1.00  0.00    +0.000 H 
ATOM    100  H3  UNL A   1      10.213  17.738  39.976  1.00  0.00    +0.000 H 
ENDBRANCH    2    1
ENDBRANCH    3    2
ENDBRANCH    7    6
BRANCH   87   88
ATOM    133  H36 UNL A   1      15.867  22.295  39.398  1.00  0.00    +0.000 H 
ATOM    134  H37 UNL A   1      16.406  21.967  37.061  1.00  0.00    +0.000 H 
ATOM    138  H41 UNL A   1      14.363  25.501  36.080  1.00  0.00    +0.000 H 
ATOM    139  H42 UNL A   1      13.826  25.840  38.424  1.00  0.00    +0.000 H 
ATOM     88  C62 UNL A   1      14.793  24.089  39.100  1.00  0.00    +0.000 C 
ATOM     89  C63 UNL A   1      15.543  22.978  38.695  1.00  0.00    +0.000 C 
ATOM     90  C64 UNL A   1      15.854  22.791  37.348  1.00  0.00    +0.000 C 
ATOM     91  C65 UNL A   1      15.424  23.704  36.386  1.00  0.00    +0.000 C 
ATOM     94  C67 UNL A   1      14.683  24.818  36.784  1.00  0.00    +0.000 C 
ATOM     95  C68 UNL A   1      14.371  25.011  38.137  1.00  0.00    +0.000 C 
BRANCH   91   92
ATOM     92  O5  UNL A   1      15.796  23.397  35.107  1.00  0.00    +0.000 O 
BRANCH   92   93
ATOM    137  H40 UNL A   1      16.511  24.645  33.656  1.00  0.00    +0.000 H 
ATOM     93  C66 UNL A   1      16.856  24.154  34.541  1.00  0.00    +0.000 C 
ATOM    135  H38 UNL A   1      17.667  23.503  34.294  1.00  0.00    +0.000 H 
ATOM    136  H39 UNL A   1      17.188  24.886  35.247  1.00  0.00    +0.000 H 
ENDBRANCH   92   93
ENDBRANCH   91   92
ENDBRANCH   87   88
ENDBRANCH   11   10
ENDBRANCH   12   11
ENDBRANCH   14   12
ENDBRANCH   15   14
ENDBRANCH   16   15
ENDBRANCH   17   16
ENDBRANCH   18   17
ENDBRANCH   19   18
ENDBRANCH   20   19
ENDBRANCH   21   20
ENDBRANCH   22   21
ENDBRANCH   24   22
ENDBRANCH   28   27
BRANCH   32   33
ATOM     33  C25 UNL A   1      31.401  35.778  42.813  1.00  0.00    +0.000 C 
ATOM     34  C26 UNL A   1      32.113  34.649  43.245  1.00  0.00    +0.000 C 
ATOM     35  F1  UNL A   1      32.089  34.289  44.537  1.00  0.00    +0.000 F 
ATOM     36  C27 UNL A   1      32.880  33.903  42.353  1.00  0.00    +0.000 C 
ATOM     37  F2  UNL A   1      33.584  32.852  42.797  1.00  0.00    +0.000 F 
ATOM     38  C28 UNL A   1      32.926  34.251  41.012  1.00  0.00    +0.000 C 
ATOM     39  F3  UNL A   1      33.658  33.527  40.155  1.00  0.00    +0.000 F 
ATOM     40  C29 UNL A   1      32.214  35.353  40.560  1.00  0.00    +0.000 C 
ATOM     41  F4  UNL A   1      32.247  35.684  39.262  1.00  0.00    +0.000 F 
ATOM     42  C30 UNL A   1      31.467  36.117  41.453  1.00  0.00    +0.000 C 
ATOM     43  F5  UNL A   1      30.799  37.183  40.988  1.00  0.00    +0.000 F 
ENDBRANCH   32   33
BRANCH   49   50
ATOM     50  C36 UNL A   1      32.067  41.610  46.983  1.00  0.00    +0.000 C 
ATOM     51  C37 UNL A   1      31.956  42.945  46.569  1.00  0.00    +0.000 C 
ATOM     52  F6  UNL A   1      30.926  43.329  45.800  1.00  0.00    +0.000 F 
ATOM     53  C38 UNL A   1      32.922  43.884  46.918  1.00  0.00    +0.000 C 
ATOM     54  F7  UNL A   1      32.815  45.147  46.482  1.00  0.00    +0.000 F 
ATOM     55  C39 UNL A   1      34.000  43.514  47.709  1.00  0.00    +0.000 C 
ATOM     56  F8  UNL A   1      34.924  44.421  48.052  1.00  0.00    +0.000 F 
ATOM     57  C40 UNL A   1      34.124  42.200  48.137  1.00  0.00    +0.000 C 
ATOM     58  F9  UNL A   1      35.161  41.844  48.910  1.00  0.00    +0.000 F 
ATOM     59  C41 UNL A   1      33.173  41.253  47.770  1.00  0.00    +0.000 C 
ATOM     60  F10 UNL A   1      33.322  39.989  48.193  1.00  0.00    +0.000 F 
ENDBRANCH   49   50
BRANCH   64   65
ATOM     65  C45 UNL A   1      25.550  40.666  49.248  1.00  0.00    +0.000 C 
ATOM     66  C46 UNL A   1      24.747  41.749  48.865  1.00  0.00    +0.000 C 
ATOM     67  F11 UNL A   1      24.762  42.175  47.594  1.00  0.00    +0.000 F 
ATOM     68  C47 UNL A   1      23.956  42.421  49.793  1.00  0.00    +0.000 C 
ATOM     69  F12 UNL A   1      23.226  43.477  49.409  1.00  0.00    +0.000 F 
ATOM     70  C48 UNL A   1      23.932  42.006  51.117  1.00  0.00    +0.000 C 
ATOM     71  F13 UNL A   1      23.166  42.650  52.009  1.00  0.00    +0.000 F 
ATOM     72  C49 UNL A   1      24.709  40.929  51.516  1.00  0.00    +0.000 C 
ATOM     73  F14 UNL A   1      24.680  40.519  52.792  1.00  0.00    +0.000 F 
ATOM     74  C50 UNL A   1      25.519  40.271  50.594  1.00  0.00    +0.000 C 
ATOM     75  F15 UNL A   1      26.269  39.240  51.008  1.00  0.00    +0.000 F 
ENDBRANCH   64   65
TORSDOF 22
ENDMDL
MODEL 4
REMARK VINA RESULT:      -8.3      1.170      3.161
ROOT
ATOM    129  H32 UNL A   1      16.712  56.710   2.807  1.00  0.00    +0.000 H 
ATOM    130  H33 UNL A   1      15.385  56.459   4.984  1.00  0.00    +0.000 H 
ATOM     28  C21 UNL A   1      14.205  53.889   5.314  1.00  0.00    +0.000 C 
ATOM     29  C22 UNL A   1      15.130  54.339   4.220  1.00  0.00    +0.000 C 
ATOM     30  N4  UNL A   1      15.592  53.665   3.197  1.00  0.00    +0.000 N 
ATOM     31  C23 UNL A   1      16.366  54.562   2.473  1.00  0.00    +0.000 C 
ATOM     32  C24 UNL A   1      17.096  54.334   1.356  1.00  0.00    +0.000 C 
ATOM     44  C31 UNL A   1      17.203  53.055   0.703  1.00  0.00    +0.000 C 
ATOM     45  C32 UNL A   1      17.980  52.706  -0.388  1.00  0.00    +0.000 C 
ATOM     46  C33 UNL A   1      17.721  51.367  -0.698  1.00  0.00    +0.000 C 
ATOM     47  C34 UNL A   1      16.812  50.871   0.222  1.00  0.00    +0.000 C 
ATOM     48  N5  UNL A   1      16.506  51.916   1.079  1.00  0.00    +0.000 N 
ATOM     49  C35 UNL A   1      16.254  49.546   0.310  1.00  0.00    +0.000 C 
ATOM     61  C42 UNL A   1      15.416  49.118   1.285  1.00  0.00    +0.000 C 
ATOM     62  N6  UNL A   1      14.911  49.821   2.370  1.00  0.00    +0.000 N 
ATOM     63  C43 UNL A   1      14.137  48.982   3.013  1.00  0.00    +0.000 C 
ATOM     64  C44 UNL A   1      13.340  49.201   4.269  1.00  0.00    +0.000 C 
ATOM     76  C51 UNL A   1      13.387  50.400   4.881  1.00  0.00    +0.000 C 
ATOM     77  C52 UNL A   1      12.650  50.763   6.088  1.00  0.00    +0.000 C 
ATOM     78  C53 UNL A   1      12.865  52.060   6.358  1.00  0.00    +0.000 C 
ATOM     79  C54 UNL A   1      13.790  52.609   5.365  1.00  0.00    +0.000 C 
ATOM     80  N7  UNL A   1      14.072  51.543   4.548  1.00  0.00    +0.000 N 
ATOM     81  C55 UNL A   1      14.049  47.652   2.395  1.00  0.00    +0.000 C 
ATOM     82  C56 UNL A   1      14.871  47.780   1.363  1.00  0.00    +0.000 C 
ATOM     83  C57 UNL A   1      16.280  55.838   3.150  1.00  0.00    +0.000 C 
ATOM     84  C58 UNL A   1      15.574  55.740   4.268  1.00  0.00    +0.000 C 
ATOM    121  H24 UNL A   1      18.637  53.326  -0.887  1.00  0.00    +0.000 H 
ATOM    122  H25 UNL A   1      18.137  50.837  -1.481  1.00  0.00    +0.000 H 
ATOM    123  H26 UNL A   1      15.887  51.859   1.842  1.00  0.00    +0.000 H 
ATOM    124  H27 UNL A   1      12.060  50.125   6.643  1.00  0.00    +0.000 H 
ATOM    125  H28 UNL A   1      12.445  52.586   7.141  1.00  0.00    +0.000 H 
ATOM    126  H29 UNL A   1      14.705  51.593   3.795  1.00  0.00    +0.000 H 
ATOM    127  H30 UNL A   1      13.492  46.833   2.689  1.00  0.00    +0.000 H 
ATOM    128  H31 UNL A   1      15.093  47.021   0.699  1.00  0.00    +0.000 H 
ENDROOT
BRANCH   28   27
ATOM    131  H34 UNL A   1      12.262  55.684   4.941  1.00  0.00    +0.000 H 
ATOM    132  H35 UNL A   1      11.368  57.305   6.506  1.00  0.00    +0.000 H 
ATOM     27  C20 UNL A   1      13.673  54.870   6.291  1.00  0.00    +0.000 C 
ATOM     85  C59 UNL A   1      12.630  55.727   5.904  1.00  0.00    +0.000 C 
ATOM     86  C60 UNL A   1      12.090  56.634   6.812  1.00  0.00    +0.000 C 
ATOM    119  H22 UNL A   1      13.954  55.858   9.492  1.00  0.00    +0.000 H 
ATOM     24  C17 UNL A   1      12.530  56.635   8.139  1.00  0.00    +0.000 C 
ATOM     25  C18 UNL A   1      13.597  55.818   8.525  1.00  0.00    +0.000 C 
ATOM     26  C19 UNL A   1      14.177  54.948   7.599  1.00  0.00    +0.000 C 
ATOM    120  H23 UNL A   1      14.978  54.361   7.876  1.00  0.00    +0.000 H 
BRANCH   24   22
ATOM     22  C16 UNL A   1      11.893  57.506   9.150  1.00  0.00    +0.000 C 
ATOM     23  O4  UNL A   1      12.116  58.714   9.139  1.00  0.00    +0.000 O 
BRANCH   22   21
ATOM     21  N3  UNL A   1      11.064  56.965  10.101  1.00  0.00    +0.000 N 
ATOM    118  H21 UNL A   1      10.835  56.017   9.971  1.00  0.00    +0.000 H 
BRANCH   21   20
ATOM    116  H19 UNL A   1      10.931  58.551  11.418  1.00  0.00    +0.000 H 
ATOM     20  C15 UNL A   1      10.475  57.594  11.275  1.00  0.00    +0.000 C 
ATOM    117  H20 UNL A   1       9.423  57.685  11.106  1.00  0.00    +0.000 H 
BRANCH   20   19
ATOM    114  H17 UNL A   1      11.715  56.792  12.795  1.00  0.00    +0.000 H 
ATOM     19  C14 UNL A   1      10.678  56.758  12.537  1.00  0.00    +0.000 C 
ATOM    115  H18 UNL A   1      10.043  57.182  13.285  1.00  0.00    +0.000 H 
BRANCH   19   18
ATOM    113  H16 UNL A   1      10.314  55.061  11.359  1.00  0.00    +0.000 H 
ATOM     18  C13 UNL A   1      10.268  55.289  12.403  1.00  0.00    +0.000 C 
ATOM    112  H15 UNL A   1       9.290  55.179  12.824  1.00  0.00    +0.000 H 
BRANCH   18   17
ATOM     17  C12 UNL A   1      11.196  54.284  13.098  1.00  0.00    +0.000 C 
ATOM    110  H13 UNL A   1      10.754  54.016  14.035  1.00  0.00    +0.000 H 
ATOM    111  H14 UNL A   1      11.299  53.460  12.424  1.00  0.00    +0.000 H 
BRANCH   17   16
ATOM    108  H11 UNL A   1      12.852  55.549  12.654  1.00  0.00    +0.000 H 
ATOM    109  H12 UNL A   1      12.631  55.163  14.375  1.00  0.00    +0.000 H 
ATOM     16  C11 UNL A   1      12.619  54.791  13.372  1.00  0.00    +0.000 C 
BRANCH   16   15
ATOM    106  H9  UNL A   1      13.878  53.479  12.255  1.00  0.00    +0.000 H 
ATOM    107  H10 UNL A   1      14.572  54.049  13.769  1.00  0.00    +0.000 H 
ATOM     15  C10 UNL A   1      13.685  53.697  13.285  1.00  0.00    +0.000 C 
BRANCH   15   14
ATOM    105  H8  UNL A   1      12.543  52.602  14.627  1.00  0.00    +0.000 H 
ATOM     14  N2  UNL A   1      13.249  52.486  13.951  1.00  0.00    +0.000 N 
BRANCH   14   12
ATOM     12  C9  UNL A   1      13.687  51.205  13.765  1.00  0.00    +0.000 C 
ATOM     13  O3  UNL A   1      14.886  50.971  13.930  1.00  0.00    +0.000 O 
BRANCH   12   11
ATOM     11  C8  UNL A   1      12.737  50.134  13.262  1.00  0.00    +0.000 C 
ATOM    103  H6  UNL A   1      13.313  49.328  12.858  1.00  0.00    +0.000 H 
ATOM    104  H7  UNL A   1      12.140  49.815  14.090  1.00  0.00    +0.000 H 
BRANCH   11   10
ATOM      7  C6  UNL A   1      10.668  51.452  10.500  1.00  0.00    +0.000 C 
ATOM      8  N1  UNL A   1       9.822  51.407  11.539  1.00  0.00    +0.000 N 
ATOM      9  O2  UNL A   1      10.535  50.876  12.595  1.00  0.00    +0.000 O 
ATOM     10  C7  UNL A   1      11.817  50.634  12.212  1.00  0.00    +0.000 C 
ATOM     87  C61 UNL A   1      11.951  50.949  10.874  1.00  0.00    +0.000 C 
BRANCH    7    6
ATOM     97  C70 UNL A   1       9.962  53.916   7.739  1.00  0.00    +0.000 C 
ATOM      3  C2  UNL A   1       9.310  53.108   6.809  1.00  0.00    +0.000 C 
ATOM      4  C3  UNL A   1       9.150  51.746   7.077  1.00  0.00    +0.000 C 
ATOM    101  H4  UNL A   1       8.669  51.143   6.390  1.00  0.00    +0.000 H 
ATOM      5  C4  UNL A   1       9.636  51.190   8.262  1.00  0.00    +0.000 C 
ATOM    102  H5  UNL A   1       9.526  50.179   8.441  1.00  0.00    +0.000 H 
ATOM      6  C5  UNL A   1      10.271  52.001   9.209  1.00  0.00    +0.000 C 
ATOM    140  H43 UNL A   1      10.928  53.967   9.615  1.00  0.00    +0.000 H 
ATOM    141  H44 UNL A   1      10.090  54.921   7.548  1.00  0.00    +0.000 H 
ATOM     96  C69 UNL A   1      10.442  53.364   8.932  1.00  0.00    +0.000 C 
BRANCH    3    2
ATOM      2  O1  UNL A   1       8.767  53.529   5.626  1.00  0.00    +0.000 O 
BRANCH    2    1
ATOM      1  C1  UNL A   1       9.356  53.015   4.439  1.00  0.00    +0.000 C 
ATOM     98  H1  UNL A   1       9.717  53.826   3.840  1.00  0.00    +0.000 H 
ATOM     99  H2  UNL A   1       8.625  52.463   3.887  1.00  0.00    +0.000 H 
ATOM    100  H3  UNL A   1      10.172  52.371   4.695  1.00  0.00    +0.000 H 
ENDBRANCH    2    1
ENDBRANCH    3    2
ENDBRANCH    7    6
BRANCH   87   88
ATOM    133  H36 UNL A   1      13.014  48.858   9.623  1.00  0.00    +0.000 H 
ATOM    134  H37 UNL A   1      15.084  48.753   8.374  1.00  0.00    +0.000 H 
ATOM    138  H41 UNL A   1      15.796  52.809   9.186  1.00  0.00    +0.000 H 
ATOM    139  H42 UNL A   1      13.725  52.920  10.448  1.00  0.00    +0.000 H 
ATOM     88  C62 UNL A   1      13.195  50.901  10.129  1.00  0.00    +0.000 C 
ATOM     89  C63 UNL A   1      13.601  49.701   9.531  1.00  0.00    +0.000 C 
ATOM     90  C64 UNL A   1      14.795  49.642   8.812  1.00  0.00    +0.000 C 
ATOM     91  C65 UNL A   1      15.601  50.772   8.677  1.00  0.00    +0.000 C 
ATOM     94  C67 UNL A   1      15.205  51.969   9.278  1.00  0.00    +0.000 C 
ATOM     95  C68 UNL A   1      14.008  52.032  10.003  1.00  0.00    +0.000 C 
BRANCH   91   92
ATOM     92  O5  UNL A   1      16.738  50.573   7.945  1.00  0.00    +0.000 O 
BRANCH   92   93
ATOM    137  H40 UNL A   1      18.778  50.481   8.005  1.00  0.00    +0.000 H 
ATOM     93  C66 UNL A   1      17.972  50.910   8.563  1.00  0.00    +0.000 C 
ATOM    135  H38 UNL A   1      17.988  50.527   9.561  1.00  0.00    +0.000 H 
ATOM    136  H39 UNL A   1      18.082  51.974   8.586  1.00  0.00    +0.000 H 
ENDBRANCH   92   93
ENDBRANCH   91   92
ENDBRANCH   87   88
ENDBRANCH   11   10
ENDBRANCH   12   11
ENDBRANCH   14   12
ENDBRANCH   15   14
ENDBRANCH   16   15
ENDBRANCH   17   16
ENDBRANCH   18   17
ENDBRANCH   19   18
ENDBRANCH   20   19
ENDBRANCH   21   20
ENDBRANCH   22   21
ENDBRANCH   24   22
ENDBRANCH   28   27
BRANCH   32   33
ATOM     33  C25 UNL A   1      17.840  55.493   0.764  1.00  0.00    +0.000 C 
ATOM     34  C26 UNL A   1      19.116  55.857   1.222  1.00  0.00    +0.000 C 
ATOM     35  F1  UNL A   1      19.679  55.197   2.245  1.00  0.00    +0.000 F 
ATOM     36  C27 UNL A   1      19.803  56.924   0.650  1.00  0.00    +0.000 C 
ATOM     37  F2  UNL A   1      21.003  57.279   1.132  1.00  0.00    +0.000 F 
ATOM     38  C28 UNL A   1      19.245  57.627  -0.407  1.00  0.00    +0.000 C 
ATOM     39  F3  UNL A   1      19.912  58.649  -0.961  1.00  0.00    +0.000 F 
ATOM     40  C29 UNL A   1      17.993  57.273  -0.887  1.00  0.00    +0.000 C 
ATOM     41  F4  UNL A   1      17.457  57.943  -1.917  1.00  0.00    +0.000 F 
ATOM     42  C30 UNL A   1      17.291  56.222  -0.301  1.00  0.00    +0.000 C 
ATOM     43  F5  UNL A   1      16.078  55.911  -0.781  1.00  0.00    +0.000 F 
ENDBRANCH   32   33
BRANCH   49   50
ATOM     50  C36 UNL A   1      16.640  48.556  -0.746  1.00  0.00    +0.000 C 
ATOM     51  C37 UNL A   1      17.839  47.832  -0.664  1.00  0.00    +0.000 C 
ATOM     52  F6  UNL A   1      18.700  48.065   0.338  1.00  0.00    +0.000 F 
ATOM     53  C38 UNL A   1      18.170  46.889  -1.632  1.00  0.00    +0.000 C 
ATOM     54  F7  UNL A   1      19.337  46.234  -1.554  1.00  0.00    +0.000 F 
ATOM     55  C39 UNL A   1      17.301  46.631  -2.681  1.00  0.00    +0.000 C 
ATOM     56  F8  UNL A   1      17.617  45.715  -3.607  1.00  0.00    +0.000 F 
ATOM     57  C40 UNL A   1      16.106  47.329  -2.776  1.00  0.00    +0.000 C 
ATOM     58  F9  UNL A   1      15.260  47.073  -3.784  1.00  0.00    +0.000 F 
ATOM     59  C41 UNL A   1      15.782  48.290  -1.823  1.00  0.00    +0.000 C 
ATOM     60  F10 UNL A   1      14.623  48.954  -1.944  1.00  0.00    +0.000 F 
ENDBRANCH   49   50
BRANCH   64   65
ATOM     65  C45 UNL A   1      12.512  48.111   4.844  1.00  0.00    +0.000 C 
ATOM     66  C46 UNL A   1      13.001  47.315   5.889  1.00  0.00    +0.000 C 
ATOM     67  F11 UNL A   1      14.240  47.517   6.360  1.00  0.00    +0.000 F 
ATOM     68  C47 UNL A   1      12.234  46.284   6.427  1.00  0.00    +0.000 C 
ATOM     69  F12 UNL A   1      12.739  45.513   7.399  1.00  0.00    +0.000 F 
ATOM     70  C48 UNL A   1      10.954  46.047   5.948  1.00  0.00    +0.000 C 
ATOM     71  F13 UNL A   1      10.214  45.058   6.470  1.00  0.00    +0.000 F 
ATOM     72  C49 UNL A   1      10.444  46.830   4.924  1.00  0.00    +0.000 C 
ATOM     73  F14 UNL A   1       9.204  46.610   4.467  1.00  0.00    +0.000 F 
ATOM     74  C50 UNL A   1      11.219  47.845   4.368  1.00  0.00    +0.000 C 
ATOM     75  F15 UNL A   1      10.707  48.581   3.371  1.00  0.00    +0.000 F 
ENDBRANCH   64   65
TORSDOF 22
ENDMDL
MODEL 5
REMARK VINA RESULT:      -8.3      1.518      3.256
ROOT
ATOM    129  H32 UNL A   1      16.467  56.562   2.952  1.00  0.00    +0.000 H 
ATOM    130  H33 UNL A   1      15.038  56.263   5.057  1.00  0.00    +0.000 H 
ATOM     28  C21 UNL A   1      13.877  53.674   5.294  1.00  0.00    +0.000 C 
ATOM     29  C22 UNL A   1      14.848  54.151   4.252  1.00  0.00    +0.000 C 
ATOM     30  N4  UNL A   1      15.369  53.497   3.245  1.00  0.00    +0.000 N 
ATOM     31  C23 UNL A   1      16.166  54.414   2.572  1.00  0.00    +0.000 C 
ATOM     32  C24 UNL A   1      16.952  54.211   1.488  1.00  0.00    +0.000 C 
ATOM     44  C31 UNL A   1      17.107  52.943   0.824  1.00  0.00    +0.000 C 
ATOM     45  C32 UNL A   1      17.941  52.620  -0.233  1.00  0.00    +0.000 C 
ATOM     46  C33 UNL A   1      17.715  51.282  -0.573  1.00  0.00    +0.000 C 
ATOM     47  C34 UNL A   1      16.769  50.761   0.295  1.00  0.00    +0.000 C 
ATOM     48  N5  UNL A   1      16.408  51.791   1.150  1.00  0.00    +0.000 N 
ATOM     49  C35 UNL A   1      16.225  49.429   0.337  1.00  0.00    +0.000 C 
ATOM     61  C42 UNL A   1      15.345  48.977   1.263  1.00  0.00    +0.000 C 
ATOM     62  N6  UNL A   1      14.779  49.658   2.332  1.00  0.00    +0.000 N 
ATOM     63  C43 UNL A   1      13.986  48.801   2.925  1.00  0.00    +0.000 C 
ATOM     64  C44 UNL A   1      13.125  48.991   4.143  1.00  0.00    +0.000 C 
ATOM     76  C51 UNL A   1      13.126  50.182   4.773  1.00  0.00    +0.000 C 
ATOM     77  C52 UNL A   1      12.327  50.518   5.947  1.00  0.00    +0.000 C 
ATOM     78  C53 UNL A   1      12.512  51.814   6.245  1.00  0.00    +0.000 C 
ATOM     79  C54 UNL A   1      13.476  52.389   5.307  1.00  0.00    +0.000 C 
ATOM     80  N7  UNL A   1      13.812  51.338   4.489  1.00  0.00    +0.000 N 
ATOM     81  C55 UNL A   1      13.944  47.478   2.285  1.00  0.00    +0.000 C 
ATOM     82  C56 UNL A   1      14.814  47.631   1.296  1.00  0.00    +0.000 C 
ATOM     83  C57 UNL A   1      16.030  55.679   3.261  1.00  0.00    +0.000 C 
ATOM     84  C58 UNL A   1      15.272  55.557   4.341  1.00  0.00    +0.000 C 
ATOM    121  H24 UNL A   1      18.614  53.255  -0.690  1.00  0.00    +0.000 H 
ATOM    122  H25 UNL A   1      18.176  50.769  -1.341  1.00  0.00    +0.000 H 
ATOM    123  H26 UNL A   1      15.753  51.715   1.881  1.00  0.00    +0.000 H 
ATOM    124  H27 UNL A   1      11.718  49.865   6.464  1.00  0.00    +0.000 H 
ATOM    125  H28 UNL A   1      12.047  52.323   7.013  1.00  0.00    +0.000 H 
ATOM    126  H29 UNL A   1      14.480  51.406   3.769  1.00  0.00    +0.000 H 
ATOM    127  H30 UNL A   1      13.385  46.648   2.539  1.00  0.00    +0.000 H 
ATOM    128  H31 UNL A   1      15.079  46.885   0.634  1.00  0.00    +0.000 H 
ENDROOT
BRANCH   28   27
ATOM    131  H34 UNL A   1      14.677  54.197   7.789  1.00  0.00    +0.000 H 
ATOM    132  H35 UNL A   1      13.737  55.752   9.392  1.00  0.00    +0.000 H 
ATOM     27  C20 UNL A   1      13.285  54.635   6.257  1.00  0.00    +0.000 C 
ATOM     85  C59 UNL A   1      13.865  54.777   7.527  1.00  0.00    +0.000 C 
ATOM     86  C60 UNL A   1      13.348  55.696   8.438  1.00  0.00    +0.000 C 
ATOM    119  H22 UNL A   1      10.883  56.968   6.551  1.00  0.00    +0.000 H 
ATOM     24  C17 UNL A   1      12.302  56.540   8.056  1.00  0.00    +0.000 C 
ATOM     25  C18 UNL A   1      11.688  56.378   6.811  1.00  0.00    +0.000 C 
ATOM     26  C19 UNL A   1      12.170  55.418   5.918  1.00  0.00    +0.000 C 
ATOM    120  H23 UNL A   1      11.705  55.282   5.008  1.00  0.00    +0.000 H 
BRANCH   24   22
ATOM     22  C16 UNL A   1      11.814  57.602   8.962  1.00  0.00    +0.000 C 
ATOM     23  O4  UNL A   1      12.428  58.663   9.042  1.00  0.00    +0.000 O 
BRANCH   22   21
ATOM     21  N3  UNL A   1      10.686  57.398   9.717  1.00  0.00    +0.000 N 
ATOM    118  H21 UNL A   1       9.844  57.343   9.210  1.00  0.00    +0.000 H 
BRANCH   21   20
ATOM    116  H19 UNL A   1      10.917  58.143  11.630  1.00  0.00    +0.000 H 
ATOM     20  C15 UNL A   1      10.557  57.252  11.160  1.00  0.00    +0.000 C 
ATOM    117  H20 UNL A   1       9.525  57.084  11.383  1.00  0.00    +0.000 H 
BRANCH   20   19
ATOM    114  H17 UNL A   1      10.960  55.173  11.242  1.00  0.00    +0.000 H 
ATOM     19  C14 UNL A   1      11.352  56.061  11.690  1.00  0.00    +0.000 C 
ATOM    115  H18 UNL A   1      12.375  56.244  11.438  1.00  0.00    +0.000 H 
BRANCH   19   18
ATOM    113  H16 UNL A   1      10.286  55.679  13.456  1.00  0.00    +0.000 H 
ATOM     18  C13 UNL A   1      11.306  55.888  13.211  1.00  0.00    +0.000 C 
ATOM    112  H15 UNL A   1      11.678  56.787  13.657  1.00  0.00    +0.000 H 
BRANCH   18   17
ATOM     17  C12 UNL A   1      12.124  54.714  13.762  1.00  0.00    +0.000 C 
ATOM    110  H13 UNL A   1      12.612  55.040  14.657  1.00  0.00    +0.000 H 
ATOM    111  H14 UNL A   1      11.429  53.916  13.922  1.00  0.00    +0.000 H 
BRANCH   17   16
ATOM    108  H11 UNL A   1      12.707  53.764  11.947  1.00  0.00    +0.000 H 
ATOM    109  H12 UNL A   1      13.850  54.973  12.572  1.00  0.00    +0.000 H 
ATOM     16  C11 UNL A   1      13.195  54.162  12.812  1.00  0.00    +0.000 C 
BRANCH   16   15
ATOM    106  H9  UNL A   1      14.365  53.368  14.410  1.00  0.00    +0.000 H 
ATOM    107  H10 UNL A   1      13.472  52.164  13.486  1.00  0.00    +0.000 H 
ATOM     15  C10 UNL A   1      14.055  53.059  13.433  1.00  0.00    +0.000 C 
BRANCH   15   14
ATOM    105  H8  UNL A   1      15.979  53.423  12.746  1.00  0.00    +0.000 H 
ATOM     14  N2  UNL A   1      15.230  52.795  12.627  1.00  0.00    +0.000 N 
BRANCH   14   12
ATOM     12  C9  UNL A   1      15.439  51.789  11.726  1.00  0.00    +0.000 C 
ATOM     13  O3  UNL A   1      16.041  50.783  12.107  1.00  0.00    +0.000 O 
BRANCH   12   11
ATOM     11  C8  UNL A   1      15.035  51.963  10.274  1.00  0.00    +0.000 C 
ATOM    103  H6  UNL A   1      14.444  52.851  10.187  1.00  0.00    +0.000 H 
ATOM    104  H7  UNL A   1      15.932  52.030   9.694  1.00  0.00    +0.000 H 
BRANCH   11   10
ATOM      7  C6  UNL A   1      12.877  49.182   9.155  1.00  0.00    +0.000 C 
ATOM      8  N1  UNL A   1      14.107  48.802   8.781  1.00  0.00    +0.000 N 
ATOM      9  O2  UNL A   1      14.955  49.832   9.136  1.00  0.00    +0.000 O 
ATOM     10  C7  UNL A   1      14.252  50.816   9.757  1.00  0.00    +0.000 C 
ATOM     87  C61 UNL A   1      12.914  50.473   9.766  1.00  0.00    +0.000 C 
BRANCH    7    6
ATOM     97  C70 UNL A   1       9.455  47.972   8.147  1.00  0.00    +0.000 C 
ATOM      3  C2  UNL A   1       9.392  46.745   8.807  1.00  0.00    +0.000 C 
ATOM      4  C3  UNL A   1      10.496  46.302   9.540  1.00  0.00    +0.000 C 
ATOM    101  H4  UNL A   1      10.454  45.394  10.029  1.00  0.00    +0.000 H 
ATOM      5  C4  UNL A   1      11.657  47.075   9.617  1.00  0.00    +0.000 C 
ATOM    102  H5  UNL A   1      12.473  46.730  10.148  1.00  0.00    +0.000 H 
ATOM      6  C5  UNL A   1      11.717  48.317   8.975  1.00  0.00    +0.000 C 
ATOM    140  H43 UNL A   1      10.655  49.658   7.736  1.00  0.00    +0.000 H 
ATOM    141  H44 UNL A   1       8.647  48.304   7.599  1.00  0.00    +0.000 H 
ATOM     96  C69 UNL A   1      10.614  48.752   8.230  1.00  0.00    +0.000 C 
BRANCH    3    2
ATOM      2  O1  UNL A   1       8.311  45.907   8.833  1.00  0.00    +0.000 O 
BRANCH    2    1
ATOM      1  C1  UNL A   1       7.041  46.514   9.035  1.00  0.00    +0.000 C 
ATOM     98  H1  UNL A   1       6.357  46.168   8.288  1.00  0.00    +0.000 H 
ATOM     99  H2  UNL A   1       7.138  47.577   8.964  1.00  0.00    +0.000 H 
ATOM    100  H3  UNL A   1       6.671  46.253  10.005  1.00  0.00    +0.000 H 
ENDBRANCH    2    1
ENDBRANCH    3    2
ENDBRANCH    7    6
BRANCH   87   88
ATOM    133  H36 UNL A   1      11.526  52.504   8.759  1.00  0.00    +0.000 H 
ATOM    134  H37 UNL A   1       9.771  53.790   9.817  1.00  0.00    +0.000 H 
ATOM    138  H41 UNL A   1      10.160  51.481  13.301  1.00  0.00    +0.000 H 
ATOM    139  H42 UNL A   1      11.928  50.192  12.248  1.00  0.00    +0.000 H 
ATOM     88  C62 UNL A   1      11.863  51.236  10.414  1.00  0.00    +0.000 C 
ATOM     89  C63 UNL A   1      11.238  52.282   9.724  1.00  0.00    +0.000 C 
ATOM     90  C64 UNL A   1      10.226  53.022  10.336  1.00  0.00    +0.000 C 
ATOM     91  C65 UNL A   1       9.823  52.735  11.640  1.00  0.00    +0.000 C 
ATOM     94  C67 UNL A   1      10.449  51.698  12.335  1.00  0.00    +0.000 C 
ATOM     95  C68 UNL A   1      11.467  50.954  11.725  1.00  0.00    +0.000 C 
BRANCH   91   92
ATOM     92  O5  UNL A   1       8.822  53.536  12.112  1.00  0.00    +0.000 O 
BRANCH   92   93
ATOM    137  H40 UNL A   1       7.072  54.269  11.352  1.00  0.00    +0.000 H 
ATOM     93  C66 UNL A   1       8.123  54.327  11.161  1.00  0.00    +0.000 C 
ATOM    135  H38 UNL A   1       8.326  53.963  10.176  1.00  0.00    +0.000 H 
ATOM    136  H39 UNL A   1       8.443  55.345  11.239  1.00  0.00    +0.000 H 
ENDBRANCH   92   93
ENDBRANCH   91   92
ENDBRANCH   87   88
ENDBRANCH   11   10
ENDBRANCH   12   11
ENDBRANCH   14   12
ENDBRANCH   15   14
ENDBRANCH   16   15
ENDBRANCH   17   16
ENDBRANCH   18   17
ENDBRANCH   19   18
ENDBRANCH   20   19
ENDBRANCH   21   20
ENDBRANCH   22   21
ENDBRANCH   24   22
ENDBRANCH   28   27
BRANCH   32   33
ATOM     33  C25 UNL A   1      17.709  55.388   0.950  1.00  0.00    +0.000 C 
ATOM     34  C26 UNL A   1      17.167  56.219  -0.042  1.00  0.00    +0.000 C 
ATOM     35  F1  UNL A   1      15.965  55.943  -0.570  1.00  0.00    +0.000 F 
ATOM     36  C27 UNL A   1      17.874  57.319  -0.519  1.00  0.00    +0.000 C 
ATOM     37  F2  UNL A   1      17.353  58.075  -1.496  1.00  0.00    +0.000 F 
ATOM     38  C28 UNL A   1      19.120  57.628   0.006  1.00  0.00    +0.000 C 
ATOM     39  F3  UNL A   1      19.795  58.693  -0.449  1.00  0.00    +0.000 F 
ATOM     40  C29 UNL A   1      19.667  56.831   1.001  1.00  0.00    +0.000 C 
ATOM     41  F4  UNL A   1      20.865  57.135   1.518  1.00  0.00    +0.000 F 
ATOM     42  C30 UNL A   1      18.974  55.714   1.462  1.00  0.00    +0.000 C 
ATOM     43  F5  UNL A   1      19.534  54.957   2.416  1.00  0.00    +0.000 F 
ENDBRANCH   32   33
BRANCH   49   50
ATOM     50  C36 UNL A   1      16.675  48.459  -0.713  1.00  0.00    +0.000 C 
ATOM     51  C37 UNL A   1      15.882  48.179  -1.835  1.00  0.00    +0.000 C 
ATOM     52  F6  UNL A   1      14.665  48.732  -1.956  1.00  0.00    +0.000 F 
ATOM     53  C38 UNL A   1      16.326  47.304  -2.822  1.00  0.00    +0.000 C 
ATOM     54  F7  UNL A   1      15.537  47.024  -3.870  1.00  0.00    +0.000 F 
ATOM     55  C39 UNL A   1      17.577  46.716  -2.721  1.00  0.00    +0.000 C 
ATOM     56  F8  UNL A   1      18.006  45.881  -3.678  1.00  0.00    +0.000 F 
ATOM     57  C40 UNL A   1      18.381  46.986  -1.624  1.00  0.00    +0.000 C 
ATOM     58  F9  UNL A   1      19.595  46.425  -1.530  1.00  0.00    +0.000 F 
ATOM     59  C41 UNL A   1      17.931  47.841  -0.622  1.00  0.00    +0.000 C 
ATOM     60  F10 UNL A   1      18.727  48.079   0.430  1.00  0.00    +0.000 F 
ENDBRANCH   49   50
BRANCH   64   65
ATOM     65  C45 UNL A   1      12.285  47.883   4.662  1.00  0.00    +0.000 C 
ATOM     66  C46 UNL A   1      12.777  47.006   5.637  1.00  0.00    +0.000 C 
ATOM     67  F11 UNL A   1      14.031  47.147   6.091  1.00  0.00    +0.000 F 
ATOM     68  C47 UNL A   1      11.998  45.958   6.122  1.00  0.00    +0.000 C 
ATOM     69  F12 UNL A   1      12.506  45.110   7.026  1.00  0.00    +0.000 F 
ATOM     70  C48 UNL A   1      10.702  45.783   5.659  1.00  0.00    +0.000 C 
ATOM     71  F13 UNL A   1       9.950  44.778   6.129  1.00  0.00    +0.000 F 
ATOM     72  C49 UNL A   1      10.188  46.646   4.703  1.00  0.00    +0.000 C 
ATOM     73  F14 UNL A   1       8.933  46.487   4.262  1.00  0.00    +0.000 F 
ATOM     74  C50 UNL A   1      10.975  47.680   4.200  1.00  0.00    +0.000 C 
ATOM     75  F15 UNL A   1      10.458  48.494   3.269  1.00  0.00    +0.000 F 
ENDBRANCH   64   65
TORSDOF 22
ENDMDL
MODEL 6
REMARK VINA RESULT:      -8.2      3.084      7.758
ROOT
ATOM    129  H32 UNL A   1      15.240  47.450   0.231  1.00  0.00    +0.000 H 
ATOM    130  H33 UNL A   1      13.304  47.802   1.871  1.00  0.00    +0.000 H 
ATOM     28  C21 UNL A   1      13.183  50.434   2.949  1.00  0.00    +0.000 C 
ATOM     29  C22 UNL A   1      14.113  49.921   1.888  1.00  0.00    +0.000 C 
ATOM     30  N4  UNL A   1      15.053  50.555   1.234  1.00  0.00    +0.000 N 
ATOM     31  C23 UNL A   1      15.639  49.608   0.404  1.00  0.00    +0.000 C 
ATOM     32  C24 UNL A   1      16.628  49.782  -0.504  1.00  0.00    +0.000 C 
ATOM     44  C31 UNL A   1      17.264  51.043  -0.781  1.00  0.00    +0.000 C 
ATOM     45  C32 UNL A   1      18.220  51.335  -1.739  1.00  0.00    +0.000 C 
ATOM     46  C33 UNL A   1      18.576  52.681  -1.605  1.00  0.00    +0.000 C 
ATOM     47  C34 UNL A   1      17.815  53.237  -0.589  1.00  0.00    +0.000 C 
ATOM     48  N5  UNL A   1      17.011  52.222  -0.096  1.00  0.00    +0.000 N 
ATOM     49  C35 UNL A   1      17.825  54.590  -0.096  1.00  0.00    +0.000 C 
ATOM     61  C42 UNL A   1      16.999  55.075   0.862  1.00  0.00    +0.000 C 
ATOM     62  N6  UNL A   1      16.003  54.416   1.569  1.00  0.00    +0.000 N 
ATOM     63  C43 UNL A   1      15.497  55.303   2.389  1.00  0.00    +0.000 C 
ATOM     64  C44 UNL A   1      14.382  55.145   3.386  1.00  0.00    +0.000 C 
ATOM     76  C51 UNL A   1      13.763  53.955   3.501  1.00  0.00    +0.000 C 
ATOM     77  C52 UNL A   1      12.686  53.648   4.438  1.00  0.00    +0.000 C 
ATOM     78  C53 UNL A   1      12.377  52.345   4.338  1.00  0.00    +0.000 C 
ATOM     79  C54 UNL A   1      13.207  51.735   3.298  1.00  0.00    +0.000 C 
ATOM     80  N7  UNL A   1      13.976  52.772   2.834  1.00  0.00    +0.000 N 
ATOM     81  C55 UNL A   1      16.130  56.627   2.307  1.00  0.00    +0.000 C 
ATOM     82  C56 UNL A   1      17.018  56.441   1.340  1.00  0.00    +0.000 C 
ATOM     83  C57 UNL A   1      14.976  48.349   0.665  1.00  0.00    +0.000 C 
ATOM     84  C58 UNL A   1      13.986  48.500   1.532  1.00  0.00    +0.000 C 
ATOM    121  H24 UNL A   1      18.604  50.674  -2.433  1.00  0.00    +0.000 H 
ATOM    122  H25 UNL A   1      19.285  53.177  -2.167  1.00  0.00    +0.000 H 
ATOM    123  H26 UNL A   1      16.356  52.322   0.632  1.00  0.00    +0.000 H 
ATOM    124  H27 UNL A   1      12.236  54.324   5.074  1.00  0.00    +0.000 H 
ATOM    125  H28 UNL A   1      11.668  51.854   4.904  1.00  0.00    +0.000 H 
ATOM    126  H29 UNL A   1      14.618  52.679   2.093  1.00  0.00    +0.000 H 
ATOM    127  H30 UNL A   1      15.934  57.478   2.858  1.00  0.00    +0.000 H 
ATOM    128  H31 UNL A   1      17.642  57.177   0.975  1.00  0.00    +0.000 H 
ENDROOT
BRANCH   28   27
ATOM    131  H34 UNL A   1      10.613  49.890   2.463  1.00  0.00    +0.000 H 
ATOM    132  H35 UNL A   1       9.132  48.372   3.635  1.00  0.00    +0.000 H 
ATOM     27  C20 UNL A   1      12.296  49.497   3.681  1.00  0.00    +0.000 C 
ATOM     85  C59 UNL A   1      10.967  49.338   3.258  1.00  0.00    +0.000 C 
ATOM     86  C60 UNL A   1      10.124  48.439   3.908  1.00  0.00    +0.000 C 
ATOM    119  H22 UNL A   1      12.287  47.247   6.179  1.00  0.00    +0.000 H 
ATOM     24  C17 UNL A   1      10.627  47.630   4.931  1.00  0.00    +0.000 C 
ATOM     25  C18 UNL A   1      11.934  47.810   5.390  1.00  0.00    +0.000 C 
ATOM     26  C19 UNL A   1      12.763  48.751   4.776  1.00  0.00    +0.000 C 
ATOM    120  H23 UNL A   1      13.721  48.901   5.127  1.00  0.00    +0.000 H 
BRANCH   24   22
ATOM     22  C16 UNL A   1       9.785  46.587   5.556  1.00  0.00    +0.000 C 
ATOM     23  O4  UNL A   1       9.403  45.631   4.887  1.00  0.00    +0.000 O 
BRANCH   22   21
ATOM     21  N3  UNL A   1       9.424  46.694   6.876  1.00  0.00    +0.000 N 
ATOM    118  H21 UNL A   1       8.812  47.436   7.087  1.00  0.00    +0.000 H 
BRANCH   21   20
ATOM    116  H19 UNL A   1       8.935  45.544   8.521  1.00  0.00    +0.000 H 
ATOM     20  C15 UNL A   1       9.816  45.867   8.008  1.00  0.00    +0.000 C 
ATOM    117  H20 UNL A   1      10.375  45.036   7.632  1.00  0.00    +0.000 H 
BRANCH   20   19
ATOM    114  H17 UNL A   1      10.915  47.588   8.578  1.00  0.00    +0.000 H 
ATOM     19  C14 UNL A   1      10.707  46.625   8.991  1.00  0.00    +0.000 C 
ATOM    115  H18 UNL A   1      10.168  46.669   9.914  1.00  0.00    +0.000 H 
BRANCH   19   18
ATOM    113  H16 UNL A   1      12.457  45.658   8.359  1.00  0.00    +0.000 H 
ATOM     18  C13 UNL A   1      12.041  45.940   9.303  1.00  0.00    +0.000 C 
ATOM    112  H15 UNL A   1      11.844  45.111   9.950  1.00  0.00    +0.000 H 
BRANCH   18   17
ATOM     17  C12 UNL A   1      13.091  46.830   9.981  1.00  0.00    +0.000 C 
ATOM    110  H13 UNL A   1      14.048  46.586   9.569  1.00  0.00    +0.000 H 
ATOM    111  H14 UNL A   1      12.790  47.839   9.794  1.00  0.00    +0.000 H 
BRANCH   17   16
ATOM    108  H11 UNL A   1      12.904  45.687  11.769  1.00  0.00    +0.000 H 
ATOM    109  H12 UNL A   1      14.187  46.918  11.784  1.00  0.00    +0.000 H 
ATOM     16  C11 UNL A   1      13.180  46.687  11.506  1.00  0.00    +0.000 C 
BRANCH   16   15
ATOM    106  H9  UNL A   1      11.308  47.207  12.389  1.00  0.00    +0.000 H 
ATOM    107  H10 UNL A   1      12.717  47.863  13.217  1.00  0.00    +0.000 H 
ATOM     15  C10 UNL A   1      12.272  47.656  12.266  1.00  0.00    +0.000 C 
BRANCH   15   14
ATOM    105  H8  UNL A   1      11.627  48.852  10.699  1.00  0.00    +0.000 H 
ATOM     14  N2  UNL A   1      12.122  48.905  11.548  1.00  0.00    +0.000 N 
BRANCH   14   12
ATOM     12  C9  UNL A   1      12.575  50.148  11.892  1.00  0.00    +0.000 C 
ATOM     13  O3  UNL A   1      11.750  51.057  12.003  1.00  0.00    +0.000 O 
BRANCH   12   11
ATOM     11  C8  UNL A   1      14.063  50.414  12.021  1.00  0.00    +0.000 C 
ATOM    103  H6  UNL A   1      14.210  51.460  12.194  1.00  0.00    +0.000 H 
ATOM    104  H7  UNL A   1      14.428  49.825  12.837  1.00  0.00    +0.000 H 
BRANCH   11   10
ATOM      7  C6  UNL A   1      15.723  49.486   8.854  1.00  0.00    +0.000 C 
ATOM      8  N1  UNL A   1      16.500  48.932   9.796  1.00  0.00    +0.000 N 
ATOM      9  O2  UNL A   1      15.947  49.286  11.011  1.00  0.00    +0.000 O 
ATOM     10  C7  UNL A   1      14.821  50.021  10.809  1.00  0.00    +0.000 C 
ATOM     87  C61 UNL A   1      14.647  50.211   9.453  1.00  0.00    +0.000 C 
BRANCH    7    6
ATOM     97  C70 UNL A   1      16.153  47.805   5.510  1.00  0.00    +0.000 C 
ATOM      3  C2  UNL A   1      16.677  48.846   4.745  1.00  0.00    +0.000 C 
ATOM      4  C3  UNL A   1      16.838  50.108   5.322  1.00  0.00    +0.000 C 
ATOM    101  H4  UNL A   1      17.225  50.882   4.758  1.00  0.00    +0.000 H 
ATOM      5  C4  UNL A   1      16.482  50.334   6.654  1.00  0.00    +0.000 C 
ATOM    102  H5  UNL A   1      16.592  51.276   7.064  1.00  0.00    +0.000 H 
ATOM      6  C5  UNL A   1      15.978  49.287   7.432  1.00  0.00    +0.000 C 
ATOM    140  H43 UNL A   1      15.413  47.252   7.407  1.00  0.00    +0.000 H 
ATOM    141  H44 UNL A   1      16.024  46.872   5.091  1.00  0.00    +0.000 H 
ATOM     96  C69 UNL A   1      15.803  48.027   6.847  1.00  0.00    +0.000 C 
BRANCH    3    2
ATOM      2  O1  UNL A   1      17.087  48.752   3.443  1.00  0.00    +0.000 O 
BRANCH    2    1
ATOM      1  C1  UNL A   1      18.115  49.646   3.035  1.00  0.00    +0.000 C 
ATOM     98  H1  UNL A   1      18.809  49.128   2.406  1.00  0.00    +0.000 H 
ATOM     99  H2  UNL A   1      18.626  50.019   3.897  1.00  0.00    +0.000 H 
ATOM    100  H3  UNL A   1      17.684  50.462   2.494  1.00  0.00    +0.000 H 
ENDBRANCH    2    1
ENDBRANCH    3    2
ENDBRANCH    7    6
BRANCH   87   88
ATOM    133  H36 UNL A   1      14.172  52.823   9.329  1.00  0.00    +0.000 H 
ATOM    134  H37 UNL A   1      12.286  53.957   8.321  1.00  0.00    +0.000 H 
ATOM    138  H41 UNL A   1      10.647  50.259   7.197  1.00  0.00    +0.000 H 
ATOM    139  H42 UNL A   1      12.531  49.115   8.213  1.00  0.00    +0.000 H 
ATOM     88  C62 UNL A   1      13.510  50.877   8.844  1.00  0.00    +0.000 C 
ATOM     89  C63 UNL A   1      13.425  52.274   8.875  1.00  0.00    +0.000 C 
ATOM     90  C64 UNL A   1      12.337  52.926   8.294  1.00  0.00    +0.000 C 
ATOM     91  C65 UNL A   1      11.320  52.199   7.675  1.00  0.00    +0.000 C 
ATOM     94  C67 UNL A   1      11.396  50.805   7.649  1.00  0.00    +0.000 C 
ATOM     95  C68 UNL A   1      12.486  50.146   8.234  1.00  0.00    +0.000 C 
BRANCH   91   92
ATOM     92  O5  UNL A   1      10.320  52.964   7.146  1.00  0.00    +0.000 O 
BRANCH   92   93
ATOM    137  H40 UNL A   1       8.902  51.502   6.970  1.00  0.00    +0.000 H 
ATOM     93  C66 UNL A   1       9.325  52.292   6.385  1.00  0.00    +0.000 C 
ATOM    135  H38 UNL A   1       9.768  51.883   5.502  1.00  0.00    +0.000 H 
ATOM    136  H39 UNL A   1       8.556  52.983   6.112  1.00  0.00    +0.000 H 
ENDBRANCH   92   93
ENDBRANCH   91   92
ENDBRANCH   87   88
ENDBRANCH   11   10
ENDBRANCH   12   11
ENDBRANCH   14   12
ENDBRANCH   15   14
ENDBRANCH   16   15
ENDBRANCH   17   16
ENDBRANCH   18   17
ENDBRANCH   19   18
ENDBRANCH   20   19
ENDBRANCH   21   20
ENDBRANCH   22   21
ENDBRANCH   24   22
ENDBRANCH   28   27
BRANCH   32   33
ATOM     33  C25 UNL A   1      17.086  48.577  -1.270  1.00  0.00    +0.000 C 
ATOM     34  C26 UNL A   1      18.143  47.775  -0.813  1.00  0.00    +0.000 C 
ATOM     35  F1  UNL A   1      18.805  48.104   0.306  1.00  0.00    +0.000 F 
ATOM     36  C27 UNL A   1      18.545  46.648  -1.525  1.00  0.00    +0.000 C 
ATOM     37  F2  UNL A   1      19.584  45.920  -1.091  1.00  0.00    +0.000 F 
ATOM     38  C28 UNL A   1      17.881  46.283  -2.687  1.00  0.00    +0.000 C 
ATOM     39  F3  UNL A   1      18.265  45.194  -3.366  1.00  0.00    +0.000 F 
ATOM     40  C29 UNL A   1      16.822  47.051  -3.146  1.00  0.00    +0.000 C 
ATOM     41  F4  UNL A   1      16.171  46.694  -4.262  1.00  0.00    +0.000 F 
ATOM     42  C30 UNL A   1      16.433  48.194  -2.451  1.00  0.00    +0.000 C 
ATOM     43  F5  UNL A   1      15.413  48.922  -2.927  1.00  0.00    +0.000 F 
ENDBRANCH   32   33
BRANCH   49   50
ATOM     50  C36 UNL A   1      18.813  55.543  -0.697  1.00  0.00    +0.000 C 
ATOM     51  C37 UNL A   1      18.622  56.080  -1.979  1.00  0.00    +0.000 C 
ATOM     52  F6  UNL A   1      17.574  55.694  -2.722  1.00  0.00    +0.000 F 
ATOM     53  C38 UNL A   1      19.528  56.992  -2.513  1.00  0.00    +0.000 C 
ATOM     54  F7  UNL A   1      19.345  57.466  -3.753  1.00  0.00    +0.000 F 
ATOM     55  C39 UNL A   1      20.622  57.406  -1.768  1.00  0.00    +0.000 C 
ATOM     56  F8  UNL A   1      21.487  58.292  -2.280  1.00  0.00    +0.000 F 
ATOM     57  C40 UNL A   1      20.824  56.895  -0.495  1.00  0.00    +0.000 C 
ATOM     58  F9  UNL A   1      21.877  57.301   0.230  1.00  0.00    +0.000 F 
ATOM     59  C41 UNL A   1      19.935  55.964   0.033  1.00  0.00    +0.000 C 
ATOM     60  F10 UNL A   1      20.159  55.481   1.264  1.00  0.00    +0.000 F 
ENDBRANCH   49   50
BRANCH   64   65
ATOM     65  C45 UNL A   1      13.954  56.285   4.235  1.00  0.00    +0.000 C 
ATOM     66  C46 UNL A   1      12.982  57.188   3.784  1.00  0.00    +0.000 C 
ATOM     67  F11 UNL A   1      12.449  57.042   2.562  1.00  0.00    +0.000 F 
ATOM     68  C47 UNL A   1      12.581  58.265   4.570  1.00  0.00    +0.000 C 
ATOM     69  F12 UNL A   1      11.677  59.136   4.101  1.00  0.00    +0.000 F 
ATOM     70  C48 UNL A   1      13.126  58.445   5.834  1.00  0.00    +0.000 C 
ATOM     71  F13 UNL A   1      12.737  59.479   6.593  1.00  0.00    +0.000 F 
ATOM     72  C49 UNL A   1      14.080  57.557   6.306  1.00  0.00    +0.000 C 
ATOM     73  F14 UNL A   1      14.600  57.721   7.530  1.00  0.00    +0.000 F 
ATOM     74  C50 UNL A   1      14.499  56.493   5.510  1.00  0.00    +0.000 C 
ATOM     75  F15 UNL A   1      15.431  55.655   5.987  1.00  0.00    +0.000 F 
ENDBRANCH   64   65
TORSDOF 22
ENDMDL
MODEL 7
REMARK VINA RESULT:      -8.1     42.731     46.357
ROOT
ATOM    129  H32 UNL A   1      29.135  34.051  43.103  1.00  0.00    +0.000 H 
ATOM    130  H33 UNL A   1      26.658  33.778  43.699  1.00  0.00    +0.000 H 
ATOM     28  C21 UNL A   1      25.705  35.725  45.546  1.00  0.00    +0.000 C 
ATOM     29  C22 UNL A   1      27.061  35.657  44.904  1.00  0.00    +0.000 C 
ATOM     30  N4  UNL A   1      28.085  36.461  45.045  1.00  0.00    +0.000 N 
ATOM     31  C23 UNL A   1      29.100  35.919  44.267  1.00  0.00    +0.000 C 
ATOM     32  C24 UNL A   1      30.342  36.409  44.043  1.00  0.00    +0.000 C 
ATOM     44  C31 UNL A   1      30.842  37.640  44.598  1.00  0.00    +0.000 C 
ATOM     45  C32 UNL A   1      32.058  38.259  44.367  1.00  0.00    +0.000 C 
ATOM     46  C33 UNL A   1      32.121  39.409  45.161  1.00  0.00    +0.000 C 
ATOM     47  C34 UNL A   1      30.929  39.526  45.858  1.00  0.00    +0.000 C 
ATOM     48  N5  UNL A   1      30.152  38.437  45.499  1.00  0.00    +0.000 N 
ATOM     49  C35 UNL A   1      30.530  40.549  46.790  1.00  0.00    +0.000 C 
ATOM     61  C42 UNL A   1      29.315  40.629  47.384  1.00  0.00    +0.000 C 
ATOM     62  N6  UNL A   1      28.223  39.783  47.251  1.00  0.00    +0.000 N 
ATOM     63  C43 UNL A   1      27.293  40.270  48.034  1.00  0.00    +0.000 C 
ATOM     64  C44 UNL A   1      25.898  39.764  48.278  1.00  0.00    +0.000 C 
ATOM     76  C51 UNL A   1      25.472  38.664  47.628  1.00  0.00    +0.000 C 
ATOM     77  C52 UNL A   1      24.158  38.047  47.783  1.00  0.00    +0.000 C 
ATOM     78  C53 UNL A   1      24.116  36.919  47.054  1.00  0.00    +0.000 C 
ATOM     79  C54 UNL A   1      25.387  36.759  46.347  1.00  0.00    +0.000 C 
ATOM     80  N7  UNL A   1      26.118  37.858  46.723  1.00  0.00    +0.000 N 
ATOM     81  C55 UNL A   1      27.697  41.477  48.769  1.00  0.00    +0.000 C 
ATOM     82  C56 UNL A   1      28.928  41.669  48.313  1.00  0.00    +0.000 C 
ATOM     83  C57 UNL A   1      28.583  34.699  43.687  1.00  0.00    +0.000 C 
ATOM     84  C58 UNL A   1      27.308  34.520  44.004  1.00  0.00    +0.000 C 
ATOM    121  H24 UNL A   1      32.792  37.930  43.720  1.00  0.00    +0.000 H 
ATOM    122  H25 UNL A   1      32.920  40.060  45.219  1.00  0.00    +0.000 H 
ATOM    123  H26 UNL A   1      29.244  38.255  45.833  1.00  0.00    +0.000 H 
ATOM    124  H27 UNL A   1      23.387  38.416  48.360  1.00  0.00    +0.000 H 
ATOM    125  H28 UNL A   1      23.315  36.271  47.001  1.00  0.00    +0.000 H 
ATOM    126  H29 UNL A   1      27.020  38.052  46.375  1.00  0.00    +0.000 H 
ATOM    127  H30 UNL A   1      27.164  42.029  49.459  1.00  0.00    +0.000 H 
ATOM    128  H31 UNL A   1      29.532  42.460  48.586  1.00  0.00    +0.000 H 
ENDROOT
BRANCH   28   27
ATOM    131  H34 UNL A   1      23.955  35.364  43.560  1.00  0.00    +0.000 H 
ATOM    132  H35 UNL A   1      22.365  33.563  43.243  1.00  0.00    +0.000 H 
ATOM     27  C20 UNL A   1      24.742  34.610  45.373  1.00  0.00    +0.000 C 
ATOM     85  C59 UNL A   1      23.909  34.593  44.243  1.00  0.00    +0.000 C 
ATOM     86  C60 UNL A   1      23.019  33.540  44.040  1.00  0.00    +0.000 C 
ATOM    119  H22 UNL A   1      23.765  31.701  46.746  1.00  0.00    +0.000 H 
ATOM     24  C17 UNL A   1      23.015  32.454  44.920  1.00  0.00    +0.000 C 
ATOM     25  C18 UNL A   1      23.807  32.480  46.071  1.00  0.00    +0.000 C 
ATOM     26  C19 UNL A   1      24.659  33.563  46.304  1.00  0.00    +0.000 C 
ATOM    120  H23 UNL A   1      25.228  33.594  47.164  1.00  0.00    +0.000 H 
BRANCH   24   22
ATOM     22  C16 UNL A   1      22.165  31.273  44.663  1.00  0.00    +0.000 C 
ATOM     23  O4  UNL A   1      22.671  30.154  44.633  1.00  0.00    +0.000 O 
BRANCH   22   21
ATOM     21  N3  UNL A   1      20.818  31.427  44.449  1.00  0.00    +0.000 N 
ATOM    118  H21 UNL A   1      20.564  32.209  43.908  1.00  0.00    +0.000 H 
BRANCH   21   20
ATOM    116  H19 UNL A   1      19.971  29.570  44.773  1.00  0.00    +0.000 H 
ATOM     20  C15 UNL A   1      19.711  30.599  44.907  1.00  0.00    +0.000 C 
ATOM    117  H20 UNL A   1      19.536  30.825  45.938  1.00  0.00    +0.000 H 
BRANCH   20   19
ATOM    114  H17 UNL A   1      17.997  29.951  43.842  1.00  0.00    +0.000 H 
ATOM     19  C14 UNL A   1      18.423  30.886  44.139  1.00  0.00    +0.000 C 
ATOM    115  H18 UNL A   1      17.795  31.445  44.800  1.00  0.00    +0.000 H 
BRANCH   19   18
ATOM    113  H16 UNL A   1      18.249  31.157  42.066  1.00  0.00    +0.000 H 
ATOM     18  C13 UNL A   1      18.605  31.746  42.885  1.00  0.00    +0.000 C 
ATOM    112  H15 UNL A   1      19.641  32.005  42.809  1.00  0.00    +0.000 H 
BRANCH   18   17
ATOM     17  C12 UNL A   1      17.790  33.045  42.858  1.00  0.00    +0.000 C 
ATOM    110  H13 UNL A   1      18.422  33.826  42.490  1.00  0.00    +0.000 H 
ATOM    111  H14 UNL A   1      16.943  32.852  42.234  1.00  0.00    +0.000 H 
BRANCH   17   16
ATOM    108  H11 UNL A   1      16.575  32.724  44.579  1.00  0.00    +0.000 H 
ATOM    109  H12 UNL A   1      18.063  33.655  44.862  1.00  0.00    +0.000 H 
ATOM     16  C11 UNL A   1      17.227  33.491  44.215  1.00  0.00    +0.000 C 
BRANCH   16   15
ATOM    106  H9  UNL A   1      16.978  35.499  43.537  1.00  0.00    +0.000 H 
ATOM    107  H10 UNL A   1      15.477  34.602  43.741  1.00  0.00    +0.000 H 
ATOM     15  C10 UNL A   1      16.444  34.803  44.151  1.00  0.00    +0.000 C 
BRANCH   15   14
ATOM    105  H8  UNL A   1      15.566  34.969  46.024  1.00  0.00    +0.000 H 
ATOM     14  N2  UNL A   1      16.272  35.376  45.472  1.00  0.00    +0.000 N 
BRANCH   14   12
ATOM     12  C9  UNL A   1      16.960  36.404  46.053  1.00  0.00    +0.000 C 
ATOM     13  O3  UNL A   1      16.333  37.197  46.758  1.00  0.00    +0.000 O 
BRANCH   12   11
ATOM     11  C8  UNL A   1      18.430  36.618  45.742  1.00  0.00    +0.000 C 
ATOM    103  H6  UNL A   1      18.639  36.207  44.776  1.00  0.00    +0.000 H 
ATOM    104  H7  UNL A   1      18.617  37.671  45.771  1.00  0.00    +0.000 H 
BRANCH   11   10
ATOM      7  C6  UNL A   1      20.708  35.270  48.319  1.00  0.00    +0.000 C 
ATOM      8  N1  UNL A   1      20.621  34.279  47.419  1.00  0.00    +0.000 N 
ATOM      9  O2  UNL A   1      19.740  34.714  46.449  1.00  0.00    +0.000 O 
ATOM     10  C7  UNL A   1      19.323  35.976  46.736  1.00  0.00    +0.000 C 
ATOM     87  C61 UNL A   1      19.879  36.369  47.937  1.00  0.00    +0.000 C 
BRANCH    7    6
ATOM     97  C70 UNL A   1      21.941  35.384  51.876  1.00  0.00    +0.000 C 
ATOM      3  C2  UNL A   1      23.316  35.232  51.696  1.00  0.00    +0.000 C 
ATOM      4  C3  UNL A   1      23.822  35.044  50.407  1.00  0.00    +0.000 C 
ATOM    101  H4  UNL A   1      24.839  34.931  50.269  1.00  0.00    +0.000 H 
ATOM      5  C4  UNL A   1      22.966  35.008  49.303  1.00  0.00    +0.000 C 
ATOM    102  H5  UNL A   1      23.351  34.853  48.357  1.00  0.00    +0.000 H 
ATOM      6  C5  UNL A   1      21.589  35.182  49.477  1.00  0.00    +0.000 C 
ATOM    140  H43 UNL A   1      20.066  35.465  50.913  1.00  0.00    +0.000 H 
ATOM    141  H44 UNL A   1      21.558  35.516  52.824  1.00  0.00    +0.000 H 
ATOM     96  C69 UNL A   1      21.083  35.356  50.772  1.00  0.00    +0.000 C 
BRANCH    3    2
ATOM      2  O1  UNL A   1      24.261  35.273  52.684  1.00  0.00    +0.000 O 
BRANCH    2    1
ATOM      1  C1  UNL A   1      25.439  36.019  52.406  1.00  0.00    +0.000 C 
ATOM     98  H1  UNL A   1      26.256  35.619  52.969  1.00  0.00    +0.000 H 
ATOM     99  H2  UNL A   1      25.287  37.042  52.678  1.00  0.00    +0.000 H 
ATOM    100  H3  UNL A   1      25.662  35.957  51.361  1.00  0.00    +0.000 H 
ENDBRANCH    2    1
ENDBRANCH    3    2
ENDBRANCH    7    6
BRANCH   87   88
ATOM    133  H36 UNL A   1      21.440  38.492  47.588  1.00  0.00    +0.000 H 
ATOM    134  H37 UNL A   1      21.214  40.695  48.566  1.00  0.00    +0.000 H 
ATOM    138  H41 UNL A   1      17.773  39.445  50.620  1.00  0.00    +0.000 H 
ATOM    139  H42 UNL A   1      17.998  37.231  49.649  1.00  0.00    +0.000 H 
ATOM     88  C62 UNL A   1      19.731  37.684  48.531  1.00  0.00    +0.000 C 
ATOM     89  C63 UNL A   1      20.657  38.691  48.231  1.00  0.00    +0.000 C 
ATOM     90  C64 UNL A   1      20.526  39.960  48.796  1.00  0.00    +0.000 C 
ATOM     91  C65 UNL A   1      19.474  40.246  49.666  1.00  0.00    +0.000 C 
ATOM     94  C67 UNL A   1      18.552  39.244  49.975  1.00  0.00    +0.000 C 
ATOM     95  C68 UNL A   1      18.682  37.967  49.412  1.00  0.00    +0.000 C 
BRANCH   91   92
ATOM     92  O5  UNL A   1      19.465  41.527  50.141  1.00  0.00    +0.000 O 
BRANCH   92   93
ATOM    137  H40 UNL A   1      20.076  42.888  48.745  1.00  0.00    +0.000 H 
ATOM     93  C66 UNL A   1      19.171  42.560  49.211  1.00  0.00    +0.000 C 
ATOM    135  H38 UNL A   1      18.716  43.381  49.723  1.00  0.00    +0.000 H 
ATOM    136  H39 UNL A   1      18.501  42.189  48.465  1.00  0.00    +0.000 H 
ENDBRANCH   92   93
ENDBRANCH   91   92
ENDBRANCH   87   88
ENDBRANCH   11   10
ENDBRANCH   12   11
ENDBRANCH   14   12
ENDBRANCH   15   14
ENDBRANCH   16   15
ENDBRANCH   17   16
ENDBRANCH   18   17
ENDBRANCH   19   18
ENDBRANCH   20   19
ENDBRANCH   21   20
ENDBRANCH   22   21
ENDBRANCH   24   22
ENDBRANCH   28   27
BRANCH   32   33
ATOM     33  C25 UNL A   1      31.253  35.612  43.158  1.00  0.00    +0.000 C 
ATOM     34  C26 UNL A   1      31.974  34.512  43.647  1.00  0.00    +0.000 C 
ATOM     35  F1  UNL A   1      31.899  34.178  44.944  1.00  0.00    +0.000 F 
ATOM     36  C27 UNL A   1      32.802  33.769  42.809  1.00  0.00    +0.000 C 
ATOM     37  F2  UNL A   1      33.512  32.747  43.307  1.00  0.00    +0.000 F 
ATOM     38  C28 UNL A   1      32.902  34.092  41.464  1.00  0.00    +0.000 C 
ATOM     39  F3  UNL A   1      33.693  33.371  40.657  1.00  0.00    +0.000 F 
ATOM     40  C29 UNL A   1      32.184  35.164  40.956  1.00  0.00    +0.000 C 
ATOM     41  F4  UNL A   1      32.269  35.470  39.653  1.00  0.00    +0.000 F 
ATOM     42  C30 UNL A   1      31.375  35.925  41.796  1.00  0.00    +0.000 C 
ATOM     43  F5  UNL A   1      30.702  36.963  41.278  1.00  0.00    +0.000 F 
ENDBRANCH   32   33
BRANCH   49   50
ATOM     50  C36 UNL A   1      31.527  41.619  47.120  1.00  0.00    +0.000 C 
ATOM     51  C37 UNL A   1      32.666  41.341  47.889  1.00  0.00    +0.000 C 
ATOM     52  F6  UNL A   1      32.851  40.116  48.403  1.00  0.00    +0.000 F 
ATOM     53  C38 UNL A   1      33.604  42.333  48.159  1.00  0.00    +0.000 C 
ATOM     54  F7  UNL A   1      34.668  42.056  48.926  1.00  0.00    +0.000 F 
ATOM     55  C39 UNL A   1      33.437  43.609  47.644  1.00  0.00    +0.000 C 
ATOM     56  F8  UNL A   1      34.346  44.561  47.896  1.00  0.00    +0.000 F 
ATOM     57  C40 UNL A   1      32.322  43.903  46.872  1.00  0.00    +0.000 C 
ATOM     58  F9  UNL A   1      32.164  45.134  46.365  1.00  0.00    +0.000 F 
ATOM     59  C41 UNL A   1      31.369  42.920  46.621  1.00  0.00    +0.000 C 
ATOM     60  F10 UNL A   1      30.298  43.234  45.877  1.00  0.00    +0.000 F 
ENDBRANCH   49   50
BRANCH   64   65
ATOM     65  C45 UNL A   1      24.988  40.466  49.218  1.00  0.00    +0.000 C 
ATOM     66  C46 UNL A   1      24.968  40.135  50.579  1.00  0.00    +0.000 C 
ATOM     67  F11 UNL A   1      25.758  39.153  51.039  1.00  0.00    +0.000 F 
ATOM     68  C47 UNL A   1      24.111  40.782  51.465  1.00  0.00    +0.000 C 
ATOM     69  F12 UNL A   1      24.084  40.420  52.755  1.00  0.00    +0.000 F 
ATOM     70  C48 UNL A   1      23.275  41.793  51.010  1.00  0.00    +0.000 C 
ATOM     71  F13 UNL A   1      22.454  42.420  51.864  1.00  0.00    +0.000 F 
ATOM     72  C49 UNL A   1      23.287  42.147  49.670  1.00  0.00    +0.000 C 
ATOM     73  F14 UNL A   1      22.489  43.130  49.230  1.00  0.00    +0.000 F 
ATOM     74  C50 UNL A   1      24.127  41.483  48.779  1.00  0.00    +0.000 C 
ATOM     75  F15 UNL A   1      24.110  41.837  47.485  1.00  0.00    +0.000 F 
ENDBRANCH   64   65
TORSDOF 22
ENDMDL
MODEL 8
REMARK VINA RESULT:      -8.0     33.645     37.947
ROOT
ATOM    129  H32 UNL A   1      48.328  48.305  21.391  1.00  0.00    +0.000 H 
ATOM    130  H33 UNL A   1      46.557  48.320  19.540  1.00  0.00    +0.000 H 
ATOM     28  C21 UNL A   1      46.586  50.681  17.948  1.00  0.00    +0.000 C 
ATOM     29  C22 UNL A   1      47.547  50.297  19.037  1.00  0.00    +0.000 C 
ATOM     30  N4  UNL A   1      48.592  50.947  19.485  1.00  0.00    +0.000 N 
ATOM     31  C23 UNL A   1      49.100  50.174  20.521  1.00  0.00    +0.000 C 
ATOM     32  C24 UNL A   1      50.204  50.394  21.273  1.00  0.00    +0.000 C 
ATOM     44  C31 UNL A   1      51.086  51.521  21.110  1.00  0.00    +0.000 C 
ATOM     45  C32 UNL A   1      52.273  51.790  21.770  1.00  0.00    +0.000 C 
ATOM     46  C33 UNL A   1      52.755  53.022  21.315  1.00  0.00    +0.000 C 
ATOM     47  C34 UNL A   1      51.890  53.502  20.345  1.00  0.00    +0.000 C 
ATOM     48  N5  UNL A   1      50.873  52.568  20.226  1.00  0.00    +0.000 N 
ATOM     49  C35 UNL A   1      51.976  54.724  19.590  1.00  0.00    +0.000 C 
ATOM     61  C42 UNL A   1      51.120  55.094  18.607  1.00  0.00    +0.000 C 
ATOM     62  N6  UNL A   1      50.006  54.421  18.124  1.00  0.00    +0.000 N 
ATOM     63  C43 UNL A   1      49.501  55.186  17.189  1.00  0.00    +0.000 C 
ATOM     64  C44 UNL A   1      48.295  54.953  16.321  1.00  0.00    +0.000 C 
ATOM     76  C51 UNL A   1      47.590  53.814  16.463  1.00  0.00    +0.000 C 
ATOM     77  C52 UNL A   1      46.389  53.464  15.711  1.00  0.00    +0.000 C 
ATOM     78  C53 UNL A   1      45.902  52.303  16.180  1.00  0.00    +0.000 C 
ATOM     79  C54 UNL A   1      46.783  51.807  17.238  1.00  0.00    +0.000 C 
ATOM     80  N7  UNL A   1      47.776  52.752  17.315  1.00  0.00    +0.000 N 
ATOM     81  C55 UNL A   1      50.231  56.445  16.983  1.00  0.00    +0.000 C 
ATOM     82  C56 UNL A   1      51.226  56.323  17.851  1.00  0.00    +0.000 C 
ATOM     83  C57 UNL A   1      48.228  49.028  20.661  1.00  0.00    +0.000 C 
ATOM     84  C58 UNL A   1      47.285  49.027  19.729  1.00  0.00    +0.000 C 
ATOM    121  H24 UNL A   1      52.724  51.186  22.475  1.00  0.00    +0.000 H 
ATOM    122  H25 UNL A   1      53.612  53.494  21.646  1.00  0.00    +0.000 H 
ATOM    123  H26 UNL A   1      50.112  52.637  19.605  1.00  0.00    +0.000 H 
ATOM    124  H27 UNL A   1      45.979  54.019  14.944  1.00  0.00    +0.000 H 
ATOM    125  H28 UNL A   1      45.044  51.836  15.847  1.00  0.00    +0.000 H 
ATOM    126  H29 UNL A   1      48.548  52.676  17.922  1.00  0.00    +0.000 H 
ATOM    127  H30 UNL A   1      50.024  57.220  16.332  1.00  0.00    +0.000 H 
ATOM    128  H31 UNL A   1      51.980  57.018  17.973  1.00  0.00    +0.000 H 
ENDROOT
BRANCH   28   27
ATOM    131  H34 UNL A   1      44.178  50.976  19.067  1.00  0.00    +0.000 H 
ATOM    132  H35 UNL A   1      42.166  49.673  18.711  1.00  0.00    +0.000 H 
ATOM     27  C20 UNL A   1      45.366  49.870  17.711  1.00  0.00    +0.000 C 
ATOM     85  C59 UNL A   1      44.183  50.196  18.392  1.00  0.00    +0.000 C 
ATOM     86  C60 UNL A   1      43.016  49.471  18.162  1.00  0.00    +0.000 C 
ATOM    119  H22 UNL A   1      44.179  47.333  15.852  1.00  0.00    +0.000 H 
ATOM     24  C17 UNL A   1      43.000  48.470  17.187  1.00  0.00    +0.000 C 
ATOM     25  C18 UNL A   1      44.182  48.107  16.534  1.00  0.00    +0.000 C 
ATOM     26  C19 UNL A   1      45.366  48.796  16.806  1.00  0.00    +0.000 C 
ATOM    120  H23 UNL A   1      46.243  48.516  16.342  1.00  0.00    +0.000 H 
BRANCH   24   22
ATOM     22  C16 UNL A   1      41.747  47.766  16.842  1.00  0.00    +0.000 C 
ATOM     23  O4  UNL A   1      40.671  48.349  16.954  1.00  0.00    +0.000 O 
BRANCH   22   21
ATOM     21  N3  UNL A   1      41.784  46.465  16.407  1.00  0.00    +0.000 N 
ATOM    118  H21 UNL A   1      42.384  46.292  15.647  1.00  0.00    +0.000 H 
BRANCH   21   20
ATOM    116  H19 UNL A   1      40.073  45.311  16.507  1.00  0.00    +0.000 H 
ATOM     20  C15 UNL A   1      41.064  45.304  16.911  1.00  0.00    +0.000 C 
ATOM    117  H20 UNL A   1      41.600  44.428  16.611  1.00  0.00    +0.000 H 
BRANCH   20   19
ATOM    114  H17 UNL A   1      41.731  45.953  18.816  1.00  0.00    +0.000 H 
ATOM     19  C14 UNL A   1      40.974  45.301  18.435  1.00  0.00    +0.000 C 
ATOM    115  H18 UNL A   1      39.982  45.618  18.680  1.00  0.00    +0.000 H 
BRANCH   19   18
ATOM    113  H16 UNL A   1      41.769  43.360  18.410  1.00  0.00    +0.000 H 
ATOM     18  C13 UNL A   1      41.160  43.925  19.083  1.00  0.00    +0.000 C 
ATOM    112  H15 UNL A   1      40.190  43.502  19.244  1.00  0.00    +0.000 H 
BRANCH   18   17
ATOM     17  C12 UNL A   1      41.902  43.929  20.426  1.00  0.00    +0.000 C 
ATOM    110  H13 UNL A   1      42.884  44.319  20.261  1.00  0.00    +0.000 H 
ATOM    111  H14 UNL A   1      41.312  44.525  21.090  1.00  0.00    +0.000 H 
BRANCH   17   16
ATOM    108  H11 UNL A   1      41.404  41.864  20.589  1.00  0.00    +0.000 H 
ATOM    109  H12 UNL A   1      43.074  42.280  21.034  1.00  0.00    +0.000 H 
ATOM     16  C11 UNL A   1      42.042  42.556  21.097  1.00  0.00    +0.000 C 
BRANCH   16   15
ATOM    106  H9  UNL A   1      40.611  42.691  22.674  1.00  0.00    +0.000 H 
ATOM    107  H10 UNL A   1      41.972  41.627  23.009  1.00  0.00    +0.000 H 
ATOM     15  C10 UNL A   1      41.669  42.559  22.581  1.00  0.00    +0.000 C 
BRANCH   15   14
ATOM    105  H8  UNL A   1      41.817  44.452  23.417  1.00  0.00    +0.000 H 
ATOM     14  N2  UNL A   1      42.342  43.630  23.288  1.00  0.00    +0.000 N 
BRANCH   14   12
ATOM     12  C9  UNL A   1      43.609  43.650  23.801  1.00  0.00    +0.000 C 
ATOM     13  O3  UNL A   1      44.126  42.575  24.114  1.00  0.00    +0.000 O 
BRANCH   12   11
ATOM     11  C8  UNL A   1      44.305  44.970  24.076  1.00  0.00    +0.000 C 
ATOM    103  H6  UNL A   1      43.847  45.730  23.478  1.00  0.00    +0.000 H 
ATOM    104  H7  UNL A   1      44.206  45.177  25.121  1.00  0.00    +0.000 H 
BRANCH   11   10
ATOM      7  C6  UNL A   1      47.846  44.790  23.037  1.00  0.00    +0.000 C 
ATOM      8  N1  UNL A   1      47.903  44.736  24.376  1.00  0.00    +0.000 N 
ATOM      9  O2  UNL A   1      46.601  44.845  24.823  1.00  0.00    +0.000 O 
ATOM     10  C7  UNL A   1      45.754  44.927  23.762  1.00  0.00    +0.000 C 
ATOM     87  C61 UNL A   1      46.494  44.934  22.597  1.00  0.00    +0.000 C 
BRANCH    7    6
ATOM     97  C70 UNL A   1      50.303  45.276  20.223  1.00  0.00    +0.000 C 
ATOM      3  C2  UNL A   1      51.231  44.272  20.492  1.00  0.00    +0.000 C 
ATOM      4  C3  UNL A   1      51.068  43.473  21.627  1.00  0.00    +0.000 C 
ATOM    101  H4  UNL A   1      51.755  42.729  21.831  1.00  0.00    +0.000 H 
ATOM      5  C4  UNL A   1      49.987  43.671  22.489  1.00  0.00    +0.000 C 
ATOM    102  H5  UNL A   1      49.886  43.085  23.333  1.00  0.00    +0.000 H 
ATOM      6  C5  UNL A   1      49.040  44.662  22.211  1.00  0.00    +0.000 C 
ATOM    140  H43 UNL A   1      48.532  46.219  20.877  1.00  0.00    +0.000 H 
ATOM    141  H44 UNL A   1      50.418  45.875  19.391  1.00  0.00    +0.000 H 
ATOM     96  C69 UNL A   1      49.214  45.471  21.080  1.00  0.00    +0.000 C 
BRANCH    3    2
ATOM      2  O1  UNL A   1      52.316  43.959  19.719  1.00  0.00    +0.000 O 
BRANCH    2    1
ATOM      1  C1  UNL A   1      53.109  42.861  20.153  1.00  0.00    +0.000 C 
ATOM     98  H1  UNL A   1      52.470  42.046  20.425  1.00  0.00    +0.000 H 
ATOM     99  H2  UNL A   1      53.692  43.154  21.000  1.00  0.00    +0.000 H 
ATOM    100  H3  UNL A   1      53.759  42.555  19.359  1.00  0.00    +0.000 H 
ENDBRANCH    2    1
ENDBRANCH    3    2
ENDBRANCH    7    6
BRANCH   87   88
ATOM    133  H36 UNL A   1      46.291  42.872  20.932  1.00  0.00    +0.000 H 
ATOM    134  H37 UNL A   1      45.366  42.838  18.695  1.00  0.00    +0.000 H 
ATOM    138  H41 UNL A   1      44.518  46.940  18.968  1.00  0.00    +0.000 H 
ATOM    139  H42 UNL A   1      45.452  46.983  21.209  1.00  0.00    +0.000 H 
ATOM     88  C62 UNL A   1      45.937  44.929  21.257  1.00  0.00    +0.000 C 
ATOM     89  C63 UNL A   1      45.913  43.739  20.519  1.00  0.00    +0.000 C 
ATOM     90  C64 UNL A   1      45.381  43.721  19.229  1.00  0.00    +0.000 C 
ATOM     91  C65 UNL A   1      44.866  44.884  18.656  1.00  0.00    +0.000 C 
ATOM     94  C67 UNL A   1      44.894  46.075  19.385  1.00  0.00    +0.000 C 
ATOM     95  C68 UNL A   1      45.431  46.098  20.679  1.00  0.00    +0.000 C 
BRANCH   91   92
ATOM     92  O5  UNL A   1      44.373  44.722  17.392  1.00  0.00    +0.000 O 
BRANCH   92   93
ATOM    137  H40 UNL A   1      44.232  43.091  16.169  1.00  0.00    +0.000 H 
ATOM     93  C66 UNL A   1      43.803  43.459  17.077  1.00  0.00    +0.000 C 
ATOM    135  H38 UNL A   1      42.746  43.567  16.953  1.00  0.00    +0.000 H 
ATOM    136  H39 UNL A   1      44.001  42.770  17.870  1.00  0.00    +0.000 H 
ENDBRANCH   92   93
ENDBRANCH   91   92
ENDBRANCH   87   88
ENDBRANCH   11   10
ENDBRANCH   12   11
ENDBRANCH   14   12
ENDBRANCH   15   14
ENDBRANCH   16   15
ENDBRANCH   17   16
ENDBRANCH   18   17
ENDBRANCH   19   18
ENDBRANCH   20   19
ENDBRANCH   21   20
ENDBRANCH   22   21
ENDBRANCH   24   22
ENDBRANCH   28   27
BRANCH   32   33
ATOM     33  C25 UNL A   1      50.526  49.395  22.343  1.00  0.00    +0.000 C 
ATOM     34  C26 UNL A   1      51.349  48.287  22.091  1.00  0.00    +0.000 C 
ATOM     35  F1  UNL A   1      51.830  48.072  20.857  1.00  0.00    +0.000 F 
ATOM     36  C27 UNL A   1      51.655  47.378  23.100  1.00  0.00    +0.000 C 
ATOM     37  F2  UNL A   1      52.410  46.306  22.825  1.00  0.00    +0.000 F 
ATOM     38  C28 UNL A   1      51.170  47.573  24.384  1.00  0.00    +0.000 C 
ATOM     39  F3  UNL A   1      51.472  46.701  25.356  1.00  0.00    +0.000 F 
ATOM     40  C29 UNL A   1      50.370  48.672  24.660  1.00  0.00    +0.000 C 
ATOM     41  F4  UNL A   1      49.910  48.869  25.904  1.00  0.00    +0.000 F 
ATOM     42  C30 UNL A   1      50.040  49.570  23.648  1.00  0.00    +0.000 C 
ATOM     43  F5  UNL A   1      49.255  50.615  23.944  1.00  0.00    +0.000 F 
ENDBRANCH   32   33
BRANCH   49   50
ATOM     50  C36 UNL A   1      53.108  55.657  19.900  1.00  0.00    +0.000 C 
ATOM     51  C37 UNL A   1      54.328  55.577  19.212  1.00  0.00    +0.000 C 
ATOM     52  F6  UNL A   1      54.526  54.613  18.301  1.00  0.00    +0.000 F 
ATOM     53  C38 UNL A   1      55.359  56.472  19.483  1.00  0.00    +0.000 C 
ATOM     54  F7  UNL A   1      56.529  56.356  18.839  1.00  0.00    +0.000 F 
ATOM     55  C39 UNL A   1      55.182  57.476  20.422  1.00  0.00    +0.000 C 
ATOM     56  F8  UNL A   1      56.173  58.343  20.674  1.00  0.00    +0.000 F 
ATOM     57  C40 UNL A   1      53.980  57.578  21.107  1.00  0.00    +0.000 C 
ATOM     58  F9  UNL A   1      53.805  58.555  22.008  1.00  0.00    +0.000 F 
ATOM     59  C41 UNL A   1      52.955  56.671  20.857  1.00  0.00    +0.000 C 
ATOM     60  F10 UNL A   1      51.806  56.790  21.539  1.00  0.00    +0.000 F 
ENDBRANCH   49   50
BRANCH   64   65
ATOM     65  C45 UNL A   1      47.881  55.956  15.309  1.00  0.00    +0.000 C 
ATOM     66  C46 UNL A   1      47.109  57.067  15.674  1.00  0.00    +0.000 C 
ATOM     67  F11 UNL A   1      46.714  57.217  16.947  1.00  0.00    +0.000 F 
ATOM     68  C47 UNL A   1      46.710  58.008  14.729  1.00  0.00    +0.000 C 
ATOM     69  F12 UNL A   1      45.940  59.041  15.097  1.00  0.00    +0.000 F 
ATOM     70  C48 UNL A   1      47.096  57.870  13.403  1.00  0.00    +0.000 C 
ATOM     71  F13 UNL A   1      46.716  58.778  12.494  1.00  0.00    +0.000 F 
ATOM     72  C49 UNL A   1      47.870  56.785  13.020  1.00  0.00    +0.000 C 
ATOM     73  F14 UNL A   1      48.255  56.654  11.743  1.00  0.00    +0.000 F 
ATOM     74  C50 UNL A   1      48.251  55.831  13.961  1.00  0.00    +0.000 C 
ATOM     75  F15 UNL A   1      48.990  54.786  13.563  1.00  0.00    +0.000 F 
ENDBRANCH   64   65
TORSDOF 22
ENDMDL
MODEL 9
REMARK VINA RESULT:      -7.9      1.742      3.421
ROOT
ATOM    129  H32 UNL A   1      16.753  56.622   2.743  1.00  0.00    +0.000 H 
ATOM    130  H33 UNL A   1      15.354  56.364   4.874  1.00  0.00    +0.000 H 
ATOM     28  C21 UNL A   1      14.128  53.808   5.135  1.00  0.00    +0.000 C 
ATOM     29  C22 UNL A   1      15.093  54.257   4.076  1.00  0.00    +0.000 C 
ATOM     30  N4  UNL A   1      15.578  53.588   3.060  1.00  0.00    +0.000 N 
ATOM     31  C23 UNL A   1      16.387  54.482   2.372  1.00  0.00    +0.000 C 
ATOM     32  C24 UNL A   1      17.148  54.257   1.275  1.00  0.00    +0.000 C 
ATOM     44  C31 UNL A   1      17.258  52.985   0.610  1.00  0.00    +0.000 C 
ATOM     45  C32 UNL A   1      18.064  52.638  -0.460  1.00  0.00    +0.000 C 
ATOM     46  C33 UNL A   1      17.796  51.306  -0.795  1.00  0.00    +0.000 C 
ATOM     47  C34 UNL A   1      16.852  50.812   0.091  1.00  0.00    +0.000 C 
ATOM     48  N5  UNL A   1      16.534  51.852   0.950  1.00  0.00    +0.000 N 
ATOM     49  C35 UNL A   1      16.273  49.495   0.145  1.00  0.00    +0.000 C 
ATOM     61  C42 UNL A   1      15.398  49.068   1.087  1.00  0.00    +0.000 C 
ATOM     62  N6  UNL A   1      14.869  49.765   2.165  1.00  0.00    +0.000 N 
ATOM     63  C43 UNL A   1      14.064  48.930   2.772  1.00  0.00    +0.000 C 
ATOM     64  C44 UNL A   1      13.230  49.146   4.006  1.00  0.00    +0.000 C 
ATOM     76  C51 UNL A   1      13.275  50.336   4.633  1.00  0.00    +0.000 C 
ATOM     77  C52 UNL A   1      12.505  50.695   5.821  1.00  0.00    +0.000 C 
ATOM     78  C53 UNL A   1      12.730  51.987   6.113  1.00  0.00    +0.000 C 
ATOM     79  C54 UNL A   1      13.693  52.534   5.157  1.00  0.00    +0.000 C 
ATOM     80  N7  UNL A   1      13.986  51.473   4.335  1.00  0.00    +0.000 N 
ATOM     81  C55 UNL A   1      13.976  47.608   2.136  1.00  0.00    +0.000 C 
ATOM     82  C56 UNL A   1      14.832  47.737   1.131  1.00  0.00    +0.000 C 
ATOM     83  C57 UNL A   1      16.298  55.751   3.061  1.00  0.00    +0.000 C 
ATOM     84  C58 UNL A   1      15.556  55.651   4.155  1.00  0.00    +0.000 C 
ATOM    121  H24 UNL A   1      18.746  53.254  -0.930  1.00  0.00    +0.000 H 
ATOM    122  H25 UNL A   1      18.229  50.780  -1.570  1.00  0.00    +0.000 H 
ATOM    123  H26 UNL A   1      15.890  51.795   1.693  1.00  0.00    +0.000 H 
ATOM    124  H27 UNL A   1      11.888  50.060   6.349  1.00  0.00    +0.000 H 
ATOM    125  H28 UNL A   1      12.293  52.509   6.889  1.00  0.00    +0.000 H 
ATOM    126  H29 UNL A   1      14.643  51.523   3.603  1.00  0.00    +0.000 H 
ATOM    127  H30 UNL A   1      13.399  46.794   2.401  1.00  0.00    +0.000 H 
ATOM    128  H31 UNL A   1      15.064  46.983   0.466  1.00  0.00    +0.000 H 
ENDROOT
BRANCH   28   27
ATOM    131  H34 UNL A   1      11.959  55.344   4.867  1.00  0.00    +0.000 H 
ATOM    132  H35 UNL A   1      11.033  56.953   6.425  1.00  0.00    +0.000 H 
ATOM     27  C20 UNL A   1      13.579  54.785   6.107  1.00  0.00    +0.000 C 
ATOM     85  C59 UNL A   1      12.410  55.491   5.783  1.00  0.00    +0.000 C 
ATOM     86  C60 UNL A   1      11.855  56.390   6.691  1.00  0.00    +0.000 C 
ATOM    119  H22 UNL A   1      14.046  56.006   9.203  1.00  0.00    +0.000 H 
ATOM     24  C17 UNL A   1      12.417  56.527   7.964  1.00  0.00    +0.000 C 
ATOM     25  C18 UNL A   1      13.605  55.864   8.282  1.00  0.00    +0.000 C 
ATOM     26  C19 UNL A   1      14.193  55.005   7.350  1.00  0.00    +0.000 C 
ATOM    120  H23 UNL A   1      15.081  54.532   7.575  1.00  0.00    +0.000 H 
BRANCH   24   22
ATOM     22  C16 UNL A   1      11.781  57.386   8.986  1.00  0.00    +0.000 C 
ATOM     23  O4  UNL A   1      12.043  58.585   9.021  1.00  0.00    +0.000 O 
BRANCH   22   21
ATOM     21  N3  UNL A   1      10.910  56.842   9.896  1.00  0.00    +0.000 N 
ATOM    118  H21 UNL A   1      10.203  56.273   9.515  1.00  0.00    +0.000 H 
BRANCH   21   20
ATOM    116  H19 UNL A   1      11.674  57.642  11.641  1.00  0.00    +0.000 H 
ATOM     20  C15 UNL A   1      10.882  56.986  11.345  1.00  0.00    +0.000 C 
ATOM    117  H20 UNL A   1       9.927  57.382  11.618  1.00  0.00    +0.000 H 
BRANCH   20   19
ATOM    114  H17 UNL A   1      11.592  55.824  12.969  1.00  0.00    +0.000 H 
ATOM     19  C14 UNL A   1      11.059  55.648  12.059  1.00  0.00    +0.000 C 
ATOM    115  H18 UNL A   1      10.075  55.257  12.215  1.00  0.00    +0.000 H 
BRANCH   19   18
ATOM    113  H16 UNL A   1      12.335  55.120  10.480  1.00  0.00    +0.000 H 
ATOM     18  C13 UNL A   1      11.822  54.591  11.255  1.00  0.00    +0.000 C 
ATOM    112  H15 UNL A   1      11.112  53.878  10.890  1.00  0.00    +0.000 H 
BRANCH   18   17
ATOM     17  C12 UNL A   1      12.900  53.827  12.035  1.00  0.00    +0.000 C 
ATOM    110  H13 UNL A   1      12.956  54.245  13.018  1.00  0.00    +0.000 H 
ATOM    111  H14 UNL A   1      12.602  52.800  12.024  1.00  0.00    +0.000 H 
BRANCH   17   16
ATOM    108  H11 UNL A   1      14.373  54.737  10.794  1.00  0.00    +0.000 H 
ATOM    109  H12 UNL A   1      15.002  53.899  12.230  1.00  0.00    +0.000 H 
ATOM     16  C11 UNL A   1      14.305  53.871  11.419  1.00  0.00    +0.000 C 
BRANCH   16   15
ATOM    106  H9  UNL A   1      13.755  52.297  10.087  1.00  0.00    +0.000 H 
ATOM    107  H10 UNL A   1      15.390  52.911   9.862  1.00  0.00    +0.000 H 
ATOM     15  C10 UNL A   1      14.643  52.638  10.578  1.00  0.00    +0.000 C 
BRANCH   15   14
ATOM    105  H8  UNL A   1      14.680  51.399  12.242  1.00  0.00    +0.000 H 
ATOM     14  N2  UNL A   1      15.167  51.569  11.403  1.00  0.00    +0.000 N 
BRANCH   14   12
ATOM     12  C9  UNL A   1      16.247  50.764  11.173  1.00  0.00    +0.000 C 
ATOM     13  O3  UNL A   1      17.360  51.291  11.099  1.00  0.00    +0.000 O 
BRANCH   12   11
ATOM     11  C8  UNL A   1      16.058  49.282  10.907  1.00  0.00    +0.000 C 
ATOM    103  H6  UNL A   1      16.916  48.917  10.381  1.00  0.00    +0.000 H 
ATOM    104  H7  UNL A   1      15.940  48.795  11.853  1.00  0.00    +0.000 H 
BRANCH   11   10
ATOM      7  C6  UNL A   1      12.938  48.440   9.119  1.00  0.00    +0.000 C 
ATOM      8  N1  UNL A   1      13.801  48.733   8.135  1.00  0.00    +0.000 N 
ATOM      9  O2  UNL A   1      14.980  49.101   8.752  1.00  0.00    +0.000 O 
ATOM     10  C7  UNL A   1      14.848  48.997  10.101  1.00  0.00    +0.000 C 
ATOM     87  C61 UNL A   1      13.554  48.614  10.396  1.00  0.00    +0.000 C 
BRANCH    7    6
ATOM     97  C70 UNL A   1       9.317  48.401   8.078  1.00  0.00    +0.000 C 
ATOM      3  C2  UNL A   1       8.923  47.134   8.504  1.00  0.00    +0.000 C 
ATOM      4  C3  UNL A   1       9.864  46.281   9.087  1.00  0.00    +0.000 C 
ATOM    101  H4  UNL A   1       9.576  45.342   9.403  1.00  0.00    +0.000 H 
ATOM      5  C4  UNL A   1      11.191  46.687   9.247  1.00  0.00    +0.000 C 
ATOM    102  H5  UNL A   1      11.881  46.043   9.664  1.00  0.00    +0.000 H 
ATOM      6  C5  UNL A   1      11.587  47.967   8.842  1.00  0.00    +0.000 C 
ATOM    140  H43 UNL A   1      10.931  49.752   7.924  1.00  0.00    +0.000 H 
ATOM    141  H44 UNL A   1       8.631  49.035   7.641  1.00  0.00    +0.000 H 
ATOM     96  C69 UNL A   1      10.644  48.814   8.244  1.00  0.00    +0.000 C 
BRANCH    3    2
ATOM      2  O1  UNL A   1       7.655  46.625   8.429  1.00  0.00    +0.000 O 
BRANCH    2    1
ATOM      1  C1  UNL A   1       6.979  46.784   7.188  1.00  0.00    +0.000 C 
ATOM     98  H1  UNL A   1       5.922  46.785   7.355  1.00  0.00    +0.000 H 
ATOM     99  H2  UNL A   1       7.235  45.976   6.536  1.00  0.00    +0.000 H 
ATOM    100  H3  UNL A   1       7.270  47.711   6.740  1.00  0.00    +0.000 H 
ENDBRANCH    2    1
ENDBRANCH    3    2
ENDBRANCH    7    6
BRANCH   87   88
ATOM    133  H36 UNL A   1      12.829  50.346  12.277  1.00  0.00    +0.000 H 
ATOM    134  H37 UNL A   1      11.995  49.881  14.501  1.00  0.00    +0.000 H 
ATOM    138  H41 UNL A   1      12.322  45.759  13.777  1.00  0.00    +0.000 H 
ATOM    139  H42 UNL A   1      13.167  46.218  11.547  1.00  0.00    +0.000 H 
ATOM     88  C62 UNL A   1      13.056  48.319  11.727  1.00  0.00    +0.000 C 
ATOM     89  C63 UNL A   1      12.721  49.369  12.591  1.00  0.00    +0.000 C 
ATOM     90  C64 UNL A   1      12.241  49.099  13.873  1.00  0.00    +0.000 C 
ATOM     91  C65 UNL A   1      12.089  47.785  14.314  1.00  0.00    +0.000 C 
ATOM     94  C67 UNL A   1      12.429  46.734  13.459  1.00  0.00    +0.000 C 
ATOM     95  C68 UNL A   1      12.914  47.001  12.171  1.00  0.00    +0.000 C 
BRANCH   91   92
ATOM     92  O5  UNL A   1      11.607  47.667  15.587  1.00  0.00    +0.000 O 
BRANCH   92   93
ATOM    137  H40 UNL A   1       9.987  48.902  15.752  1.00  0.00    +0.000 H 
ATOM     93  C66 UNL A   1      10.977  48.810  16.149  1.00  0.00    +0.000 C 
ATOM    135  H38 UNL A   1      11.542  49.684  15.904  1.00  0.00    +0.000 H 
ATOM    136  H39 UNL A   1      10.926  48.703  17.212  1.00  0.00    +0.000 H 
ENDBRANCH   92   93
ENDBRANCH   91   92
ENDBRANCH   87   88
ENDBRANCH   11   10
ENDBRANCH   12   11
ENDBRANCH   14   12
ENDBRANCH   15   14
ENDBRANCH   16   15
ENDBRANCH   17   16
ENDBRANCH   18   17
ENDBRANCH   19   18
ENDBRANCH   20   19
ENDBRANCH   21   20
ENDBRANCH   22   21
ENDBRANCH   24   22
ENDBRANCH   28   27
BRANCH   32   33
ATOM     33  C25 UNL A   1      17.927  55.412   0.722  1.00  0.00    +0.000 C 
ATOM     34  C26 UNL A   1      19.166  55.790   1.263  1.00  0.00    +0.000 C 
ATOM     35  F1  UNL A   1      19.659  55.146   2.332  1.00  0.00    +0.000 F 
ATOM     36  C27 UNL A   1      19.887  56.853   0.727  1.00  0.00    +0.000 C 
ATOM     37  F2  UNL A   1      21.049  57.221   1.286  1.00  0.00    +0.000 F 
ATOM     38  C28 UNL A   1      19.402  57.539  -0.377  1.00  0.00    +0.000 C 
ATOM     39  F3  UNL A   1      20.102  58.557  -0.896  1.00  0.00    +0.000 F 
ATOM     40  C29 UNL A   1      18.189  57.170  -0.939  1.00  0.00    +0.000 C 
ATOM     41  F4  UNL A   1      17.724  57.824  -2.013  1.00  0.00    +0.000 F 
ATOM     42  C30 UNL A   1      17.452  56.124  -0.390  1.00  0.00    +0.000 C 
ATOM     43  F5  UNL A   1      16.277  55.800  -0.949  1.00  0.00    +0.000 F 
ENDBRANCH   32   33
BRANCH   49   50
ATOM     50  C36 UNL A   1      16.678  48.512  -0.911  1.00  0.00    +0.000 C 
ATOM     51  C37 UNL A   1      15.849  48.238  -2.009  1.00  0.00    +0.000 C 
ATOM     52  F6  UNL A   1      14.639  48.809  -2.099  1.00  0.00    +0.000 F 
ATOM     53  C38 UNL A   1      16.252  47.350  -3.003  1.00  0.00    +0.000 C 
ATOM     54  F7  UNL A   1      15.430  47.076  -4.025  1.00  0.00    +0.000 F 
ATOM     55  C39 UNL A   1      17.496  46.743  -2.933  1.00  0.00    +0.000 C 
ATOM     56  F8  UNL A   1      17.886  45.897  -3.897  1.00  0.00    +0.000 F 
ATOM     57  C40 UNL A   1      18.335  47.008  -1.861  1.00  0.00    +0.000 C 
ATOM     58  F9  UNL A   1      19.543  46.428  -1.798  1.00  0.00    +0.000 F 
ATOM     59  C41 UNL A   1      17.927  47.875  -0.852  1.00  0.00    +0.000 C 
ATOM     60  F10 UNL A   1      18.756  48.107   0.176  1.00  0.00    +0.000 F 
ENDBRANCH   49   50
BRANCH   64   65
ATOM     65  C45 UNL A   1      12.369  48.061   4.541  1.00  0.00    +0.000 C 
ATOM     66  C46 UNL A   1      10.996  48.033   4.265  1.00  0.00    +0.000 C 
ATOM     67  F11 UNL A   1      10.441  49.011   3.534  1.00  0.00    +0.000 F 
ATOM     68  C47 UNL A   1      10.180  47.024   4.771  1.00  0.00    +0.000 C 
ATOM     69  F12 UNL A   1       8.863  47.042   4.524  1.00  0.00    +0.000 F 
ATOM     70  C48 UNL A   1      10.728  46.007   5.540  1.00  0.00    +0.000 C 
ATOM     71  F13 UNL A   1       9.944  45.033   6.022  1.00  0.00    +0.000 F 
ATOM     72  C49 UNL A   1      12.087  46.006   5.815  1.00  0.00    +0.000 C 
ATOM     73  F14 UNL A   1      12.621  45.020   6.548  1.00  0.00    +0.000 F 
ATOM     74  C50 UNL A   1      12.899  47.028   5.329  1.00  0.00    +0.000 C 
ATOM     75  F15 UNL A   1      14.208  47.010   5.619  1.00  0.00    +0.000 F 
ENDBRANCH   64   65
TORSDOF 22
ENDMDL
MODEL 10
REMARK VINA RESULT:      -7.8     36.908     41.554
ROOT
ATOM    129  H32 UNL A   1      47.901  29.806  25.692  1.00  0.00    +0.000 H 
ATOM    130  H33 UNL A   1      47.263  31.849  27.100  1.00  0.00    +0.000 H 
ATOM     28  C21 UNL A   1      44.714  31.627  28.349  1.00  0.00    +0.000 C 
ATOM     29  C22 UNL A   1      45.438  30.580  27.552  1.00  0.00    +0.000 C 
ATOM     30  N4  UNL A   1      45.069  29.358  27.261  1.00  0.00    +0.000 N 
ATOM     31  C23 UNL A   1      46.081  28.838  26.466  1.00  0.00    +0.000 C 
ATOM     32  C24 UNL A   1      46.189  27.591  25.949  1.00  0.00    +0.000 C 
ATOM     44  C31 UNL A   1      45.227  26.540  26.155  1.00  0.00    +0.000 C 
ATOM     45  C32 UNL A   1      45.287  25.221  25.739  1.00  0.00    +0.000 C 
ATOM     46  C33 UNL A   1      44.103  24.586  26.128  1.00  0.00    +0.000 C 
ATOM     47  C34 UNL A   1      43.322  25.498  26.820  1.00  0.00    +0.000 C 
ATOM     48  N5  UNL A   1      44.027  26.692  26.833  1.00  0.00    +0.000 N 
ATOM     49  C35 UNL A   1      42.026  25.302  27.416  1.00  0.00    +0.000 C 
ATOM     61  C42 UNL A   1      41.352  26.231  28.135  1.00  0.00    +0.000 C 
ATOM     62  N6  UNL A   1      41.726  27.531  28.446  1.00  0.00    +0.000 N 
ATOM     63  C43 UNL A   1      40.738  28.031  29.147  1.00  0.00    +0.000 C 
ATOM     64  C44 UNL A   1      40.605  29.400  29.755  1.00  0.00    +0.000 C 
ATOM     76  C51 UNL A   1      41.608  30.287  29.609  1.00  0.00    +0.000 C 
ATOM     77  C52 UNL A   1      41.608  31.655  30.121  1.00  0.00    +0.000 C 
ATOM     78  C53 UNL A   1      42.725  32.276  29.709  1.00  0.00    +0.000 C 
ATOM     79  C54 UNL A   1      43.539  31.335  28.938  1.00  0.00    +0.000 C 
ATOM     80  N7  UNL A   1      42.812  30.171  28.959  1.00  0.00    +0.000 N 
ATOM     81  C55 UNL A   1      39.613  27.106  29.346  1.00  0.00    +0.000 C 
ATOM     82  C56 UNL A   1      40.053  26.014  28.735  1.00  0.00    +0.000 C 
ATOM     83  C57 UNL A   1      47.061  29.887  26.286  1.00  0.00    +0.000 C 
ATOM     84  C58 UNL A   1      46.739  30.967  26.985  1.00  0.00    +0.000 C 
ATOM    121  H24 UNL A   1      46.071  24.782  25.230  1.00  0.00    +0.000 H 
ATOM    122  H25 UNL A   1      43.853  23.604  25.933  1.00  0.00    +0.000 H 
ATOM    123  H26 UNL A   1      43.720  27.524  27.261  1.00  0.00    +0.000 H 
ATOM    124  H27 UNL A   1      40.869  32.075  30.705  1.00  0.00    +0.000 H 
ATOM    125  H28 UNL A   1      42.969  33.259  29.905  1.00  0.00    +0.000 H 
ATOM    126  H29 UNL A   1      43.125  29.332  28.547  1.00  0.00    +0.000 H 
ATOM    127  H30 UNL A   1      38.717  27.265  29.833  1.00  0.00    +0.000 H 
ATOM    128  H31 UNL A   1      39.534  25.123  28.693  1.00  0.00    +0.000 H 
ENDROOT
BRANCH   28   27
ATOM    131  H34 UNL A   1      44.207  33.660  26.691  1.00  0.00    +0.000 H 
ATOM    132  H35 UNL A   1      45.053  35.930  26.765  1.00  0.00    +0.000 H 
ATOM     27  C20 UNL A   1      45.244  33.011  28.417  1.00  0.00    +0.000 C 
ATOM     85  C59 UNL A   1      44.843  33.947  27.451  1.00  0.00    +0.000 C 
ATOM     86  C60 UNL A   1      45.299  35.262  27.512  1.00  0.00    +0.000 C 
ATOM    119  H22 UNL A   1      47.161  35.036  30.294  1.00  0.00    +0.000 H 
ATOM     24  C17 UNL A   1      46.092  35.673  28.587  1.00  0.00    +0.000 C 
ATOM     25  C18 UNL A   1      46.534  34.741  29.531  1.00  0.00    +0.000 C 
ATOM     26  C19 UNL A   1      46.122  33.409  29.438  1.00  0.00    +0.000 C 
ATOM    120  H23 UNL A   1      46.464  32.716  30.120  1.00  0.00    +0.000 H 
BRANCH   24   22
ATOM     22  C16 UNL A   1      46.492  37.088  28.737  1.00  0.00    +0.000 C 
ATOM     23  O4  UNL A   1      47.684  37.384  28.755  1.00  0.00    +0.000 O 
BRANCH   22   21
ATOM     21  N3  UNL A   1      45.536  38.064  28.867  1.00  0.00    +0.000 N 
ATOM    118  H21 UNL A   1      44.943  37.972  29.647  1.00  0.00    +0.000 H 
BRANCH   21   20
ATOM    116  H19 UNL A   1      45.020  40.051  28.635  1.00  0.00    +0.000 H 
ATOM     20  C15 UNL A   1      45.274  39.216  28.016  1.00  0.00    +0.000 C 
ATOM    117  H20 UNL A   1      46.156  39.410  27.443  1.00  0.00    +0.000 H 
BRANCH   20   19
ATOM    114  H17 UNL A   1      44.476  38.290  26.284  1.00  0.00    +0.000 H 
ATOM     19  C14 UNL A   1      44.127  38.960  27.041  1.00  0.00    +0.000 C 
ATOM    115  H18 UNL A   1      43.322  38.560  27.620  1.00  0.00    +0.000 H 
BRANCH   19   18
ATOM    113  H16 UNL A   1      43.747  40.075  25.305  1.00  0.00    +0.000 H 
ATOM     18  C13 UNL A   1      43.582  40.215  26.352  1.00  0.00    +0.000 C 
ATOM    112  H15 UNL A   1      44.094  41.063  26.757  1.00  0.00    +0.000 H 
BRANCH   18   17
ATOM     17  C12 UNL A   1      42.075  40.450  26.517  1.00  0.00    +0.000 C 
ATOM    110  H13 UNL A   1      41.610  39.504  26.702  1.00  0.00    +0.000 H 
ATOM    111  H14 UNL A   1      41.969  41.142  27.326  1.00  0.00    +0.000 H 
BRANCH   17   16
ATOM    108  H11 UNL A   1      41.035  40.316  24.663  1.00  0.00    +0.000 H 
ATOM    109  H12 UNL A   1      40.577  41.690  25.693  1.00  0.00    +0.000 H 
ATOM     16  C11 UNL A   1      41.379  41.095  25.310  1.00  0.00    +0.000 C 
BRANCH   16   15
ATOM    106  H9  UNL A   1      42.013  43.042  24.710  1.00  0.00    +0.000 H 
ATOM    107  H10 UNL A   1      43.301  41.846  24.796  1.00  0.00    +0.000 H 
ATOM     15  C10 UNL A   1      42.288  42.028  24.507  1.00  0.00    +0.000 C 
BRANCH   15   14
ATOM    105  H8  UNL A   1      42.122  40.835  22.817  1.00  0.00    +0.000 H 
ATOM     14  N2  UNL A   1      42.164  41.781  23.084  1.00  0.00    +0.000 N 
BRANCH   14   12
ATOM     12  C9  UNL A   1      42.100  42.688  22.063  1.00  0.00    +0.000 C 
ATOM     13  O3  UNL A   1      41.681  43.820  22.317  1.00  0.00    +0.000 O 
BRANCH   12   11
ATOM     11  C8  UNL A   1      42.429  42.270  20.642  1.00  0.00    +0.000 C 
ATOM    103  H6  UNL A   1      43.402  41.823  20.634  1.00  0.00    +0.000 H 
ATOM    104  H7  UNL A   1      41.676  41.579  20.325  1.00  0.00    +0.000 H 
BRANCH   11   10
ATOM      7  C6  UNL A   1      42.625  45.213  18.418  1.00  0.00    +0.000 C 
ATOM      8  N1  UNL A   1      41.383  44.747  18.224  1.00  0.00    +0.000 N 
ATOM      9  O2  UNL A   1      41.268  43.613  19.002  1.00  0.00    +0.000 O 
ATOM     10  C7  UNL A   1      42.420  43.410  19.695  1.00  0.00    +0.000 C 
ATOM     87  C61 UNL A   1      43.336  44.379  19.335  1.00  0.00    +0.000 C 
BRANCH    7    6
ATOM     97  C70 UNL A   1      44.912  47.766  16.855  1.00  0.00    +0.000 C 
ATOM      3  C2  UNL A   1      44.065  48.870  16.758  1.00  0.00    +0.000 C 
ATOM      4  C3  UNL A   1      42.733  48.751  17.162  1.00  0.00    +0.000 C 
ATOM    101  H4  UNL A   1      42.103  49.566  17.091  1.00  0.00    +0.000 H 
ATOM      5  C4  UNL A   1      42.245  47.541  17.662  1.00  0.00    +0.000 C 
ATOM    102  H5  UNL A   1      41.254  47.461  17.942  1.00  0.00    +0.000 H 
ATOM      6  C5  UNL A   1      43.096  46.438  17.783  1.00  0.00    +0.000 C 
ATOM    140  H43 UNL A   1      45.059  45.741  17.430  1.00  0.00    +0.000 H 
ATOM    141  H44 UNL A   1      45.895  47.843  16.553  1.00  0.00    +0.000 H 
ATOM     96  C69 UNL A   1      44.428  46.556  17.363  1.00  0.00    +0.000 C 
BRANCH    3    2
ATOM      2  O1  UNL A   1      44.422  50.113  16.312  1.00  0.00    +0.000 O 
BRANCH    2    1
ATOM      1  C1  UNL A   1      45.074  50.961  17.249  1.00  0.00    +0.000 C 
ATOM     98  H1  UNL A   1      44.341  51.491  17.821  1.00  0.00    +0.000 H 
ATOM     99  H2  UNL A   1      45.693  51.661  16.728  1.00  0.00    +0.000 H 
ATOM    100  H3  UNL A   1      45.678  50.369  17.905  1.00  0.00    +0.000 H 
ENDBRANCH    2    1
ENDBRANCH    3    2
ENDBRANCH    7    6
BRANCH   87   88
ATOM    133  H36 UNL A   1      45.559  43.059  18.722  1.00  0.00    +0.000 H 
ATOM    134  H37 UNL A   1      47.765  43.308  19.686  1.00  0.00    +0.000 H 
ATOM    138  H41 UNL A   1      46.319  46.297  22.254  1.00  0.00    +0.000 H 
ATOM    139  H42 UNL A   1      44.102  46.046  21.296  1.00  0.00    +0.000 H 
ATOM     88  C62 UNL A   1      44.652  44.540  19.924  1.00  0.00    +0.000 C 
ATOM     89  C63 UNL A   1      45.717  43.750  19.471  1.00  0.00    +0.000 C 
ATOM     90  C64 UNL A   1      46.987  43.894  20.029  1.00  0.00    +0.000 C 
ATOM     91  C65 UNL A   1      47.218  44.824  21.042  1.00  0.00    +0.000 C 
ATOM     94  C67 UNL A   1      46.158  45.609  21.503  1.00  0.00    +0.000 C 
ATOM     95  C68 UNL A   1      44.880  45.465  20.947  1.00  0.00    +0.000 C 
BRANCH   91   92
ATOM     92  O5  UNL A   1      48.507  44.863  21.493  1.00  0.00    +0.000 O 
BRANCH   92   93
ATOM    137  H40 UNL A   1      49.521  44.293  23.174  1.00  0.00    +0.000 H 
ATOM     93  C66 UNL A   1      48.899  43.859  22.419  1.00  0.00    +0.000 C 
ATOM    135  H38 UNL A   1      49.442  43.094  21.907  1.00  0.00    +0.000 H 
ATOM    136  H39 UNL A   1      48.029  43.435  22.876  1.00  0.00    +0.000 H 
ENDBRANCH   92   93
ENDBRANCH   91   92
ENDBRANCH   87   88
ENDBRANCH   11   10
ENDBRANCH   12   11
ENDBRANCH   14   12
ENDBRANCH   15   14
ENDBRANCH   16   15
ENDBRANCH   17   16
ENDBRANCH   18   17
ENDBRANCH   19   18
ENDBRANCH   20   19
ENDBRANCH   21   20
ENDBRANCH   22   21
ENDBRANCH   24   22
ENDBRANCH   28   27
BRANCH   32   33
ATOM     33  C25 UNL A   1      47.394  27.290  25.108  1.00  0.00    +0.000 C 
ATOM     34  C26 UNL A   1      47.462  27.674  23.760  1.00  0.00    +0.000 C 
ATOM     35  F1  UNL A   1      46.418  28.281  23.178  1.00  0.00    +0.000 F 
ATOM     36  C27 UNL A   1      48.595  27.405  22.996  1.00  0.00    +0.000 C 
ATOM     37  F2  UNL A   1      48.622  27.745  21.700  1.00  0.00    +0.000 F 
ATOM     38  C28 UNL A   1      49.690  26.776  23.570  1.00  0.00    +0.000 C 
ATOM     39  F3  UNL A   1      50.782  26.525  22.835  1.00  0.00    +0.000 F 
ATOM     40  C29 UNL A   1      49.650  26.405  24.906  1.00  0.00    +0.000 C 
ATOM     41  F4  UNL A   1      50.712  25.808  25.466  1.00  0.00    +0.000 F 
ATOM     42  C30 UNL A   1      48.510  26.649  25.667  1.00  0.00    +0.000 C 
ATOM     43  F5  UNL A   1      48.498  26.267  26.952  1.00  0.00    +0.000 F 
ENDBRANCH   32   33
BRANCH   49   50
ATOM     50  C36 UNL A   1      41.375  23.963  27.243  1.00  0.00    +0.000 C 
ATOM     51  C37 UNL A   1      40.222  23.809  26.459  1.00  0.00    +0.000 C 
ATOM     52  F6  UNL A   1      39.639  24.879  25.899  1.00  0.00    +0.000 F 
ATOM     53  C38 UNL A   1      39.647  22.555  26.276  1.00  0.00    +0.000 C 
ATOM     54  F7  UNL A   1      38.525  22.434  25.552  1.00  0.00    +0.000 F 
ATOM     55  C39 UNL A   1      40.227  21.432  26.846  1.00  0.00    +0.000 C 
ATOM     56  F8  UNL A   1      39.677  20.224  26.660  1.00  0.00    +0.000 F 
ATOM     57  C40 UNL A   1      41.372  21.561  27.617  1.00  0.00    +0.000 C 
ATOM     58  F9  UNL A   1      41.939  20.474  28.161  1.00  0.00    +0.000 F 
ATOM     59  C41 UNL A   1      41.937  22.816  27.823  1.00  0.00    +0.000 C 
ATOM     60  F10 UNL A   1      43.041  22.912  28.579  1.00  0.00    +0.000 F 
ENDBRANCH   49   50
BRANCH   64   65
ATOM     65  C45 UNL A   1      39.390  29.778  30.520  1.00  0.00    +0.000 C 
ATOM     66  C46 UNL A   1      39.344  29.628  31.912  1.00  0.00    +0.000 C 
ATOM     67  F11 UNL A   1      40.396  29.112  32.564  1.00  0.00    +0.000 F 
ATOM     68  C47 UNL A   1      38.204  29.971  32.635  1.00  0.00    +0.000 C 
ATOM     69  F12 UNL A   1      38.172  29.782  33.961  1.00  0.00    +0.000 F 
ATOM     70  C48 UNL A   1      37.098  30.496  31.982  1.00  0.00    +0.000 C 
ATOM     71  F13 UNL A   1      36.003  30.832  32.679  1.00  0.00    +0.000 F 
ATOM     72  C49 UNL A   1      37.126  30.666  30.606  1.00  0.00    +0.000 C 
ATOM     73  F14 UNL A   1      36.063  31.183  29.974  1.00  0.00    +0.000 F 
ATOM     74  C50 UNL A   1      38.256  30.300  29.879  1.00  0.00    +0.000 C 
ATOM     75  F15 UNL A   1      38.253  30.464  28.548  1.00  0.00    +0.000 F 
ENDBRANCH   64   65
TORSDOF 22
ENDMDL
