MODEL 1
REMARK VINA RESULT:     -10.9      0.000      0.000
ROOT
ATOM     28  C20 UNL A   1      38.285  30.269  29.764  1.00  0.00    +0.000 C 
ATOM     29  C21 UNL A   1      38.522  30.719  31.182  1.00  0.00    +0.000 C 
ATOM     30  N4  UNL A   1      39.506  30.415  31.991  1.00  0.00    +0.000 N 
ATOM     31  C22 UNL A   1      39.255  31.104  33.170  1.00  0.00    +0.000 C 
ATOM     32  C23 UNL A   1      39.966  31.093  34.323  1.00  0.00    +0.000 C 
ATOM     44  C30 UNL A   1      41.159  30.318  34.538  1.00  0.00    +0.000 C 
ATOM     45  C31 UNL A   1      41.935  30.229  35.683  1.00  0.00    +0.000 C 
ATOM     46  C32 UNL A   1      43.010  29.375  35.417  1.00  0.00    +0.000 C 
ATOM     47  C33 UNL A   1      42.884  28.904  34.121  1.00  0.00    +0.000 C 
ATOM     48  N5  UNL A   1      41.747  29.493  33.592  1.00  0.00    +0.000 N 
ATOM     49  C34 UNL A   1      43.740  27.988  33.412  1.00  0.00    +0.000 C 
ATOM     61  C41 UNL A   1      43.526  27.541  32.152  1.00  0.00    +0.000 C 
ATOM     62  N6  UNL A   1      42.490  27.853  31.283  1.00  0.00    +0.000 N 
ATOM     63  C42 UNL A   1      42.739  27.196  30.178  1.00  0.00    +0.000 C 
ATOM     64  C43 UNL A   1      41.948  27.160  28.901  1.00  0.00    +0.000 C 
ATOM     76  C50 UNL A   1      40.857  27.938  28.777  1.00  0.00    +0.000 C 
ATOM     77  C51 UNL A   1      40.002  28.009  27.595  1.00  0.00    +0.000 C 
ATOM     78  C52 UNL A   1      39.020  28.896  27.817  1.00  0.00    +0.000 C 
ATOM     79  C53 UNL A   1      39.148  29.418  29.178  1.00  0.00    +0.000 C 
ATOM     80  N7  UNL A   1      40.286  28.820  29.660  1.00  0.00    +0.000 N 
ATOM     81  C54 UNL A   1      43.967  26.389  30.220  1.00  0.00    +0.000 C 
ATOM     82  C55 UNL A   1      44.393  26.614  31.455  1.00  0.00    +0.000 C 
ATOM     83  C56 UNL A   1      38.041  31.863  32.967  1.00  0.00    +0.000 C 
ATOM     84  C57 UNL A   1      37.523  31.627  31.768  1.00  0.00    +0.000 C 
ATOM    109  H23 UNL A   1      41.751  30.710  36.577  1.00  0.00    +0.000 H 
ATOM    110  H24 UNL A   1      43.768  29.136  36.075  1.00  0.00    +0.000 H 
ATOM    111  H25 UNL A   1      41.406  29.348  32.680  1.00  0.00    +0.000 H 
ATOM    112  H26 UNL A   1      40.132  27.464  26.728  1.00  0.00    +0.000 H 
ATOM    113  H27 UNL A   1      38.293  29.167  27.137  1.00  0.00    +0.000 H 
ATOM    114  H28 UNL A   1      40.657  29.006  30.553  1.00  0.00    +0.000 H 
ATOM    115  H29 UNL A   1      44.386  25.802  29.482  1.00  0.00    +0.000 H 
ATOM    116  H30 UNL A   1      45.236  26.184  31.867  1.00  0.00    +0.000 H 
ATOM    117  H31 UNL A   1      37.630  32.504  33.663  1.00  0.00    +0.000 H 
ATOM    118  H32 UNL A   1      36.649  31.987  31.356  1.00  0.00    +0.000 H 
ENDROOT
BRANCH   28   27
ATOM     27  C19 UNL A   1      37.066  30.696  29.028  1.00  0.00    +0.000 C 
ATOM    107  H21 UNL A   1      34.145  29.454  27.923  1.00  0.00    +0.000 H 
ATOM    108  H22 UNL A   1      36.166  28.782  29.078  1.00  0.00    +0.000 H 
ATOM     85  C58 UNL A   1      36.900  32.021  28.594  1.00  0.00    +0.000 C 
ATOM     86  C59 UNL A   1      35.686  32.430  28.034  1.00  0.00    +0.000 C 
ATOM    120  H34 UNL A   1      35.555  33.412  27.746  1.00  0.00    +0.000 H 
ATOM     24  C16 UNL A   1      34.652  31.504  27.867  1.00  0.00    +0.000 C 
ATOM     25  C17 UNL A   1      34.861  30.157  28.165  1.00  0.00    +0.000 C 
ATOM     26  C18 UNL A   1      36.042  29.765  28.788  1.00  0.00    +0.000 C 
ATOM    119  H33 UNL A   1      37.676  32.694  28.690  1.00  0.00    +0.000 H 
BRANCH   24   22
ATOM     22  C15 UNL A   1      33.327  31.983  27.414  1.00  0.00    +0.000 C 
ATOM     23  O3  UNL A   1      33.074  33.185  27.426  1.00  0.00    +0.000 O 
BRANCH   22   21
ATOM    106  H20 UNL A   1      31.571  31.027  27.602  1.00  0.00    +0.000 H 
ATOM     21  N3  UNL A   1      32.369  31.073  27.029  1.00  0.00    +0.000 N 
BRANCH   21   20
ATOM    105  H19 UNL A   1      33.389  29.869  25.727  1.00  0.00    +0.000 H 
ATOM     20  C14 UNL A   1      32.375  30.169  25.888  1.00  0.00    +0.000 C 
ATOM    104  H18 UNL A   1      31.966  30.684  25.045  1.00  0.00    +0.000 H 
BRANCH   20   19
ATOM     19  C13 UNL A   1      31.562  28.899  26.120  1.00  0.00    +0.000 C 
ATOM    102  H16 UNL A   1      30.648  29.176  26.603  1.00  0.00    +0.000 H 
ATOM    103  H17 UNL A   1      31.424  28.457  25.156  1.00  0.00    +0.000 H 
BRANCH   19   18
ATOM     18  C12 UNL A   1      32.242  27.831  26.978  1.00  0.00    +0.000 C 
ATOM    100  H14 UNL A   1      33.235  28.166  27.194  1.00  0.00    +0.000 H 
ATOM    101  H15 UNL A   1      31.626  27.717  27.847  1.00  0.00    +0.000 H 
BRANCH   18   17
ATOM     17  C11 UNL A   1      32.340  26.440  26.347  1.00  0.00    +0.000 C 
ATOM     98  H12 UNL A   1      32.436  25.726  27.138  1.00  0.00    +0.000 H 
ATOM     99  H13 UNL A   1      31.452  26.323  25.762  1.00  0.00    +0.000 H 
BRANCH   17   16
ATOM     97  H11 UNL A   1      34.265  25.707  25.928  1.00  0.00    +0.000 H 
ATOM     96  H10 UNL A   1      33.824  27.185  25.020  1.00  0.00    +0.000 H 
ATOM     16  C10 UNL A   1      33.510  26.227  25.376  1.00  0.00    +0.000 C 
BRANCH   16   15
ATOM     95  H9  UNL A   1      32.150  25.118  24.178  1.00  0.00    +0.000 H 
ATOM     94  H8  UNL A   1      33.783  24.461  24.212  1.00  0.00    +0.000 H 
ATOM     15  C9  UNL A   1      33.194  25.353  24.163  1.00  0.00    +0.000 C 
BRANCH   15   14
ATOM     93  H7  UNL A   1      34.428  26.117  22.640  1.00  0.00    +0.000 H 
ATOM     14  N2  UNL A   1      33.489  26.045  22.926  1.00  0.00    +0.000 N 
BRANCH   14    2
ATOM      1  O1  UNL A   1      31.999  26.034  21.174  1.00  0.00    +0.000 O 
ATOM      2  C1  UNL A   1      32.515  26.606  22.129  1.00  0.00    +0.000 C 
BRANCH    2    3
ATOM      3  C2  UNL A   1      32.143  28.035  22.511  1.00  0.00    +0.000 C 
ATOM     87  H1  UNL A   1      32.418  28.693  21.713  1.00  0.00    +0.000 H 
ATOM     88  H2  UNL A   1      32.666  28.294  23.408  1.00  0.00    +0.000 H 
BRANCH    3    4
ATOM      4  C3  UNL A   1      30.665  28.159  22.765  1.00  0.00    +0.000 C 
ATOM      5  C4  UNL A   1      29.987  27.079  23.455  1.00  0.00    +0.000 C 
ATOM      6  C5  UNL A   1      28.665  27.125  23.666  1.00  0.00    +0.000 C 
ATOM      7  C6  UNL A   1      27.867  28.296  23.210  1.00  0.00    +0.000 C 
ATOM      8  O2  UNL A   1      26.655  28.284  23.394  1.00  0.00    +0.000 O 
ATOM      9  N1  UNL A   1      28.589  29.314  22.606  1.00  0.00    +0.000 N 
ATOM     13  C8  UNL A   1      29.954  29.234  22.385  1.00  0.00    +0.000 C 
ATOM     89  H3  UNL A   1      30.528  26.267  23.789  1.00  0.00    +0.000 H 
ATOM     90  H4  UNL A   1      28.197  26.343  24.148  1.00  0.00    +0.000 H 
ATOM     92  H6  UNL A   1      30.436  30.017  21.917  1.00  0.00    +0.000 H 
BRANCH    9   10
ATOM     10  C7  UNL A   1      27.844  30.462  22.157  1.00  0.00    +0.000 C 
ATOM     11  F1  UNL A   1      27.431  31.211  23.208  1.00  0.00    +0.000 F 
ATOM     12  F2  UNL A   1      28.596  31.248  21.350  1.00  0.00    +0.000 F 
ATOM     91  H5  UNL A   1      26.999  30.092  21.614  1.00  0.00    +0.000 H 
ENDBRANCH    9   10
ENDBRANCH    3    4
ENDBRANCH    2    3
ENDBRANCH   14    2
ENDBRANCH   15   14
ENDBRANCH   16   15
ENDBRANCH   17   16
ENDBRANCH   18   17
ENDBRANCH   19   18
ENDBRANCH   20   19
ENDBRANCH   21   20
ENDBRANCH   22   21
ENDBRANCH   24   22
ENDBRANCH   28   27
BRANCH   32   33
ATOM     33  C24 UNL A   1      39.477  31.948  35.455  1.00  0.00    +0.000 C 
ATOM     34  C25 UNL A   1      39.855  33.293  35.571  1.00  0.00    +0.000 C 
ATOM     35  F3  UNL A   1      40.730  33.826  34.706  1.00  0.00    +0.000 F 
ATOM     36  C26 UNL A   1      39.347  34.093  36.593  1.00  0.00    +0.000 C 
ATOM     37  F4  UNL A   1      39.740  35.369  36.701  1.00  0.00    +0.000 F 
ATOM     38  C27 UNL A   1      38.437  33.569  37.500  1.00  0.00    +0.000 C 
ATOM     39  F5  UNL A   1      37.939  34.345  38.473  1.00  0.00    +0.000 F 
ATOM     40  C28 UNL A   1      38.045  32.244  37.399  1.00  0.00    +0.000 C 
ATOM     41  F6  UNL A   1      37.158  31.740  38.268  1.00  0.00    +0.000 F 
ATOM     42  C29 UNL A   1      38.568  31.435  36.392  1.00  0.00    +0.000 C 
ATOM     43  F7  UNL A   1      38.171  30.156  36.320  1.00  0.00    +0.000 F 
ENDBRANCH   32   33
BRANCH   49   50
ATOM     50  C35 UNL A   1      44.958  27.483  34.125  1.00  0.00    +0.000 C 
ATOM     51  C36 UNL A   1      46.163  28.199  34.100  1.00  0.00    +0.000 C 
ATOM     52  F8  UNL A   1      46.267  29.321  33.370  1.00  0.00    +0.000 F 
ATOM     53  C37 UNL A   1      47.275  27.750  34.806  1.00  0.00    +0.000 C 
ATOM     54  F9  UNL A   1      48.427  28.433  34.746  1.00  0.00    +0.000 F 
ATOM     55  C38 UNL A   1      47.195  26.593  35.568  1.00  0.00    +0.000 C 
ATOM     56  F10 UNL A   1      48.264  26.168  36.256  1.00  0.00    +0.000 F 
ATOM     57  C39 UNL A   1      46.010  25.875  35.613  1.00  0.00    +0.000 C 
ATOM     58  F11 UNL A   1      45.930  24.763  36.357  1.00  0.00    +0.000 F 
ATOM     59  C40 UNL A   1      44.903  26.310  34.891  1.00  0.00    +0.000 C 
ATOM     60  F12 UNL A   1      43.769  25.593  34.951  1.00  0.00    +0.000 F 
ENDBRANCH   49   50
BRANCH   64   65
ATOM     65  C44 UNL A   1      42.350  26.278  27.777  1.00  0.00    +0.000 C 
ATOM     66  C45 UNL A   1      41.786  25.005  27.629  1.00  0.00    +0.000 C 
ATOM     67  F13 UNL A   1      40.910  24.549  28.536  1.00  0.00    +0.000 F 
ATOM     68  C46 UNL A   1      42.139  24.185  26.559  1.00  0.00    +0.000 C 
ATOM     69  F14 UNL A   1      41.604  22.960  26.451  1.00  0.00    +0.000 F 
ATOM     70  C47 UNL A   1      43.044  24.631  25.608  1.00  0.00    +0.000 C 
ATOM     71  F15 UNL A   1      43.370  23.848  24.571  1.00  0.00    +0.000 F 
ATOM     72  C48 UNL A   1      43.612  25.891  25.733  1.00  0.00    +0.000 C 
ATOM     73  F16 UNL A   1      44.477  26.331  24.810  1.00  0.00    +0.000 F 
ATOM     74  C49 UNL A   1      43.279  26.701  26.815  1.00  0.00    +0.000 C 
ATOM     75  F17 UNL A   1      43.844  27.913  26.916  1.00  0.00    +0.000 F 
ENDBRANCH   64   65
TORSDOF 17
ENDMDL
MODEL 2
REMARK VINA RESULT:     -10.8      5.121     10.159
ROOT
ATOM     28  C20 UNL A   1      41.517  26.134  27.881  1.00  0.00    +0.000 C 
ATOM     29  C21 UNL A   1      42.902  26.447  27.379  1.00  0.00    +0.000 C 
ATOM     30  N4  UNL A   1      43.607  27.540  27.528  1.00  0.00    +0.000 N 
ATOM     31  C22 UNL A   1      44.816  27.304  26.888  1.00  0.00    +0.000 C 
ATOM     32  C23 UNL A   1      45.869  28.142  26.734  1.00  0.00    +0.000 C 
ATOM     44  C30 UNL A   1      45.915  29.494  27.226  1.00  0.00    +0.000 C 
ATOM     45  C31 UNL A   1      46.933  30.424  27.098  1.00  0.00    +0.000 C 
ATOM     46  C32 UNL A   1      46.542  31.594  27.757  1.00  0.00    +0.000 C 
ATOM     47  C33 UNL A   1      45.266  31.406  28.262  1.00  0.00    +0.000 C 
ATOM     48  N5  UNL A   1      44.895  30.112  27.932  1.00  0.00    +0.000 N 
ATOM     49  C34 UNL A   1      44.447  32.334  28.997  1.00  0.00    +0.000 C 
ATOM     61  C41 UNL A   1      43.186  32.088  29.424  1.00  0.00    +0.000 C 
ATOM     62  N6  UNL A   1      42.426  30.936  29.275  1.00  0.00    +0.000 N 
ATOM     63  C42 UNL A   1      41.290  31.173  29.881  1.00  0.00    +0.000 C 
ATOM     64  C43 UNL A   1      40.093  30.278  30.033  1.00  0.00    +0.000 C 
ATOM     76  C50 UNL A   1      40.147  29.017  29.564  1.00  0.00    +0.000 C 
ATOM     77  C51 UNL A   1      39.066  28.039  29.649  1.00  0.00    +0.000 C 
ATOM     78  C52 UNL A   1      39.474  26.887  29.096  1.00  0.00    +0.000 C 
ATOM     79  C53 UNL A   1      40.828  27.062  28.572  1.00  0.00    +0.000 C 
ATOM     80  N7  UNL A   1      41.161  28.346  28.926  1.00  0.00    +0.000 N 
ATOM     81  C54 UNL A   1      41.199  32.509  30.489  1.00  0.00    +0.000 C 
ATOM     82  C55 UNL A   1      42.371  33.034  30.157  1.00  0.00    +0.000 C 
ATOM     83  C56 UNL A   1      44.763  25.956  26.368  1.00  0.00    +0.000 C 
ATOM     84  C57 UNL A   1      43.585  25.396  26.607  1.00  0.00    +0.000 C 
ATOM    109  H23 UNL A   1      47.827  30.278  26.604  1.00  0.00    +0.000 H 
ATOM    110  H24 UNL A   1      47.108  32.452  27.851  1.00  0.00    +0.000 H 
ATOM    111  H25 UNL A   1      44.035  29.694  28.165  1.00  0.00    +0.000 H 
ATOM    112  H26 UNL A   1      38.138  28.207  30.066  1.00  0.00    +0.000 H 
ATOM    113  H27 UNL A   1      38.921  26.016  29.048  1.00  0.00    +0.000 H 
ATOM    114  H28 UNL A   1      42.041  28.747  28.740  1.00  0.00    +0.000 H 
ATOM    115  H29 UNL A   1      40.427  32.927  31.031  1.00  0.00    +0.000 H 
ATOM    116  H30 UNL A   1      42.665  33.995  30.392  1.00  0.00    +0.000 H 
ATOM    117  H31 UNL A   1      45.541  25.489  25.876  1.00  0.00    +0.000 H 
ATOM    118  H32 UNL A   1      43.238  24.466  26.326  1.00  0.00    +0.000 H 
ENDROOT
BRANCH   28   27
ATOM     27  C19 UNL A   1      40.870  24.835  27.557  1.00  0.00    +0.000 C 
ATOM    107  H21 UNL A   1      38.395  23.581  25.660  1.00  0.00    +0.000 H 
ATOM    108  H22 UNL A   1      39.442  25.685  26.247  1.00  0.00    +0.000 H 
ATOM     85  C58 UNL A   1      41.324  23.632  28.118  1.00  0.00    +0.000 C 
ATOM     86  C59 UNL A   1      40.795  22.412  27.689  1.00  0.00    +0.000 C 
ATOM    120  H34 UNL A   1      41.153  21.526  28.079  1.00  0.00    +0.000 H 
ATOM     24  C16 UNL A   1      39.779  22.395  26.727  1.00  0.00    +0.000 C 
ATOM     25  C17 UNL A   1      39.226  23.593  26.271  1.00  0.00    +0.000 C 
ATOM     26  C18 UNL A   1      39.802  24.804  26.645  1.00  0.00    +0.000 C 
ATOM    119  H33 UNL A   1      42.051  23.648  28.851  1.00  0.00    +0.000 H 
BRANCH   24   22
ATOM     22  C15 UNL A   1      39.336  21.097  26.173  1.00  0.00    +0.000 C 
ATOM     23  O3  UNL A   1      40.165  20.230  25.910  1.00  0.00    +0.000 O 
BRANCH   22   21
ATOM    106  H20 UNL A   1      37.427  20.767  26.702  1.00  0.00    +0.000 H 
ATOM     21  N3  UNL A   1      38.001  20.889  25.912  1.00  0.00    +0.000 N 
BRANCH   21   20
ATOM    105  H19 UNL A   1      36.771  19.907  24.606  1.00  0.00    +0.000 H 
ATOM     20  C14 UNL A   1      37.321  20.824  24.627  1.00  0.00    +0.000 C 
ATOM    104  H18 UNL A   1      38.055  20.873  23.851  1.00  0.00    +0.000 H 
BRANCH   20   19
ATOM     19  C13 UNL A   1      36.318  21.954  24.417  1.00  0.00    +0.000 C 
ATOM    102  H16 UNL A   1      36.760  22.667  23.752  1.00  0.00    +0.000 H 
ATOM    103  H17 UNL A   1      35.433  21.495  24.031  1.00  0.00    +0.000 H 
BRANCH   19   18
ATOM     18  C12 UNL A   1      35.889  22.696  25.683  1.00  0.00    +0.000 C 
ATOM    100  H14 UNL A   1      35.049  22.180  26.098  1.00  0.00    +0.000 H 
ATOM    101  H15 UNL A   1      36.749  22.706  26.322  1.00  0.00    +0.000 H 
BRANCH   18   17
ATOM     17  C11 UNL A   1      35.494  24.162  25.489  1.00  0.00    +0.000 C 
ATOM     98  H12 UNL A   1      36.171  24.764  26.058  1.00  0.00    +0.000 H 
ATOM     99  H13 UNL A   1      35.538  24.338  24.434  1.00  0.00    +0.000 H 
BRANCH   17   16
ATOM     97  H11 UNL A   1      34.152  25.406  26.523  1.00  0.00    +0.000 H 
ATOM     96  H10 UNL A   1      33.645  23.693  26.427  1.00  0.00    +0.000 H 
ATOM     16  C10 UNL A   1      34.066  24.531  25.913  1.00  0.00    +0.000 C 
BRANCH   16   15
ATOM     95  H9  UNL A   1      33.036  25.970  24.737  1.00  0.00    +0.000 H 
ATOM     94  H8  UNL A   1      32.172  24.449  24.937  1.00  0.00    +0.000 H 
ATOM     15  C9  UNL A   1      33.125  24.904  24.768  1.00  0.00    +0.000 C 
BRANCH   15   14
ATOM     93  H7  UNL A   1      34.418  24.924  23.108  1.00  0.00    +0.000 H 
ATOM     14  N2  UNL A   1      33.644  24.453  23.494  1.00  0.00    +0.000 N 
BRANCH   14    2
ATOM      1  O1  UNL A   1      33.502  23.028  21.694  1.00  0.00    +0.000 O 
ATOM      2  C1  UNL A   1      33.106  23.393  22.796  1.00  0.00    +0.000 C 
BRANCH    2    3
ATOM      3  C2  UNL A   1      31.934  22.715  23.498  1.00  0.00    +0.000 C 
ATOM     87  H1  UNL A   1      31.110  22.651  22.819  1.00  0.00    +0.000 H 
ATOM     88  H2  UNL A   1      31.669  23.297  24.356  1.00  0.00    +0.000 H 
BRANCH    3    4
ATOM      4  C3  UNL A   1      32.306  21.330  23.955  1.00  0.00    +0.000 C 
ATOM      5  C4  UNL A   1      32.670  21.132  25.344  1.00  0.00    +0.000 C 
ATOM      6  C5  UNL A   1      33.049  19.927  25.788  1.00  0.00    +0.000 C 
ATOM      7  C6  UNL A   1      33.089  18.760  24.864  1.00  0.00    +0.000 C 
ATOM      8  O2  UNL A   1      33.472  17.681  25.303  1.00  0.00    +0.000 O 
ATOM      9  N1  UNL A   1      32.677  19.011  23.564  1.00  0.00    +0.000 N 
ATOM     13  C8  UNL A   1      32.305  20.272  23.128  1.00  0.00    +0.000 C 
ATOM     89  H3  UNL A   1      32.635  21.928  26.000  1.00  0.00    +0.000 H 
ATOM     90  H4  UNL A   1      33.315  19.806  26.776  1.00  0.00    +0.000 H 
ATOM     92  H6  UNL A   1      32.022  20.401  22.144  1.00  0.00    +0.000 H 
BRANCH    9   10
ATOM     10  C7  UNL A   1      32.701  17.900  22.648  1.00  0.00    +0.000 C 
ATOM     11  F1  UNL A   1      32.292  18.282  21.414  1.00  0.00    +0.000 F 
ATOM     12  F2  UNL A   1      33.950  17.386  22.536  1.00  0.00    +0.000 F 
ATOM     91  H5  UNL A   1      32.039  17.157  23.042  1.00  0.00    +0.000 H 
ENDBRANCH    9   10
ENDBRANCH    3    4
ENDBRANCH    2    3
ENDBRANCH   14    2
ENDBRANCH   15   14
ENDBRANCH   16   15
ENDBRANCH   17   16
ENDBRANCH   18   17
ENDBRANCH   19   18
ENDBRANCH   20   19
ENDBRANCH   21   20
ENDBRANCH   22   21
ENDBRANCH   24   22
ENDBRANCH   28   27
BRANCH   32   33
ATOM     33  C24 UNL A   1      47.073  27.627  26.002  1.00  0.00    +0.000 C 
ATOM     34  C25 UNL A   1      47.192  27.754  24.610  1.00  0.00    +0.000 C 
ATOM     35  F3  UNL A   1      46.187  28.277  23.892  1.00  0.00    +0.000 F 
ATOM     36  C26 UNL A   1      48.341  27.326  23.949  1.00  0.00    +0.000 C 
ATOM     37  F4  UNL A   1      48.424  27.435  22.616  1.00  0.00    +0.000 F 
ATOM     38  C27 UNL A   1      49.397  26.786  24.667  1.00  0.00    +0.000 C 
ATOM     39  F5  UNL A   1      50.507  26.387  24.030  1.00  0.00    +0.000 F 
ATOM     40  C28 UNL A   1      49.303  26.656  26.044  1.00  0.00    +0.000 C 
ATOM     41  F6  UNL A   1      50.327  26.144  26.740  1.00  0.00    +0.000 F 
ATOM     42  C29 UNL A   1      48.147  27.063  26.706  1.00  0.00    +0.000 C 
ATOM     43  F7  UNL A   1      48.083  26.924  28.039  1.00  0.00    +0.000 F 
ENDBRANCH   32   33
BRANCH   49   50
ATOM     50  C35 UNL A   1      45.029  33.680  29.307  1.00  0.00    +0.000 C 
ATOM     51  C36 UNL A   1      45.803  33.888  30.458  1.00  0.00    +0.000 C 
ATOM     52  F8  UNL A   1      45.975  32.896  31.345  1.00  0.00    +0.000 F 
ATOM     53  C37 UNL A   1      46.382  35.128  30.713  1.00  0.00    +0.000 C 
ATOM     54  F9  UNL A   1      47.094  35.315  31.833  1.00  0.00    +0.000 F 
ATOM     55  C38 UNL A   1      46.220  36.171  29.812  1.00  0.00    +0.000 C 
ATOM     56  F10 UNL A   1      46.788  37.360  30.055  1.00  0.00    +0.000 F 
ATOM     57  C39 UNL A   1      45.465  35.983  28.665  1.00  0.00    +0.000 C 
ATOM     58  F11 UNL A   1      45.316  36.987  27.790  1.00  0.00    +0.000 F 
ATOM     59  C40 UNL A   1      44.866  34.751  28.417  1.00  0.00    +0.000 C 
ATOM     60  F12 UNL A   1      44.139  34.598  27.300  1.00  0.00    +0.000 F 
ENDBRANCH   49   50
BRANCH   64   65
ATOM     65  C44 UNL A   1      38.853  30.763  30.687  1.00  0.00    +0.000 C 
ATOM     66  C45 UNL A   1      38.694  30.677  32.076  1.00  0.00    +0.000 C 
ATOM     67  F13 UNL A   1      39.646  30.102  32.825  1.00  0.00    +0.000 F 
ATOM     68  C46 UNL A   1      37.543  31.158  32.697  1.00  0.00    +0.000 C 
ATOM     69  F14 UNL A   1      37.402  31.042  34.025  1.00  0.00    +0.000 F 
ATOM     70  C47 UNL A   1      36.543  31.755  31.944  1.00  0.00    +0.000 C 
ATOM     71  F15 UNL A   1      35.444  32.232  32.544  1.00  0.00    +0.000 F 
ATOM     72  C48 UNL A   1      36.682  31.855  30.567  1.00  0.00    +0.000 C 
ATOM     73  F16 UNL A   1      35.724  32.442  29.837  1.00  0.00    +0.000 F 
ATOM     74  C49 UNL A   1      37.820  31.351  29.942  1.00  0.00    +0.000 C 
ATOM     75  F17 UNL A   1      37.929  31.458  28.610  1.00  0.00    +0.000 F 
ENDBRANCH   64   65
TORSDOF 17
ENDMDL
MODEL 3
REMARK VINA RESULT:     -10.6      5.089     10.246
ROOT
ATOM     28  C20 UNL A   1      41.501  26.127  27.893  1.00  0.00    +0.000 C 
ATOM     29  C21 UNL A   1      42.898  26.441  27.426  1.00  0.00    +0.000 C 
ATOM     30  N4  UNL A   1      43.603  27.531  27.604  1.00  0.00    +0.000 N 
ATOM     31  C22 UNL A   1      44.826  27.298  26.988  1.00  0.00    +0.000 C 
ATOM     32  C23 UNL A   1      45.884  28.135  26.867  1.00  0.00    +0.000 C 
ATOM     44  C30 UNL A   1      45.922  29.481  27.375  1.00  0.00    +0.000 C 
ATOM     45  C31 UNL A   1      46.946  30.410  27.281  1.00  0.00    +0.000 C 
ATOM     46  C32 UNL A   1      46.543  31.574  27.943  1.00  0.00    +0.000 C 
ATOM     47  C33 UNL A   1      45.256  31.383  28.418  1.00  0.00    +0.000 C 
ATOM     48  N5  UNL A   1      44.888  30.095  28.065  1.00  0.00    +0.000 N 
ATOM     49  C34 UNL A   1      44.422  32.305  29.145  1.00  0.00    +0.000 C 
ATOM     61  C41 UNL A   1      43.151  32.058  29.541  1.00  0.00    +0.000 C 
ATOM     62  N6  UNL A   1      42.392  30.910  29.361  1.00  0.00    +0.000 N 
ATOM     63  C42 UNL A   1      41.244  31.144  29.944  1.00  0.00    +0.000 C 
ATOM     64  C43 UNL A   1      40.041  30.251  30.059  1.00  0.00    +0.000 C 
ATOM     76  C50 UNL A   1      40.102  28.995  29.577  1.00  0.00    +0.000 C 
ATOM     77  C51 UNL A   1      39.017  28.020  29.627  1.00  0.00    +0.000 C 
ATOM     78  C52 UNL A   1      39.434  26.872  29.071  1.00  0.00    +0.000 C 
ATOM     79  C53 UNL A   1      40.800  27.050  28.579  1.00  0.00    +0.000 C 
ATOM     80  N7  UNL A   1      41.128  28.329  28.955  1.00  0.00    +0.000 N 
ATOM     81  C54 UNL A   1      41.142  32.473  30.565  1.00  0.00    +0.000 C 
ATOM     82  C55 UNL A   1      42.322  32.999  30.265  1.00  0.00    +0.000 C 
ATOM     83  C56 UNL A   1      44.781  25.956  26.452  1.00  0.00    +0.000 C 
ATOM     84  C57 UNL A   1      43.596  25.397  26.659  1.00  0.00    +0.000 C 
ATOM    109  H23 UNL A   1      47.850  30.267  26.805  1.00  0.00    +0.000 H 
ATOM    110  H24 UNL A   1      47.109  32.429  28.060  1.00  0.00    +0.000 H 
ATOM    111  H25 UNL A   1      44.022  29.676  28.274  1.00  0.00    +0.000 H 
ATOM    112  H26 UNL A   1      38.080  28.185  30.025  1.00  0.00    +0.000 H 
ATOM    113  H27 UNL A   1      38.880  26.004  29.001  1.00  0.00    +0.000 H 
ATOM    114  H28 UNL A   1      42.013  28.729  28.794  1.00  0.00    +0.000 H 
ATOM    115  H29 UNL A   1      40.359  32.888  31.094  1.00  0.00    +0.000 H 
ATOM    116  H30 UNL A   1      42.614  33.956  30.518  1.00  0.00    +0.000 H 
ATOM    117  H31 UNL A   1      45.568  25.493  25.972  1.00  0.00    +0.000 H 
ATOM    118  H32 UNL A   1      43.253  24.471  26.359  1.00  0.00    +0.000 H 
ENDROOT
BRANCH   28   27
ATOM     27  C19 UNL A   1      40.859  24.834  27.541  1.00  0.00    +0.000 C 
ATOM    107  H21 UNL A   1      38.388  23.615  25.615  1.00  0.00    +0.000 H 
ATOM    108  H22 UNL A   1      39.429  25.708  26.250  1.00  0.00    +0.000 H 
ATOM     85  C58 UNL A   1      41.317  23.619  28.075  1.00  0.00    +0.000 C 
ATOM     86  C59 UNL A   1      40.791  22.407  27.618  1.00  0.00    +0.000 C 
ATOM    120  H34 UNL A   1      41.152  21.514  27.989  1.00  0.00    +0.000 H 
ATOM     24  C16 UNL A   1      39.775  22.410  26.656  1.00  0.00    +0.000 C 
ATOM     25  C17 UNL A   1      39.219  23.615  26.227  1.00  0.00    +0.000 C 
ATOM     26  C18 UNL A   1      39.792  24.819  26.628  1.00  0.00    +0.000 C 
ATOM    119  H33 UNL A   1      42.043  23.622  28.808  1.00  0.00    +0.000 H 
BRANCH   24   22
ATOM     22  C15 UNL A   1      39.337  21.123  26.074  1.00  0.00    +0.000 C 
ATOM     23  O3  UNL A   1      39.952  20.092  26.335  1.00  0.00    +0.000 O 
BRANCH   22   21
ATOM    106  H20 UNL A   1      38.490  20.895  24.267  1.00  0.00    +0.000 H 
ATOM     21  N3  UNL A   1      38.270  21.097  25.205  1.00  0.00    +0.000 N 
BRANCH   21   20
ATOM    105  H19 UNL A   1      36.804  21.896  26.386  1.00  0.00    +0.000 H 
ATOM     20  C14 UNL A   1      36.860  21.329  25.481  1.00  0.00    +0.000 C 
ATOM    104  H18 UNL A   1      36.371  20.381  25.568  1.00  0.00    +0.000 H 
BRANCH   20   19
ATOM     19  C13 UNL A   1      36.157  22.139  24.397  1.00  0.00    +0.000 C 
ATOM    102  H16 UNL A   1      36.811  22.197  23.553  1.00  0.00    +0.000 H 
ATOM    103  H17 UNL A   1      35.239  21.627  24.197  1.00  0.00    +0.000 H 
BRANCH   19   18
ATOM     18  C12 UNL A   1      35.767  23.564  24.791  1.00  0.00    +0.000 C 
ATOM    100  H14 UNL A   1      35.412  23.542  25.799  1.00  0.00    +0.000 H 
ATOM    101  H15 UNL A   1      36.649  24.157  24.656  1.00  0.00    +0.000 H 
BRANCH   18   17
ATOM     17  C11 UNL A   1      34.687  24.217  23.925  1.00  0.00    +0.000 C 
ATOM     98  H12 UNL A   1      35.167  24.664  23.080  1.00  0.00    +0.000 H 
ATOM     99  H13 UNL A   1      34.003  23.433  23.672  1.00  0.00    +0.000 H 
BRANCH   17   16
ATOM     97  H11 UNL A   1      33.766  26.107  23.914  1.00  0.00    +0.000 H 
ATOM     96  H10 UNL A   1      34.329  25.570  25.526  1.00  0.00    +0.000 H 
ATOM     16  C10 UNL A   1      33.842  25.299  24.612  1.00  0.00    +0.000 C 
BRANCH   16   15
ATOM     95  H9  UNL A   1      32.055  24.239  24.172  1.00  0.00    +0.000 H 
ATOM     94  H8  UNL A   1      31.800  25.767  25.009  1.00  0.00    +0.000 H 
ATOM     15  C9  UNL A   1      32.408  24.889  24.945  1.00  0.00    +0.000 C 
BRANCH   15   14
ATOM     93  H7  UNL A   1      32.656  24.636  27.019  1.00  0.00    +0.000 H 
ATOM     14  N2  UNL A   1      32.344  24.178  26.205  1.00  0.00    +0.000 N 
BRANCH   14    2
ATOM      1  O1  UNL A   1      30.673  22.608  26.374  1.00  0.00    +0.000 O 
ATOM      2  C1  UNL A   1      31.865  22.891  26.317  1.00  0.00    +0.000 C 
BRANCH    2    3
ATOM      3  C2  UNL A   1      32.953  21.826  26.400  1.00  0.00    +0.000 C 
ATOM     87  H1  UNL A   1      32.882  21.327  27.344  1.00  0.00    +0.000 H 
ATOM     88  H2  UNL A   1      33.905  22.303  26.298  1.00  0.00    +0.000 H 
BRANCH    3    4
ATOM      4  C3  UNL A   1      32.804  20.814  25.295  1.00  0.00    +0.000 C 
ATOM      5  C4  UNL A   1      32.429  21.279  23.974  1.00  0.00    +0.000 C 
ATOM      6  C5  UNL A   1      32.243  20.412  22.970  1.00  0.00    +0.000 C 
ATOM      7  C6  UNL A   1      32.433  18.952  23.188  1.00  0.00    +0.000 C 
ATOM      8  O2  UNL A   1      32.222  18.190  22.250  1.00  0.00    +0.000 O 
ATOM      9  N1  UNL A   1      32.844  18.585  24.460  1.00  0.00    +0.000 N 
ATOM     13  C8  UNL A   1      33.013  19.500  25.485  1.00  0.00    +0.000 C 
ATOM     89  H3  UNL A   1      32.306  22.289  23.805  1.00  0.00    +0.000 H 
ATOM     90  H4  UNL A   1      31.965  20.760  22.040  1.00  0.00    +0.000 H 
ATOM     92  H6  UNL A   1      33.306  19.166  26.416  1.00  0.00    +0.000 H 
BRANCH    9   10
ATOM     10  C7  UNL A   1      33.040  17.178  24.699  1.00  0.00    +0.000 C 
ATOM     11  F1  UNL A   1      34.247  16.773  24.234  1.00  0.00    +0.000 F 
ATOM     12  F2  UNL A   1      32.983  16.894  26.023  1.00  0.00    +0.000 F 
ATOM     91  H5  UNL A   1      32.256  16.662  24.185  1.00  0.00    +0.000 H 
ENDBRANCH    9   10
ENDBRANCH    3    4
ENDBRANCH    2    3
ENDBRANCH   14    2
ENDBRANCH   15   14
ENDBRANCH   16   15
ENDBRANCH   17   16
ENDBRANCH   18   17
ENDBRANCH   19   18
ENDBRANCH   20   19
ENDBRANCH   21   20
ENDBRANCH   22   21
ENDBRANCH   24   22
ENDBRANCH   28   27
BRANCH   32   33
ATOM     33  C24 UNL A   1      47.102  27.624  26.157  1.00  0.00    +0.000 C 
ATOM     34  C25 UNL A   1      48.145  26.996  26.852  1.00  0.00    +0.000 C 
ATOM     35  F3  UNL A   1      48.107  26.907  28.190  1.00  0.00    +0.000 F 
ATOM     36  C26 UNL A   1      49.244  26.473  26.174  1.00  0.00    +0.000 C 
ATOM     37  F4  UNL A   1      50.242  25.898  26.860  1.00  0.00    +0.000 F 
ATOM     38  C27 UNL A   1      49.308  26.547  24.790  1.00  0.00    +0.000 C 
ATOM     39  F5  UNL A   1      50.360  26.030  24.139  1.00  0.00    +0.000 F 
ATOM     40  C28 UNL A   1      48.285  27.159  24.083  1.00  0.00    +0.000 C 
ATOM     41  F6  UNL A   1      48.341  27.222  22.745  1.00  0.00    +0.000 F 
ATOM     42  C29 UNL A   1      47.196  27.703  24.759  1.00  0.00    +0.000 C 
ATOM     43  F7  UNL A   1      46.221  28.289  24.048  1.00  0.00    +0.000 F 
ENDBRANCH   32   33
BRANCH   49   50
ATOM     50  C35 UNL A   1      45.001  33.646  29.483  1.00  0.00    +0.000 C 
ATOM     51  C36 UNL A   1      45.745  33.841  30.655  1.00  0.00    +0.000 C 
ATOM     52  F8  UNL A   1      45.891  32.839  31.536  1.00  0.00    +0.000 F 
ATOM     53  C37 UNL A   1      46.322  35.075  30.937  1.00  0.00    +0.000 C 
ATOM     54  F9  UNL A   1      47.006  35.249  32.077  1.00  0.00    +0.000 F 
ATOM     55  C38 UNL A   1      46.187  36.128  30.043  1.00  0.00    +0.000 C 
ATOM     56  F10 UNL A   1      46.752  37.313  30.311  1.00  0.00    +0.000 F 
ATOM     57  C39 UNL A   1      45.461  35.954  28.875  1.00  0.00    +0.000 C 
ATOM     58  F11 UNL A   1      45.338  36.967  28.006  1.00  0.00    +0.000 F 
ATOM     59  C40 UNL A   1      44.864  34.727  28.600  1.00  0.00    +0.000 C 
ATOM     60  F12 UNL A   1      44.166  34.587  27.462  1.00  0.00    +0.000 F 
ENDBRANCH   49   50
BRANCH   64   65
ATOM     65  C44 UNL A   1      38.788  30.733  30.691  1.00  0.00    +0.000 C 
ATOM     66  C45 UNL A   1      37.752  31.266  29.913  1.00  0.00    +0.000 C 
ATOM     67  F13 UNL A   1      37.907  31.394  28.587  1.00  0.00    +0.000 F 
ATOM     68  C46 UNL A   1      36.562  31.692  30.498  1.00  0.00    +0.000 C 
ATOM     69  F14 UNL A   1      35.595  32.222  29.737  1.00  0.00    +0.000 F 
ATOM     70  C47 UNL A   1      36.377  31.572  31.868  1.00  0.00    +0.000 C 
ATOM     71  F15 UNL A   1      35.227  31.967  32.428  1.00  0.00    +0.000 F 
ATOM     72  C48 UNL A   1      37.388  31.043  32.657  1.00  0.00    +0.000 C 
ATOM     73  F16 UNL A   1      37.210  30.913  33.978  1.00  0.00    +0.000 F 
ATOM     74  C49 UNL A   1      38.588  30.640  32.076  1.00  0.00    +0.000 C 
ATOM     75  F17 UNL A   1      39.551  30.135  32.860  1.00  0.00    +0.000 F 
ENDBRANCH   64   65
TORSDOF 17
ENDMDL
MODEL 4
REMARK VINA RESULT:     -10.6      1.513      7.694
ROOT
ATOM     28  C20 UNL A   1      37.897  30.022  29.979  1.00  0.00    +0.000 C 
ATOM     29  C21 UNL A   1      38.978  29.144  29.404  1.00  0.00    +0.000 C 
ATOM     30  N4  UNL A   1      40.080  28.715  29.967  1.00  0.00    +0.000 N 
ATOM     31  C22 UNL A   1      40.714  27.930  29.013  1.00  0.00    +0.000 C 
ATOM     32  C23 UNL A   1      41.904  27.290  29.101  1.00  0.00    +0.000 C 
ATOM     44  C30 UNL A   1      42.765  27.321  30.255  1.00  0.00    +0.000 C 
ATOM     45  C31 UNL A   1      44.000  26.718  30.425  1.00  0.00    +0.000 C 
ATOM     46  C32 UNL A   1      44.451  27.004  31.718  1.00  0.00    +0.000 C 
ATOM     47  C33 UNL A   1      43.515  27.814  32.339  1.00  0.00    +0.000 C 
ATOM     48  N5  UNL A   1      42.484  27.998  31.431  1.00  0.00    +0.000 N 
ATOM     49  C34 UNL A   1      43.553  28.376  33.664  1.00  0.00    +0.000 C 
ATOM     61  C41 UNL A   1      42.612  29.198  34.187  1.00  0.00    +0.000 C 
ATOM     62  N6  UNL A   1      41.441  29.660  33.604  1.00  0.00    +0.000 N 
ATOM     63  C42 UNL A   1      40.855  30.399  34.513  1.00  0.00    +0.000 C 
ATOM     64  C43 UNL A   1      39.557  31.151  34.429  1.00  0.00    +0.000 C 
ATOM     76  C50 UNL A   1      38.802  31.044  33.320  1.00  0.00    +0.000 C 
ATOM     77  C51 UNL A   1      37.520  31.710  33.105  1.00  0.00    +0.000 C 
ATOM     78  C52 UNL A   1      37.044  31.365  31.899  1.00  0.00    +0.000 C 
ATOM     79  C53 UNL A   1      38.013  30.493  31.236  1.00  0.00    +0.000 C 
ATOM     80  N7  UNL A   1      39.009  30.328  32.166  1.00  0.00    +0.000 N 
ATOM     81  C54 UNL A   1      41.591  30.489  35.783  1.00  0.00    +0.000 C 
ATOM     82  C55 UNL A   1      42.668  29.761  35.520  1.00  0.00    +0.000 C 
ATOM     83  C56 UNL A   1      39.865  27.919  27.843  1.00  0.00    +0.000 C 
ATOM     84  C57 UNL A   1      38.799  28.689  28.017  1.00  0.00    +0.000 C 
ATOM    109  H23 UNL A   1      44.500  26.155  29.721  1.00  0.00    +0.000 H 
ATOM    110  H24 UNL A   1      45.332  26.668  32.138  1.00  0.00    +0.000 H 
ATOM    111  H25 UNL A   1      41.673  28.530  31.597  1.00  0.00    +0.000 H 
ATOM    112  H26 UNL A   1      37.055  32.344  33.773  1.00  0.00    +0.000 H 
ATOM    113  H27 UNL A   1      36.139  31.665  31.504  1.00  0.00    +0.000 H 
ATOM    114  H28 UNL A   1      39.794  29.753  32.022  1.00  0.00    +0.000 H 
ATOM    115  H29 UNL A   1      41.337  30.988  36.650  1.00  0.00    +0.000 H 
ATOM    116  H30 UNL A   1      43.446  29.613  36.182  1.00  0.00    +0.000 H 
ATOM    117  H31 UNL A   1      40.063  27.382  26.984  1.00  0.00    +0.000 H 
ATOM    118  H32 UNL A   1      38.042  28.910  27.352  1.00  0.00    +0.000 H 
ENDROOT
BRANCH   28   27
ATOM     27  C19 UNL A   1      36.738  30.437  29.147  1.00  0.00    +0.000 C 
ATOM    107  H21 UNL A   1      33.963  29.149  27.754  1.00  0.00    +0.000 H 
ATOM    108  H22 UNL A   1      35.891  28.500  29.069  1.00  0.00    +0.000 H 
ATOM     85  C58 UNL A   1      36.573  31.768  28.733  1.00  0.00    +0.000 C 
ATOM     86  C59 UNL A   1      35.403  32.160  28.076  1.00  0.00    +0.000 C 
ATOM    120  H34 UNL A   1      35.269  33.146  27.801  1.00  0.00    +0.000 H 
ATOM     24  C16 UNL A   1      34.414  31.212  27.794  1.00  0.00    +0.000 C 
ATOM     25  C17 UNL A   1      34.635  29.863  28.076  1.00  0.00    +0.000 C 
ATOM     26  C18 UNL A   1      35.766  29.486  28.794  1.00  0.00    +0.000 C 
ATOM    119  H33 UNL A   1      37.318  32.459  28.915  1.00  0.00    +0.000 H 
BRANCH   24   22
ATOM     22  C15 UNL A   1      33.122  31.668  27.236  1.00  0.00    +0.000 C 
ATOM     23  O3  UNL A   1      32.858  32.867  27.206  1.00  0.00    +0.000 O 
BRANCH   22   21
ATOM    106  H20 UNL A   1      31.434  30.592  27.393  1.00  0.00    +0.000 H 
ATOM     21  N3  UNL A   1      32.204  30.740  26.799  1.00  0.00    +0.000 N 
BRANCH   21   20
ATOM    105  H19 UNL A   1      33.179  30.070  25.131  1.00  0.00    +0.000 H 
ATOM     20  C14 UNL A   1      32.215  29.949  25.578  1.00  0.00    +0.000 C 
ATOM    104  H18 UNL A   1      31.428  30.297  24.941  1.00  0.00    +0.000 H 
BRANCH   20   19
ATOM     19  C13 UNL A   1      32.016  28.457  25.823  1.00  0.00    +0.000 C 
ATOM    102  H16 UNL A   1      31.776  28.322  26.857  1.00  0.00    +0.000 H 
ATOM    103  H17 UNL A   1      31.238  28.150  25.156  1.00  0.00    +0.000 H 
BRANCH   19   18
ATOM     18  C12 UNL A   1      33.220  27.572  25.500  1.00  0.00    +0.000 C 
ATOM    100  H14 UNL A   1      33.365  27.586  24.441  1.00  0.00    +0.000 H 
ATOM    101  H15 UNL A   1      34.041  27.981  26.054  1.00  0.00    +0.000 H 
BRANCH   18   17
ATOM     17  C11 UNL A   1      33.104  26.111  25.942  1.00  0.00    +0.000 C 
ATOM     98  H12 UNL A   1      33.026  26.095  27.009  1.00  0.00    +0.000 H 
ATOM     99  H13 UNL A   1      32.245  25.721  25.437  1.00  0.00    +0.000 H 
BRANCH   17   16
ATOM     97  H11 UNL A   1      35.133  25.572  26.055  1.00  0.00    +0.000 H 
ATOM     96  H10 UNL A   1      34.364  25.223  24.477  1.00  0.00    +0.000 H 
ATOM     16  C10 UNL A   1      34.272  25.197  25.543  1.00  0.00    +0.000 C 
BRANCH   16   15
ATOM     95  H9  UNL A   1      33.281  23.657  26.620  1.00  0.00    +0.000 H 
ATOM     94  H8  UNL A   1      35.020  23.429  26.471  1.00  0.00    +0.000 H 
ATOM     15  C9  UNL A   1      34.127  23.737  25.969  1.00  0.00    +0.000 C 
BRANCH   15   14
ATOM     93  H7  UNL A   1      34.662  22.697  24.221  1.00  0.00    +0.000 H 
ATOM     14  N2  UNL A   1      33.907  22.875  24.826  1.00  0.00    +0.000 N 
BRANCH   14    2
ATOM      1  O1  UNL A   1      32.060  21.609  25.350  1.00  0.00    +0.000 O 
ATOM      2  C1  UNL A   1      32.690  22.292  24.549  1.00  0.00    +0.000 C 
BRANCH    2    3
ATOM      3  C2  UNL A   1      32.190  22.538  23.129  1.00  0.00    +0.000 C 
ATOM     87  H1  UNL A   1      31.327  21.930  22.953  1.00  0.00    +0.000 H 
ATOM     88  H2  UNL A   1      32.973  22.286  22.445  1.00  0.00    +0.000 H 
BRANCH    3    4
ATOM      4  C3  UNL A   1      31.824  23.984  22.928  1.00  0.00    +0.000 C 
ATOM      5  C4  UNL A   1      32.609  24.776  22.002  1.00  0.00    +0.000 C 
ATOM      6  C5  UNL A   1      32.349  26.077  21.823  1.00  0.00    +0.000 C 
ATOM      7  C6  UNL A   1      31.234  26.734  22.559  1.00  0.00    +0.000 C 
ATOM      8  O2  UNL A   1      31.049  27.934  22.389  1.00  0.00    +0.000 O 
ATOM      9  N1  UNL A   1      30.492  25.904  23.386  1.00  0.00    +0.000 N 
ATOM     13  C8  UNL A   1      30.794  24.565  23.566  1.00  0.00    +0.000 C 
ATOM     89  H3  UNL A   1      33.377  24.332  21.475  1.00  0.00    +0.000 H 
ATOM     90  H4  UNL A   1      32.925  26.628  21.169  1.00  0.00    +0.000 H 
ATOM     92  H6  UNL A   1      30.214  23.999  24.207  1.00  0.00    +0.000 H 
BRANCH    9   10
ATOM     10  C7  UNL A   1      29.404  26.510  24.109  1.00  0.00    +0.000 C 
ATOM     11  F1  UNL A   1      28.212  26.169  23.564  1.00  0.00    +0.000 F 
ATOM     12  F2  UNL A   1      29.401  26.119  25.406  1.00  0.00    +0.000 F 
ATOM     91  H5  UNL A   1      29.545  27.570  24.052  1.00  0.00    +0.000 H 
ENDBRANCH    9   10
ENDBRANCH    3    4
ENDBRANCH    2    3
ENDBRANCH   14    2
ENDBRANCH   15   14
ENDBRANCH   16   15
ENDBRANCH   17   16
ENDBRANCH   18   17
ENDBRANCH   19   18
ENDBRANCH   20   19
ENDBRANCH   21   20
ENDBRANCH   22   21
ENDBRANCH   24   22
ENDBRANCH   28   27
BRANCH   32   33
ATOM     33  C24 UNL A   1      42.358  26.491  27.916  1.00  0.00    +0.000 C 
ATOM     34  C25 UNL A   1      41.894  25.186  27.692  1.00  0.00    +0.000 C 
ATOM     35  F3  UNL A   1      41.087  24.595  28.585  1.00  0.00    +0.000 F 
ATOM     36  C26 UNL A   1      42.276  24.477  26.556  1.00  0.00    +0.000 C 
ATOM     37  F4  UNL A   1      41.842  23.222  26.374  1.00  0.00    +0.000 F 
ATOM     38  C27 UNL A   1      43.108  25.065  25.614  1.00  0.00    +0.000 C 
ATOM     39  F5  UNL A   1      43.463  24.385  24.514  1.00  0.00    +0.000 F 
ATOM     40  C28 UNL A   1      43.573  26.356  25.812  1.00  0.00    +0.000 C 
ATOM     41  F6  UNL A   1      44.367  26.929  24.898  1.00  0.00    +0.000 F 
ATOM     42  C29 UNL A   1      43.210  27.060  26.958  1.00  0.00    +0.000 C 
ATOM     43  F7  UNL A   1      43.676  28.307  27.124  1.00  0.00    +0.000 F 
ENDBRANCH   32   33
BRANCH   49   50
ATOM     50  C35 UNL A   1      44.727  28.033  34.530  1.00  0.00    +0.000 C 
ATOM     51  C36 UNL A   1      45.863  28.854  34.571  1.00  0.00    +0.000 C 
ATOM     52  F8  UNL A   1      45.948  29.930  33.774  1.00  0.00    +0.000 F 
ATOM     53  C37 UNL A   1      46.928  28.557  35.416  1.00  0.00    +0.000 C 
ATOM     54  F9  UNL A   1      48.018  29.337  35.419  1.00  0.00    +0.000 F 
ATOM     55  C38 UNL A   1      46.867  27.450  36.250  1.00  0.00    +0.000 C 
ATOM     56  F10 UNL A   1      47.889  27.171  37.071  1.00  0.00    +0.000 F 
ATOM     57  C39 UNL A   1      45.750  26.630  36.230  1.00  0.00    +0.000 C 
ATOM     58  F11 UNL A   1      45.685  25.566  37.043  1.00  0.00    +0.000 F 
ATOM     59  C40 UNL A   1      44.691  26.912  35.371  1.00  0.00    +0.000 C 
ATOM     60  F12 UNL A   1      43.623  26.100  35.371  1.00  0.00    +0.000 F 
ENDBRANCH   49   50
BRANCH   64   65
ATOM     65  C44 UNL A   1      39.098  32.011  35.547  1.00  0.00    +0.000 C 
ATOM     66  C45 UNL A   1      38.341  31.478  36.598  1.00  0.00    +0.000 C 
ATOM     67  F13 UNL A   1      37.979  30.187  36.576  1.00  0.00    +0.000 F 
ATOM     68  C46 UNL A   1      37.933  32.276  37.665  1.00  0.00    +0.000 C 
ATOM     69  F14 UNL A   1      37.188  31.749  38.647  1.00  0.00    +0.000 F 
ATOM     70  C47 UNL A   1      38.293  33.615  37.711  1.00  0.00    +0.000 C 
ATOM     71  F15 UNL A   1      37.914  34.378  38.745  1.00  0.00    +0.000 F 
ATOM     72  C48 UNL A   1      39.046  34.163  36.683  1.00  0.00    +0.000 C 
ATOM     73  F16 UNL A   1      39.407  35.452  36.729  1.00  0.00    +0.000 F 
ATOM     74  C49 UNL A   1      39.433  33.372  35.604  1.00  0.00    +0.000 C 
ATOM     75  F17 UNL A   1      40.157  33.926  34.620  1.00  0.00    +0.000 F 
ENDBRANCH   64   65
TORSDOF 17
ENDMDL
MODEL 5
REMARK VINA RESULT:     -10.4     17.427     22.416
ROOT
ATOM     28  C20 UNL A   1      25.657  35.484  45.242  1.00  0.00    +0.000 C 
ATOM     29  C21 UNL A   1      25.456  36.572  46.264  1.00  0.00    +0.000 C 
ATOM     30  N4  UNL A   1      26.287  37.511  46.644  1.00  0.00    +0.000 N 
ATOM     31  C22 UNL A   1      25.606  38.259  47.595  1.00  0.00    +0.000 C 
ATOM     32  C23 UNL A   1      26.048  39.320  48.311  1.00  0.00    +0.000 C 
ATOM     44  C30 UNL A   1      27.372  39.878  48.210  1.00  0.00    +0.000 C 
ATOM     45  C31 UNL A   1      27.915  40.941  48.913  1.00  0.00    +0.000 C 
ATOM     46  C32 UNL A   1      29.224  41.139  48.462  1.00  0.00    +0.000 C 
ATOM     47  C33 UNL A   1      29.508  40.178  47.507  1.00  0.00    +0.000 C 
ATOM     48  N5  UNL A   1      28.362  39.413  47.360  1.00  0.00    +0.000 N 
ATOM     49  C34 UNL A   1      30.732  39.973  46.776  1.00  0.00    +0.000 C 
ATOM     61  C41 UNL A   1      30.947  38.979  45.882  1.00  0.00    +0.000 C 
ATOM     62  N6  UNL A   1      30.078  37.979  45.469  1.00  0.00    +0.000 N 
ATOM     63  C42 UNL A   1      30.733  37.282  44.575  1.00  0.00    +0.000 C 
ATOM     64  C43 UNL A   1      30.281  36.080  43.795  1.00  0.00    +0.000 C 
ATOM     76  C50 UNL A   1      29.016  35.640  43.933  1.00  0.00    +0.000 C 
ATOM     77  C51 UNL A   1      28.441  34.493  43.235  1.00  0.00    +0.000 C 
ATOM     78  C52 UNL A   1      27.157  34.356  43.601  1.00  0.00    +0.000 C 
ATOM     79  C53 UNL A   1      26.834  35.377  44.598  1.00  0.00    +0.000 C 
ATOM     80  N7  UNL A   1      27.986  36.115  44.708  1.00  0.00    +0.000 N 
ATOM     81  C54 UNL A   1      32.098  37.763  44.317  1.00  0.00    +0.000 C 
ATOM     82  C55 UNL A   1      32.186  38.782  45.160  1.00  0.00    +0.000 C 
ATOM     83  C56 UNL A   1      24.285  37.684  47.719  1.00  0.00    +0.000 C 
ATOM     84  C57 UNL A   1      24.154  36.613  46.949  1.00  0.00    +0.000 C 
ATOM    109  H23 UNL A   1      27.436  41.492  49.642  1.00  0.00    +0.000 H 
ATOM    110  H24 UNL A   1      29.869  41.877  48.786  1.00  0.00    +0.000 H 
ATOM    111  H25 UNL A   1      28.265  38.652  46.742  1.00  0.00    +0.000 H 
ATOM    112  H26 UNL A   1      28.941  33.885  42.569  1.00  0.00    +0.000 H 
ATOM    113  H27 UNL A   1      26.503  33.647  43.237  1.00  0.00    +0.000 H 
ATOM    114  H28 UNL A   1      28.067  36.909  45.285  1.00  0.00    +0.000 H 
ATOM    115  H29 UNL A   1      32.802  37.401  43.654  1.00  0.00    +0.000 H 
ATOM    116  H30 UNL A   1      33.031  39.362  45.285  1.00  0.00    +0.000 H 
ATOM    117  H31 UNL A   1      23.540  38.059  48.328  1.00  0.00    +0.000 H 
ATOM    118  H32 UNL A   1      23.349  35.974  46.854  1.00  0.00    +0.000 H 
ENDROOT
BRANCH   28   27
ATOM     27  C19 UNL A   1      24.592  34.477  44.990  1.00  0.00    +0.000 C 
ATOM    107  H21 UNL A   1      23.867  31.261  45.644  1.00  0.00    +0.000 H 
ATOM    108  H22 UNL A   1      25.603  32.914  45.994  1.00  0.00    +0.000 H 
ATOM     85  C58 UNL A   1      23.425  34.808  44.283  1.00  0.00    +0.000 C 
ATOM     86  C59 UNL A   1      22.378  33.887  44.185  1.00  0.00    +0.000 C 
ATOM    120  H34 UNL A   1      21.508  34.143  43.692  1.00  0.00    +0.000 H 
ATOM     24  C16 UNL A   1      22.514  32.618  44.757  1.00  0.00    +0.000 C 
ATOM     25  C17 UNL A   1      23.724  32.236  45.337  1.00  0.00    +0.000 C 
ATOM     26  C18 UNL A   1      24.738  33.176  45.497  1.00  0.00    +0.000 C 
ATOM    119  H33 UNL A   1      23.341  35.733  43.835  1.00  0.00    +0.000 H 
BRANCH   24   22
ATOM     22  C15 UNL A   1      21.345  31.711  44.776  1.00  0.00    +0.000 C 
ATOM     23  O3  UNL A   1      21.273  30.823  45.620  1.00  0.00    +0.000 O 
BRANCH   22   21
ATOM    106  H20 UNL A   1      20.685  31.840  42.884  1.00  0.00    +0.000 H 
ATOM     21  N3  UNL A   1      20.367  31.841  43.815  1.00  0.00    +0.000 N 
BRANCH   21   20
ATOM    105  H19 UNL A   1      18.631  32.861  43.463  1.00  0.00    +0.000 H 
ATOM     20  C14 UNL A   1      18.929  31.978  43.988  1.00  0.00    +0.000 C 
ATOM    104  H18 UNL A   1      18.717  32.039  45.035  1.00  0.00    +0.000 H 
BRANCH   20   19
ATOM     19  C13 UNL A   1      18.136  30.816  43.399  1.00  0.00    +0.000 C 
ATOM    102  H16 UNL A   1      17.103  31.093  43.391  1.00  0.00    +0.000 H 
ATOM    103  H17 UNL A   1      18.544  30.644  42.426  1.00  0.00    +0.000 H 
BRANCH   19   18
ATOM     18  C12 UNL A   1      18.262  29.489  44.148  1.00  0.00    +0.000 C 
ATOM    100  H14 UNL A   1      19.299  29.231  44.189  1.00  0.00    +0.000 H 
ATOM    101  H15 UNL A   1      17.819  29.652  45.110  1.00  0.00    +0.000 H 
BRANCH   18   17
ATOM     17  C11 UNL A   1      17.506  28.308  43.533  1.00  0.00    +0.000 C 
ATOM     98  H12 UNL A   1      17.282  28.554  42.517  1.00  0.00    +0.000 H 
ATOM     99  H13 UNL A   1      18.149  27.461  43.645  1.00  0.00    +0.000 H 
BRANCH   17   16
ATOM     97  H11 UNL A   1      15.412  28.425  43.685  1.00  0.00    +0.000 H 
ATOM     96  H10 UNL A   1      16.255  28.221  45.251  1.00  0.00    +0.000 H 
ATOM     16  C10 UNL A   1      16.189  27.925  44.225  1.00  0.00    +0.000 C 
BRANCH   16   15
ATOM     95  H9  UNL A   1      16.104  26.003  45.126  1.00  0.00    +0.000 H 
ATOM     94  H8  UNL A   1      16.394  25.973  43.390  1.00  0.00    +0.000 H 
ATOM     15  C9  UNL A   1      15.845  26.436  44.183  1.00  0.00    +0.000 C 
BRANCH   15   14
ATOM     93  H7  UNL A   1      13.789  26.787  44.460  1.00  0.00    +0.000 H 
ATOM     14  N2  UNL A   1      14.429  26.231  43.960  1.00  0.00    +0.000 N 
BRANCH   14    2
ATOM      1  O1  UNL A   1      12.777  25.276  42.676  1.00  0.00    +0.000 O 
ATOM      2  C1  UNL A   1      13.936  25.293  43.079  1.00  0.00    +0.000 C 
BRANCH    2    3
ATOM      3  C2  UNL A   1      14.952  24.237  42.659  1.00  0.00    +0.000 C 
ATOM     87  H1  UNL A   1      15.362  23.779  43.535  1.00  0.00    +0.000 H 
ATOM     88  H2  UNL A   1      15.723  24.713  42.089  1.00  0.00    +0.000 H 
BRANCH    3    4
ATOM      4  C3  UNL A   1      14.309  23.178  41.804  1.00  0.00    +0.000 C 
ATOM      5  C4  UNL A   1      13.559  22.122  42.455  1.00  0.00    +0.000 C 
ATOM      6  C5  UNL A   1      13.005  21.134  41.740  1.00  0.00    +0.000 C 
ATOM      7  C6  UNL A   1      13.135  21.110  40.257  1.00  0.00    +0.000 C 
ATOM      8  O2  UNL A   1      12.640  20.172  39.643  1.00  0.00    +0.000 O 
ATOM      9  N1  UNL A   1      13.819  22.180  39.699  1.00  0.00    +0.000 N 
ATOM     13  C8  UNL A   1      14.397  23.179  40.464  1.00  0.00    +0.000 C 
ATOM     89  H3  UNL A   1      13.449  22.132  43.481  1.00  0.00    +0.000 H 
ATOM     90  H4  UNL A   1      12.484  20.385  42.220  1.00  0.00    +0.000 H 
ATOM     92  H6  UNL A   1      14.907  23.943  39.993  1.00  0.00    +0.000 H 
BRANCH    9   10
ATOM     10  C7  UNL A   1      13.958  22.186  38.266  1.00  0.00    +0.000 C 
ATOM     11  F1  UNL A   1      13.994  23.454  37.789  1.00  0.00    +0.000 F 
ATOM     12  F2  UNL A   1      15.098  21.560  37.882  1.00  0.00    +0.000 F 
ATOM     91  H5  UNL A   1      13.111  21.667  37.868  1.00  0.00    +0.000 H 
ENDBRANCH    9   10
ENDBRANCH    3    4
ENDBRANCH    2    3
ENDBRANCH   14    2
ENDBRANCH   15   14
ENDBRANCH   16   15
ENDBRANCH   17   16
ENDBRANCH   18   17
ENDBRANCH   19   18
ENDBRANCH   20   19
ENDBRANCH   21   20
ENDBRANCH   22   21
ENDBRANCH   24   22
ENDBRANCH   28   27
BRANCH   32   33
ATOM     33  C24 UNL A   1      25.095  39.961  49.275  1.00  0.00    +0.000 C 
ATOM     34  C25 UNL A   1      25.041  39.567  50.621  1.00  0.00    +0.000 C 
ATOM     35  F3  UNL A   1      25.795  38.548  51.056  1.00  0.00    +0.000 F 
ATOM     36  C26 UNL A   1      24.194  40.211  51.520  1.00  0.00    +0.000 C 
ATOM     37  F4  UNL A   1      24.139  39.802  52.796  1.00  0.00    +0.000 F 
ATOM     38  C27 UNL A   1      23.405  41.271  51.098  1.00  0.00    +0.000 C 
ATOM     39  F5  UNL A   1      22.601  41.897  51.969  1.00  0.00    +0.000 F 
ATOM     40  C28 UNL A   1      23.447  41.680  49.774  1.00  0.00    +0.000 C 
ATOM     41  F6  UNL A   1      22.694  42.710  49.367  1.00  0.00    +0.000 F 
ATOM     42  C29 UNL A   1      24.277  41.024  48.867  1.00  0.00    +0.000 C 
ATOM     43  F7  UNL A   1      24.297  41.442  47.592  1.00  0.00    +0.000 F 
ENDBRANCH   32   33
BRANCH   49   50
ATOM     50  C35 UNL A   1      31.859  40.928  47.029  1.00  0.00    +0.000 C 
ATOM     51  C36 UNL A   1      32.944  40.571  47.843  1.00  0.00    +0.000 C 
ATOM     52  F8  UNL A   1      32.955  39.386  48.472  1.00  0.00    +0.000 F 
ATOM     53  C37 UNL A   1      34.012  41.444  48.032  1.00  0.00    +0.000 C 
ATOM     54  F9  UNL A   1      35.025  41.096  48.837  1.00  0.00    +0.000 F 
ATOM     55  C38 UNL A   1      34.026  42.676  47.394  1.00  0.00    +0.000 C 
ATOM     56  F10 UNL A   1      35.060  43.510  47.569  1.00  0.00    +0.000 F 
ATOM     57  C39 UNL A   1      32.966  43.044  46.579  1.00  0.00    +0.000 C 
ATOM     58  F11 UNL A   1      32.984  44.230  45.954  1.00  0.00    +0.000 F 
ATOM     59  C40 UNL A   1      31.887  42.183  46.404  1.00  0.00    +0.000 C 
ATOM     60  F12 UNL A   1      30.874  42.566  45.611  1.00  0.00    +0.000 F 
ENDBRANCH   49   50
BRANCH   64   65
ATOM     65  C44 UNL A   1      31.208  35.368  42.881  1.00  0.00    +0.000 C 
ATOM     66  C45 UNL A   1      31.359  35.778  41.551  1.00  0.00    +0.000 C 
ATOM     67  F13 UNL A   1      30.623  36.793  41.075  1.00  0.00    +0.000 F 
ATOM     68  C46 UNL A   1      32.250  35.131  40.698  1.00  0.00    +0.000 C 
ATOM     69  F14 UNL A   1      32.360  35.526  39.422  1.00  0.00    +0.000 F 
ATOM     70  C47 UNL A   1      33.021  34.078  41.165  1.00  0.00    +0.000 C 
ATOM     71  F15 UNL A   1      33.889  33.466  40.348  1.00  0.00    +0.000 F 
ATOM     72  C48 UNL A   1      32.891  33.657  42.481  1.00  0.00    +0.000 C 
ATOM     73  F16 UNL A   1      33.643  32.648  42.940  1.00  0.00    +0.000 F 
ATOM     74  C49 UNL A   1      31.982  34.286  43.327  1.00  0.00    +0.000 C 
ATOM     75  F17 UNL A   1      31.872  33.859  44.594  1.00  0.00    +0.000 F 
ENDBRANCH   64   65
TORSDOF 17
ENDMDL
MODEL 6
REMARK VINA RESULT:     -10.4      2.681      4.217
ROOT
ATOM     28  C20 UNL A   1      38.155  30.296  29.744  1.00  0.00    +0.000 C 
ATOM     29  C21 UNL A   1      38.378  30.741  31.165  1.00  0.00    +0.000 C 
ATOM     30  N4  UNL A   1      39.363  30.447  31.978  1.00  0.00    +0.000 N 
ATOM     31  C22 UNL A   1      39.097  31.125  33.160  1.00  0.00    +0.000 C 
ATOM     32  C23 UNL A   1      39.802  31.118  34.316  1.00  0.00    +0.000 C 
ATOM     44  C30 UNL A   1      41.006  30.359  34.532  1.00  0.00    +0.000 C 
ATOM     45  C31 UNL A   1      41.777  30.274  35.680  1.00  0.00    +0.000 C 
ATOM     46  C32 UNL A   1      42.865  29.437  35.414  1.00  0.00    +0.000 C 
ATOM     47  C33 UNL A   1      42.753  28.972  34.115  1.00  0.00    +0.000 C 
ATOM     48  N5  UNL A   1      41.610  29.548  33.584  1.00  0.00    +0.000 N 
ATOM     49  C34 UNL A   1      43.625  28.073  33.405  1.00  0.00    +0.000 C 
ATOM     61  C41 UNL A   1      43.424  27.630  32.141  1.00  0.00    +0.000 C 
ATOM     62  N6  UNL A   1      42.388  27.933  31.269  1.00  0.00    +0.000 N 
ATOM     63  C42 UNL A   1      42.651  27.286  30.161  1.00  0.00    +0.000 C 
ATOM     64  C43 UNL A   1      41.867  27.246  28.880  1.00  0.00    +0.000 C 
ATOM     76  C50 UNL A   1      40.765  28.008  28.755  1.00  0.00    +0.000 C 
ATOM     77  C51 UNL A   1      39.915  28.074  27.570  1.00  0.00    +0.000 C 
ATOM     78  C52 UNL A   1      38.919  28.945  27.792  1.00  0.00    +0.000 C 
ATOM     79  C53 UNL A   1      39.033  29.461  29.157  1.00  0.00    +0.000 C 
ATOM     80  N7  UNL A   1      40.177  28.877  29.641  1.00  0.00    +0.000 N 
ATOM     81  C54 UNL A   1      43.890  26.496  30.204  1.00  0.00    +0.000 C 
ATOM     82  C55 UNL A   1      44.307  26.720  31.443  1.00  0.00    +0.000 C 
ATOM     83  C56 UNL A   1      37.872  31.867  32.955  1.00  0.00    +0.000 C 
ATOM     84  C57 UNL A   1      37.364  31.631  31.753  1.00  0.00    +0.000 C 
ATOM    109  H23 UNL A   1      41.582  30.747  36.575  1.00  0.00    +0.000 H 
ATOM    110  H24 UNL A   1      43.624  29.206  36.075  1.00  0.00    +0.000 H 
ATOM    111  H25 UNL A   1      41.275  29.403  32.669  1.00  0.00    +0.000 H 
ATOM    112  H26 UNL A   1      40.056  27.536  26.701  1.00  0.00    +0.000 H 
ATOM    113  H27 UNL A   1      38.191  29.210  27.111  1.00  0.00    +0.000 H 
ATOM    114  H28 UNL A   1      40.541  29.063  30.537  1.00  0.00    +0.000 H 
ATOM    115  H29 UNL A   1      44.322  25.920  29.465  1.00  0.00    +0.000 H 
ATOM    116  H30 UNL A   1      45.155  26.300  31.856  1.00  0.00    +0.000 H 
ATOM    117  H31 UNL A   1      37.449  32.498  33.653  1.00  0.00    +0.000 H 
ATOM    118  H32 UNL A   1      36.487  31.981  31.338  1.00  0.00    +0.000 H 
ENDROOT
BRANCH   28   27
ATOM     27  C19 UNL A   1      36.934  30.710  29.005  1.00  0.00    +0.000 C 
ATOM    107  H21 UNL A   1      34.054  29.423  27.843  1.00  0.00    +0.000 H 
ATOM    108  H22 UNL A   1      36.079  28.775  29.004  1.00  0.00    +0.000 H 
ATOM     85  C58 UNL A   1      36.740  32.039  28.598  1.00  0.00    +0.000 C 
ATOM     86  C59 UNL A   1      35.522  32.431  28.034  1.00  0.00    +0.000 C 
ATOM    120  H34 UNL A   1      35.370  33.416  27.765  1.00  0.00    +0.000 H 
ATOM     24  C16 UNL A   1      34.512  31.485  27.836  1.00  0.00    +0.000 C 
ATOM     25  C17 UNL A   1      34.751  30.137  28.107  1.00  0.00    +0.000 C 
ATOM     26  C18 UNL A   1      35.935  29.760  28.734  1.00  0.00    +0.000 C 
ATOM    119  H33 UNL A   1      37.499  32.728  28.715  1.00  0.00    +0.000 H 
BRANCH   24   22
ATOM     22  C15 UNL A   1      33.181  31.942  27.380  1.00  0.00    +0.000 C 
ATOM     23  O3  UNL A   1      32.908  33.139  27.391  1.00  0.00    +0.000 O 
BRANCH   22   21
ATOM    106  H20 UNL A   1      31.477  30.903  27.604  1.00  0.00    +0.000 H 
ATOM     21  N3  UNL A   1      32.239  31.016  26.992  1.00  0.00    +0.000 N 
BRANCH   21   20
ATOM    105  H19 UNL A   1      33.230  30.042  25.491  1.00  0.00    +0.000 H 
ATOM     20  C14 UNL A   1      32.215  30.181  25.801  1.00  0.00    +0.000 C 
ATOM    104  H18 UNL A   1      31.628  30.672  25.054  1.00  0.00    +0.000 H 
BRANCH   20   19
ATOM     19  C13 UNL A   1      31.626  28.795  26.046  1.00  0.00    +0.000 C 
ATOM    102  H16 UNL A   1      32.286  28.268  26.703  1.00  0.00    +0.000 H 
ATOM    103  H17 UNL A   1      30.651  28.958  26.453  1.00  0.00    +0.000 H 
BRANCH   19   18
ATOM     18  C12 UNL A   1      31.423  27.938  24.797  1.00  0.00    +0.000 C 
ATOM    100  H14 UNL A   1      30.754  27.143  25.049  1.00  0.00    +0.000 H 
ATOM    101  H15 UNL A   1      31.045  28.599  24.045  1.00  0.00    +0.000 H 
BRANCH   18   17
ATOM     17  C11 UNL A   1      32.693  27.317  24.208  1.00  0.00    +0.000 C 
ATOM     98  H12 UNL A   1      32.397  26.573  23.498  1.00  0.00    +0.000 H 
ATOM     99  H13 UNL A   1      33.243  28.129  23.782  1.00  0.00    +0.000 H 
BRANCH   17   16
ATOM     97  H11 UNL A   1      33.041  26.384  26.059  1.00  0.00    +0.000 H 
ATOM     96  H10 UNL A   1      34.418  27.352  25.450  1.00  0.00    +0.000 H 
ATOM     16  C10 UNL A   1      33.642  26.654  25.216  1.00  0.00    +0.000 C 
BRANCH   16   15
ATOM     95  H9  UNL A   1      34.195  24.622  25.499  1.00  0.00    +0.000 H 
ATOM     94  H8  UNL A   1      35.333  25.551  24.530  1.00  0.00    +0.000 H 
ATOM     15  C9  UNL A   1      34.301  25.362  24.733  1.00  0.00    +0.000 C 
BRANCH   15   14
ATOM     93  H7  UNL A   1      33.182  25.505  22.957  1.00  0.00    +0.000 H 
ATOM     14  N2  UNL A   1      33.666  24.866  23.530  1.00  0.00    +0.000 N 
BRANCH   14    2
ATOM      1  O1  UNL A   1      34.737  22.959  22.822  1.00  0.00    +0.000 O 
ATOM      2  C1  UNL A   1      33.709  23.543  23.148  1.00  0.00    +0.000 C 
BRANCH    2    3
ATOM      3  C2  UNL A   1      32.348  22.855  23.129  1.00  0.00    +0.000 C 
ATOM     87  H1  UNL A   1      31.993  22.811  22.120  1.00  0.00    +0.000 H 
ATOM     88  H2  UNL A   1      31.674  23.417  23.740  1.00  0.00    +0.000 H 
BRANCH    3    4
ATOM      4  C3  UNL A   1      32.442  21.457  23.680  1.00  0.00    +0.000 C 
ATOM      5  C4  UNL A   1      32.587  21.284  25.112  1.00  0.00    +0.000 C 
ATOM      6  C5  UNL A   1      32.718  20.062  25.644  1.00  0.00    +0.000 C 
ATOM      7  C6  UNL A   1      32.700  18.853  24.775  1.00  0.00    +0.000 C 
ATOM      8  O2  UNL A   1      32.854  17.755  25.299  1.00  0.00    +0.000 O 
ATOM      9  N1  UNL A   1      32.503  19.091  23.423  1.00  0.00    +0.000 N 
ATOM     13  C8  UNL A   1      32.388  20.366  22.897  1.00  0.00    +0.000 C 
ATOM     89  H3  UNL A   1      32.589  22.111  25.728  1.00  0.00    +0.000 H 
ATOM     90  H4  UNL A   1      32.832  19.958  26.663  1.00  0.00    +0.000 H 
ATOM     92  H6  UNL A   1      32.258  20.482  21.879  1.00  0.00    +0.000 H 
BRANCH    9   10
ATOM     10  C7  UNL A   1      32.478  17.940  22.558  1.00  0.00    +0.000 C 
ATOM     11  F1  UNL A   1      32.208  18.302  21.280  1.00  0.00    +0.000 F 
ATOM     12  F2  UNL A   1      33.668  17.293  22.569  1.00  0.00    +0.000 F 
ATOM     91  H5  UNL A   1      31.710  17.290  22.926  1.00  0.00    +0.000 H 
ENDBRANCH    9   10
ENDBRANCH    3    4
ENDBRANCH    2    3
ENDBRANCH   14    2
ENDBRANCH   15   14
ENDBRANCH   16   15
ENDBRANCH   17   16
ENDBRANCH   18   17
ENDBRANCH   19   18
ENDBRANCH   20   19
ENDBRANCH   21   20
ENDBRANCH   22   21
ENDBRANCH   24   22
ENDBRANCH   28   27
BRANCH   32   33
ATOM     33  C24 UNL A   1      39.296  31.958  35.450  1.00  0.00    +0.000 C 
ATOM     34  C25 UNL A   1      38.425  31.434  36.417  1.00  0.00    +0.000 C 
ATOM     35  F3  UNL A   1      37.965  30.180  36.301  1.00  0.00    +0.000 F 
ATOM     36  C26 UNL A   1      38.010  32.207  37.499  1.00  0.00    +0.000 C 
ATOM     37  F4  UNL A   1      37.158  31.695  38.398  1.00  0.00    +0.000 F 
ATOM     38  C27 UNL A   1      38.473  33.506  37.646  1.00  0.00    +0.000 C 
ATOM     39  F5  UNL A   1      38.083  34.243  38.695  1.00  0.00    +0.000 F 
ATOM     40  C28 UNL A   1      39.339  34.042  36.705  1.00  0.00    +0.000 C 
ATOM     41  F6  UNL A   1      39.796  35.293  36.851  1.00  0.00    +0.000 F 
ATOM     42  C29 UNL A   1      39.739  33.280  35.610  1.00  0.00    +0.000 C 
ATOM     43  F7  UNL A   1      40.577  33.824  34.715  1.00  0.00    +0.000 F 
ENDBRANCH   32   33
BRANCH   49   50
ATOM     50  C35 UNL A   1      44.847  27.581  34.121  1.00  0.00    +0.000 C 
ATOM     51  C36 UNL A   1      46.049  28.302  34.083  1.00  0.00    +0.000 C 
ATOM     52  F8  UNL A   1      46.147  29.415  33.340  1.00  0.00    +0.000 F 
ATOM     53  C37 UNL A   1      47.165  27.866  34.792  1.00  0.00    +0.000 C 
ATOM     54  F9  UNL A   1      48.313  28.553  34.720  1.00  0.00    +0.000 F 
ATOM     55  C38 UNL A   1      47.091  26.718  35.569  1.00  0.00    +0.000 C 
ATOM     56  F10 UNL A   1      48.164  26.306  36.259  1.00  0.00    +0.000 F 
ATOM     57  C39 UNL A   1      45.910  25.996  35.625  1.00  0.00    +0.000 C 
ATOM     58  F11 UNL A   1      45.835  24.892  36.383  1.00  0.00    +0.000 F 
ATOM     59  C40 UNL A   1      44.798  26.417  34.901  1.00  0.00    +0.000 C 
ATOM     60  F12 UNL A   1      43.668  25.698  34.972  1.00  0.00    +0.000 F 
ENDBRANCH   49   50
BRANCH   64   65
ATOM     65  C44 UNL A   1      42.287  26.376  27.753  1.00  0.00    +0.000 C 
ATOM     66  C45 UNL A   1      43.198  26.835  26.794  1.00  0.00    +0.000 C 
ATOM     67  F13 UNL A   1      43.662  28.092  26.858  1.00  0.00    +0.000 F 
ATOM     68  C46 UNL A   1      43.618  26.012  25.751  1.00  0.00    +0.000 C 
ATOM     69  F14 UNL A   1      44.471  26.482  24.831  1.00  0.00    +0.000 F 
ATOM     70  C47 UNL A   1      43.152  24.709  25.663  1.00  0.00    +0.000 C 
ATOM     71  F15 UNL A   1      43.568  23.913  24.669  1.00  0.00    +0.000 F 
ATOM     72  C48 UNL A   1      42.252  24.232  26.605  1.00  0.00    +0.000 C 
ATOM     73  F16 UNL A   1      41.809  22.970  26.530  1.00  0.00    +0.000 F 
ATOM     74  C49 UNL A   1      41.812  25.062  27.632  1.00  0.00    +0.000 C 
ATOM     75  F17 UNL A   1      40.940  24.578  28.529  1.00  0.00    +0.000 F 
ENDBRANCH   64   65
TORSDOF 17
ENDMDL
MODEL 7
REMARK VINA RESULT:     -10.4      4.523      9.671
ROOT
ATOM     28  C20 UNL A   1      41.417  26.418  27.945  1.00  0.00    +0.000 C 
ATOM     29  C21 UNL A   1      42.819  26.678  27.460  1.00  0.00    +0.000 C 
ATOM     30  N4  UNL A   1      43.575  27.732  27.642  1.00  0.00    +0.000 N 
ATOM     31  C22 UNL A   1      44.776  27.455  27.003  1.00  0.00    +0.000 C 
ATOM     32  C23 UNL A   1      45.868  28.246  26.878  1.00  0.00    +0.000 C 
ATOM     44  C30 UNL A   1      45.974  29.581  27.405  1.00  0.00    +0.000 C 
ATOM     45  C31 UNL A   1      47.037  30.465  27.308  1.00  0.00    +0.000 C 
ATOM     46  C32 UNL A   1      46.696  31.635  27.994  1.00  0.00    +0.000 C 
ATOM     47  C33 UNL A   1      45.410  31.494  28.487  1.00  0.00    +0.000 C 
ATOM     48  N5  UNL A   1      44.980  30.229  28.121  1.00  0.00    +0.000 N 
ATOM     49  C34 UNL A   1      44.630  32.441  29.241  1.00  0.00    +0.000 C 
ATOM     61  C41 UNL A   1      43.355  32.244  29.654  1.00  0.00    +0.000 C 
ATOM     62  N6  UNL A   1      42.544  31.134  29.470  1.00  0.00    +0.000 N 
ATOM     63  C42 UNL A   1      41.416  31.409  30.075  1.00  0.00    +0.000 C 
ATOM     64  C43 UNL A   1      40.177  30.568  30.197  1.00  0.00    +0.000 C 
ATOM     76  C50 UNL A   1      40.174  29.319  29.695  1.00  0.00    +0.000 C 
ATOM     77  C51 UNL A   1      39.047  28.392  29.748  1.00  0.00    +0.000 C 
ATOM     78  C52 UNL A   1      39.403  27.236  29.168  1.00  0.00    +0.000 C 
ATOM     79  C53 UNL A   1      40.769  27.361  28.656  1.00  0.00    +0.000 C 
ATOM     80  N7  UNL A   1      41.159  28.618  29.045  1.00  0.00    +0.000 N 
ATOM     81  C54 UNL A   1      41.384  32.732  30.717  1.00  0.00    +0.000 C 
ATOM     82  C55 UNL A   1      42.581  33.209  30.406  1.00  0.00    +0.000 C 
ATOM     83  C56 UNL A   1      44.662  26.125  26.448  1.00  0.00    +0.000 C 
ATOM     84  C57 UNL A   1      43.457  25.616  26.666  1.00  0.00    +0.000 C 
ATOM    109  H23 UNL A   1      47.926  30.289  26.815  1.00  0.00    +0.000 H 
ATOM    110  H24 UNL A   1      47.302  32.462  28.114  1.00  0.00    +0.000 H 
ATOM    111  H25 UNL A   1      44.099  29.846  28.338  1.00  0.00    +0.000 H 
ATOM    112  H26 UNL A   1      38.125  28.593  30.164  1.00  0.00    +0.000 H 
ATOM    113  H27 UNL A   1      38.811  26.395  29.094  1.00  0.00    +0.000 H 
ATOM    114  H28 UNL A   1      42.058  28.981  28.876  1.00  0.00    +0.000 H 
ATOM    115  H29 UNL A   1      40.628  33.172  31.265  1.00  0.00    +0.000 H 
ATOM    116  H30 UNL A   1      42.919  34.149  30.668  1.00  0.00    +0.000 H 
ATOM    117  H31 UNL A   1      45.421  25.635  25.948  1.00  0.00    +0.000 H 
ATOM    118  H32 UNL A   1      43.068  24.711  26.358  1.00  0.00    +0.000 H 
ENDROOT
BRANCH   28   27
ATOM     27  C19 UNL A   1      40.712  25.161  27.584  1.00  0.00    +0.000 C 
ATOM    107  H21 UNL A   1      38.185  24.078  25.650  1.00  0.00    +0.000 H 
ATOM    108  H22 UNL A   1      39.327  26.113  26.299  1.00  0.00    +0.000 H 
ATOM     85  C58 UNL A   1      41.109  23.922  28.111  1.00  0.00    +0.000 C 
ATOM     86  C59 UNL A   1      40.525  22.740  27.645  1.00  0.00    +0.000 C 
ATOM    120  H34 UNL A   1      40.841  21.828  28.010  1.00  0.00    +0.000 H 
ATOM     24  C16 UNL A   1      39.511  22.799  26.683  1.00  0.00    +0.000 C 
ATOM     25  C17 UNL A   1      39.015  24.033  26.262  1.00  0.00    +0.000 C 
ATOM     26  C18 UNL A   1      39.646  25.205  26.671  1.00  0.00    +0.000 C 
ATOM    119  H33 UNL A   1      41.835  23.884  28.844  1.00  0.00    +0.000 H 
BRANCH   24   22
ATOM     22  C15 UNL A   1      39.010  21.539  26.092  1.00  0.00    +0.000 C 
ATOM     23  O3  UNL A   1      39.783  20.605  25.896  1.00  0.00    +0.000 O 
BRANCH   22   21
ATOM    106  H20 UNL A   1      37.035  21.505  26.455  1.00  0.00    +0.000 H 
ATOM     21  N3  UNL A   1      37.688  21.439  25.721  1.00  0.00    +0.000 N 
BRANCH   21   20
ATOM    105  H19 UNL A   1      36.252  20.641  24.504  1.00  0.00    +0.000 H 
ATOM     20  C14 UNL A   1      37.123  21.251  24.394  1.00  0.00    +0.000 C 
ATOM    104  H18 UNL A   1      37.863  20.790  23.773  1.00  0.00    +0.000 H 
BRANCH   20   19
ATOM     19  C13 UNL A   1      36.681  22.553  23.735  1.00  0.00    +0.000 C 
ATOM    102  H16 UNL A   1      37.557  23.062  23.390  1.00  0.00    +0.000 H 
ATOM    103  H17 UNL A   1      36.008  22.274  22.952  1.00  0.00    +0.000 H 
BRANCH   19   18
ATOM     18  C12 UNL A   1      35.903  23.513  24.635  1.00  0.00    +0.000 C 
ATOM    100  H14 UNL A   1      35.361  22.930  25.349  1.00  0.00    +0.000 H 
ATOM    101  H15 UNL A   1      36.633  24.162  25.073  1.00  0.00    +0.000 H 
BRANCH   18   17
ATOM     17  C11 UNL A   1      34.905  24.428  23.920  1.00  0.00    +0.000 C 
ATOM     98  H12 UNL A   1      34.793  25.316  24.506  1.00  0.00    +0.000 H 
ATOM     99  H13 UNL A   1      35.314  24.600  22.946  1.00  0.00    +0.000 H 
BRANCH   17   16
ATOM     97  H11 UNL A   1      33.278  23.260  24.555  1.00  0.00    +0.000 H 
ATOM     96  H10 UNL A   1      33.535  23.264  22.784  1.00  0.00    +0.000 H 
ATOM     16  C10 UNL A   1      33.507  23.840  23.686  1.00  0.00    +0.000 C 
BRANCH   16   15
ATOM     95  H9  UNL A   1      31.638  24.471  22.898  1.00  0.00    +0.000 H 
ATOM     94  H8  UNL A   1      32.788  25.778  23.163  1.00  0.00    +0.000 H 
ATOM     15  C9  UNL A   1      32.384  24.868  23.554  1.00  0.00    +0.000 C 
BRANCH   15   14
ATOM     93  H7  UNL A   1      31.085  24.512  25.170  1.00  0.00    +0.000 H 
ATOM     14  N2  UNL A   1      31.767  25.139  24.836  1.00  0.00    +0.000 N 
BRANCH   14    2
ATOM      1  O1  UNL A   1      31.754  26.365  26.781  1.00  0.00    +0.000 O 
ATOM      2  C1  UNL A   1      32.091  26.232  25.609  1.00  0.00    +0.000 C 
BRANCH    2    3
ATOM      3  C2  UNL A   1      32.887  27.304  24.872  1.00  0.00    +0.000 C 
ATOM     87  H1  UNL A   1      32.352  27.592  23.991  1.00  0.00    +0.000 H 
ATOM     88  H2  UNL A   1      33.844  26.900  24.615  1.00  0.00    +0.000 H 
BRANCH    3    4
ATOM      4  C3  UNL A   1      33.096  28.515  25.740  1.00  0.00    +0.000 C 
ATOM      5  C4  UNL A   1      32.011  29.467  25.876  1.00  0.00    +0.000 C 
ATOM      6  C5  UNL A   1      32.165  30.581  26.603  1.00  0.00    +0.000 C 
ATOM      7  C6  UNL A   1      33.450  30.857  27.301  1.00  0.00    +0.000 C 
ATOM      8  O2  UNL A   1      33.559  31.903  27.931  1.00  0.00    +0.000 O 
ATOM      9  N1  UNL A   1      34.423  29.877  27.172  1.00  0.00    +0.000 N 
ATOM     13  C8  UNL A   1      34.244  28.742  26.400  1.00  0.00    +0.000 C 
ATOM     89  H3  UNL A   1      31.110  29.284  25.408  1.00  0.00    +0.000 H 
ATOM     90  H4  UNL A   1      31.386  31.253  26.679  1.00  0.00    +0.000 H 
ATOM     92  H6  UNL A   1      35.011  28.055  26.328  1.00  0.00    +0.000 H 
BRANCH    9   10
ATOM     10  C7  UNL A   1      35.677  30.115  27.840  1.00  0.00    +0.000 C 
ATOM     11  F1  UNL A   1      35.768  29.377  28.973  1.00  0.00    +0.000 F 
ATOM     12  F2  UNL A   1      36.725  29.793  27.043  1.00  0.00    +0.000 F 
ATOM     91  H5  UNL A   1      35.711  31.158  28.077  1.00  0.00    +0.000 H 
ENDBRANCH    9   10
ENDBRANCH    3    4
ENDBRANCH    2    3
ENDBRANCH   14    2
ENDBRANCH   15   14
ENDBRANCH   16   15
ENDBRANCH   17   16
ENDBRANCH   18   17
ENDBRANCH   19   18
ENDBRANCH   20   19
ENDBRANCH   21   20
ENDBRANCH   22   21
ENDBRANCH   24   22
ENDBRANCH   28   27
BRANCH   32   33
ATOM     33  C24 UNL A   1      47.051  27.693  26.139  1.00  0.00    +0.000 C 
ATOM     34  C25 UNL A   1      47.140  27.766  24.741  1.00  0.00    +0.000 C 
ATOM     35  F3  UNL A   1      46.123  28.269  24.026  1.00  0.00    +0.000 F 
ATOM     36  C26 UNL A   1      48.271  27.304  24.072  1.00  0.00    +0.000 C 
ATOM     37  F4  UNL A   1      48.325  27.360  22.734  1.00  0.00    +0.000 F 
ATOM     38  C27 UNL A   1      49.339  26.782  24.787  1.00  0.00    +0.000 C 
ATOM     39  F5  UNL A   1      50.431  26.351  24.141  1.00  0.00    +0.000 F 
ATOM     40  C28 UNL A   1      49.274  26.706  26.170  1.00  0.00    +0.000 C 
ATOM     41  F6  UNL A   1      50.309  26.212  26.862  1.00  0.00    +0.000 F 
ATOM     42  C29 UNL A   1      48.136  27.147  26.841  1.00  0.00    +0.000 C 
ATOM     43  F7  UNL A   1      48.101  27.061  28.179  1.00  0.00    +0.000 F 
ENDBRANCH   32   33
BRANCH   49   50
ATOM     50  C35 UNL A   1      45.273  33.749  29.589  1.00  0.00    +0.000 C 
ATOM     51  C36 UNL A   1      45.130  34.872  28.761  1.00  0.00    +0.000 C 
ATOM     52  F8  UNL A   1      44.470  34.772  27.597  1.00  0.00    +0.000 F 
ATOM     53  C37 UNL A   1      45.687  36.096  29.116  1.00  0.00    +0.000 C 
ATOM     54  F9  UNL A   1      45.564  37.150  28.298  1.00  0.00    +0.000 F 
ATOM     55  C38 UNL A   1      46.375  36.227  30.315  1.00  0.00    +0.000 C 
ATOM     56  F10 UNL A   1      46.902  37.410  30.660  1.00  0.00    +0.000 F 
ATOM     57  C39 UNL A   1      46.521  35.131  31.151  1.00  0.00    +0.000 C 
ATOM     58  F11 UNL A   1      47.177  35.259  32.313  1.00  0.00    +0.000 F 
ATOM     59  C40 UNL A   1      45.983  33.899  30.789  1.00  0.00    +0.000 C 
ATOM     60  F12 UNL A   1      46.141  32.855  31.617  1.00  0.00    +0.000 F 
ENDBRANCH   49   50
BRANCH   64   65
ATOM     65  C44 UNL A   1      38.956  31.095  30.856  1.00  0.00    +0.000 C 
ATOM     66  C45 UNL A   1      37.975  31.766  30.116  1.00  0.00    +0.000 C 
ATOM     67  F13 UNL A   1      38.156  31.985  28.805  1.00  0.00    +0.000 F 
ATOM     68  C46 UNL A   1      36.814  32.237  30.725  1.00  0.00    +0.000 C 
ATOM     69  F14 UNL A   1      35.900  32.898  30.001  1.00  0.00    +0.000 F 
ATOM     70  C47 UNL A   1      36.603  32.025  32.079  1.00  0.00    +0.000 C 
ATOM     71  F15 UNL A   1      35.479  32.464  32.661  1.00  0.00    +0.000 F 
ATOM     72  C48 UNL A   1      37.560  31.359  32.831  1.00  0.00    +0.000 C 
ATOM     73  F16 UNL A   1      37.355  31.141  34.137  1.00  0.00    +0.000 F 
ATOM     74  C49 UNL A   1      38.732  30.911  32.228  1.00  0.00    +0.000 C 
ATOM     75  F17 UNL A   1      39.644  30.273  32.977  1.00  0.00    +0.000 F 
ENDBRANCH   64   65
TORSDOF 17
ENDMDL
MODEL 8
REMARK VINA RESULT:     -10.4     19.949     26.025
ROOT
ATOM     28  C20 UNL A   1      52.813  20.026  11.515  1.00  0.00    +0.000 C 
ATOM     29  C21 UNL A   1      54.165  19.430  11.226  1.00  0.00    +0.000 C 
ATOM     30  N4  UNL A   1      55.207  19.324  12.014  1.00  0.00    +0.000 N 
ATOM     31  C22 UNL A   1      56.187  18.686  11.265  1.00  0.00    +0.000 C 
ATOM     32  C23 UNL A   1      57.456  18.377  11.623  1.00  0.00    +0.000 C 
ATOM     44  C30 UNL A   1      58.040  18.681  12.903  1.00  0.00    +0.000 C 
ATOM     45  C31 UNL A   1      59.327  18.423  13.347  1.00  0.00    +0.000 C 
ATOM     46  C32 UNL A   1      59.432  18.874  14.667  1.00  0.00    +0.000 C 
ATOM     47  C33 UNL A   1      58.224  19.443  15.032  1.00  0.00    +0.000 C 
ATOM     48  N5  UNL A   1      57.378  19.315  13.943  1.00  0.00    +0.000 N 
ATOM     49  C34 UNL A   1      57.864  20.055  16.285  1.00  0.00    +0.000 C 
ATOM     61  C41 UNL A   1      56.668  20.631  16.553  1.00  0.00    +0.000 C 
ATOM     62  N6  UNL A   1      55.556  20.750  15.731  1.00  0.00    +0.000 N 
ATOM     63  C42 UNL A   1      54.642  21.354  16.448  1.00  0.00    +0.000 C 
ATOM     64  C43 UNL A   1      53.242  21.742  16.064  1.00  0.00    +0.000 C 
ATOM     76  C50 UNL A   1      52.769  21.395  14.853  1.00  0.00    +0.000 C 
ATOM     77  C51 UNL A   1      51.431  21.699  14.353  1.00  0.00    +0.000 C 
ATOM     78  C52 UNL A   1      51.299  21.189  13.118  1.00  0.00    +0.000 C 
ATOM     79  C53 UNL A   1      52.562  20.567  12.722  1.00  0.00    +0.000 C 
ATOM     80  N7  UNL A   1      53.365  20.705  13.827  1.00  0.00    +0.000 N 
ATOM     81  C54 UNL A   1      55.071  21.687  17.814  1.00  0.00    +0.000 C 
ATOM     82  C55 UNL A   1      56.322  21.248  17.817  1.00  0.00    +0.000 C 
ATOM     83  C56 UNL A   1      55.613  18.405   9.968  1.00  0.00    +0.000 C 
ATOM     84  C57 UNL A   1      54.378  18.882   9.877  1.00  0.00    +0.000 C 
ATOM    109  H23 UNL A   1      60.077  17.976  12.798  1.00  0.00    +0.000 H 
ATOM    110  H24 UNL A   1      60.268  18.794  15.267  1.00  0.00    +0.000 H 
ATOM    111  H25 UNL A   1      56.445  19.628  13.911  1.00  0.00    +0.000 H 
ATOM    112  H26 UNL A   1      50.704  22.223  14.864  1.00  0.00    +0.000 H 
ATOM    113  H27 UNL A   1      50.444  21.229  12.542  1.00  0.00    +0.000 H 
ATOM    114  H28 UNL A   1      54.280  20.345  13.878  1.00  0.00    +0.000 H 
ATOM    115  H29 UNL A   1      54.538  22.142  18.572  1.00  0.00    +0.000 H 
ATOM    116  H30 UNL A   1      56.968  21.336  18.617  1.00  0.00    +0.000 H 
ATOM    117  H31 UNL A   1      56.099  17.898   9.212  1.00  0.00    +0.000 H 
ATOM    118  H32 UNL A   1      53.735  18.871   9.070  1.00  0.00    +0.000 H 
ENDROOT
BRANCH   28   27
ATOM     27  C19 UNL A   1      51.773  20.091  10.455  1.00  0.00    +0.000 C 
ATOM    107  H21 UNL A   1      50.424  22.278   8.287  1.00  0.00    +0.000 H 
ATOM    108  H22 UNL A   1      52.077  22.146  10.053  1.00  0.00    +0.000 H 
ATOM     85  C58 UNL A   1      51.025  18.960  10.092  1.00  0.00    +0.000 C 
ATOM     86  C59 UNL A   1      50.158  19.012   8.997  1.00  0.00    +0.000 C 
ATOM    120  H34 UNL A   1      49.634  18.170   8.712  1.00  0.00    +0.000 H 
ATOM     24  C16 UNL A   1      50.004  20.208   8.289  1.00  0.00    +0.000 C 
ATOM     25  C17 UNL A   1      50.636  21.371   8.731  1.00  0.00    +0.000 C 
ATOM     26  C18 UNL A   1      51.553  21.301   9.776  1.00  0.00    +0.000 C 
ATOM    119  H33 UNL A   1      51.117  18.088  10.636  1.00  0.00    +0.000 H 
BRANCH   24   22
ATOM     22  C15 UNL A   1      49.202  20.208   7.046  1.00  0.00    +0.000 C 
ATOM     23  O3  UNL A   1      48.929  21.270   6.494  1.00  0.00    +0.000 O 
BRANCH   22   21
ATOM    106  H20 UNL A   1      48.937  18.217   7.075  1.00  0.00    +0.000 H 
ATOM     21  N3  UNL A   1      48.727  19.018   6.543  1.00  0.00    +0.000 N 
BRANCH   21   20
ATOM    105  H19 UNL A   1      48.477  18.040   4.764  1.00  0.00    +0.000 H 
ATOM     20  C14 UNL A   1      47.955  18.781   5.333  1.00  0.00    +0.000 C 
ATOM    104  H18 UNL A   1      47.861  19.705   4.803  1.00  0.00    +0.000 H 
BRANCH   20   19
ATOM     19  C13 UNL A   1      46.556  18.236   5.605  1.00  0.00    +0.000 C 
ATOM    102  H16 UNL A   1      46.657  17.353   6.202  1.00  0.00    +0.000 H 
ATOM    103  H17 UNL A   1      46.022  19.025   6.089  1.00  0.00    +0.000 H 
BRANCH   19   18
ATOM     18  C12 UNL A   1      45.739  17.873   4.365  1.00  0.00    +0.000 C 
ATOM    100  H14 UNL A   1      46.141  16.969   3.959  1.00  0.00    +0.000 H 
ATOM    101  H15 UNL A   1      44.725  17.784   4.697  1.00  0.00    +0.000 H 
BRANCH   18   17
ATOM     17  C11 UNL A   1      45.725  18.925   3.252  1.00  0.00    +0.000 C 
ATOM     98  H12 UNL A   1      46.738  19.120   2.971  1.00  0.00    +0.000 H 
ATOM     99  H13 UNL A   1      45.127  18.510   2.467  1.00  0.00    +0.000 H 
BRANCH   17   16
ATOM     97  H11 UNL A   1      45.817  20.838   4.119  1.00  0.00    +0.000 H 
ATOM     96  H10 UNL A   1      44.205  20.065   4.208  1.00  0.00    +0.000 H 
ATOM     16  C10 UNL A   1      45.069  20.266   3.610  1.00  0.00    +0.000 C 
BRANCH   16   15
ATOM     95  H9  UNL A   1      45.176  20.789   1.553  1.00  0.00    +0.000 H 
ATOM     94  H8  UNL A   1      44.827  22.142   2.624  1.00  0.00    +0.000 H 
ATOM     15  C9  UNL A   1      44.629  21.112   2.415  1.00  0.00    +0.000 C 
BRANCH   15   14
ATOM     93  H7  UNL A   1      42.586  21.593   2.541  1.00  0.00    +0.000 H 
ATOM     14  N2  UNL A   1      43.216  20.948   2.147  1.00  0.00    +0.000 N 
BRANCH   14    2
ATOM      1  O1  UNL A   1      43.130  19.661   0.243  1.00  0.00    +0.000 O 
ATOM      2  C1  UNL A   1      42.713  19.931   1.365  1.00  0.00    +0.000 C 
BRANCH    2    3
ATOM      3  C2  UNL A   1      41.552  19.172   1.999  1.00  0.00    +0.000 C 
ATOM     87  H1  UNL A   1      41.705  19.121   3.056  1.00  0.00    +0.000 H 
ATOM     88  H2  UNL A   1      41.517  18.190   1.576  1.00  0.00    +0.000 H 
BRANCH    3    4
ATOM      4  C3  UNL A   1      40.242  19.860   1.722  1.00  0.00    +0.000 C 
ATOM      5  C4  UNL A   1      39.193  19.780   2.719  1.00  0.00    +0.000 C 
ATOM      6  C5  UNL A   1      37.996  20.340   2.500  1.00  0.00    +0.000 C 
ATOM      7  C6  UNL A   1      37.724  21.071   1.232  1.00  0.00    +0.000 C 
ATOM      8  O2  UNL A   1      36.606  21.542   1.058  1.00  0.00    +0.000 O 
ATOM      9  N1  UNL A   1      38.790  21.154   0.349  1.00  0.00    +0.000 N 
ATOM     13  C8  UNL A   1      40.013  20.551   0.593  1.00  0.00    +0.000 C 
ATOM     89  H3  UNL A   1      39.370  19.288   3.608  1.00  0.00    +0.000 H 
ATOM     90  H4  UNL A   1      37.257  20.263   3.215  1.00  0.00    +0.000 H 
ATOM     92  H6  UNL A   1      40.765  20.634  -0.109  1.00  0.00    +0.000 H 
BRANCH    9   10
ATOM     10  C7  UNL A   1      38.558  21.858  -0.886  1.00  0.00    +0.000 C 
ATOM     11  F1  UNL A   1      38.700  23.195  -0.713  1.00  0.00    +0.000 F 
ATOM     12  F2  UNL A   1      39.429  21.464  -1.846  1.00  0.00    +0.000 F 
ATOM     91  H5  UNL A   1      37.558  21.631  -1.191  1.00  0.00    +0.000 H 
ENDBRANCH    9   10
ENDBRANCH    3    4
ENDBRANCH    2    3
ENDBRANCH   14    2
ENDBRANCH   15   14
ENDBRANCH   16   15
ENDBRANCH   17   16
ENDBRANCH   18   17
ENDBRANCH   19   18
ENDBRANCH   20   19
ENDBRANCH   21   20
ENDBRANCH   22   21
ENDBRANCH   24   22
ENDBRANCH   28   27
BRANCH   32   33
ATOM     33  C24 UNL A   1      58.314  17.669  10.617  1.00  0.00    +0.000 C 
ATOM     34  C25 UNL A   1      59.158  18.376   9.749  1.00  0.00    +0.000 C 
ATOM     35  F3  UNL A   1      59.157  19.718   9.750  1.00  0.00    +0.000 F 
ATOM     36  C26 UNL A   1      59.995  17.705   8.860  1.00  0.00    +0.000 C 
ATOM     37  F4  UNL A   1      60.775  18.400   8.022  1.00  0.00    +0.000 F 
ATOM     38  C27 UNL A   1      60.020  16.318   8.840  1.00  0.00    +0.000 C 
ATOM     39  F5  UNL A   1      60.836  15.674   7.993  1.00  0.00    +0.000 F 
ATOM     40  C28 UNL A   1      59.198  15.599   9.694  1.00  0.00    +0.000 C 
ATOM     41  F6  UNL A   1      59.228  14.260   9.682  1.00  0.00    +0.000 F 
ATOM     42  C29 UNL A   1      58.344  16.267  10.568  1.00  0.00    +0.000 C 
ATOM     43  F7  UNL A   1      57.559  15.546  11.382  1.00  0.00    +0.000 F 
ENDBRANCH   32   33
BRANCH   49   50
ATOM     50  C35 UNL A   1      58.893  20.065  17.374  1.00  0.00    +0.000 C 
ATOM     51  C36 UNL A   1      59.197  18.901  18.095  1.00  0.00    +0.000 C 
ATOM     52  F8  UNL A   1      58.515  17.768  17.868  1.00  0.00    +0.000 F 
ATOM     53  C37 UNL A   1      60.190  18.905  19.071  1.00  0.00    +0.000 C 
ATOM     54  F9  UNL A   1      60.446  17.790  19.769  1.00  0.00    +0.000 F 
ATOM     55  C38 UNL A   1      60.911  20.063  19.326  1.00  0.00    +0.000 C 
ATOM     56  F10 UNL A   1      61.874  20.062  20.258  1.00  0.00    +0.000 F 
ATOM     57  C39 UNL A   1      60.630  21.222  18.619  1.00  0.00    +0.000 C 
ATOM     58  F11 UNL A   1      61.333  22.338  18.858  1.00  0.00    +0.000 F 
ATOM     59  C40 UNL A   1      59.624  21.227  17.657  1.00  0.00    +0.000 C 
ATOM     60  F12 UNL A   1      59.372  22.364  16.989  1.00  0.00    +0.000 F 
ENDBRANCH   49   50
BRANCH   64   65
ATOM     65  C44 UNL A   1      52.378  22.506  16.998  1.00  0.00    +0.000 C 
ATOM     66  C45 UNL A   1      52.277  23.899  16.904  1.00  0.00    +0.000 C 
ATOM     67  F13 UNL A   1      53.007  24.565  15.997  1.00  0.00    +0.000 F 
ATOM     68  C46 UNL A   1      51.443  24.617  17.759  1.00  0.00    +0.000 C 
ATOM     69  F14 UNL A   1      51.382  25.953  17.667  1.00  0.00    +0.000 F 
ATOM     70  C47 UNL A   1      50.680  23.952  18.707  1.00  0.00    +0.000 C 
ATOM     71  F15 UNL A   1      49.867  24.642  19.518  1.00  0.00    +0.000 F 
ATOM     72  C48 UNL A   1      50.761  22.572  18.815  1.00  0.00    +0.000 C 
ATOM     73  F16 UNL A   1      50.015  21.924  19.720  1.00  0.00    +0.000 F 
ATOM     74  C49 UNL A   1      51.612  21.856  17.978  1.00  0.00    +0.000 C 
ATOM     75  F17 UNL A   1      51.676  20.522  18.103  1.00  0.00    +0.000 F 
ENDBRANCH   64   65
TORSDOF 17
ENDMDL
MODEL 9
REMARK VINA RESULT:     -10.4      1.521      2.532
ROOT
ATOM     28  C20 UNL A   1      38.492  29.988  29.630  1.00  0.00    +0.000 C 
ATOM     29  C21 UNL A   1      38.752  30.486  31.028  1.00  0.00    +0.000 C 
ATOM     30  N4  UNL A   1      39.751  30.211  31.830  1.00  0.00    +0.000 N 
ATOM     31  C22 UNL A   1      39.519  30.939  32.989  1.00  0.00    +0.000 C 
ATOM     32  C23 UNL A   1      40.250  30.968  34.129  1.00  0.00    +0.000 C 
ATOM     44  C30 UNL A   1      41.448  30.202  34.350  1.00  0.00    +0.000 C 
ATOM     45  C31 UNL A   1      42.243  30.153  35.483  1.00  0.00    +0.000 C 
ATOM     46  C32 UNL A   1      43.315  29.291  35.228  1.00  0.00    +0.000 C 
ATOM     47  C33 UNL A   1      43.168  28.777  33.951  1.00  0.00    +0.000 C 
ATOM     48  N5  UNL A   1      42.021  29.347  33.422  1.00  0.00    +0.000 N 
ATOM     49  C34 UNL A   1      44.014  27.839  33.259  1.00  0.00    +0.000 C 
ATOM     61  C41 UNL A   1      43.779  27.349  32.018  1.00  0.00    +0.000 C 
ATOM     62  N6  UNL A   1      42.728  27.631  31.157  1.00  0.00    +0.000 N 
ATOM     63  C42 UNL A   1      42.958  26.938  30.070  1.00  0.00    +0.000 C 
ATOM     64  C43 UNL A   1      42.146  26.857  28.809  1.00  0.00    +0.000 C 
ATOM     76  C50 UNL A   1      41.051  27.629  28.678  1.00  0.00    +0.000 C 
ATOM     77  C51 UNL A   1      40.176  27.659  27.509  1.00  0.00    +0.000 C 
ATOM     78  C52 UNL A   1      39.197  28.552  27.718  1.00  0.00    +0.000 C 
ATOM     79  C53 UNL A   1      39.347  29.119  29.058  1.00  0.00    +0.000 C 
ATOM     80  N7  UNL A   1      40.494  28.540  29.541  1.00  0.00    +0.000 N 
ATOM     81  C54 UNL A   1      44.189  26.134  30.118  1.00  0.00    +0.000 C 
ATOM     82  C55 UNL A   1      44.636  26.401  31.338  1.00  0.00    +0.000 C 
ATOM     83  C56 UNL A   1      38.300  31.689  32.782  1.00  0.00    +0.000 C 
ATOM     84  C57 UNL A   1      37.763  31.412  31.601  1.00  0.00    +0.000 C 
ATOM    109  H23 UNL A   1      42.074  30.664  36.363  1.00  0.00    +0.000 H 
ATOM    110  H24 UNL A   1      44.085  29.076  35.880  1.00  0.00    +0.000 H 
ATOM    111  H25 UNL A   1      41.665  29.170  32.521  1.00  0.00    +0.000 H 
ATOM    112  H26 UNL A   1      40.292  27.086  26.659  1.00  0.00    +0.000 H 
ATOM    113  H27 UNL A   1      38.457  28.799  27.042  1.00  0.00    +0.000 H 
ATOM    114  H28 UNL A   1      40.880  28.756  30.420  1.00  0.00    +0.000 H 
ATOM    115  H29 UNL A   1      44.597  25.523  29.393  1.00  0.00    +0.000 H 
ATOM    116  H30 UNL A   1      45.486  25.986  31.749  1.00  0.00    +0.000 H 
ATOM    117  H31 UNL A   1      37.900  32.353  33.463  1.00  0.00    +0.000 H 
ATOM    118  H32 UNL A   1      36.881  31.757  31.191  1.00  0.00    +0.000 H 
ENDROOT
BRANCH   28   27
ATOM     27  C19 UNL A   1      37.260  30.389  28.901  1.00  0.00    +0.000 C 
ATOM    107  H21 UNL A   1      34.487  29.033  27.571  1.00  0.00    +0.000 H 
ATOM    108  H22 UNL A   1      36.529  28.413  28.717  1.00  0.00    +0.000 H 
ATOM     85  C58 UNL A   1      36.990  31.734  28.605  1.00  0.00    +0.000 C 
ATOM     86  C59 UNL A   1      35.761  32.098  28.049  1.00  0.00    +0.000 C 
ATOM    120  H34 UNL A   1      35.551  33.092  27.861  1.00  0.00    +0.000 H 
ATOM     24  C16 UNL A   1      34.815  31.112  27.748  1.00  0.00    +0.000 C 
ATOM     25  C17 UNL A   1      35.134  29.763  27.910  1.00  0.00    +0.000 C 
ATOM     26  C18 UNL A   1      36.328  29.407  28.529  1.00  0.00    +0.000 C 
ATOM    119  H33 UNL A   1      37.702  32.456  28.797  1.00  0.00    +0.000 H 
BRANCH   24   22
ATOM     22  C15 UNL A   1      33.466  31.525  27.303  1.00  0.00    +0.000 C 
ATOM     23  O3  UNL A   1      33.051  32.649  27.570  1.00  0.00    +0.000 O 
BRANCH   22   21
ATOM    106  H20 UNL A   1      32.872  30.502  25.680  1.00  0.00    +0.000 H 
ATOM     21  N3  UNL A   1      32.666  30.627  26.634  1.00  0.00    +0.000 N 
BRANCH   21   20
ATOM    105  H19 UNL A   1      30.775  29.880  26.416  1.00  0.00    +0.000 H 
ATOM     20  C14 UNL A   1      31.557  29.835  27.144  1.00  0.00    +0.000 C 
ATOM    104  H18 UNL A   1      31.255  30.240  28.087  1.00  0.00    +0.000 H 
BRANCH   20   19
ATOM     19  C13 UNL A   1      31.905  28.363  27.339  1.00  0.00    +0.000 C 
ATOM    102  H16 UNL A   1      32.883  28.310  27.770  1.00  0.00    +0.000 H 
ATOM    103  H17 UNL A   1      31.137  27.959  27.964  1.00  0.00    +0.000 H 
BRANCH   19   18
ATOM     18  C12 UNL A   1      31.904  27.513  26.068  1.00  0.00    +0.000 C 
ATOM    100  H14 UNL A   1      31.023  27.754  25.511  1.00  0.00    +0.000 H 
ATOM    101  H15 UNL A   1      32.816  27.747  25.558  1.00  0.00    +0.000 H 
BRANCH   18   17
ATOM     17  C11 UNL A   1      31.924  25.998  26.286  1.00  0.00    +0.000 C 
ATOM     98  H12 UNL A   1      31.486  25.796  27.241  1.00  0.00    +0.000 H 
ATOM     99  H13 UNL A   1      31.384  25.578  25.463  1.00  0.00    +0.000 H 
BRANCH   17   16
ATOM     97  H11 UNL A   1      33.748  25.519  27.214  1.00  0.00    +0.000 H 
ATOM     96  H10 UNL A   1      33.862  25.762  25.445  1.00  0.00    +0.000 H 
ATOM     16  C10 UNL A   1      33.309  25.336  26.256  1.00  0.00    +0.000 C 
BRANCH   16   15
ATOM     95  H9  UNL A   1      32.291  23.506  25.900  1.00  0.00    +0.000 H 
ATOM     94  H8  UNL A   1      33.688  23.360  26.961  1.00  0.00    +0.000 H 
ATOM     15  C9  UNL A   1      33.299  23.818  26.076  1.00  0.00    +0.000 C 
BRANCH   15   14
ATOM     93  H7  UNL A   1      35.083  23.532  24.998  1.00  0.00    +0.000 H 
ATOM     14  N2  UNL A   1      34.107  23.418  24.943  1.00  0.00    +0.000 N 
BRANCH   14    2
ATOM      1  O1  UNL A   1      32.982  21.809  23.745  1.00  0.00    +0.000 O 
ATOM      2  C1  UNL A   1      33.571  22.885  23.791  1.00  0.00    +0.000 C 
BRANCH    2    3
ATOM      3  C2  UNL A   1      33.801  23.733  22.545  1.00  0.00    +0.000 C 
ATOM     87  H1  UNL A   1      33.509  23.172  21.682  1.00  0.00    +0.000 H 
ATOM     88  H2  UNL A   1      34.840  23.987  22.493  1.00  0.00    +0.000 H 
BRANCH    3    4
ATOM      4  C3  UNL A   1      32.999  25.005  22.602  1.00  0.00    +0.000 C 
ATOM      5  C4  UNL A   1      31.556  24.911  22.701  1.00  0.00    +0.000 C 
ATOM      6  C5  UNL A   1      30.797  26.015  22.711  1.00  0.00    +0.000 C 
ATOM      7  C6  UNL A   1      31.423  27.363  22.637  1.00  0.00    +0.000 C 
ATOM      8  O2  UNL A   1      30.691  28.347  22.618  1.00  0.00    +0.000 O 
ATOM      9  N1  UNL A   1      32.809  27.378  22.599  1.00  0.00    +0.000 N 
ATOM     13  C8  UNL A   1      33.569  26.221  22.573  1.00  0.00    +0.000 C 
ATOM     89  H3  UNL A   1      31.108  23.984  22.766  1.00  0.00    +0.000 H 
ATOM     90  H4  UNL A   1      29.771  25.929  22.771  1.00  0.00    +0.000 H 
ATOM     92  H6  UNL A   1      34.598  26.295  22.529  1.00  0.00    +0.000 H 
BRANCH    9   10
ATOM     10  C7  UNL A   1      33.443  28.669  22.531  1.00  0.00    +0.000 C 
ATOM     11  F1  UNL A   1      33.400  29.293  23.733  1.00  0.00    +0.000 F 
ATOM     12  F2  UNL A   1      34.743  28.558  22.162  1.00  0.00    +0.000 F 
ATOM     91  H5  UNL A   1      32.909  29.241  21.800  1.00  0.00    +0.000 H 
ENDBRANCH    9   10
ENDBRANCH    3    4
ENDBRANCH    2    3
ENDBRANCH   14    2
ENDBRANCH   15   14
ENDBRANCH   16   15
ENDBRANCH   17   16
ENDBRANCH   18   17
ENDBRANCH   19   18
ENDBRANCH   20   19
ENDBRANCH   21   20
ENDBRANCH   22   21
ENDBRANCH   24   22
ENDBRANCH   28   27
BRANCH   32   33
ATOM     33  C24 UNL A   1      39.779  31.859  35.240  1.00  0.00    +0.000 C 
ATOM     34  C25 UNL A   1      40.233  33.181  35.360  1.00  0.00    +0.000 C 
ATOM     35  F3  UNL A   1      41.166  33.652  34.519  1.00  0.00    +0.000 F 
ATOM     36  C26 UNL A   1      39.743  34.017  36.360  1.00  0.00    +0.000 C 
ATOM     37  F4  UNL A   1      40.210  35.269  36.473  1.00  0.00    +0.000 F 
ATOM     38  C27 UNL A   1      38.776  33.557  37.241  1.00  0.00    +0.000 C 
ATOM     39  F5  UNL A   1      38.296  34.369  38.194  1.00  0.00    +0.000 F 
ATOM     40  C28 UNL A   1      38.308  32.257  37.136  1.00  0.00    +0.000 C 
ATOM     41  F6  UNL A   1      37.366  31.814  37.980  1.00  0.00    +0.000 F 
ATOM     42  C29 UNL A   1      38.812  31.410  36.152  1.00  0.00    +0.000 C 
ATOM     43  F7  UNL A   1      38.341  30.157  36.074  1.00  0.00    +0.000 F 
ENDBRANCH   32   33
BRANCH   49   50
ATOM     50  C35 UNL A   1      45.244  27.360  33.967  1.00  0.00    +0.000 C 
ATOM     51  C36 UNL A   1      45.221  26.205  34.762  1.00  0.00    +0.000 C 
ATOM     52  F8  UNL A   1      44.069  25.546  34.962  1.00  0.00    +0.000 F 
ATOM     53  C37 UNL A   1      46.379  25.738  35.376  1.00  0.00    +0.000 C 
ATOM     54  F9  UNL A   1      46.331  24.649  36.155  1.00  0.00    +0.000 F 
ATOM     55  C38 UNL A   1      47.584  26.400  35.186  1.00  0.00    +0.000 C 
ATOM     56  F10 UNL A   1      48.700  25.943  35.769  1.00  0.00    +0.000 F 
ATOM     57  C39 UNL A   1      47.630  27.540  34.398  1.00  0.00    +0.000 C 
ATOM     58  F11 UNL A   1      48.794  28.175  34.206  1.00  0.00    +0.000 F 
ATOM     59  C40 UNL A   1      46.469  28.022  33.800  1.00  0.00    +0.000 C 
ATOM     60  F12 UNL A   1      46.542  29.128  33.043  1.00  0.00    +0.000 F 
ENDBRANCH   49   50
BRANCH   64   65
ATOM     65  C44 UNL A   1      42.531  25.938  27.709  1.00  0.00    +0.000 C 
ATOM     66  C45 UNL A   1      43.459  26.332  26.737  1.00  0.00    +0.000 C 
ATOM     67  F13 UNL A   1      43.973  27.571  26.764  1.00  0.00    +0.000 F 
ATOM     68  C46 UNL A   1      43.845  25.462  25.720  1.00  0.00    +0.000 C 
ATOM     69  F14 UNL A   1      44.717  25.869  24.787  1.00  0.00    +0.000 F 
ATOM     70  C47 UNL A   1      43.327  24.176  25.669  1.00  0.00    +0.000 C 
ATOM     71  F15 UNL A   1      43.710  23.335  24.700  1.00  0.00    +0.000 F 
ATOM     72  C48 UNL A   1      42.409  23.764  26.624  1.00  0.00    +0.000 C 
ATOM     73  F16 UNL A   1      41.915  22.519  26.587  1.00  0.00    +0.000 F 
ATOM     74  C49 UNL A   1      42.003  24.641  27.627  1.00  0.00    +0.000 C 
ATOM     75  F17 UNL A   1      41.112  24.220  28.536  1.00  0.00    +0.000 F 
ENDBRANCH   64   65
TORSDOF 17
ENDMDL
MODEL 10
REMARK VINA RESULT:     -10.4      4.665      9.522
ROOT
ATOM     28  C20 UNL A   1      41.216  26.452  28.030  1.00  0.00    +0.000 C 
ATOM     29  C21 UNL A   1      42.644  26.699  27.620  1.00  0.00    +0.000 C 
ATOM     30  N4  UNL A   1      43.400  27.745  27.847  1.00  0.00    +0.000 N 
ATOM     31  C22 UNL A   1      44.629  27.459  27.270  1.00  0.00    +0.000 C 
ATOM     32  C23 UNL A   1      45.735  28.238  27.206  1.00  0.00    +0.000 C 
ATOM     44  C30 UNL A   1      45.827  29.570  27.746  1.00  0.00    +0.000 C 
ATOM     45  C31 UNL A   1      46.902  30.443  27.710  1.00  0.00    +0.000 C 
ATOM     46  C32 UNL A   1      46.538  31.613  28.384  1.00  0.00    +0.000 C 
ATOM     47  C33 UNL A   1      45.226  31.483  28.808  1.00  0.00    +0.000 C 
ATOM     48  N5  UNL A   1      44.803  30.224  28.413  1.00  0.00    +0.000 N 
ATOM     49  C34 UNL A   1      44.417  32.433  29.526  1.00  0.00    +0.000 C 
ATOM     61  C41 UNL A   1      43.121  32.248  29.871  1.00  0.00    +0.000 C 
ATOM     62  N6  UNL A   1      42.309  31.147  29.639  1.00  0.00    +0.000 N 
ATOM     63  C42 UNL A   1      41.154  31.431  30.186  1.00  0.00    +0.000 C 
ATOM     64  C43 UNL A   1      39.902  30.602  30.238  1.00  0.00    +0.000 C 
ATOM     76  C50 UNL A   1      39.913  29.356  29.729  1.00  0.00    +0.000 C 
ATOM     77  C51 UNL A   1      38.775  28.440  29.718  1.00  0.00    +0.000 C 
ATOM     78  C52 UNL A   1      39.150  27.283  29.150  1.00  0.00    +0.000 C 
ATOM     79  C53 UNL A   1      40.541  27.397  28.711  1.00  0.00    +0.000 C 
ATOM     80  N7  UNL A   1      40.923  28.647  29.128  1.00  0.00    +0.000 N 
ATOM     81  C54 UNL A   1      41.102  32.750  30.833  1.00  0.00    +0.000 C 
ATOM     82  C55 UNL A   1      42.319  33.217  30.588  1.00  0.00    +0.000 C 
ATOM     83  C56 UNL A   1      44.532  26.132  26.702  1.00  0.00    +0.000 C 
ATOM     84  C57 UNL A   1      43.312  25.635  26.853  1.00  0.00    +0.000 C 
ATOM    109  H23 UNL A   1      47.813  30.261  27.263  1.00  0.00    +0.000 H 
ATOM    110  H24 UNL A   1      47.145  32.433  28.540  1.00  0.00    +0.000 H 
ATOM    111  H25 UNL A   1      43.908  29.849  28.582  1.00  0.00    +0.000 H 
ATOM    112  H26 UNL A   1      37.834  28.648  30.087  1.00  0.00    +0.000 H 
ATOM    113  H27 UNL A   1      38.553  26.449  29.041  1.00  0.00    +0.000 H 
ATOM    114  H28 UNL A   1      41.834  29.002  29.008  1.00  0.00    +0.000 H 
ATOM    115  H29 UNL A   1      40.323  33.195  31.344  1.00  0.00    +0.000 H 
ATOM    116  H30 UNL A   1      42.651  34.151  30.873  1.00  0.00    +0.000 H 
ATOM    117  H31 UNL A   1      45.310  25.637  26.240  1.00  0.00    +0.000 H 
ATOM    118  H32 UNL A   1      42.930  24.736  26.521  1.00  0.00    +0.000 H 
ENDROOT
BRANCH   28   27
ATOM     27  C19 UNL A   1      40.518  25.203  27.625  1.00  0.00    +0.000 C 
ATOM    107  H21 UNL A   1      37.964  24.179  25.694  1.00  0.00    +0.000 H 
ATOM    108  H22 UNL A   1      39.096  26.197  26.414  1.00  0.00    +0.000 H 
ATOM     85  C58 UNL A   1      40.941  23.946  28.085  1.00  0.00    +0.000 C 
ATOM     86  C59 UNL A   1      40.360  22.780  27.577  1.00  0.00    +0.000 C 
ATOM    120  H34 UNL A   1      40.695  21.856  27.892  1.00  0.00    +0.000 H 
ATOM     24  C16 UNL A   1      39.326  22.871  26.640  1.00  0.00    +0.000 C 
ATOM     25  C17 UNL A   1      38.807  24.117  26.286  1.00  0.00    +0.000 C 
ATOM     26  C18 UNL A   1      39.432  25.276  26.736  1.00  0.00    +0.000 C 
ATOM    119  H33 UNL A   1      41.682  23.884  28.800  1.00  0.00    +0.000 H 
BRANCH   24   22
ATOM     22  C15 UNL A   1      38.827  21.633  26.001  1.00  0.00    +0.000 C 
ATOM     23  O3  UNL A   1      39.570  20.662  25.886  1.00  0.00    +0.000 O 
BRANCH   22   21
ATOM    106  H20 UNL A   1      36.828  21.541  26.166  1.00  0.00    +0.000 H 
ATOM     21  N3  UNL A   1      37.547  21.596  25.496  1.00  0.00    +0.000 N 
BRANCH   21   20
ATOM    105  H19 UNL A   1      36.452  20.798  23.965  1.00  0.00    +0.000 H 
ATOM     20  C14 UNL A   1      37.111  21.627  24.109  1.00  0.00    +0.000 C 
ATOM    104  H18 UNL A   1      37.975  21.570  23.480  1.00  0.00    +0.000 H 
BRANCH   20   19
ATOM     19  C13 UNL A   1      36.332  22.889  23.748  1.00  0.00    +0.000 C 
ATOM    102  H16 UNL A   1      37.040  23.663  23.535  1.00  0.00    +0.000 H 
ATOM    103  H17 UNL A   1      35.716  22.626  22.915  1.00  0.00    +0.000 H 
BRANCH   19   18
ATOM     18  C12 UNL A   1      35.382  23.405  24.829  1.00  0.00    +0.000 C 
ATOM    100  H14 UNL A   1      34.589  22.695  24.937  1.00  0.00    +0.000 H 
ATOM    101  H15 UNL A   1      35.978  23.525  25.710  1.00  0.00    +0.000 H 
BRANCH   18   17
ATOM     17  C11 UNL A   1      34.754  24.775  24.557  1.00  0.00    +0.000 C 
ATOM     98  H12 UNL A   1      35.533  25.437  24.242  1.00  0.00    +0.000 H 
ATOM     99  H13 UNL A   1      33.999  24.608  23.818  1.00  0.00    +0.000 H 
BRANCH   17   16
ATOM     97  H11 UNL A   1      34.757  25.492  26.533  1.00  0.00    +0.000 H 
ATOM     96  H10 UNL A   1      33.187  24.823  25.994  1.00  0.00    +0.000 H 
ATOM     16  C10 UNL A   1      34.035  25.427  25.746  1.00  0.00    +0.000 C 
BRANCH   16   15
ATOM     95  H9  UNL A   1      34.394  27.480  25.332  1.00  0.00    +0.000 H 
ATOM     94  H8  UNL A   1      32.995  27.185  26.360  1.00  0.00    +0.000 H 
ATOM     15  C9  UNL A   1      33.543  26.854  25.503  1.00  0.00    +0.000 C 
BRANCH   15   14
ATOM     93  H7  UNL A   1      33.067  26.698  23.460  1.00  0.00    +0.000 H 
ATOM     14  N2  UNL A   1      32.685  26.922  24.339  1.00  0.00    +0.000 N 
BRANCH   14    2
ATOM      1  O1  UNL A   1      30.959  28.333  24.904  1.00  0.00    +0.000 O 
ATOM      2  C1  UNL A   1      31.357  27.285  24.405  1.00  0.00    +0.000 C 
BRANCH    2    3
ATOM      3  C2  UNL A   1      30.398  26.248  23.830  1.00  0.00    +0.000 C 
ATOM     87  H1  UNL A   1      30.385  26.337  22.764  1.00  0.00    +0.000 H 
ATOM     88  H2  UNL A   1      29.423  26.426  24.234  1.00  0.00    +0.000 H 
BRANCH    3    4
ATOM      4  C3  UNL A   1      30.824  24.853  24.203  1.00  0.00    +0.000 C 
ATOM      5  C4  UNL A   1      30.571  24.388  25.552  1.00  0.00    +0.000 C 
ATOM      6  C5  UNL A   1      30.971  23.171  25.943  1.00  0.00    +0.000 C 
ATOM      7  C6  UNL A   1      31.668  22.262  24.991  1.00  0.00    +0.000 C 
ATOM      8  O2  UNL A   1      32.044  21.169  25.398  1.00  0.00    +0.000 O 
ATOM      9  N1  UNL A   1      31.826  22.752  23.704  1.00  0.00    +0.000 N 
ATOM     13  C8  UNL A   1      31.419  24.022  23.331  1.00  0.00    +0.000 C 
ATOM     89  H3  UNL A   1      30.078  25.001  26.219  1.00  0.00    +0.000 H 
ATOM     90  H4  UNL A   1      30.793  22.860  26.910  1.00  0.00    +0.000 H 
ATOM     92  H6  UNL A   1      31.578  24.338  22.361  1.00  0.00    +0.000 H 
BRANCH    9   10
ATOM     10  C7  UNL A   1      32.495  21.894  22.760  1.00  0.00    +0.000 C 
ATOM     11  F1  UNL A   1      31.604  21.113  22.102  1.00  0.00    +0.000 F 
ATOM     12  F2  UNL A   1      33.179  22.617  21.840  1.00  0.00    +0.000 F 
ATOM     91  H5  UNL A   1      33.175  21.285  23.319  1.00  0.00    +0.000 H 
ENDBRANCH    9   10
ENDBRANCH    3    4
ENDBRANCH    2    3
ENDBRANCH   14    2
ENDBRANCH   15   14
ENDBRANCH   16   15
ENDBRANCH   17   16
ENDBRANCH   18   17
ENDBRANCH   19   18
ENDBRANCH   20   19
ENDBRANCH   21   20
ENDBRANCH   22   21
ENDBRANCH   24   22
ENDBRANCH   28   27
BRANCH   32   33
ATOM     33  C24 UNL A   1      46.949  27.677  26.527  1.00  0.00    +0.000 C 
ATOM     34  C25 UNL A   1      47.923  26.965  27.242  1.00  0.00    +0.000 C 
ATOM     35  F3  UNL A   1      47.824  26.837  28.573  1.00  0.00    +0.000 F 
ATOM     36  C26 UNL A   1      49.015  26.397  26.590  1.00  0.00    +0.000 C 
ATOM     37  F4  UNL A   1      49.948  25.742  27.296  1.00  0.00    +0.000 F 
ATOM     38  C27 UNL A   1      49.142  26.511  25.214  1.00  0.00    +0.000 C 
ATOM     39  F5  UNL A   1      50.187  25.952  24.587  1.00  0.00    +0.000 F 
ATOM     40  C28 UNL A   1      48.187  27.206  24.487  1.00  0.00    +0.000 C 
ATOM     41  F6  UNL A   1      48.302  27.307  23.156  1.00  0.00    +0.000 F 
ATOM     42  C29 UNL A   1      47.105  27.793  25.138  1.00  0.00    +0.000 C 
ATOM     43  F7  UNL A   1      46.197  28.460  24.409  1.00  0.00    +0.000 F 
ENDBRANCH   32   33
BRANCH   49   50
ATOM     50  C35 UNL A   1      45.055  33.733  29.916  1.00  0.00    +0.000 C 
ATOM     51  C36 UNL A   1      44.969  34.860  29.086  1.00  0.00    +0.000 C 
ATOM     52  F8  UNL A   1      44.372  34.773  27.887  1.00  0.00    +0.000 F 
ATOM     53  C37 UNL A   1      45.519  36.077  29.477  1.00  0.00    +0.000 C 
ATOM     54  F9  UNL A   1      45.452  37.136  28.658  1.00  0.00    +0.000 F 
ATOM     55  C38 UNL A   1      46.142  36.195  30.712  1.00  0.00    +0.000 C 
ATOM     56  F10 UNL A   1      46.662  37.371  31.091  1.00  0.00    +0.000 F 
ATOM     57  C39 UNL A   1      46.230  35.095  31.550  1.00  0.00    +0.000 C 
ATOM     58  F11 UNL A   1      46.823  35.210  32.747  1.00  0.00    +0.000 F 
ATOM     59  C40 UNL A   1      45.700  33.870  31.153  1.00  0.00    +0.000 C 
ATOM     60  F12 UNL A   1      45.801  32.821  31.983  1.00  0.00    +0.000 F 
ENDBRANCH   49   50
BRANCH   64   65
ATOM     65  C44 UNL A   1      38.654  31.138  30.835  1.00  0.00    +0.000 C 
ATOM     66  C45 UNL A   1      38.419  31.041  32.212  1.00  0.00    +0.000 C 
ATOM     67  F13 UNL A   1      39.303  30.411  33.000  1.00  0.00    +0.000 F 
ATOM     68  C46 UNL A   1      37.262  31.569  32.782  1.00  0.00    +0.000 C 
ATOM     69  F14 UNL A   1      37.047  31.441  34.099  1.00  0.00    +0.000 F 
ATOM     70  C47 UNL A   1      36.332  32.223  31.989  1.00  0.00    +0.000 C 
ATOM     71  F15 UNL A   1      35.227  32.745  32.539  1.00  0.00    +0.000 F 
ATOM     72  C48 UNL A   1      36.546  32.335  30.623  1.00  0.00    +0.000 C 
ATOM     73  F16 UNL A   1      35.656  32.978  29.854  1.00  0.00    +0.000 F 
ATOM     74  C49 UNL A   1      37.690  31.786  30.049  1.00  0.00    +0.000 C 
ATOM     75  F17 UNL A   1      37.872  31.904  28.726  1.00  0.00    +0.000 F 
ENDBRANCH   64   65
TORSDOF 17
ENDMDL
