MODEL 1
REMARK VINA RESULT:     -10.2      0.000      0.000
ROOT
ATOM    138  H33 UNL A   1      46.722  28.391  30.687  1.00  0.00    +0.000 H 
ATOM    139  H34 UNL A   1      45.386  28.329  32.992  1.00  0.00    +0.000 H 
ATOM    140  H35 UNL A   1      44.742  31.855  31.165  1.00  0.00    +0.000 H 
ATOM    141  H36 UNL A   1      37.210  28.453  31.077  1.00  0.00    +0.000 H 
ATOM    142  H37 UNL A   1      38.569  26.625  29.936  1.00  0.00    +0.000 H 
ATOM    143  H38 UNL A   1      41.134  29.828  30.599  1.00  0.00    +0.000 H 
ATOM    144  H39 UNL A   1      40.378  32.956  30.305  1.00  0.00    +0.000 H 
ATOM    145  H40 UNL A   1      42.842  32.361  30.781  1.00  0.00    +0.000 H 
ATOM    146  H41 UNL A   1      44.202  29.426  26.209  1.00  0.00    +0.000 H 
ATOM    147  H42 UNL A   1      41.863  28.361  26.338  1.00  0.00    +0.000 H 
ATOM     47  C36 UNL A   1      41.145  27.558  28.992  1.00  0.00    +0.000 C 
ATOM     48  C37 UNL A   1      42.358  28.305  28.552  1.00  0.00    +0.000 C 
ATOM     49  N8  UNL A   1      43.377  28.669  29.264  1.00  0.00    +0.000 N 
ATOM     50  C38 UNL A   1      44.207  29.388  28.404  1.00  0.00    +0.000 C 
ATOM     51  C39 UNL A   1      45.102  30.299  28.879  1.00  0.00    +0.000 C 
ATOM     63  C46 UNL A   1      45.402  30.062  30.267  1.00  0.00    +0.000 C 
ATOM     64  C47 UNL A   1      45.959  29.021  30.984  1.00  0.00    +0.000 C 
ATOM     65  C48 UNL A   1      45.252  29.004  32.223  1.00  0.00    +0.000 C 
ATOM     66  C49 UNL A   1      44.347  30.064  32.205  1.00  0.00    +0.000 C 
ATOM     67  N9  UNL A   1      44.814  30.874  31.205  1.00  0.00    +0.000 N 
ATOM     68  C50 UNL A   1      43.128  30.326  32.925  1.00  0.00    +0.000 C 
ATOM     80  C57 UNL A   1      42.135  31.154  32.488  1.00  0.00    +0.000 C 
ATOM     81  N10 UNL A   1      40.837  31.021  32.960  1.00  0.00    +0.000 N 
ATOM     82  C58 UNL A   1      40.088  31.480  31.995  1.00  0.00    +0.000 C 
ATOM     83  C59 UNL A   1      38.793  30.867  31.606  1.00  0.00    +0.000 C 
ATOM     95  C66 UNL A   1      39.070  29.652  31.068  1.00  0.00    +0.000 C 
ATOM     96  C67 UNL A   1      38.204  28.522  30.810  1.00  0.00    +0.000 C 
ATOM     97  C68 UNL A   1      38.913  27.570  30.166  1.00  0.00    +0.000 C 
ATOM     98  C69 UNL A   1      40.244  28.087  29.844  1.00  0.00    +0.000 C 
ATOM     99  N11 UNL A   1      40.314  29.289  30.515  1.00  0.00    +0.000 N 
ATOM    100  C70 UNL A   1      40.762  32.318  31.019  1.00  0.00    +0.000 C 
ATOM    101  C71 UNL A   1      42.030  32.019  31.317  1.00  0.00    +0.000 C 
ATOM    102  C72 UNL A   1      43.705  29.164  27.075  1.00  0.00    +0.000 C 
ATOM    103  C73 UNL A   1      42.511  28.574  27.114  1.00  0.00    +0.000 C 
ENDROOT
BRANCH   47   46
ATOM    104  C74 UNL A   1      40.190  26.217  27.141  1.00  0.00    +0.000 C 
ATOM    105  C75 UNL A   1      40.028  24.992  26.510  1.00  0.00    +0.000 C 
ATOM    136  H31 UNL A   1      41.948  23.099  28.492  1.00  0.00    +0.000 H 
ATOM     43  C32 UNL A   1      40.612  23.820  27.029  1.00  0.00    +0.000 C 
ATOM     44  C33 UNL A   1      41.445  23.930  28.145  1.00  0.00    +0.000 C 
ATOM     45  C34 UNL A   1      41.600  25.153  28.791  1.00  0.00    +0.000 C 
ATOM    137  H32 UNL A   1      42.206  25.224  29.624  1.00  0.00    +0.000 H 
ATOM     46  C35 UNL A   1      40.937  26.283  28.312  1.00  0.00    +0.000 C 
ATOM    148  H43 UNL A   1      39.760  27.068  26.747  1.00  0.00    +0.000 H 
ATOM    149  H44 UNL A   1      39.472  24.938  25.643  1.00  0.00    +0.000 H 
BRANCH   43    2
ATOM      1  O1  UNL A   1      39.014  22.251  26.339  1.00  0.00    +0.000 O 
ATOM      2  C1  UNL A   1      40.210  22.556  26.355  1.00  0.00    +0.000 C 
BRANCH    2    3
ATOM    106  H1  UNL A   1      40.826  21.420  24.873  1.00  0.00    +0.000 H 
ATOM      3  N1  UNL A   1      41.068  21.652  25.799  1.00  0.00    +0.000 N 
BRANCH    3    4
ATOM    108  H3  UNL A   1      42.135  20.808  27.309  1.00  0.00    +0.000 H 
ATOM    107  H2  UNL A   1      42.322  20.031  25.717  1.00  0.00    +0.000 H 
ATOM      4  C2  UNL A   1      42.249  20.953  26.254  1.00  0.00    +0.000 C 
BRANCH    4    5
ATOM    109  H4  UNL A   1      44.337  21.025  25.893  1.00  0.00    +0.000 H 
ATOM      5  C3  UNL A   1      43.550  21.731  26.053  1.00  0.00    +0.000 C 
ATOM    110  H5  UNL A   1      43.683  22.324  26.934  1.00  0.00    +0.000 H 
BRANCH    5    6
ATOM      6  C4  UNL A   1      43.542  22.710  24.873  1.00  0.00    +0.000 C 
ATOM    111  H6  UNL A   1      43.427  23.698  25.266  1.00  0.00    +0.000 H 
ATOM    112  H7  UNL A   1      42.737  22.397  24.241  1.00  0.00    +0.000 H 
BRANCH    6    7
ATOM    113  H8  UNL A   1      44.682  23.465  23.250  1.00  0.00    +0.000 H 
ATOM    114  H9  UNL A   1      44.855  21.712  23.580  1.00  0.00    +0.000 H 
ATOM      7  C5  UNL A   1      44.793  22.698  23.989  1.00  0.00    +0.000 C 
BRANCH    7    8
ATOM    115  H10 UNL A   1      46.696  22.036  24.659  1.00  0.00    +0.000 H 
ATOM    116  H11 UNL A   1      45.865  23.207  25.723  1.00  0.00    +0.000 H 
ATOM      8  C6  UNL A   1      46.118  22.935  24.719  1.00  0.00    +0.000 C 
BRANCH    8    9
ATOM      9  C7  UNL A   1      46.960  24.079  24.163  1.00  0.00    +0.000 C 
ATOM    117  H12 UNL A   1      46.612  24.313  23.178  1.00  0.00    +0.000 H 
ATOM    118  H13 UNL A   1      47.980  23.758  24.153  1.00  0.00    +0.000 H 
BRANCH    9   10
ATOM     10  N2  UNL A   1      46.880  25.278  24.983  1.00  0.00    +0.000 N 
ATOM    119  H14 UNL A   1      47.708  25.805  25.047  1.00  0.00    +0.000 H 
BRANCH   10   11
ATOM     11  C8  UNL A   1      45.806  25.772  25.678  1.00  0.00    +0.000 C 
ATOM     12  O2  UNL A   1      44.858  26.286  25.085  1.00  0.00    +0.000 O 
BRANCH   11   13
ATOM    134  H29 UNL A   1      47.106  27.016  29.910  1.00  0.00    +0.000 H 
ATOM    135  H30 UNL A   1      47.103  27.284  27.493  1.00  0.00    +0.000 H 
ATOM     41  C30 UNL A   1      46.552  26.378  29.318  1.00  0.00    +0.000 C 
ATOM     42  C31 UNL A   1      46.546  26.534  27.934  1.00  0.00    +0.000 C 
ATOM     13  C9  UNL A   1      45.782  25.667  27.149  1.00  0.00    +0.000 C 
ATOM     14  C10 UNL A   1      44.983  24.681  27.741  1.00  0.00    +0.000 C 
ATOM     15  C11 UNL A   1      45.017  24.492  29.124  1.00  0.00    +0.000 C 
ATOM     16  C12 UNL A   1      45.797  25.345  29.905  1.00  0.00    +0.000 C 
ATOM    120  H15 UNL A   1      44.368  24.094  27.155  1.00  0.00    +0.000 H 
ATOM    121  H16 UNL A   1      44.473  23.732  29.562  1.00  0.00    +0.000 H 
BRANCH   16   17
ATOM     39  N6  UNL A   1      46.233  25.502  33.401  1.00  0.00    +0.000 N 
ATOM     40  N7  UNL A   1      46.678  25.704  32.159  1.00  0.00    +0.000 N 
ATOM     17  N3  UNL A   1      45.738  25.248  31.307  1.00  0.00    +0.000 N 
ATOM     18  C13 UNL A   1      44.716  24.684  32.012  1.00  0.00    +0.000 C 
ATOM     19  C14 UNL A   1      45.046  24.808  33.336  1.00  0.00    +0.000 C 
ATOM    122  H17 UNL A   1      43.863  24.252  31.625  1.00  0.00    +0.000 H 
BRANCH   19   20
ATOM    124  H19 UNL A   1      43.602  25.430  34.548  1.00  0.00    +0.000 H 
ATOM    123  H18 UNL A   1      43.778  23.584  34.378  1.00  0.00    +0.000 H 
ATOM     20  C15 UNL A   1      44.211  24.550  34.533  1.00  0.00    +0.000 C 
BRANCH   20   21
ATOM     21  S1  UNL A   1      44.834  24.540  36.215  1.00  0.00    +0.000 S 
BRANCH   21   22
ATOM    127  H22 UNL A   1      52.443  24.177  36.658  1.00  0.00    +0.000 H 
ATOM    126  H21 UNL A   1      51.501  25.668  38.330  1.00  0.00    +0.000 H 
ATOM    128  H23 UNL A   1      50.958  22.847  35.259  1.00  0.00    +0.000 H 
ATOM    125  H20 UNL A   1      49.099  26.007  38.449  1.00  0.00    +0.000 H 
ATOM     22  C16 UNL A   1      46.477  23.978  36.363  1.00  0.00    +0.000 C 
ATOM     23  N4  UNL A   1      47.264  24.883  36.874  1.00  0.00    +0.000 N 
ATOM     24  C17 UNL A   1      48.637  24.608  36.941  1.00  0.00    +0.000 C 
ATOM     25  C18 UNL A   1      49.490  25.333  37.773  1.00  0.00    +0.000 C 
ATOM     26  C19 UNL A   1      50.877  25.150  37.693  1.00  0.00    +0.000 C 
ATOM     27  C20 UNL A   1      51.419  24.268  36.754  1.00  0.00    +0.000 C 
ATOM     28  C21 UNL A   1      50.573  23.510  35.949  1.00  0.00    +0.000 C 
ATOM     29  C22 UNL A   1      49.190  23.664  36.090  1.00  0.00    +0.000 C 
ATOM     30  C23 UNL A   1      48.233  22.765  35.436  1.00  0.00    +0.000 C 
ATOM     31  O3  UNL A   1      48.601  22.128  34.451  1.00  0.00    +0.000 O 
ATOM     32  N5  UNL A   1      46.957  22.728  36.013  1.00  0.00    +0.000 N 
BRANCH   32   33
ATOM     33  C24 UNL A   1      46.289  21.446  36.112  1.00  0.00    +0.000 C 
ATOM     34  C25 UNL A   1      46.393  20.700  37.306  1.00  0.00    +0.000 C 
ATOM    129  H24 UNL A   1      46.758  21.161  38.153  1.00  0.00    +0.000 H 
ATOM     35  C26 UNL A   1      46.015  19.356  37.380  1.00  0.00    +0.000 C 
ATOM    133  H28 UNL A   1      45.237  21.425  34.285  1.00  0.00    +0.000 H 
ATOM     38  C29 UNL A   1      45.551  20.851  35.084  1.00  0.00    +0.000 C 
ATOM     37  C28 UNL A   1      45.230  19.485  35.124  1.00  0.00    +0.000 C 
ATOM    130  H25 UNL A   1      46.123  18.835  38.263  1.00  0.00    +0.000 H 
ATOM     36  C27 UNL A   1      45.497  18.729  36.258  1.00  0.00    +0.000 C 
ATOM    132  H27 UNL A   1      44.791  19.039  34.303  1.00  0.00    +0.000 H 
ATOM    131  H26 UNL A   1      45.313  17.714  36.266  1.00  0.00    +0.000 H 
ENDBRANCH   32   33
ENDBRANCH   21   22
ENDBRANCH   20   21
ENDBRANCH   19   20
ENDBRANCH   16   17
ENDBRANCH   11   13
ENDBRANCH   10   11
ENDBRANCH    9   10
ENDBRANCH    8    9
ENDBRANCH    7    8
ENDBRANCH    6    7
ENDBRANCH    5    6
ENDBRANCH    4    5
ENDBRANCH    3    4
ENDBRANCH    2    3
ENDBRANCH   43    2
ENDBRANCH   47   46
BRANCH   51   52
ATOM     52  C40 UNL A   1      45.398  31.628  28.215  1.00  0.00    +0.000 C 
ATOM     53  C41 UNL A   1      44.320  32.480  27.892  1.00  0.00    +0.000 C 
ATOM     54  F1  UNL A   1      43.107  32.283  28.429  1.00  0.00    +0.000 F 
ATOM     55  C42 UNL A   1      44.434  33.485  26.927  1.00  0.00    +0.000 C 
ATOM     56  F2  UNL A   1      43.345  34.168  26.547  1.00  0.00    +0.000 F 
ATOM     57  C43 UNL A   1      45.644  33.724  26.304  1.00  0.00    +0.000 C 
ATOM     58  F3  UNL A   1      45.739  34.633  25.325  1.00  0.00    +0.000 F 
ATOM     59  C44 UNL A   1      46.746  32.981  26.666  1.00  0.00    +0.000 C 
ATOM     60  F4  UNL A   1      47.927  33.193  26.068  1.00  0.00    +0.000 F 
ATOM     61  C45 UNL A   1      46.624  31.945  27.591  1.00  0.00    +0.000 C 
ATOM     62  F5  UNL A   1      47.727  31.208  27.759  1.00  0.00    +0.000 F 
ENDBRANCH   51   52
BRANCH   68   69
ATOM     69  C51 UNL A   1      42.831  29.443  34.102  1.00  0.00    +0.000 C 
ATOM     70  C52 UNL A   1      42.122  28.232  34.007  1.00  0.00    +0.000 C 
ATOM     71  F6  UNL A   1      41.635  27.813  32.831  1.00  0.00    +0.000 F 
ATOM     72  C53 UNL A   1      41.958  27.403  35.116  1.00  0.00    +0.000 C 
ATOM     73  F7  UNL A   1      41.270  26.258  35.003  1.00  0.00    +0.000 F 
ATOM     74  C54 UNL A   1      42.542  27.741  36.327  1.00  0.00    +0.000 C 
ATOM     75  F8  UNL A   1      42.423  26.923  37.382  1.00  0.00    +0.000 F 
ATOM     76  C55 UNL A   1      43.275  28.912  36.435  1.00  0.00    +0.000 C 
ATOM     77  F9  UNL A   1      43.884  29.216  37.589  1.00  0.00    +0.000 F 
ATOM     78  C56 UNL A   1      43.407  29.759  35.339  1.00  0.00    +0.000 C 
ATOM     79  F10 UNL A   1      44.146  30.872  35.470  1.00  0.00    +0.000 F 
ENDBRANCH   68   69
BRANCH   83   84
ATOM     84  C60 UNL A   1      37.544  31.655  31.487  1.00  0.00    +0.000 C 
ATOM     85  C61 UNL A   1      36.753  31.943  32.611  1.00  0.00    +0.000 C 
ATOM     86  F11 UNL A   1      36.998  31.335  33.781  1.00  0.00    +0.000 F 
ATOM     87  C62 UNL A   1      35.744  32.912  32.569  1.00  0.00    +0.000 C 
ATOM     88  F12 UNL A   1      35.047  33.201  33.677  1.00  0.00    +0.000 F 
ATOM     89  C63 UNL A   1      35.496  33.615  31.402  1.00  0.00    +0.000 C 
ATOM     90  F13 UNL A   1      34.571  34.585  31.376  1.00  0.00    +0.000 F 
ATOM     91  C64 UNL A   1      36.242  33.341  30.271  1.00  0.00    +0.000 C 
ATOM     92  F14 UNL A   1      36.041  34.042  29.147  1.00  0.00    +0.000 F 
ATOM     93  C65 UNL A   1      37.252  32.379  30.314  1.00  0.00    +0.000 C 
ATOM     94  F15 UNL A   1      38.005  32.236  29.214  1.00  0.00    +0.000 F 
ENDBRANCH   83   84
TORSDOF 20
ENDMDL
MODEL 2
REMARK VINA RESULT:     -10.2     39.679     45.530
ROOT
ATOM    138  H33 UNL A   1       6.096  29.554  -4.856  1.00  0.00    +0.000 H 
ATOM    139  H34 UNL A   1       8.440  28.331  -5.186  1.00  0.00    +0.000 H 
ATOM    140  H35 UNL A   1       9.020  32.307  -4.974  1.00  0.00    +0.000 H 
ATOM    141  H36 UNL A   1      12.874  29.626   1.829  1.00  0.00    +0.000 H 
ATOM    142  H37 UNL A   1      10.555  28.629   2.173  1.00  0.00    +0.000 H 
ATOM    143  H38 UNL A   1      10.391  30.956  -1.266  1.00  0.00    +0.000 H 
ATOM    144  H39 UNL A   1      11.868  33.797  -1.707  1.00  0.00    +0.000 H 
ATOM    145  H40 UNL A   1      10.263  32.983  -3.555  1.00  0.00    +0.000 H 
ATOM    146  H41 UNL A   1       5.375  32.828  -0.827  1.00  0.00    +0.000 H 
ATOM    147  H42 UNL A   1       6.668  31.907   1.199  1.00  0.00    +0.000 H 
ATOM     47  C36 UNL A   1       8.538  29.857   0.493  1.00  0.00    +0.000 C 
ATOM     48  C37 UNL A   1       7.705  30.694  -0.415  1.00  0.00    +0.000 C 
ATOM     49  N8  UNL A   1       7.589  30.610  -1.702  1.00  0.00    +0.000 N 
ATOM     50  C38 UNL A   1       6.742  31.653  -2.079  1.00  0.00    +0.000 C 
ATOM     51  C39 UNL A   1       6.762  32.162  -3.343  1.00  0.00    +0.000 C 
ATOM     63  C46 UNL A   1       7.346  31.229  -4.273  1.00  0.00    +0.000 C 
ATOM     64  C47 UNL A   1       7.035  29.955  -4.704  1.00  0.00    +0.000 C 
ATOM     65  C48 UNL A   1       8.294  29.311  -4.896  1.00  0.00    +0.000 C 
ATOM     66  C49 UNL A   1       9.290  30.246  -4.620  1.00  0.00    +0.000 C 
ATOM     67  N9  UNL A   1       8.636  31.448  -4.685  1.00  0.00    +0.000 N 
ATOM     68  C50 UNL A   1      10.675  30.123  -4.243  1.00  0.00    +0.000 C 
ATOM     80  C57 UNL A   1      11.382  31.080  -3.575  1.00  0.00    +0.000 C 
ATOM     81  N10 UNL A   1      12.519  30.751  -2.852  1.00  0.00    +0.000 N 
ATOM     82  C58 UNL A   1      12.591  31.663  -1.921  1.00  0.00    +0.000 C 
ATOM     83  C59 UNL A   1      13.008  31.374  -0.525  1.00  0.00    +0.000 C 
ATOM     95  C66 UNL A   1      12.034  30.611   0.034  1.00  0.00    +0.000 C 
ATOM     96  C67 UNL A   1      12.050  29.800   1.232  1.00  0.00    +0.000 C 
ATOM     97  C68 UNL A   1      10.811  29.307   1.439  1.00  0.00    +0.000 C 
ATOM     98  C69 UNL A   1       9.887  29.885   0.463  1.00  0.00    +0.000 C 
ATOM     99  N11 UNL A   1      10.702  30.560  -0.421  1.00  0.00    +0.000 N 
ATOM    100  C70 UNL A   1      11.821  32.872  -2.161  1.00  0.00    +0.000 C 
ATOM    101  C71 UNL A   1      11.032  32.431  -3.146  1.00  0.00    +0.000 C 
ATOM    102  C72 UNL A   1       6.165  32.166  -0.866  1.00  0.00    +0.000 C 
ATOM    103  C73 UNL A   1       6.791  31.670   0.202  1.00  0.00    +0.000 C 
ENDROOT
BRANCH   47   46
ATOM    104  C74 UNL A   1       7.718  29.598   2.816  1.00  0.00    +0.000 C 
ATOM    105  C75 UNL A   1       6.977  28.891   3.752  1.00  0.00    +0.000 C 
ATOM    136  H31 UNL A   1       5.720  26.508   1.767  1.00  0.00    +0.000 H 
ATOM     43  C32 UNL A   1       6.289  27.713   3.401  1.00  0.00    +0.000 C 
ATOM     44  C33 UNL A   1       6.284  27.320   2.061  1.00  0.00    +0.000 C 
ATOM     45  C34 UNL A   1       7.036  28.017   1.119  1.00  0.00    +0.000 C 
ATOM    137  H32 UNL A   1       7.040  27.712   0.133  1.00  0.00    +0.000 H 
ATOM     46  C35 UNL A   1       7.785  29.127   1.509  1.00  0.00    +0.000 C 
ATOM    148  H43 UNL A   1       8.214  30.461   3.087  1.00  0.00    +0.000 H 
ATOM    149  H44 UNL A   1       6.928  29.235   4.724  1.00  0.00    +0.000 H 
BRANCH   43    2
ATOM      1  O1  UNL A   1       4.588  27.324   4.965  1.00  0.00    +0.000 O 
ATOM      2  C1  UNL A   1       5.688  26.964   4.538  1.00  0.00    +0.000 C 
BRANCH    2    3
ATOM    106  H1  UNL A   1       5.638  25.272   5.537  1.00  0.00    +0.000 H 
ATOM      3  N1  UNL A   1       6.286  25.936   5.208  1.00  0.00    +0.000 N 
BRANCH    3    4
ATOM    108  H3  UNL A   1       8.141  26.512   5.806  1.00  0.00    +0.000 H 
ATOM    107  H2  UNL A   1       7.630  24.898   6.357  1.00  0.00    +0.000 H 
ATOM      4  C2  UNL A   1       7.649  25.597   5.548  1.00  0.00    +0.000 C 
BRANCH    4    5
ATOM    109  H4  UNL A   1       7.762  24.761   3.602  1.00  0.00    +0.000 H 
ATOM      5  C3  UNL A   1       8.443  24.977   4.398  1.00  0.00    +0.000 C 
ATOM    110  H5  UNL A   1       8.920  24.106   4.797  1.00  0.00    +0.000 H 
BRANCH    5    6
ATOM      6  C4  UNL A   1       9.564  25.861   3.836  1.00  0.00    +0.000 C 
ATOM    111  H6  UNL A   1       9.176  26.850   3.721  1.00  0.00    +0.000 H 
ATOM    112  H7  UNL A   1       9.864  25.401   2.917  1.00  0.00    +0.000 H 
BRANCH    6    7
ATOM    113  H8  UNL A   1      10.572  26.400   5.624  1.00  0.00    +0.000 H 
ATOM    114  H9  UNL A   1      11.533  26.521   4.117  1.00  0.00    +0.000 H 
ATOM      7  C5  UNL A   1      10.833  25.949   4.690  1.00  0.00    +0.000 C 
BRANCH    7    8
ATOM    115  H10 UNL A   1      12.438  24.583   4.432  1.00  0.00    +0.000 H 
ATOM    116  H11 UNL A   1      10.831  23.849   4.702  1.00  0.00    +0.000 H 
ATOM      8  C6  UNL A   1      11.523  24.615   4.986  1.00  0.00    +0.000 C 
BRANCH    8    9
ATOM      9  C7  UNL A   1      11.849  24.376   6.457  1.00  0.00    +0.000 C 
ATOM    117  H12 UNL A   1      11.560  23.378   6.715  1.00  0.00    +0.000 H 
ATOM    118  H13 UNL A   1      11.312  25.101   7.032  1.00  0.00    +0.000 H 
BRANCH    9   10
ATOM     10  N2  UNL A   1      13.265  24.541   6.747  1.00  0.00    +0.000 N 
ATOM    119  H14 UNL A   1      13.559  25.463   6.922  1.00  0.00    +0.000 H 
BRANCH   10   11
ATOM     11  C8  UNL A   1      14.245  23.583   6.810  1.00  0.00    +0.000 C 
ATOM     12  O2  UNL A   1      14.425  22.938   7.841  1.00  0.00    +0.000 O 
BRANCH   11   13
ATOM    134  H29 UNL A   1      14.968  21.876   2.602  1.00  0.00    +0.000 H 
ATOM    135  H30 UNL A   1      13.540  22.381   4.504  1.00  0.00    +0.000 H 
ATOM     41  C30 UNL A   1      15.354  22.358   3.428  1.00  0.00    +0.000 C 
ATOM     42  C31 UNL A   1      14.536  22.651   4.515  1.00  0.00    +0.000 C 
ATOM     13  C9  UNL A   1      15.075  23.315   5.621  1.00  0.00    +0.000 C 
ATOM     14  C10 UNL A   1      16.411  23.733   5.624  1.00  0.00    +0.000 C 
ATOM     15  C11 UNL A   1      17.248  23.404   4.555  1.00  0.00    +0.000 C 
ATOM     16  C12 UNL A   1      16.714  22.723   3.461  1.00  0.00    +0.000 C 
ATOM    120  H15 UNL A   1      16.779  24.284   6.415  1.00  0.00    +0.000 H 
ATOM    121  H16 UNL A   1      18.247  23.661   4.575  1.00  0.00    +0.000 H 
BRANCH   16   17
ATOM     39  N6  UNL A   1      19.150  21.838   1.070  1.00  0.00    +0.000 N 
ATOM     40  N7  UNL A   1      18.747  21.959   2.336  1.00  0.00    +0.000 N 
ATOM     17  N3  UNL A   1      17.513  22.502   2.326  1.00  0.00    +0.000 N 
ATOM     18  C13 UNL A   1      17.154  22.796   1.043  1.00  0.00    +0.000 C 
ATOM     19  C14 UNL A   1      18.204  22.414   0.251  1.00  0.00    +0.000 C 
ATOM    122  H17 UNL A   1      16.267  23.221   0.732  1.00  0.00    +0.000 H 
BRANCH   19   20
ATOM    124  H19 UNL A   1      19.182  22.849  -1.421  1.00  0.00    +0.000 H 
ATOM    123  H18 UNL A   1      18.180  21.280  -1.455  1.00  0.00    +0.000 H 
ATOM     20  C15 UNL A   1      18.272  22.321  -1.227  1.00  0.00    +0.000 C 
BRANCH   20   21
ATOM     21  S1  UNL A   1      17.148  23.164  -2.343  1.00  0.00    +0.000 S 
BRANCH   21   22
ATOM    127  H22 UNL A   1      11.079  25.792   1.463  1.00  0.00    +0.000 H 
ATOM    126  H21 UNL A   1      12.098  27.505   0.073  1.00  0.00    +0.000 H 
ATOM    128  H23 UNL A   1      11.887  23.498   1.330  1.00  0.00    +0.000 H 
ATOM    125  H20 UNL A   1      14.058  26.988  -1.264  1.00  0.00    +0.000 H 
ATOM     22  C16 UNL A   1      15.543  23.390  -1.703  1.00  0.00    +0.000 C 
ATOM     23  N4  UNL A   1      15.305  24.634  -1.396  1.00  0.00    +0.000 N 
ATOM     24  C17 UNL A   1      14.094  24.941  -0.759  1.00  0.00    +0.000 C 
ATOM     25  C18 UNL A   1      13.598  26.244  -0.717  1.00  0.00    +0.000 C 
ATOM     26  C19 UNL A   1      12.477  26.546   0.068  1.00  0.00    +0.000 C 
ATOM     27  C20 UNL A   1      11.869  25.554   0.842  1.00  0.00    +0.000 C 
ATOM     28  C21 UNL A   1      12.333  24.243   0.772  1.00  0.00    +0.000 C 
ATOM     29  C22 UNL A   1      13.413  23.952  -0.066  1.00  0.00    +0.000 C 
ATOM     30  C23 UNL A   1      13.830  22.576  -0.356  1.00  0.00    +0.000 C 
ATOM     31  O3  UNL A   1      13.509  21.686   0.429  1.00  0.00    +0.000 O 
ATOM     32  N5  UNL A   1      14.579  22.413  -1.527  1.00  0.00    +0.000 N 
BRANCH   32   33
ATOM     33  C24 UNL A   1      14.313  21.252  -2.352  1.00  0.00    +0.000 C 
ATOM     34  C25 UNL A   1      13.188  21.248  -3.206  1.00  0.00    +0.000 C 
ATOM    129  H24 UNL A   1      12.698  22.137  -3.387  1.00  0.00    +0.000 H 
ATOM     35  C26 UNL A   1      12.718  20.081  -3.813  1.00  0.00    +0.000 C 
ATOM    133  H28 UNL A   1      16.031  20.098  -1.947  1.00  0.00    +0.000 H 
ATOM     38  C29 UNL A   1      15.083  20.083  -2.354  1.00  0.00    +0.000 C 
ATOM     37  C28 UNL A   1      14.583  18.892  -2.904  1.00  0.00    +0.000 C 
ATOM    130  H25 UNL A   1      11.881  20.111  -4.415  1.00  0.00    +0.000 H 
ATOM     36  C27 UNL A   1      13.381  18.883  -3.600  1.00  0.00    +0.000 C 
ATOM    132  H27 UNL A   1      15.114  18.014  -2.789  1.00  0.00    +0.000 H 
ATOM    131  H26 UNL A   1      12.987  17.998  -3.955  1.00  0.00    +0.000 H 
ENDBRANCH   32   33
ENDBRANCH   21   22
ENDBRANCH   20   21
ENDBRANCH   19   20
ENDBRANCH   16   17
ENDBRANCH   11   13
ENDBRANCH   10   11
ENDBRANCH    9   10
ENDBRANCH    8    9
ENDBRANCH    7    8
ENDBRANCH    6    7
ENDBRANCH    5    6
ENDBRANCH    4    5
ENDBRANCH    3    4
ENDBRANCH    2    3
ENDBRANCH   43    2
ENDBRANCH   47   46
BRANCH   51   52
ATOM     52  C40 UNL A   1       6.628  33.634  -3.669  1.00  0.00    +0.000 C 
ATOM     53  C41 UNL A   1       5.603  34.044  -4.549  1.00  0.00    +0.000 C 
ATOM     54  F1  UNL A   1       4.584  33.223  -4.844  1.00  0.00    +0.000 F 
ATOM     55  C42 UNL A   1       5.658  35.262  -5.234  1.00  0.00    +0.000 C 
ATOM     56  F2  UNL A   1       4.740  35.539  -6.170  1.00  0.00    +0.000 F 
ATOM     57  C43 UNL A   1       6.696  36.146  -5.009  1.00  0.00    +0.000 C 
ATOM     58  F3  UNL A   1       6.793  37.277  -5.719  1.00  0.00    +0.000 F 
ATOM     59  C44 UNL A   1       7.662  35.827  -4.080  1.00  0.00    +0.000 C 
ATOM     60  F4  UNL A   1       8.682  36.668  -3.854  1.00  0.00    +0.000 F 
ATOM     61  C45 UNL A   1       7.639  34.592  -3.434  1.00  0.00    +0.000 C 
ATOM     62  F5  UNL A   1       8.700  34.341  -2.661  1.00  0.00    +0.000 F 
ENDBRANCH   51   52
BRANCH   68   69
ATOM     69  C51 UNL A   1      11.297  28.763  -4.376  1.00  0.00    +0.000 C 
ATOM     70  C52 UNL A   1      11.057  27.707  -3.479  1.00  0.00    +0.000 C 
ATOM     71  F6  UNL A   1      10.264  27.879  -2.413  1.00  0.00    +0.000 F 
ATOM     72  C53 UNL A   1      11.584  26.436  -3.704  1.00  0.00    +0.000 C 
ATOM     73  F7  UNL A   1      11.351  25.447  -2.829  1.00  0.00    +0.000 F 
ATOM     74  C54 UNL A   1      12.317  26.182  -4.853  1.00  0.00    +0.000 C 
ATOM     75  F8  UNL A   1      12.786  24.951  -5.092  1.00  0.00    +0.000 F 
ATOM     76  C55 UNL A   1      12.536  27.200  -5.769  1.00  0.00    +0.000 C 
ATOM     77  F9  UNL A   1      13.198  26.946  -6.905  1.00  0.00    +0.000 F 
ATOM     78  C56 UNL A   1      12.042  28.478  -5.527  1.00  0.00    +0.000 C 
ATOM     79  F10 UNL A   1      12.250  29.433  -6.446  1.00  0.00    +0.000 F 
ENDBRANCH   68   69
BRANCH   83   84
ATOM     84  C60 UNL A   1      14.076  32.137   0.161  1.00  0.00    +0.000 C 
ATOM     85  C61 UNL A   1      13.773  33.198   1.029  1.00  0.00    +0.000 C 
ATOM     86  F11 UNL A   1      12.523  33.680   1.092  1.00  0.00    +0.000 F 
ATOM     87  C62 UNL A   1      14.732  33.734   1.895  1.00  0.00    +0.000 C 
ATOM     88  F12 UNL A   1      14.392  34.708   2.751  1.00  0.00    +0.000 F 
ATOM     89  C63 UNL A   1      16.021  33.226   1.915  1.00  0.00    +0.000 C 
ATOM     90  F13 UNL A   1      16.924  33.697   2.786  1.00  0.00    +0.000 F 
ATOM     91  C64 UNL A   1      16.358  32.195   1.058  1.00  0.00    +0.000 C 
ATOM     92  F14 UNL A   1      17.589  31.667   1.095  1.00  0.00    +0.000 F 
ATOM     93  C65 UNL A   1      15.401  31.657   0.197  1.00  0.00    +0.000 C 
ATOM     94  F15 UNL A   1      15.765  30.593  -0.532  1.00  0.00    +0.000 F 
ENDBRANCH   83   84
TORSDOF 20
ENDMDL
MODEL 3
REMARK VINA RESULT:     -10.2      1.575      2.204
ROOT
ATOM    138  H33 UNL A   1      46.422  28.878  30.238  1.00  0.00    +0.000 H 
ATOM    139  H34 UNL A   1      45.208  28.805  32.610  1.00  0.00    +0.000 H 
ATOM    140  H35 UNL A   1      44.198  32.194  30.691  1.00  0.00    +0.000 H 
ATOM    141  H36 UNL A   1      36.966  28.215  31.110  1.00  0.00    +0.000 H 
ATOM    142  H37 UNL A   1      38.409  26.455  29.968  1.00  0.00    +0.000 H 
ATOM    143  H38 UNL A   1      40.740  29.871  30.384  1.00  0.00    +0.000 H 
ATOM    144  H39 UNL A   1      39.724  32.917  30.015  1.00  0.00    +0.000 H 
ATOM    145  H40 UNL A   1      42.247  32.534  30.386  1.00  0.00    +0.000 H 
ATOM    146  H41 UNL A   1      43.617  29.533  25.860  1.00  0.00    +0.000 H 
ATOM    147  H42 UNL A   1      41.379  28.296  26.146  1.00  0.00    +0.000 H 
ATOM     47  C36 UNL A   1      40.855  27.547  28.861  1.00  0.00    +0.000 C 
ATOM     48  C37 UNL A   1      41.982  28.367  28.333  1.00  0.00    +0.000 C 
ATOM     49  N8  UNL A   1      43.001  28.837  28.979  1.00  0.00    +0.000 N 
ATOM     50  C38 UNL A   1      43.729  29.584  28.052  1.00  0.00    +0.000 C 
ATOM     51  C39 UNL A   1      44.571  30.580  28.447  1.00  0.00    +0.000 C 
ATOM     63  C46 UNL A   1      44.955  30.423  29.826  1.00  0.00    +0.000 C 
ATOM     64  C47 UNL A   1      45.627  29.458  30.551  1.00  0.00    +0.000 C 
ATOM     65  C48 UNL A   1      44.984  29.436  31.824  1.00  0.00    +0.000 C 
ATOM     66  C49 UNL A   1      43.997  30.421  31.814  1.00  0.00    +0.000 C 
ATOM     67  N9  UNL A   1      44.350  31.224  30.762  1.00  0.00    +0.000 N 
ATOM     68  C50 UNL A   1      42.797  30.616  32.586  1.00  0.00    +0.000 C 
ATOM     80  C57 UNL A   1      41.722  31.345  32.170  1.00  0.00    +0.000 C 
ATOM     81  N10 UNL A   1      40.463  31.131  32.712  1.00  0.00    +0.000 N 
ATOM     82  C58 UNL A   1      39.634  31.491  31.770  1.00  0.00    +0.000 C 
ATOM     83  C59 UNL A   1      38.375  30.765  31.470  1.00  0.00    +0.000 C 
ATOM     95  C66 UNL A   1      38.721  29.554  30.962  1.00  0.00    +0.000 C 
ATOM     96  C67 UNL A   1      37.937  28.350  30.791  1.00  0.00    +0.000 C 
ATOM     97  C68 UNL A   1      38.688  27.432  30.146  1.00  0.00    +0.000 C 
ATOM     98  C69 UNL A   1      39.956  28.038  29.738  1.00  0.00    +0.000 C 
ATOM     99  N11 UNL A   1      39.962  29.267  30.361  1.00  0.00    +0.000 N 
ATOM    100  C70 UNL A   1      40.192  32.340  30.731  1.00  0.00    +0.000 C 
ATOM    101  C71 UNL A   1      41.492  32.152  30.975  1.00  0.00    +0.000 C 
ATOM    102  C72 UNL A   1      43.184  29.269  26.759  1.00  0.00    +0.000 C 
ATOM    103  C73 UNL A   1      42.044  28.589  26.880  1.00  0.00    +0.000 C 
ENDROOT
BRANCH   47   46
ATOM    104  C74 UNL A   1      39.737  26.001  27.281  1.00  0.00    +0.000 C 
ATOM    105  C75 UNL A   1      39.646  24.746  26.695  1.00  0.00    +0.000 C 
ATOM    136  H31 UNL A   1      42.280  23.276  28.143  1.00  0.00    +0.000 H 
ATOM     43  C32 UNL A   1      40.531  23.710  27.049  1.00  0.00    +0.000 C 
ATOM     44  C33 UNL A   1      41.572  23.997  27.934  1.00  0.00    +0.000 C 
ATOM     45  C34 UNL A   1      41.661  25.249  28.535  1.00  0.00    +0.000 C 
ATOM    137  H32 UNL A   1      42.425  25.450  29.200  1.00  0.00    +0.000 H 
ATOM     46  C35 UNL A   1      40.717  26.233  28.239  1.00  0.00    +0.000 C 
ATOM    148  H43 UNL A   1      39.084  26.753  27.008  1.00  0.00    +0.000 H 
ATOM    149  H44 UNL A   1      38.917  24.570  25.986  1.00  0.00    +0.000 H 
BRANCH   43    2
ATOM      1  O1  UNL A   1      39.054  21.947  26.596  1.00  0.00    +0.000 O 
ATOM      2  C1  UNL A   1      40.206  22.374  26.479  1.00  0.00    +0.000 C 
BRANCH    2    3
ATOM    106  H1  UNL A   1      40.919  21.401  24.927  1.00  0.00    +0.000 H 
ATOM      3  N1  UNL A   1      41.101  21.531  25.886  1.00  0.00    +0.000 N 
BRANCH    3    4
ATOM    108  H3  UNL A   1      42.237  20.808  27.408  1.00  0.00    +0.000 H 
ATOM    107  H2  UNL A   1      42.186  19.792  25.947  1.00  0.00    +0.000 H 
ATOM      4  C2  UNL A   1      42.254  20.785  26.338  1.00  0.00    +0.000 C 
BRANCH    4    5
ATOM    109  H4  UNL A   1      44.205  20.587  25.534  1.00  0.00    +0.000 H 
ATOM      5  C3  UNL A   1      43.593  21.381  25.904  1.00  0.00    +0.000 C 
ATOM    110  H5  UNL A   1      44.000  21.864  26.768  1.00  0.00    +0.000 H 
BRANCH    5    6
ATOM      6  C4  UNL A   1      43.499  22.457  24.815  1.00  0.00    +0.000 C 
ATOM    111  H6  UNL A   1      43.381  23.403  25.297  1.00  0.00    +0.000 H 
ATOM    112  H7  UNL A   1      42.669  22.176  24.200  1.00  0.00    +0.000 H 
BRANCH    6    7
ATOM    113  H8  UNL A   1      44.578  23.433  23.270  1.00  0.00    +0.000 H 
ATOM    114  H9  UNL A   1      44.708  21.646  23.308  1.00  0.00    +0.000 H 
ATOM      7  C5  UNL A   1      44.701  22.556  23.871  1.00  0.00    +0.000 C 
BRANCH    7    8
ATOM    115  H10 UNL A   1      46.663  21.817  24.208  1.00  0.00    +0.000 H 
ATOM    116  H11 UNL A   1      45.884  22.612  25.606  1.00  0.00    +0.000 H 
ATOM      8  C6  UNL A   1      46.069  22.639  24.552  1.00  0.00    +0.000 C 
BRANCH    8    9
ATOM      9  C7  UNL A   1      46.840  23.927  24.284  1.00  0.00    +0.000 C 
ATOM    117  H12 UNL A   1      46.502  24.344  23.359  1.00  0.00    +0.000 H 
ATOM    118  H13 UNL A   1      47.881  23.683  24.247  1.00  0.00    +0.000 H 
BRANCH    9   10
ATOM     10  N2  UNL A   1      46.655  24.915  25.336  1.00  0.00    +0.000 N 
ATOM    119  H14 UNL A   1      47.478  25.328  25.682  1.00  0.00    +0.000 H 
BRANCH   10   11
ATOM     11  C8  UNL A   1      45.487  25.350  25.909  1.00  0.00    +0.000 C 
ATOM     12  O2  UNL A   1      44.609  25.872  25.224  1.00  0.00    +0.000 O 
BRANCH   11   13
ATOM    134  H29 UNL A   1      45.027  26.885  30.219  1.00  0.00    +0.000 H 
ATOM    135  H30 UNL A   1      45.280  27.232  27.825  1.00  0.00    +0.000 H 
ATOM     41  C30 UNL A   1      45.079  26.077  29.580  1.00  0.00    +0.000 C 
ATOM     42  C31 UNL A   1      45.219  26.276  28.209  1.00  0.00    +0.000 C 
ATOM     13  C9  UNL A   1      45.278  25.169  27.358  1.00  0.00    +0.000 C 
ATOM     14  C10 UNL A   1      45.143  23.869  27.861  1.00  0.00    +0.000 C 
ATOM     15  C11 UNL A   1      45.045  23.662  29.239  1.00  0.00    +0.000 C 
ATOM     16  C12 UNL A   1      45.008  24.767  30.090  1.00  0.00    +0.000 C 
ATOM    120  H15 UNL A   1      45.116  23.065  27.216  1.00  0.00    +0.000 H 
ATOM    121  H16 UNL A   1      45.001  22.704  29.622  1.00  0.00    +0.000 H 
BRANCH   16   17
ATOM     39  N6  UNL A   1      44.144  23.672  33.329  1.00  0.00    +0.000 N 
ATOM     40  N7  UNL A   1      44.072  23.560  32.001  1.00  0.00    +0.000 N 
ATOM     17  N3  UNL A   1      44.779  24.575  31.464  1.00  0.00    +0.000 N 
ATOM     18  C13 UNL A   1      45.247  25.383  32.458  1.00  0.00    +0.000 C 
ATOM     19  C14 UNL A   1      44.812  24.836  33.637  1.00  0.00    +0.000 C 
ATOM    122  H17 UNL A   1      45.816  26.236  32.345  1.00  0.00    +0.000 H 
BRANCH   19   20
ATOM    124  H19 UNL A   1      46.153  24.721  35.095  1.00  0.00    +0.000 H 
ATOM    123  H18 UNL A   1      45.094  26.252  35.089  1.00  0.00    +0.000 H 
ATOM     20  C15 UNL A   1      45.194  25.189  35.024  1.00  0.00    +0.000 C 
BRANCH   20   21
ATOM     21  S1  UNL A   1      44.390  24.536  36.489  1.00  0.00    +0.000 S 
BRANCH   21   22
ATOM    127  H22 UNL A   1      47.769  27.965  42.409  1.00  0.00    +0.000 H 
ATOM    126  H21 UNL A   1      45.450  28.649  42.160  1.00  0.00    +0.000 H 
ATOM    128  H23 UNL A   1      48.659  26.192  40.997  1.00  0.00    +0.000 H 
ATOM    125  H20 UNL A   1      44.096  27.740  40.360  1.00  0.00    +0.000 H 
ATOM     22  C16 UNL A   1      45.246  24.854  37.974  1.00  0.00    +0.000 C 
ATOM     23  N4  UNL A   1      44.891  25.985  38.516  1.00  0.00    +0.000 N 
ATOM     24  C17 UNL A   1      45.584  26.424  39.652  1.00  0.00    +0.000 C 
ATOM     25  C18 UNL A   1      45.063  27.406  40.494  1.00  0.00    +0.000 C 
ATOM     26  C19 UNL A   1      45.850  27.943  41.522  1.00  0.00    +0.000 C 
ATOM     27  C20 UNL A   1      47.174  27.527  41.688  1.00  0.00    +0.000 C 
ATOM     28  C21 UNL A   1      47.687  26.518  40.879  1.00  0.00    +0.000 C 
ATOM     29  C22 UNL A   1      46.863  25.952  39.901  1.00  0.00    +0.000 C 
ATOM     30  C23 UNL A   1      47.251  24.753  39.149  1.00  0.00    +0.000 C 
ATOM     31  O3  UNL A   1      48.444  24.466  39.073  1.00  0.00    +0.000 O 
ATOM     32  N5  UNL A   1      46.193  24.041  38.572  1.00  0.00    +0.000 N 
BRANCH   32   33
ATOM     33  C24 UNL A   1      46.243  22.594  38.609  1.00  0.00    +0.000 C 
ATOM     34  C25 UNL A   1      45.898  21.917  39.800  1.00  0.00    +0.000 C 
ATOM    129  H24 UNL A   1      45.420  22.439  40.550  1.00  0.00    +0.000 H 
ATOM     35  C26 UNL A   1      46.183  20.563  39.996  1.00  0.00    +0.000 C 
ATOM    133  H28 UNL A   1      46.681  22.177  36.589  1.00  0.00    +0.000 H 
ATOM     38  C29 UNL A   1      46.644  21.783  37.542  1.00  0.00    +0.000 C 
ATOM     37  C28 UNL A   1      46.996  20.440  37.750  1.00  0.00    +0.000 C 
ATOM    130  H25 UNL A   1      45.935  20.105  40.886  1.00  0.00    +0.000 H 
ATOM     36  C27 UNL A   1      46.801  19.841  38.988  1.00  0.00    +0.000 C 
ATOM    132  H27 UNL A   1      47.403  19.893  36.975  1.00  0.00    +0.000 H 
ATOM    131  H26 UNL A   1      47.112  18.871  39.155  1.00  0.00    +0.000 H 
ENDBRANCH   32   33
ENDBRANCH   21   22
ENDBRANCH   20   21
ENDBRANCH   19   20
ENDBRANCH   16   17
ENDBRANCH   11   13
ENDBRANCH   10   11
ENDBRANCH    9   10
ENDBRANCH    8    9
ENDBRANCH    7    8
ENDBRANCH    6    7
ENDBRANCH    5    6
ENDBRANCH    4    5
ENDBRANCH    3    4
ENDBRANCH    2    3
ENDBRANCH   43    2
ENDBRANCH   47   46
BRANCH   51   52
ATOM     52  C40 UNL A   1      44.727  31.900  27.721  1.00  0.00    +0.000 C 
ATOM     53  C41 UNL A   1      45.906  32.132  26.981  1.00  0.00    +0.000 C 
ATOM     54  F1  UNL A   1      46.724  31.119  26.658  1.00  0.00    +0.000 F 
ATOM     55  C42 UNL A   1      46.331  33.422  26.650  1.00  0.00    +0.000 C 
ATOM     56  F2  UNL A   1      47.530  33.601  26.079  1.00  0.00    +0.000 F 
ATOM     57  C43 UNL A   1      45.560  34.520  26.980  1.00  0.00    +0.000 C 
ATOM     58  F3  UNL A   1      45.999  35.761  26.734  1.00  0.00    +0.000 F 
ATOM     59  C44 UNL A   1      44.351  34.328  27.612  1.00  0.00    +0.000 C 
ATOM     60  F4  UNL A   1      43.592  35.381  27.948  1.00  0.00    +0.000 F 
ATOM     61  C45 UNL A   1      43.948  33.047  27.989  1.00  0.00    +0.000 C 
ATOM     62  F5  UNL A   1      42.828  33.001  28.716  1.00  0.00    +0.000 F 
ENDBRANCH   51   52
BRANCH   68   69
ATOM     69  C51 UNL A   1      42.628  29.760  33.807  1.00  0.00    +0.000 C 
ATOM     70  C52 UNL A   1      42.098  28.458  33.778  1.00  0.00    +0.000 C 
ATOM     71  F6  UNL A   1      41.674  27.916  32.628  1.00  0.00    +0.000 F 
ATOM     72  C53 UNL A   1      42.053  27.671  34.928  1.00  0.00    +0.000 C 
ATOM     73  F7  UNL A   1      41.533  26.436  34.878  1.00  0.00    +0.000 F 
ATOM     74  C54 UNL A   1      42.583  28.149  36.116  1.00  0.00    +0.000 C 
ATOM     75  F8  UNL A   1      42.581  27.377  37.211  1.00  0.00    +0.000 F 
ATOM     76  C55 UNL A   1      43.143  29.416  36.160  1.00  0.00    +0.000 C 
ATOM     77  F9  UNL A   1      43.704  29.861  37.293  1.00  0.00    +0.000 F 
ATOM     78  C56 UNL A   1      43.154  30.217  35.022  1.00  0.00    +0.000 C 
ATOM     79  F10 UNL A   1      43.728  31.428  35.092  1.00  0.00    +0.000 F 
ENDBRANCH   68   69
BRANCH   83   84
ATOM     84  C60 UNL A   1      37.062  31.447  31.386  1.00  0.00    +0.000 C 
ATOM     85  C61 UNL A   1      36.379  31.859  32.542  1.00  0.00    +0.000 C 
ATOM     86  F11 UNL A   1      36.796  31.455  33.751  1.00  0.00    +0.000 F 
ATOM     87  C62 UNL A   1      35.298  32.746  32.478  1.00  0.00    +0.000 C 
ATOM     88  F12 UNL A   1      34.706  33.161  33.607  1.00  0.00    +0.000 F 
ATOM     89  C63 UNL A   1      34.871  33.243  31.258  1.00  0.00    +0.000 C 
ATOM     90  F13 UNL A   1      33.875  34.140  31.201  1.00  0.00    +0.000 F 
ATOM     91  C64 UNL A   1      35.509  32.842  30.099  1.00  0.00    +0.000 C 
ATOM     92  F14 UNL A   1      35.132  33.347  28.917  1.00  0.00    +0.000 F 
ATOM     93  C65 UNL A   1      36.589  31.961  30.163  1.00  0.00    +0.000 C 
ATOM     94  F15 UNL A   1      37.227  31.695  29.014  1.00  0.00    +0.000 F 
ENDBRANCH   83   84
TORSDOF 20
ENDMDL
MODEL 4
REMARK VINA RESULT:     -10.1     29.934     36.628
ROOT
ATOM    138  H33 UNL A   1      19.088  14.685   7.571  1.00  0.00    +0.000 H 
ATOM    139  H34 UNL A   1      20.539  15.610   9.607  1.00  0.00    +0.000 H 
ATOM    140  H35 UNL A   1      22.838  13.276   7.271  1.00  0.00    +0.000 H 
ATOM    141  H36 UNL A   1      26.371  20.689   6.332  1.00  0.00    +0.000 H 
ATOM    142  H37 UNL A   1      23.969  21.222   5.675  1.00  0.00    +0.000 H 
ATOM    143  H38 UNL A   1      24.174  17.128   6.359  1.00  0.00    +0.000 H 
ATOM    144  H39 UNL A   1      26.631  15.190   5.554  1.00  0.00    +0.000 H 
ATOM    145  H40 UNL A   1      24.504  14.089   6.510  1.00  0.00    +0.000 H 
ATOM    146  H41 UNL A   1      20.689  15.435   2.638  1.00  0.00    +0.000 H 
ATOM    147  H42 UNL A   1      21.814  17.746   2.500  1.00  0.00    +0.000 H 
ATOM     47  C36 UNL A   1      22.412  18.853   5.072  1.00  0.00    +0.000 C 
ATOM     48  C37 UNL A   1      21.872  17.501   4.755  1.00  0.00    +0.000 C 
ATOM     49  N8  UNL A   1      21.481  16.581   5.579  1.00  0.00    +0.000 N 
ATOM     50  C38 UNL A   1      21.124  15.488   4.789  1.00  0.00    +0.000 C 
ATOM     51  C39 UNL A   1      21.117  14.221   5.291  1.00  0.00    +0.000 C 
ATOM     63  C46 UNL A   1      21.035  14.230   6.729  1.00  0.00    +0.000 C 
ATOM     64  C47 UNL A   1      20.117  14.688   7.654  1.00  0.00    +0.000 C 
ATOM     65  C48 UNL A   1      20.899  15.165   8.747  1.00  0.00    +0.000 C 
ATOM     66  C49 UNL A   1      22.238  14.922   8.444  1.00  0.00    +0.000 C 
ATOM     67  N9  UNL A   1      22.181  13.988   7.445  1.00  0.00    +0.000 N 
ATOM     68  C50 UNL A   1      23.471  15.503   8.909  1.00  0.00    +0.000 C 
ATOM     80  C57 UNL A   1      24.643  15.490   8.211  1.00  0.00    +0.000 C 
ATOM     81  N10 UNL A   1      25.636  16.423   8.468  1.00  0.00    +0.000 N 
ATOM     82  C58 UNL A   1      26.284  16.534   7.341  1.00  0.00    +0.000 C 
ATOM     83  C59 UNL A   1      26.796  17.825   6.817  1.00  0.00    +0.000 C 
ATOM     95  C66 UNL A   1      25.717  18.581   6.489  1.00  0.00    +0.000 C 
ATOM     96  C67 UNL A   1      25.609  20.001   6.232  1.00  0.00    +0.000 C 
ATOM     97  C68 UNL A   1      24.347  20.277   5.840  1.00  0.00    +0.000 C 
ATOM     98  C69 UNL A   1      23.600  19.028   5.687  1.00  0.00    +0.000 C 
ATOM     99  N11 UNL A   1      24.437  18.063   6.205  1.00  0.00    +0.000 N 
ATOM    100  C70 UNL A   1      26.094  15.447   6.396  1.00  0.00    +0.000 C 
ATOM    101  C71 UNL A   1      25.015  14.875   6.940  1.00  0.00    +0.000 C 
ATOM    102  C72 UNL A   1      21.083  15.963   3.432  1.00  0.00    +0.000 C 
ATOM    103  C73 UNL A   1      21.622  17.179   3.341  1.00  0.00    +0.000 C 
ENDROOT
BRANCH   47   46
ATOM    104  C74 UNL A   1      22.206  20.870   3.650  1.00  0.00    +0.000 C 
ATOM    105  C75 UNL A   1      21.429  21.901   3.139  1.00  0.00    +0.000 C 
ATOM    136  H31 UNL A   1      18.480  21.088   4.496  1.00  0.00    +0.000 H 
ATOM     43  C32 UNL A   1      20.073  22.037   3.492  1.00  0.00    +0.000 C 
ATOM     44  C33 UNL A   1      19.492  21.052   4.293  1.00  0.00    +0.000 C 
ATOM     45  C34 UNL A   1      20.268  20.024   4.820  1.00  0.00    +0.000 C 
ATOM    137  H32 UNL A   1      19.834  19.307   5.424  1.00  0.00    +0.000 H 
ATOM     46  C35 UNL A   1      21.631  19.961   4.532  1.00  0.00    +0.000 C 
ATOM    148  H43 UNL A   1      23.198  20.780   3.379  1.00  0.00    +0.000 H 
ATOM    149  H44 UNL A   1      21.853  22.579   2.487  1.00  0.00    +0.000 H 
BRANCH   43    2
ATOM      1  O1  UNL A   1      20.124  24.229   2.663  1.00  0.00    +0.000 O 
ATOM      2  C1  UNL A   1      19.414  23.284   3.015  1.00  0.00    +0.000 C 
BRANCH    2    3
ATOM    106  H1  UNL A   1      17.809  24.309   3.503  1.00  0.00    +0.000 H 
ATOM      3  N1  UNL A   1      18.067  23.505   2.996  1.00  0.00    +0.000 N 
BRANCH    3    4
ATOM    108  H3  UNL A   1      16.271  23.597   2.048  1.00  0.00    +0.000 H 
ATOM    107  H2  UNL A   1      17.287  22.197   1.622  1.00  0.00    +0.000 H 
ATOM      4  C2  UNL A   1      16.931  22.833   2.406  1.00  0.00    +0.000 C 
BRANCH    4    5
ATOM    109  H4  UNL A   1      16.461  22.214   4.379  1.00  0.00    +0.000 H 
ATOM      5  C3  UNL A   1      16.130  21.980   3.390  1.00  0.00    +0.000 C 
ATOM    110  H5  UNL A   1      16.303  20.961   3.113  1.00  0.00    +0.000 H 
BRANCH    5    6
ATOM      6  C4  UNL A   1      14.611  22.187   3.336  1.00  0.00    +0.000 C 
ATOM    111  H6  UNL A   1      14.176  21.315   2.896  1.00  0.00    +0.000 H 
ATOM    112  H7  UNL A   1      14.459  23.082   2.769  1.00  0.00    +0.000 H 
BRANCH    6    7
ATOM    113  H8  UNL A   1      14.439  23.223   5.180  1.00  0.00    +0.000 H 
ATOM    114  H9  UNL A   1      13.967  21.495   5.206  1.00  0.00    +0.000 H 
ATOM      7  C5  UNL A   1      13.924  22.427   4.684  1.00  0.00    +0.000 C 
BRANCH    7    8
ATOM    115  H10 UNL A   1      11.884  22.059   5.147  1.00  0.00    +0.000 H 
ATOM    116  H11 UNL A   1      12.191  22.843   3.570  1.00  0.00    +0.000 H 
ATOM      8  C6  UNL A   1      12.440  22.800   4.610  1.00  0.00    +0.000 C 
BRANCH    8    9
ATOM      9  C7  UNL A   1      12.094  24.167   5.191  1.00  0.00    +0.000 C 
ATOM    117  H12 UNL A   1      11.278  24.580   4.635  1.00  0.00    +0.000 H 
ATOM    118  H13 UNL A   1      12.967  24.781   5.121  1.00  0.00    +0.000 H 
BRANCH    9   10
ATOM     10  N2  UNL A   1      11.713  24.096   6.593  1.00  0.00    +0.000 N 
ATOM    119  H14 UNL A   1      10.755  23.960   6.767  1.00  0.00    +0.000 H 
BRANCH   10   11
ATOM     11  C8  UNL A   1      12.511  24.191   7.705  1.00  0.00    +0.000 C 
ATOM     12  O2  UNL A   1      12.657  25.267   8.281  1.00  0.00    +0.000 O 
BRANCH   11   13
ATOM    134  H29 UNL A   1      12.589  19.807   9.092  1.00  0.00    +0.000 H 
ATOM    135  H30 UNL A   1      11.466  21.747   8.149  1.00  0.00    +0.000 H 
ATOM     41  C30 UNL A   1      13.105  20.690   8.955  1.00  0.00    +0.000 C 
ATOM     42  C31 UNL A   1      12.463  21.799   8.411  1.00  0.00    +0.000 C 
ATOM     13  C9  UNL A   1      13.182  22.983   8.223  1.00  0.00    +0.000 C 
ATOM     14  C10 UNL A   1      14.547  23.049   8.524  1.00  0.00    +0.000 C 
ATOM     15  C11 UNL A   1      15.186  21.954   9.109  1.00  0.00    +0.000 C 
ATOM     16  C12 UNL A   1      14.463  20.779   9.317  1.00  0.00    +0.000 C 
ATOM    120  H15 UNL A   1      15.083  23.906   8.314  1.00  0.00    +0.000 H 
ATOM    121  H16 UNL A   1      16.179  22.013   9.385  1.00  0.00    +0.000 H 
BRANCH   16   17
ATOM     39  N6  UNL A   1      16.556  18.365  10.809  1.00  0.00    +0.000 N 
ATOM     40  N7  UNL A   1      16.286  19.628  10.473  1.00  0.00    +0.000 N 
ATOM     17  N3  UNL A   1      15.126  19.631   9.784  1.00  0.00    +0.000 N 
ATOM     18  C13 UNL A   1      14.690  18.349   9.617  1.00  0.00    +0.000 C 
ATOM     19  C14 UNL A   1      15.614  17.544  10.230  1.00  0.00    +0.000 C 
ATOM    122  H17 UNL A   1      13.834  18.047   9.128  1.00  0.00    +0.000 H 
BRANCH   19   20
ATOM    124  H19 UNL A   1      15.916  16.069  11.524  1.00  0.00    +0.000 H 
ATOM    123  H18 UNL A   1      14.529  15.809  10.309  1.00  0.00    +0.000 H 
ATOM     20  C15 UNL A   1      15.538  16.093  10.523  1.00  0.00    +0.000 C 
BRANCH   20   21
ATOM     21  S1  UNL A   1      16.569  14.850   9.742  1.00  0.00    +0.000 S 
BRANCH   21   22
ATOM    127  H22 UNL A   1      14.937  11.461   3.103  1.00  0.00    +0.000 H 
ATOM    126  H21 UNL A   1      13.408  10.792   4.870  1.00  0.00    +0.000 H 
ATOM    128  H23 UNL A   1      16.576  13.211   3.529  1.00  0.00    +0.000 H 
ATOM    125  H20 UNL A   1      13.664  11.692   7.111  1.00  0.00    +0.000 H 
ATOM     22  C16 UNL A   1      16.173  14.542   8.073  1.00  0.00    +0.000 C 
ATOM     23  N4  UNL A   1      15.528  13.419   7.917  1.00  0.00    +0.000 N 
ATOM     24  C17 UNL A   1      15.251  12.987   6.613  1.00  0.00    +0.000 C 
ATOM     25  C18 UNL A   1      14.282  12.019   6.353  1.00  0.00    +0.000 C 
ATOM     26  C19 UNL A   1      14.145  11.487   5.063  1.00  0.00    +0.000 C 
ATOM     27  C20 UNL A   1      15.002  11.895   4.037  1.00  0.00    +0.000 C 
ATOM     28  C21 UNL A   1      15.944  12.892   4.279  1.00  0.00    +0.000 C 
ATOM     29  C22 UNL A   1      16.020  13.453   5.558  1.00  0.00    +0.000 C 
ATOM     30  C23 UNL A   1      16.832  14.640   5.844  1.00  0.00    +0.000 C 
ATOM     31  O3  UNL A   1      17.758  14.917   5.084  1.00  0.00    +0.000 O 
ATOM     32  N5  UNL A   1      16.465  15.354   6.991  1.00  0.00    +0.000 N 
BRANCH   32   33
ATOM     33  C24 UNL A   1      16.495  16.801   6.933  1.00  0.00    +0.000 C 
ATOM     34  C25 UNL A   1      15.404  17.497   6.368  1.00  0.00    +0.000 C 
ATOM    129  H24 UNL A   1      14.523  16.989   6.198  1.00  0.00    +0.000 H 
ATOM     35  C26 UNL A   1      15.479  18.851   6.030  1.00  0.00    +0.000 C 
ATOM    133  H28 UNL A   1      18.270  17.186   8.005  1.00  0.00    +0.000 H 
ATOM     38  C29 UNL A   1      17.558  17.594   7.378  1.00  0.00    +0.000 C 
ATOM     37  C28 UNL A   1      17.670  18.937   6.984  1.00  0.00    +0.000 C 
ATOM    130  H25 UNL A   1      14.669  19.323   5.600  1.00  0.00    +0.000 H 
ATOM     36  C27 UNL A   1      16.647  19.554   6.277  1.00  0.00    +0.000 C 
ATOM    132  H27 UNL A   1      18.521  19.470   7.223  1.00  0.00    +0.000 H 
ATOM    131  H26 UNL A   1      16.754  20.523   5.939  1.00  0.00    +0.000 H 
ENDBRANCH   32   33
ENDBRANCH   21   22
ENDBRANCH   20   21
ENDBRANCH   19   20
ENDBRANCH   16   17
ENDBRANCH   11   13
ENDBRANCH   10   11
ENDBRANCH    9   10
ENDBRANCH    8    9
ENDBRANCH    7    8
ENDBRANCH    6    7
ENDBRANCH    5    6
ENDBRANCH    4    5
ENDBRANCH    3    4
ENDBRANCH    2    3
ENDBRANCH   43    2
ENDBRANCH   47   46
BRANCH   51   52
ATOM     52  C40 UNL A   1      21.583  13.000   4.527  1.00  0.00    +0.000 C 
ATOM     53  C41 UNL A   1      22.880  13.002   3.969  1.00  0.00    +0.000 C 
ATOM     54  F1  UNL A   1      23.791  13.906   4.357  1.00  0.00    +0.000 F 
ATOM     55  C42 UNL A   1      23.236  12.149   2.920  1.00  0.00    +0.000 C 
ATOM     56  F2  UNL A   1      24.428  12.292   2.324  1.00  0.00    +0.000 F 
ATOM     57  C43 UNL A   1      22.338  11.214   2.441  1.00  0.00    +0.000 C 
ATOM     58  F3  UNL A   1      22.648  10.449   1.387  1.00  0.00    +0.000 F 
ATOM     59  C44 UNL A   1      21.097  11.111   3.029  1.00  0.00    +0.000 C 
ATOM     60  F4  UNL A   1      20.209  10.216   2.574  1.00  0.00    +0.000 F 
ATOM     61  C45 UNL A   1      20.720  11.993   4.040  1.00  0.00    +0.000 C 
ATOM     62  F5  UNL A   1      19.448  11.886   4.436  1.00  0.00    +0.000 F 
ENDBRANCH   51   52
BRANCH   68   69
ATOM     69  C51 UNL A   1      23.391  16.388  10.120  1.00  0.00    +0.000 C 
ATOM     70  C52 UNL A   1      23.009  17.740  10.071  1.00  0.00    +0.000 C 
ATOM     71  F6  UNL A   1      22.721  18.330   8.903  1.00  0.00    +0.000 F 
ATOM     72  C53 UNL A   1      22.858  18.489  11.237  1.00  0.00    +0.000 C 
ATOM     73  F7  UNL A   1      22.503  19.780  11.165  1.00  0.00    +0.000 F 
ATOM     74  C54 UNL A   1      23.036  17.890  12.474  1.00  0.00    +0.000 C 
ATOM     75  F8  UNL A   1      22.847  18.597  13.596  1.00  0.00    +0.000 F 
ATOM     76  C55 UNL A   1      23.378  16.549  12.547  1.00  0.00    +0.000 C 
ATOM     77  F9  UNL A   1      23.498  15.953  13.742  1.00  0.00    +0.000 F 
ATOM     78  C56 UNL A   1      23.566  15.810  11.383  1.00  0.00    +0.000 C 
ATOM     79  F10 UNL A   1      23.871  14.507  11.490  1.00  0.00    +0.000 F 
ENDBRANCH   68   69
BRANCH   83   84
ATOM     84  C60 UNL A   1      28.202  18.010   6.391  1.00  0.00    +0.000 C 
ATOM     85  C61 UNL A   1      29.235  18.169   7.329  1.00  0.00    +0.000 C 
ATOM     86  F11 UNL A   1      28.943  18.368   8.623  1.00  0.00    +0.000 F 
ATOM     87  C62 UNL A   1      30.581  18.056   6.965  1.00  0.00    +0.000 C 
ATOM     88  F12 UNL A   1      31.538  18.156   7.899  1.00  0.00    +0.000 F 
ATOM     89  C63 UNL A   1      30.932  17.784   5.653  1.00  0.00    +0.000 C 
ATOM     90  F13 UNL A   1      32.218  17.616   5.314  1.00  0.00    +0.000 F 
ATOM     91  C64 UNL A   1      29.941  17.643   4.700  1.00  0.00    +0.000 C 
ATOM     92  F14 UNL A   1      30.264  17.341   3.435  1.00  0.00    +0.000 F 
ATOM     93  C65 UNL A   1      28.598  17.751   5.064  1.00  0.00    +0.000 C 
ATOM     94  F15 UNL A   1      27.687  17.501   4.112  1.00  0.00    +0.000 F 
ENDBRANCH   83   84
TORSDOF 20
ENDMDL
MODEL 5
REMARK VINA RESULT:     -10.0     31.774     38.444
ROOT
ATOM    138  H33 UNL A   1      18.938  14.277   7.529  1.00  0.00    +0.000 H 
ATOM    139  H34 UNL A   1      20.356  15.299   9.541  1.00  0.00    +0.000 H 
ATOM    140  H35 UNL A   1      22.751  13.049   7.219  1.00  0.00    +0.000 H 
ATOM    141  H36 UNL A   1      25.911  20.612   6.157  1.00  0.00    +0.000 H 
ATOM    142  H37 UNL A   1      23.481  21.019   5.511  1.00  0.00    +0.000 H 
ATOM    143  H38 UNL A   1      23.890  16.949   6.247  1.00  0.00    +0.000 H 
ATOM    144  H39 UNL A   1      26.434  15.122   5.449  1.00  0.00    +0.000 H 
ATOM    145  H40 UNL A   1      24.370  13.932   6.435  1.00  0.00    +0.000 H 
ATOM    146  H41 UNL A   1      20.468  15.039   2.574  1.00  0.00    +0.000 H 
ATOM    147  H42 UNL A   1      21.477  17.399   2.397  1.00  0.00    +0.000 H 
ATOM     47  C36 UNL A   1      22.037  18.568   4.951  1.00  0.00    +0.000 C 
ATOM     48  C37 UNL A   1      21.562  17.188   4.656  1.00  0.00    +0.000 C 
ATOM     49  N8  UNL A   1      21.222  16.260   5.494  1.00  0.00    +0.000 N 
ATOM     50  C38 UNL A   1      20.913  15.141   4.721  1.00  0.00    +0.000 C 
ATOM     51  C39 UNL A   1      20.972  13.883   5.240  1.00  0.00    +0.000 C 
ATOM     63  C46 UNL A   1      20.899  13.906   6.678  1.00  0.00    +0.000 C 
ATOM     64  C47 UNL A   1      19.967  14.331   7.603  1.00  0.00    +0.000 C 
ATOM     65  C48 UNL A   1      20.732  14.861   8.685  1.00  0.00    +0.000 C 
ATOM     66  C49 UNL A   1      22.079  14.679   8.375  1.00  0.00    +0.000 C 
ATOM     67  N9  UNL A   1      22.060  13.730   7.388  1.00  0.00    +0.000 N 
ATOM     68  C50 UNL A   1      23.285  15.326   8.823  1.00  0.00    +0.000 C 
ATOM     80  C57 UNL A   1      24.451  15.361   8.116  1.00  0.00    +0.000 C 
ATOM     81  N10 UNL A   1      25.400  16.345   8.354  1.00  0.00    +0.000 N 
ATOM     82  C58 UNL A   1      26.034  16.472   7.221  1.00  0.00    +0.000 C 
ATOM     83  C59 UNL A   1      26.478  17.779   6.676  1.00  0.00    +0.000 C 
ATOM     95  C66 UNL A   1      25.361  18.477   6.347  1.00  0.00    +0.000 C 
ATOM     96  C67 UNL A   1      25.183  19.886   6.072  1.00  0.00    +0.000 C 
ATOM     97  C68 UNL A   1      23.906  20.095   5.686  1.00  0.00    +0.000 C 
ATOM     98  C69 UNL A   1      23.220  18.810   5.555  1.00  0.00    +0.000 C 
ATOM     99  N11 UNL A   1      24.107  17.894   6.079  1.00  0.00    +0.000 N 
ATOM    100  C70 UNL A   1      25.890  15.364   6.291  1.00  0.00    +0.000 C 
ATOM    101  C71 UNL A   1      24.845  14.748   6.851  1.00  0.00    +0.000 C 
ATOM    102  C72 UNL A   1      20.840  15.596   3.358  1.00  0.00    +0.000 C 
ATOM    103  C73 UNL A   1      21.319  16.835   3.248  1.00  0.00    +0.000 C 
ENDROOT
BRANCH   47   46
ATOM    104  C74 UNL A   1      21.636  20.392   3.323  1.00  0.00    +0.000 C 
ATOM    105  C75 UNL A   1      20.806  21.380   2.813  1.00  0.00    +0.000 C 
ATOM    136  H31 UNL A   1      18.113  20.877   4.735  1.00  0.00    +0.000 H 
ATOM     43  C32 UNL A   1      19.531  21.619   3.363  1.00  0.00    +0.000 C 
ATOM     44  C33 UNL A   1      19.074  20.772   4.374  1.00  0.00    +0.000 C 
ATOM     45  C34 UNL A   1      19.906  19.788   4.900  1.00  0.00    +0.000 C 
ATOM    137  H32 UNL A   1      19.566  19.176   5.659  1.00  0.00    +0.000 H 
ATOM     46  C35 UNL A   1      21.200  19.630   4.402  1.00  0.00    +0.000 C 
ATOM    148  H43 UNL A   1      22.566  20.225   2.907  1.00  0.00    +0.000 H 
ATOM    149  H44 UNL A   1      21.127  21.949   2.015  1.00  0.00    +0.000 H 
BRANCH   43    2
ATOM      1  O1  UNL A   1      19.429  23.898   2.824  1.00  0.00    +0.000 O 
ATOM      2  C1  UNL A   1      18.828  22.821   2.838  1.00  0.00    +0.000 C 
BRANCH    2    3
ATOM    106  H1  UNL A   1      16.891  22.735   3.165  1.00  0.00    +0.000 H 
ATOM      3  N1  UNL A   1      17.527  22.854   2.423  1.00  0.00    +0.000 N 
BRANCH    3    4
ATOM    108  H3  UNL A   1      16.313  23.936   1.204  1.00  0.00    +0.000 H 
ATOM    107  H2  UNL A   1      17.615  23.040   0.383  1.00  0.00    +0.000 H 
ATOM      4  C2  UNL A   1      16.867  23.022   1.148  1.00  0.00    +0.000 C 
BRANCH    4    5
ATOM    109  H4  UNL A   1      15.602  21.421   1.724  1.00  0.00    +0.000 H 
ATOM      5  C3  UNL A   1      15.865  21.917   0.814  1.00  0.00    +0.000 C 
ATOM    110  H5  UNL A   1      16.349  21.277   0.105  1.00  0.00    +0.000 H 
BRANCH    5    6
ATOM      6  C4  UNL A   1      14.572  22.398   0.144  1.00  0.00    +0.000 C 
ATOM    111  H6  UNL A   1      14.841  22.951  -0.731  1.00  0.00    +0.000 H 
ATOM    112  H7  UNL A   1      14.059  22.977   0.884  1.00  0.00    +0.000 H 
BRANCH    6    7
ATOM    113  H8  UNL A   1      13.052  20.987   0.592  1.00  0.00    +0.000 H 
ATOM    114  H9  UNL A   1      14.187  20.527  -0.717  1.00  0.00    +0.000 H 
ATOM      7  C5  UNL A   1      13.591  21.300  -0.278  1.00  0.00    +0.000 C 
BRANCH    7    8
ATOM    115  H10 UNL A   1      12.904  22.612  -1.799  1.00  0.00    +0.000 H 
ATOM    116  H11 UNL A   1      11.631  21.802  -0.842  1.00  0.00    +0.000 H 
ATOM      8  C6  UNL A   1      12.570  21.702  -1.345  1.00  0.00    +0.000 C 
BRANCH    8    9
ATOM      9  C7  UNL A   1      12.358  20.670  -2.449  1.00  0.00    +0.000 C 
ATOM    117  H12 UNL A   1      11.321  20.659  -2.714  1.00  0.00    +0.000 H 
ATOM    118  H13 UNL A   1      12.678  19.721  -2.073  1.00  0.00    +0.000 H 
BRANCH    9   10
ATOM     10  N2  UNL A   1      13.140  20.962  -3.640  1.00  0.00    +0.000 N 
ATOM    119  H14 UNL A   1      12.648  21.381  -4.381  1.00  0.00    +0.000 H 
BRANCH   10   11
ATOM     11  C8  UNL A   1      14.473  20.732  -3.869  1.00  0.00    +0.000 C 
ATOM     12  O2  UNL A   1      14.842  19.721  -4.464  1.00  0.00    +0.000 O 
BRANCH   11   13
ATOM    134  H29 UNL A   1      16.115  25.002  -3.408  1.00  0.00    +0.000 H 
ATOM    135  H30 UNL A   1      14.405  23.416  -4.095  1.00  0.00    +0.000 H 
ATOM     41  C30 UNL A   1      16.252  23.991  -3.252  1.00  0.00    +0.000 C 
ATOM     42  C31 UNL A   1      15.271  23.084  -3.641  1.00  0.00    +0.000 C 
ATOM     13  C9  UNL A   1      15.469  21.719  -3.412  1.00  0.00    +0.000 C 
ATOM     14  C10 UNL A   1      16.615  21.263  -2.750  1.00  0.00    +0.000 C 
ATOM     15  C11 UNL A   1      17.621  22.164  -2.395  1.00  0.00    +0.000 C 
ATOM     16  C12 UNL A   1      17.432  23.524  -2.644  1.00  0.00    +0.000 C 
ATOM    120  H15 UNL A   1      16.717  20.261  -2.523  1.00  0.00    +0.000 H 
ATOM    121  H16 UNL A   1      18.493  21.828  -1.956  1.00  0.00    +0.000 H 
BRANCH   16   17
ATOM     39  N6  UNL A   1      20.237  25.287  -1.435  1.00  0.00    +0.000 N 
ATOM     40  N7  UNL A   1      19.606  24.143  -1.708  1.00  0.00    +0.000 N 
ATOM     17  N3  UNL A   1      18.379  24.451  -2.175  1.00  0.00    +0.000 N 
ATOM     18  C13 UNL A   1      18.199  25.802  -2.131  1.00  0.00    +0.000 C 
ATOM     19  C14 UNL A   1      19.358  26.331  -1.626  1.00  0.00    +0.000 C 
ATOM    122  H17 UNL A   1      17.358  26.324  -2.423  1.00  0.00    +0.000 H 
BRANCH   19   20
ATOM    124  H19 UNL A   1      18.860  28.221  -1.284  1.00  0.00    +0.000 H 
ATOM    123  H18 UNL A   1      20.622  27.764  -0.889  1.00  0.00    +0.000 H 
ATOM     20  C15 UNL A   1      19.782  27.748  -1.552  1.00  0.00    +0.000 C 
BRANCH   20   21
ATOM     21  S1  UNL A   1      20.265  28.733  -2.972  1.00  0.00    +0.000 S 
BRANCH   21   22
ATOM    127  H22 UNL A   1      24.353  25.104  -8.296  1.00  0.00    +0.000 H 
ATOM    126  H21 UNL A   1      22.942  26.836  -9.251  1.00  0.00    +0.000 H 
ATOM    128  H23 UNL A   1      24.502  24.872  -5.876  1.00  0.00    +0.000 H 
ATOM    125  H20 UNL A   1      21.508  28.173  -7.817  1.00  0.00    +0.000 H 
ATOM     22  C16 UNL A   1      21.571  28.050  -3.902  1.00  0.00    +0.000 C 
ATOM     23  N4  UNL A   1      21.278  27.956  -5.169  1.00  0.00    +0.000 N 
ATOM     24  C17 UNL A   1      22.191  27.314  -6.016  1.00  0.00    +0.000 C 
ATOM     25  C18 UNL A   1      22.145  27.476  -7.401  1.00  0.00    +0.000 C 
ATOM     26  C19 UNL A   1      22.960  26.693  -8.230  1.00  0.00    +0.000 C 
ATOM     27  C20 UNL A   1      23.797  25.718  -7.680  1.00  0.00    +0.000 C 
ATOM     28  C21 UNL A   1      23.879  25.580  -6.297  1.00  0.00    +0.000 C 
ATOM     29  C22 UNL A   1      23.104  26.415  -5.487  1.00  0.00    +0.000 C 
ATOM     30  C23 UNL A   1      23.282  26.479  -4.032  1.00  0.00    +0.000 C 
ATOM     31  O3  UNL A   1      23.817  25.530  -3.462  1.00  0.00    +0.000 O 
ATOM     32  N5  UNL A   1      22.804  27.644  -3.422  1.00  0.00    +0.000 N 
BRANCH   32   33
ATOM     33  C24 UNL A   1      23.592  28.231  -2.357  1.00  0.00    +0.000 C 
ATOM     34  C25 UNL A   1      23.496  27.705  -1.050  1.00  0.00    +0.000 C 
ATOM    129  H24 UNL A   1      23.035  26.792  -0.913  1.00  0.00    +0.000 H 
ATOM     35  C26 UNL A   1      24.003  28.379   0.063  1.00  0.00    +0.000 C 
ATOM    133  H28 UNL A   1      24.747  29.610  -3.456  1.00  0.00    +0.000 H 
ATOM     38  C29 UNL A   1      24.447  29.327  -2.510  1.00  0.00    +0.000 C 
ATOM     37  C28 UNL A   1      24.903  30.047  -1.395  1.00  0.00    +0.000 C 
ATOM    130  H25 UNL A   1      23.898  27.975   1.006  1.00  0.00    +0.000 H 
ATOM     36  C27 UNL A   1      24.648  29.593  -0.107  1.00  0.00    +0.000 C 
ATOM    132  H27 UNL A   1      25.433  30.922  -1.533  1.00  0.00    +0.000 H 
ATOM    131  H26 UNL A   1      24.934  30.152   0.712  1.00  0.00    +0.000 H 
ENDBRANCH   32   33
ENDBRANCH   21   22
ENDBRANCH   20   21
ENDBRANCH   19   20
ENDBRANCH   16   17
ENDBRANCH   11   13
ENDBRANCH   10   11
ENDBRANCH    9   10
ENDBRANCH    8    9
ENDBRANCH    7    8
ENDBRANCH    6    7
ENDBRANCH    5    6
ENDBRANCH    4    5
ENDBRANCH    3    4
ENDBRANCH    2    3
ENDBRANCH   43    2
ENDBRANCH   47   46
BRANCH   51   52
ATOM     52  C40 UNL A   1      21.492  12.675   4.488  1.00  0.00    +0.000 C 
ATOM     53  C41 UNL A   1      22.792  12.725   3.940  1.00  0.00    +0.000 C 
ATOM     54  F1  UNL A   1      23.664  13.667   4.329  1.00  0.00    +0.000 F 
ATOM     55  C42 UNL A   1      23.190  11.880   2.900  1.00  0.00    +0.000 C 
ATOM     56  F2  UNL A   1      24.380  12.065   2.312  1.00  0.00    +0.000 F 
ATOM     57  C43 UNL A   1      22.334  10.907   2.421  1.00  0.00    +0.000 C 
ATOM     58  F3  UNL A   1      22.682  10.147   1.375  1.00  0.00    +0.000 F 
ATOM     59  C44 UNL A   1      21.092  10.758   3.000  1.00  0.00    +0.000 C 
ATOM     60  F4  UNL A   1      20.244   9.826   2.544  1.00  0.00    +0.000 F 
ATOM     61  C45 UNL A   1      20.673  11.632   4.002  1.00  0.00    +0.000 C 
ATOM     62  F5  UNL A   1      19.403  11.477   4.389  1.00  0.00    +0.000 F 
ENDBRANCH   51   52
BRANCH   68   69
ATOM     69  C51 UNL A   1      23.170  16.221  10.023  1.00  0.00    +0.000 C 
ATOM     70  C52 UNL A   1      22.654  17.529   9.971  1.00  0.00    +0.000 C 
ATOM     71  F6  UNL A   1      22.260  18.065   8.808  1.00  0.00    +0.000 F 
ATOM     72  C53 UNL A   1      22.480  18.282  11.131  1.00  0.00    +0.000 C 
ATOM     73  F7  UNL A   1      21.996  19.530  11.056  1.00  0.00    +0.000 F 
ATOM     74  C54 UNL A   1      22.770  17.727  12.368  1.00  0.00    +0.000 C 
ATOM     75  F8  UNL A   1      22.560  18.434  13.487  1.00  0.00    +0.000 F 
ATOM     76  C55 UNL A   1      23.246  16.428  12.446  1.00  0.00    +0.000 C 
ATOM     77  F9  UNL A   1      23.476  15.870  13.642  1.00  0.00    +0.000 F 
ATOM     78  C56 UNL A   1      23.455  15.688  11.286  1.00  0.00    +0.000 C 
ATOM     79  F10 UNL A   1      23.892  14.424  11.398  1.00  0.00    +0.000 F 
ENDBRANCH   68   69
BRANCH   83   84
ATOM     84  C60 UNL A   1      27.871  18.027   6.237  1.00  0.00    +0.000 C 
ATOM     85  C61 UNL A   1      28.922  18.124   7.164  1.00  0.00    +0.000 C 
ATOM     86  F11 UNL A   1      28.657  18.206   8.476  1.00  0.00    +0.000 F 
ATOM     87  C62 UNL A   1      30.261  18.069   6.762  1.00  0.00    +0.000 C 
ATOM     88  F12 UNL A   1      31.238  18.107   7.680  1.00  0.00    +0.000 F 
ATOM     89  C63 UNL A   1      30.586  17.917   5.424  1.00  0.00    +0.000 C 
ATOM     90  F13 UNL A   1      31.867  17.803   5.044  1.00  0.00    +0.000 F 
ATOM     91  C64 UNL A   1      29.576  17.840   4.484  1.00  0.00    +0.000 C 
ATOM     92  F14 UNL A   1      29.875  17.653   3.191  1.00  0.00    +0.000 F 
ATOM     93  C65 UNL A   1      28.241  17.890   4.885  1.00  0.00    +0.000 C 
ATOM     94  F15 UNL A   1      27.312  17.705   3.935  1.00  0.00    +0.000 F 
ENDBRANCH   83   84
TORSDOF 20
ENDMDL
MODEL 6
REMARK VINA RESULT:      -9.9     40.343     46.081
ROOT
ATOM    138  H33 UNL A   1      12.715  55.411   9.407  1.00  0.00    +0.000 H 
ATOM    139  H34 UNL A   1      14.546  53.558   9.967  1.00  0.00    +0.000 H 
ATOM    140  H35 UNL A   1      12.477  54.448  13.301  1.00  0.00    +0.000 H 
ATOM    141  H36 UNL A   1      10.382  46.557  12.014  1.00  0.00    +0.000 H 
ATOM    142  H37 UNL A   1       9.746  47.588   9.773  1.00  0.00    +0.000 H 
ATOM    143  H38 UNL A   1      10.987  50.692  12.243  1.00  0.00    +0.000 H 
ATOM    144  H39 UNL A   1      10.371  50.964  15.404  1.00  0.00    +0.000 H 
ATOM    145  H40 UNL A   1      11.550  52.941  14.240  1.00  0.00    +0.000 H 
ATOM    146  H41 UNL A   1       7.669  54.557  10.539  1.00  0.00    +0.000 H 
ATOM    147  H42 UNL A   1       7.169  52.063  10.150  1.00  0.00    +0.000 H 
ATOM     47  C36 UNL A   1       9.538  50.477   9.879  1.00  0.00    +0.000 C 
ATOM     48  C37 UNL A   1       9.433  51.923  10.224  1.00  0.00    +0.000 C 
ATOM     49  N8  UNL A   1      10.390  52.780  10.387  1.00  0.00    +0.000 N 
ATOM     50  C38 UNL A   1       9.775  53.975  10.758  1.00  0.00    +0.000 C 
ATOM     51  C39 UNL A   1      10.449  54.936  11.450  1.00  0.00    +0.000 C 
ATOM     63  C46 UNL A   1      11.874  54.781  11.306  1.00  0.00    +0.000 C 
ATOM     64  C47 UNL A   1      12.758  54.810  10.245  1.00  0.00    +0.000 C 
ATOM     65  C48 UNL A   1      13.745  53.828  10.559  1.00  0.00    +0.000 C 
ATOM     66  C49 UNL A   1      13.430  53.301  11.810  1.00  0.00    +0.000 C 
ATOM     67  N9  UNL A   1      12.573  54.225  12.347  1.00  0.00    +0.000 N 
ATOM     68  C50 UNL A   1      13.764  52.063  12.466  1.00  0.00    +0.000 C 
ATOM     80  C57 UNL A   1      13.031  51.498  13.469  1.00  0.00    +0.000 C 
ATOM     81  N10 UNL A   1      13.119  50.140  13.738  1.00  0.00    +0.000 N 
ATOM     82  C58 UNL A   1      11.964  49.833  14.262  1.00  0.00    +0.000 C 
ATOM     83  C59 UNL A   1      11.246  48.566  13.971  1.00  0.00    +0.000 C 
ATOM     95  C66 UNL A   1      10.856  48.616  12.672  1.00  0.00    +0.000 C 
ATOM     96  C67 UNL A   1      10.407  47.563  11.787  1.00  0.00    +0.000 C 
ATOM     97  C68 UNL A   1      10.028  48.114  10.614  1.00  0.00    +0.000 C 
ATOM     98  C69 UNL A   1      10.078  49.573  10.722  1.00  0.00    +0.000 C 
ATOM     99  N11 UNL A   1      10.695  49.805  11.933  1.00  0.00    +0.000 N 
ATOM    100  C70 UNL A   1      11.188  50.950  14.774  1.00  0.00    +0.000 C 
ATOM    101  C71 UNL A   1      11.846  51.954  14.189  1.00  0.00    +0.000 C 
ATOM    102  C72 UNL A   1       8.367  53.798  10.521  1.00  0.00    +0.000 C 
ATOM    103  C73 UNL A   1       8.088  52.518  10.274  1.00  0.00    +0.000 C 
ENDROOT
BRANCH   47   46
ATOM    104  C74 UNL A   1       9.401  50.489   7.405  1.00  0.00    +0.000 C 
ATOM    105  C75 UNL A   1       8.759  50.096   6.240  1.00  0.00    +0.000 C 
ATOM    136  H31 UNL A   1       6.345  48.193   7.562  1.00  0.00    +0.000 H 
ATOM     43  C32 UNL A   1       7.594  49.307   6.279  1.00  0.00    +0.000 C 
ATOM     44  C33 UNL A   1       7.148  48.840   7.517  1.00  0.00    +0.000 C 
ATOM     45  C34 UNL A   1       7.779  49.242   8.691  1.00  0.00    +0.000 C 
ATOM    137  H32 UNL A   1       7.434  48.905   9.604  1.00  0.00    +0.000 H 
ATOM     46  C35 UNL A   1       8.877  50.100   8.633  1.00  0.00    +0.000 C 
ATOM    148  H43 UNL A   1      10.257  51.064   7.362  1.00  0.00    +0.000 H 
ATOM    149  H44 UNL A   1       9.144  50.386   5.327  1.00  0.00    +0.000 H 
BRANCH   43    2
ATOM      1  O1  UNL A   1       5.705  48.863   4.964  1.00  0.00    +0.000 O 
ATOM      2  C1  UNL A   1       6.913  49.112   4.970  1.00  0.00    +0.000 C 
BRANCH    2    3
ATOM    106  H1  UNL A   1       7.352  49.942   3.242  1.00  0.00    +0.000 H 
ATOM      3  N1  UNL A   1       7.530  49.119   3.752  1.00  0.00    +0.000 N 
BRANCH    3    4
ATOM    108  H3  UNL A   1       8.415  47.294   3.611  1.00  0.00    +0.000 H 
ATOM    107  H2  UNL A   1       7.975  48.049   2.060  1.00  0.00    +0.000 H 
ATOM      4  C2  UNL A   1       8.384  48.197   3.037  1.00  0.00    +0.000 C 
BRANCH    4    5
ATOM    109  H4  UNL A   1       9.853  49.726   3.075  1.00  0.00    +0.000 H 
ATOM      5  C3  UNL A   1       9.829  48.674   2.885  1.00  0.00    +0.000 C 
ATOM    110  H5  UNL A   1      10.127  48.415   1.891  1.00  0.00    +0.000 H 
BRANCH    5    6
ATOM      6  C4  UNL A   1      10.835  47.998   3.825  1.00  0.00    +0.000 C 
ATOM    111  H6  UNL A   1      11.402  48.767   4.306  1.00  0.00    +0.000 H 
ATOM    112  H7  UNL A   1      11.419  47.349   3.207  1.00  0.00    +0.000 H 
BRANCH    6    7
ATOM    113  H8  UNL A   1       9.222  46.887   4.641  1.00  0.00    +0.000 H 
ATOM    114  H9  UNL A   1      10.323  47.655   5.828  1.00  0.00    +0.000 H 
ATOM      7  C5  UNL A   1      10.233  47.105   4.914  1.00  0.00    +0.000 C 
BRANCH    7    8
ATOM    115  H10 UNL A   1      12.007  45.946   5.048  1.00  0.00    +0.000 H 
ATOM    116  H11 UNL A   1      10.566  45.089   4.428  1.00  0.00    +0.000 H 
ATOM      8  C6  UNL A   1      10.955  45.776   5.150  1.00  0.00    +0.000 C 
BRANCH    8    9
ATOM      9  C7  UNL A   1      10.707  45.147   6.518  1.00  0.00    +0.000 C 
ATOM    117  H12 UNL A   1      10.341  44.151   6.376  1.00  0.00    +0.000 H 
ATOM    118  H13 UNL A   1       9.995  45.757   7.033  1.00  0.00    +0.000 H 
BRANCH    9   10
ATOM     10  N2  UNL A   1      11.912  45.089   7.331  1.00  0.00    +0.000 N 
ATOM    119  H14 UNL A   1      12.403  44.238   7.304  1.00  0.00    +0.000 H 
BRANCH   10   11
ATOM     11  C8  UNL A   1      12.455  46.064   8.129  1.00  0.00    +0.000 C 
ATOM     12  O2  UNL A   1      12.525  45.909   9.347  1.00  0.00    +0.000 O 
BRANCH   11   13
ATOM    134  H29 UNL A   1      12.416  50.591   7.324  1.00  0.00    +0.000 H 
ATOM    135  H30 UNL A   1      11.579  48.594   8.431  1.00  0.00    +0.000 H 
ATOM     41  C30 UNL A   1      12.849  49.673   7.136  1.00  0.00    +0.000 C 
ATOM     42  C31 UNL A   1      12.373  48.531   7.773  1.00  0.00    +0.000 C 
ATOM     13  C9  UNL A   1      12.979  47.298   7.514  1.00  0.00    +0.000 C 
ATOM     14  C10 UNL A   1      14.088  47.209   6.665  1.00  0.00    +0.000 C 
ATOM     15  C11 UNL A   1      14.544  48.344   5.991  1.00  0.00    +0.000 C 
ATOM     16  C12 UNL A   1      13.925  49.571   6.234  1.00  0.00    +0.000 C 
ATOM    120  H15 UNL A   1      14.571  46.306   6.538  1.00  0.00    +0.000 H 
ATOM    121  H16 UNL A   1      15.326  48.276   5.321  1.00  0.00    +0.000 H 
BRANCH   16   17
ATOM     39  N6  UNL A   1      15.433  52.074   4.260  1.00  0.00    +0.000 N 
ATOM     40  N7  UNL A   1      15.176  50.791   4.522  1.00  0.00    +0.000 N 
ATOM     17  N3  UNL A   1      14.456  50.740   5.661  1.00  0.00    +0.000 N 
ATOM     18  C13 UNL A   1      14.314  51.997   6.169  1.00  0.00    +0.000 C 
ATOM     19  C14 UNL A   1      14.965  52.839   5.306  1.00  0.00    +0.000 C 
ATOM    122  H17 UNL A   1      13.814  52.263   7.031  1.00  0.00    +0.000 H 
BRANCH   19   20
ATOM    124  H19 UNL A   1      16.004  54.523   5.154  1.00  0.00    +0.000 H 
ATOM    123  H18 UNL A   1      14.262  54.584   4.498  1.00  0.00    +0.000 H 
ATOM     20  C15 UNL A   1      14.959  54.320   5.265  1.00  0.00    +0.000 C 
BRANCH   20   21
ATOM     21  S1  UNL A   1      14.559  55.367   6.666  1.00  0.00    +0.000 S 
BRANCH   21   22
ATOM    127  H22 UNL A   1       6.952  55.284   6.075  1.00  0.00    +0.000 H 
ATOM    126  H21 UNL A   1       7.819  53.208   6.991  1.00  0.00    +0.000 H 
ATOM    128  H23 UNL A   1       8.465  57.154   5.689  1.00  0.00    +0.000 H 
ATOM    125  H20 UNL A   1      10.210  52.914   7.301  1.00  0.00    +0.000 H 
ATOM     22  C16 UNL A   1      12.865  55.751   6.808  1.00  0.00    +0.000 C 
ATOM     23  N4  UNL A   1      12.109  54.692   6.718  1.00  0.00    +0.000 N 
ATOM     24  C17 UNL A   1      10.719  54.868   6.696  1.00  0.00    +0.000 C 
ATOM     25  C18 UNL A   1       9.843  53.816   6.961  1.00  0.00    +0.000 C 
ATOM     26  C19 UNL A   1       8.464  53.980   6.767  1.00  0.00    +0.000 C 
ATOM     27  C20 UNL A   1       7.961  55.185   6.271  1.00  0.00    +0.000 C 
ATOM     28  C21 UNL A   1       8.824  56.254   6.044  1.00  0.00    +0.000 C 
ATOM     29  C22 UNL A   1      10.187  56.087   6.305  1.00  0.00    +0.000 C 
ATOM     30  C23 UNL A   1      11.129  57.212   6.292  1.00  0.00    +0.000 C 
ATOM     31  O3  UNL A   1      10.826  58.228   5.669  1.00  0.00    +0.000 O 
ATOM     32  N5  UNL A   1      12.316  57.006   7.005  1.00  0.00    +0.000 N 
BRANCH   32   33
ATOM     33  C24 UNL A   1      12.845  58.107   7.784  1.00  0.00    +0.000 C 
ATOM     34  C25 UNL A   1      12.118  58.584   8.897  1.00  0.00    +0.000 C 
ATOM    129  H24 UNL A   1      11.339  58.016   9.264  1.00  0.00    +0.000 H 
ATOM     35  C26 UNL A   1      12.420  59.798   9.519  1.00  0.00    +0.000 C 
ATOM    133  H28 UNL A   1      14.727  58.351   6.866  1.00  0.00    +0.000 H 
ATOM     38  C29 UNL A   1      14.038  58.781   7.503  1.00  0.00    +0.000 C 
ATOM     37  C28 UNL A   1      14.311  60.034   8.075  1.00  0.00    +0.000 C 
ATOM    130  H25 UNL A   1      11.856  60.125  10.318  1.00  0.00    +0.000 H 
ATOM     36  C27 UNL A   1      13.480  60.560   9.056  1.00  0.00    +0.000 C 
ATOM    132  H27 UNL A   1      15.137  60.569   7.763  1.00  0.00    +0.000 H 
ATOM    131  H26 UNL A   1      13.650  61.504   9.435  1.00  0.00    +0.000 H 
ENDBRANCH   32   33
ENDBRANCH   21   22
ENDBRANCH   20   21
ENDBRANCH   19   20
ENDBRANCH   16   17
ENDBRANCH   11   13
ENDBRANCH   10   11
ENDBRANCH    9   10
ENDBRANCH    8    9
ENDBRANCH    7    8
ENDBRANCH    6    7
ENDBRANCH    5    6
ENDBRANCH    4    5
ENDBRANCH    3    4
ENDBRANCH    2    3
ENDBRANCH   43    2
ENDBRANCH   47   46
BRANCH   51   52
ATOM     52  C40 UNL A   1       9.846  55.761  12.567  1.00  0.00    +0.000 C 
ATOM     53  C41 UNL A   1      10.061  57.156  12.573  1.00  0.00    +0.000 C 
ATOM     54  F1  UNL A   1      10.507  57.785  11.476  1.00  0.00    +0.000 F 
ATOM     55  C42 UNL A   1       9.930  57.921  13.736  1.00  0.00    +0.000 C 
ATOM     56  F2  UNL A   1      10.290  59.211  13.727  1.00  0.00    +0.000 F 
ATOM     57  C43 UNL A   1       9.509  57.336  14.915  1.00  0.00    +0.000 C 
ATOM     58  F3  UNL A   1       9.457  58.048  16.048  1.00  0.00    +0.000 F 
ATOM     59  C44 UNL A   1       9.190  55.996  14.926  1.00  0.00    +0.000 C 
ATOM     60  F4  UNL A   1       8.788  55.409  16.062  1.00  0.00    +0.000 F 
ATOM     61  C45 UNL A   1       9.368  55.220  13.781  1.00  0.00    +0.000 C 
ATOM     62  F5  UNL A   1       9.158  53.911  13.950  1.00  0.00    +0.000 F 
ENDBRANCH   51   52
BRANCH   68   69
ATOM     69  C51 UNL A   1      14.841  51.229  11.835  1.00  0.00    +0.000 C 
ATOM     70  C52 UNL A   1      14.601  50.291  10.814  1.00  0.00    +0.000 C 
ATOM     71  F6  UNL A   1      13.358  50.068  10.366  1.00  0.00    +0.000 F 
ATOM     72  C53 UNL A   1      15.651  49.614  10.197  1.00  0.00    +0.000 C 
ATOM     73  F7  UNL A   1      15.398  48.717   9.233  1.00  0.00    +0.000 F 
ATOM     74  C54 UNL A   1      16.962  49.895  10.550  1.00  0.00    +0.000 C 
ATOM     75  F8  UNL A   1      17.974  49.277   9.926  1.00  0.00    +0.000 F 
ATOM     76  C55 UNL A   1      17.223  50.841  11.529  1.00  0.00    +0.000 C 
ATOM     77  F9  UNL A   1      18.489  51.154  11.836  1.00  0.00    +0.000 F 
ATOM     78  C56 UNL A   1      16.174  51.491  12.172  1.00  0.00    +0.000 C 
ATOM     79  F10 UNL A   1      16.463  52.420  13.097  1.00  0.00    +0.000 F 
ENDBRANCH   68   69
BRANCH   83   84
ATOM     84  C60 UNL A   1      10.747  47.670  15.040  1.00  0.00    +0.000 C 
ATOM     85  C61 UNL A   1      11.599  46.758  15.685  1.00  0.00    +0.000 C 
ATOM     86  F11 UNL A   1      12.830  46.530  15.203  1.00  0.00    +0.000 F 
ATOM     87  C62 UNL A   1      11.225  46.120  16.872  1.00  0.00    +0.000 C 
ATOM     88  F12 UNL A   1      12.086  45.299  17.491  1.00  0.00    +0.000 F 
ATOM     89  C63 UNL A   1       9.990  46.373  17.446  1.00  0.00    +0.000 C 
ATOM     90  F13 UNL A   1       9.654  45.809  18.615  1.00  0.00    +0.000 F 
ATOM     91  C64 UNL A   1       9.119  47.250  16.825  1.00  0.00    +0.000 C 
ATOM     92  F14 UNL A   1       7.938  47.534  17.390  1.00  0.00    +0.000 F 
ATOM     93  C65 UNL A   1       9.493  47.890  15.644  1.00  0.00    +0.000 C 
ATOM     94  F15 UNL A   1       8.645  48.804  15.151  1.00  0.00    +0.000 F 
ENDBRANCH   83   84
TORSDOF 20
ENDMDL
MODEL 7
REMARK VINA RESULT:      -9.8      1.366      2.619
ROOT
ATOM    138  H33 UNL A   1      46.434  28.940  30.067  1.00  0.00    +0.000 H 
ATOM    139  H34 UNL A   1      45.205  28.918  32.431  1.00  0.00    +0.000 H 
ATOM    140  H35 UNL A   1      44.192  32.255  30.426  1.00  0.00    +0.000 H 
ATOM    141  H36 UNL A   1      36.975  28.254  30.893  1.00  0.00    +0.000 H 
ATOM    142  H37 UNL A   1      38.434  26.474  29.803  1.00  0.00    +0.000 H 
ATOM    143  H38 UNL A   1      40.746  29.910  30.152  1.00  0.00    +0.000 H 
ATOM    144  H39 UNL A   1      39.719  32.941  29.704  1.00  0.00    +0.000 H 
ATOM    145  H40 UNL A   1      42.242  32.579  30.100  1.00  0.00    +0.000 H 
ATOM    146  H41 UNL A   1      43.654  29.478  25.656  1.00  0.00    +0.000 H 
ATOM    147  H42 UNL A   1      41.420  28.237  25.957  1.00  0.00    +0.000 H 
ATOM     47  C36 UNL A   1      40.882  27.550  28.685  1.00  0.00    +0.000 C 
ATOM     48  C37 UNL A   1      42.009  28.363  28.146  1.00  0.00    +0.000 C 
ATOM     49  N8  UNL A   1      43.022  28.854  28.786  1.00  0.00    +0.000 N 
ATOM     50  C38 UNL A   1      43.752  29.581  27.847  1.00  0.00    +0.000 C 
ATOM     51  C39 UNL A   1      44.587  30.590  28.223  1.00  0.00    +0.000 C 
ATOM     63  C46 UNL A   1      44.963  30.468  29.609  1.00  0.00    +0.000 C 
ATOM     64  C47 UNL A   1      45.634  29.524  30.360  1.00  0.00    +0.000 C 
ATOM     65  C48 UNL A   1      44.983  29.529  31.629  1.00  0.00    +0.000 C 
ATOM     66  C49 UNL A   1      43.992  30.509  31.589  1.00  0.00    +0.000 C 
ATOM     67  N9  UNL A   1      44.348  31.288  30.521  1.00  0.00    +0.000 N 
ATOM     68  C50 UNL A   1      42.786  30.717  32.349  1.00  0.00    +0.000 C 
ATOM     80  C57 UNL A   1      41.710  31.431  31.909  1.00  0.00    +0.000 C 
ATOM     81  N10 UNL A   1      40.449  31.223  32.447  1.00  0.00    +0.000 N 
ATOM     82  C58 UNL A   1      39.624  31.557  31.493  1.00  0.00    +0.000 C 
ATOM     83  C59 UNL A   1      38.370  30.818  31.201  1.00  0.00    +0.000 C 
ATOM     95  C66 UNL A   1      38.726  29.597  30.725  1.00  0.00    +0.000 C 
ATOM     96  C67 UNL A   1      37.948  28.386  30.577  1.00  0.00    +0.000 C 
ATOM     97  C68 UNL A   1      38.707  27.456  29.959  1.00  0.00    +0.000 C 
ATOM     98  C69 UNL A   1      39.975  28.058  29.546  1.00  0.00    +0.000 C 
ATOM     99  N11 UNL A   1      39.972  29.302  30.139  1.00  0.00    +0.000 N 
ATOM    100  C70 UNL A   1      40.185  32.383  30.437  1.00  0.00    +0.000 C 
ATOM    101  C71 UNL A   1      41.484  32.208  30.693  1.00  0.00    +0.000 C 
ATOM    102  C72 UNL A   1      43.217  29.233  26.558  1.00  0.00    +0.000 C 
ATOM    103  C73 UNL A   1      42.079  28.551  26.688  1.00  0.00    +0.000 C 
ENDROOT
BRANCH   47   46
ATOM    104  C74 UNL A   1      40.176  26.055  26.841  1.00  0.00    +0.000 C 
ATOM    105  C75 UNL A   1      40.088  24.781  26.300  1.00  0.00    +0.000 C 
ATOM    136  H31 UNL A   1      41.689  23.064  28.685  1.00  0.00    +0.000 H 
ATOM     43  C32 UNL A   1      40.579  23.657  26.994  1.00  0.00    +0.000 C 
ATOM     44  C33 UNL A   1      41.250  23.862  28.201  1.00  0.00    +0.000 C 
ATOM     45  C34 UNL A   1      41.329  25.136  28.756  1.00  0.00    +0.000 C 
ATOM    137  H32 UNL A   1      41.814  25.278  29.657  1.00  0.00    +0.000 H 
ATOM     46  C35 UNL A   1      40.754  26.222  28.095  1.00  0.00    +0.000 C 
ATOM    148  H43 UNL A   1      39.816  26.870  26.319  1.00  0.00    +0.000 H 
ATOM    149  H44 UNL A   1      39.657  24.653  25.371  1.00  0.00    +0.000 H 
BRANCH   43    2
ATOM      1  O1  UNL A   1      39.091  21.941  26.417  1.00  0.00    +0.000 O 
ATOM      2  C1  UNL A   1      40.258  22.340  26.380  1.00  0.00    +0.000 C 
BRANCH    2    3
ATOM    106  H1  UNL A   1      40.857  21.102  24.975  1.00  0.00    +0.000 H 
ATOM      3  N1  UNL A   1      41.167  21.485  25.828  1.00  0.00    +0.000 N 
BRANCH    3    4
ATOM    108  H3  UNL A   1      42.408  20.676  27.218  1.00  0.00    +0.000 H 
ATOM    107  H2  UNL A   1      42.760  20.228  25.531  1.00  0.00    +0.000 H 
ATOM      4  C2  UNL A   1      42.480  21.011  26.204  1.00  0.00    +0.000 C 
BRANCH    4    5
ATOM    109  H4  UNL A   1      44.517  21.597  26.148  1.00  0.00    +0.000 H 
ATOM      5  C3  UNL A   1      43.566  22.086  26.169  1.00  0.00    +0.000 C 
ATOM    110  H5  UNL A   1      43.418  22.690  27.040  1.00  0.00    +0.000 H 
BRANCH    5    6
ATOM      6  C4  UNL A   1      43.495  23.038  24.969  1.00  0.00    +0.000 C 
ATOM    111  H6  UNL A   1      43.399  24.034  25.346  1.00  0.00    +0.000 H 
ATOM    112  H7  UNL A   1      42.658  22.710  24.387  1.00  0.00    +0.000 H 
BRANCH    6    7
ATOM    113  H8  UNL A   1      44.600  23.824  23.337  1.00  0.00    +0.000 H 
ATOM    114  H9  UNL A   1      44.675  22.047  23.550  1.00  0.00    +0.000 H 
ATOM      7  C5  UNL A   1      44.697  23.007  24.021  1.00  0.00    +0.000 C 
BRANCH    7    8
ATOM    115  H10 UNL A   1      46.524  22.145  24.676  1.00  0.00    +0.000 H 
ATOM    116  H11 UNL A   1      45.892  23.479  25.683  1.00  0.00    +0.000 H 
ATOM      8  C6  UNL A   1      46.069  23.113  24.692  1.00  0.00    +0.000 C 
BRANCH    8    9
ATOM      9  C7  UNL A   1      47.029  24.100  24.035  1.00  0.00    +0.000 C 
ATOM    117  H12 UNL A   1      46.629  24.385  23.084  1.00  0.00    +0.000 H 
ATOM    118  H13 UNL A   1      47.976  23.614  23.933  1.00  0.00    +0.000 H 
BRANCH    9   10
ATOM     10  N2  UNL A   1      47.229  25.298  24.835  1.00  0.00    +0.000 N 
ATOM    119  H14 UNL A   1      48.161  25.599  24.925  1.00  0.00    +0.000 H 
BRANCH   10   11
ATOM     11  C8  UNL A   1      46.293  26.066  25.479  1.00  0.00    +0.000 C 
ATOM     12  O2  UNL A   1      45.664  26.930  24.871  1.00  0.00    +0.000 O 
BRANCH   11   13
ATOM    134  H29 UNL A   1      47.578  25.379  29.841  1.00  0.00    +0.000 H 
ATOM    135  H30 UNL A   1      48.058  25.851  27.504  1.00  0.00    +0.000 H 
ATOM     41  C30 UNL A   1      46.809  25.454  29.158  1.00  0.00    +0.000 C 
ATOM     42  C31 UNL A   1      47.083  25.729  27.821  1.00  0.00    +0.000 C 
ATOM     13  C9  UNL A   1      46.026  25.836  26.912  1.00  0.00    +0.000 C 
ATOM     14  C10 UNL A   1      44.698  25.724  27.340  1.00  0.00    +0.000 C 
ATOM     15  C11 UNL A   1      44.419  25.406  28.671  1.00  0.00    +0.000 C 
ATOM     16  C12 UNL A   1      45.475  25.278  29.573  1.00  0.00    +0.000 C 
ATOM    120  H15 UNL A   1      43.926  25.876  26.673  1.00  0.00    +0.000 H 
ATOM    121  H16 UNL A   1      43.445  25.267  28.982  1.00  0.00    +0.000 H 
BRANCH   16   17
ATOM     39  N6  UNL A   1      45.164  25.392  33.084  1.00  0.00    +0.000 N 
ATOM     40  N7  UNL A   1      45.720  25.816  31.947  1.00  0.00    +0.000 N 
ATOM     17  N3  UNL A   1      45.200  25.087  30.939  1.00  0.00    +0.000 N 
ATOM     18  C13 UNL A   1      44.357  24.142  31.445  1.00  0.00    +0.000 C 
ATOM     19  C14 UNL A   1      44.364  24.307  32.805  1.00  0.00    +0.000 C 
ATOM    122  H17 UNL A   1      43.820  23.442  30.910  1.00  0.00    +0.000 H 
BRANCH   19   20
ATOM    124  H19 UNL A   1      42.602  24.284  33.719  1.00  0.00    +0.000 H 
ATOM    123  H18 UNL A   1      43.472  22.641  33.596  1.00  0.00    +0.000 H 
ATOM     20  C15 UNL A   1      43.484  23.687  33.824  1.00  0.00    +0.000 C 
BRANCH   20   21
ATOM     21  S1  UNL A   1      43.757  23.795  35.594  1.00  0.00    +0.000 S 
BRANCH   21   22
ATOM    127  H22 UNL A   1      50.097  19.675  36.617  1.00  0.00    +0.000 H 
ATOM    126  H21 UNL A   1      49.661  20.111  34.267  1.00  0.00    +0.000 H 
ATOM    128  H23 UNL A   1      48.704  20.728  38.315  1.00  0.00    +0.000 H 
ATOM    125  H20 UNL A   1      47.709  21.395  33.605  1.00  0.00    +0.000 H 
ATOM     22  C16 UNL A   1      45.326  23.238  36.109  1.00  0.00    +0.000 C 
ATOM     23  N4  UNL A   1      45.877  22.441  35.237  1.00  0.00    +0.000 N 
ATOM     24  C17 UNL A   1      47.090  21.824  35.574  1.00  0.00    +0.000 C 
ATOM     25  C18 UNL A   1      47.919  21.258  34.606  1.00  0.00    +0.000 C 
ATOM     26  C19 UNL A   1      49.036  20.503  34.987  1.00  0.00    +0.000 C 
ATOM     27  C20 UNL A   1      49.307  20.279  36.340  1.00  0.00    +0.000 C 
ATOM     28  C21 UNL A   1      48.509  20.875  37.312  1.00  0.00    +0.000 C 
ATOM     29  C22 UNL A   1      47.437  21.676  36.908  1.00  0.00    +0.000 C 
ATOM     30  C23 UNL A   1      46.678  22.502  37.854  1.00  0.00    +0.000 C 
ATOM     31  O3  UNL A   1      46.701  22.204  39.046  1.00  0.00    +0.000 O 
ATOM     32  N5  UNL A   1      45.976  23.572  37.284  1.00  0.00    +0.000 N 
BRANCH   32   33
ATOM     33  C24 UNL A   1      45.961  24.834  37.995  1.00  0.00    +0.000 C 
ATOM     34  C25 UNL A   1      44.917  25.105  38.907  1.00  0.00    +0.000 C 
ATOM    129  H24 UNL A   1      44.306  24.331  39.209  1.00  0.00    +0.000 H 
ATOM     35  C26 UNL A   1      44.685  26.386  39.414  1.00  0.00    +0.000 C 
ATOM    133  H28 UNL A   1      47.806  25.643  37.373  1.00  0.00    +0.000 H 
ATOM     38  C29 UNL A   1      46.905  25.853  37.830  1.00  0.00    +0.000 C 
ATOM     37  C28 UNL A   1      46.643  27.157  38.279  1.00  0.00    +0.000 C 
ATOM    130  H25 UNL A   1      43.901  26.552  40.063  1.00  0.00    +0.000 H 
ATOM     36  C27 UNL A   1      45.513  27.431  39.038  1.00  0.00    +0.000 C 
ATOM    132  H27 UNL A   1      47.297  27.919  38.042  1.00  0.00    +0.000 H 
ATOM    131  H26 UNL A   1      45.293  28.399  39.319  1.00  0.00    +0.000 H 
ENDBRANCH   32   33
ENDBRANCH   21   22
ENDBRANCH   20   21
ENDBRANCH   19   20
ENDBRANCH   16   17
ENDBRANCH   11   13
ENDBRANCH   10   11
ENDBRANCH    9   10
ENDBRANCH    8    9
ENDBRANCH    7    8
ENDBRANCH    6    7
ENDBRANCH    5    6
ENDBRANCH    4    5
ENDBRANCH    3    4
ENDBRANCH    2    3
ENDBRANCH   43    2
ENDBRANCH   47   46
BRANCH   51   52
ATOM     52  C40 UNL A   1      44.742  31.893  27.467  1.00  0.00    +0.000 C 
ATOM     53  C41 UNL A   1      45.949  32.138  26.777  1.00  0.00    +0.000 C 
ATOM     54  F1  UNL A   1      46.808  31.140  26.524  1.00  0.00    +0.000 F 
ATOM     55  C42 UNL A   1      46.354  33.430  26.429  1.00  0.00    +0.000 C 
ATOM     56  F2  UNL A   1      47.574  33.627  25.911  1.00  0.00    +0.000 F 
ATOM     57  C43 UNL A   1      45.538  34.514  26.689  1.00  0.00    +0.000 C 
ATOM     58  F3  UNL A   1      45.954  35.760  26.428  1.00  0.00    +0.000 F 
ATOM     59  C44 UNL A   1      44.305  34.305  27.269  1.00  0.00    +0.000 C 
ATOM     60  F4  UNL A   1      43.502  35.345  27.537  1.00  0.00    +0.000 F 
ATOM     61  C45 UNL A   1      43.920  33.025  27.664  1.00  0.00    +0.000 C 
ATOM     62  F5  UNL A   1      42.768  32.967  28.338  1.00  0.00    +0.000 F 
ENDBRANCH   51   52
BRANCH   68   69
ATOM     69  C51 UNL A   1      42.613  29.889  33.589  1.00  0.00    +0.000 C 
ATOM     70  C52 UNL A   1      42.777  30.395  34.891  1.00  0.00    +0.000 C 
ATOM     71  F6  UNL A   1      43.137  31.670  35.091  1.00  0.00    +0.000 F 
ATOM     72  C53 UNL A   1      42.510  29.607  36.010  1.00  0.00    +0.000 C 
ATOM     73  F7  UNL A   1      42.683  30.108  37.242  1.00  0.00    +0.000 F 
ATOM     74  C54 UNL A   1      42.027  28.318  35.851  1.00  0.00    +0.000 C 
ATOM     75  F8  UNL A   1      41.727  27.576  36.926  1.00  0.00    +0.000 F 
ATOM     76  C55 UNL A   1      41.824  27.810  34.578  1.00  0.00    +0.000 C 
ATOM     77  F9  UNL A   1      41.307  26.584  34.420  1.00  0.00    +0.000 F 
ATOM     78  C56 UNL A   1      42.126  28.582  33.460  1.00  0.00    +0.000 C 
ATOM     79  F10 UNL A   1      41.893  28.070  32.241  1.00  0.00    +0.000 F 
ENDBRANCH   68   69
BRANCH   83   84
ATOM     84  C60 UNL A   1      37.056  31.492  31.093  1.00  0.00    +0.000 C 
ATOM     85  C61 UNL A   1      36.292  31.791  32.233  1.00  0.00    +0.000 C 
ATOM     86  F11 UNL A   1      36.637  31.284  33.426  1.00  0.00    +0.000 F 
ATOM     87  C62 UNL A   1      35.204  32.669  32.179  1.00  0.00    +0.000 C 
ATOM     88  F12 UNL A   1      34.534  32.975  33.298  1.00  0.00    +0.000 F 
ATOM     89  C63 UNL A   1      34.849  33.271  30.983  1.00  0.00    +0.000 C 
ATOM     90  F13 UNL A   1      33.845  34.158  30.940  1.00  0.00    +0.000 F 
ATOM     91  C64 UNL A   1      35.567  32.982  29.837  1.00  0.00    +0.000 C 
ATOM     92  F14 UNL A   1      35.259  33.588  28.682  1.00  0.00    +0.000 F 
ATOM     93  C65 UNL A   1      36.654  32.110  29.892  1.00  0.00    +0.000 C 
ATOM     94  F15 UNL A   1      37.369  31.955  28.768  1.00  0.00    +0.000 F 
ENDBRANCH   83   84
TORSDOF 20
ENDMDL
MODEL 8
REMARK VINA RESULT:      -9.8      3.009      4.904
ROOT
ATOM    138  H33 UNL A   1      45.957  32.256  31.457  1.00  0.00    +0.000 H 
ATOM    139  H34 UNL A   1      44.263  32.445  33.507  1.00  0.00    +0.000 H 
ATOM    140  H35 UNL A   1      43.281  35.156  30.701  1.00  0.00    +0.000 H 
ATOM    141  H36 UNL A   1      36.711  30.141  30.646  1.00  0.00    +0.000 H 
ATOM    142  H37 UNL A   1      38.588  28.468  30.238  1.00  0.00    +0.000 H 
ATOM    143  H38 UNL A   1      40.307  32.251  30.288  1.00  0.00    +0.000 H 
ATOM    144  H39 UNL A   1      39.015  34.938  29.040  1.00  0.00    +0.000 H 
ATOM    145  H40 UNL A   1      41.420  35.083  29.961  1.00  0.00    +0.000 H 
ATOM    146  H41 UNL A   1      44.141  31.528  26.595  1.00  0.00    +0.000 H 
ATOM    147  H42 UNL A   1      42.074  30.001  26.729  1.00  0.00    +0.000 H 
ATOM     47  C36 UNL A   1      41.058  29.727  29.393  1.00  0.00    +0.000 C 
ATOM     48  C37 UNL A   1      42.159  30.610  28.915  1.00  0.00    +0.000 C 
ATOM     49  N8  UNL A   1      42.939  31.370  29.615  1.00  0.00    +0.000 N 
ATOM     50  C38 UNL A   1      43.753  32.033  28.697  1.00  0.00    +0.000 C 
ATOM     51  C39 UNL A   1      44.350  33.218  29.003  1.00  0.00    +0.000 C 
ATOM     63  C46 UNL A   1      44.433  33.408  30.429  1.00  0.00    +0.000 C 
ATOM     64  C47 UNL A   1      45.044  32.739  31.471  1.00  0.00    +0.000 C 
ATOM     65  C48 UNL A   1      44.142  32.858  32.569  1.00  0.00    +0.000 C 
ATOM     66  C49 UNL A   1      43.064  33.634  32.144  1.00  0.00    +0.000 C 
ATOM     67  N9  UNL A   1      43.536  34.261  31.022  1.00  0.00    +0.000 N 
ATOM     68  C50 UNL A   1      41.706  33.766  32.607  1.00  0.00    +0.000 C 
ATOM     80  C57 UNL A   1      40.666  34.200  31.838  1.00  0.00    +0.000 C 
ATOM     81  N10 UNL A   1      39.357  33.881  32.165  1.00  0.00    +0.000 N 
ATOM     82  C58 UNL A   1      38.720  33.897  31.027  1.00  0.00    +0.000 C 
ATOM     83  C59 UNL A   1      37.664  32.916  30.668  1.00  0.00    +0.000 C 
ATOM     95  C66 UNL A   1      38.268  31.709  30.530  1.00  0.00    +0.000 C 
ATOM     96  C67 UNL A   1      37.704  30.377  30.495  1.00  0.00    +0.000 C 
ATOM     97  C68 UNL A   1      38.691  29.494  30.235  1.00  0.00    +0.000 C 
ATOM     98  C69 UNL A   1      39.930  30.218  29.947  1.00  0.00    +0.000 C 
ATOM     99  N11 UNL A   1      39.638  31.529  30.258  1.00  0.00    +0.000 N 
ATOM    100  C70 UNL A   1      39.382  34.605  29.945  1.00  0.00    +0.000 C 
ATOM    101  C71 UNL A   1      40.608  34.700  30.468  1.00  0.00    +0.000 C 
ATOM    102  C72 UNL A   1      43.556  31.376  27.432  1.00  0.00    +0.000 C 
ATOM    103  C73 UNL A   1      42.514  30.546  27.488  1.00  0.00    +0.000 C 
ENDROOT
BRANCH   47   46
ATOM    104  C74 UNL A   1      42.139  27.534  29.788  1.00  0.00    +0.000 C 
ATOM    105  C75 UNL A   1      42.265  26.188  29.476  1.00  0.00    +0.000 C 
ATOM    136  H31 UNL A   1      39.876  25.941  27.147  1.00  0.00    +0.000 H 
ATOM     43  C32 UNL A   1      41.488  25.597  28.461  1.00  0.00    +0.000 C 
ATOM     44  C33 UNL A   1      40.511  26.374  27.835  1.00  0.00    +0.000 C 
ATOM     45  C34 UNL A   1      40.388  27.728  28.133  1.00  0.00    +0.000 C 
ATOM    137  H32 UNL A   1      39.673  28.299  27.656  1.00  0.00    +0.000 H 
ATOM     46  C35 UNL A   1      41.232  28.313  29.078  1.00  0.00    +0.000 C 
ATOM    148  H43 UNL A   1      42.712  27.952  30.538  1.00  0.00    +0.000 H 
ATOM    149  H44 UNL A   1      42.939  25.607  29.999  1.00  0.00    +0.000 H 
BRANCH   43    2
ATOM      1  O1  UNL A   1      42.457  23.520  28.949  1.00  0.00    +0.000 O 
ATOM      2  C1  UNL A   1      41.854  24.197  28.112  1.00  0.00    +0.000 C 
BRANCH    2    3
ATOM    106  H1  UNL A   1      41.456  24.258  26.188  1.00  0.00    +0.000 H 
ATOM      3  N1  UNL A   1      41.639  23.605  26.902  1.00  0.00    +0.000 N 
BRANCH    3    4
ATOM    108  H3  UNL A   1      41.048  22.240  25.517  1.00  0.00    +0.000 H 
ATOM    107  H2  UNL A   1      42.625  21.919  26.277  1.00  0.00    +0.000 H 
ATOM      4  C2  UNL A   1      41.616  22.240  26.424  1.00  0.00    +0.000 C 
BRANCH    4    5
ATOM    109  H4  UNL A   1      39.885  21.260  27.158  1.00  0.00    +0.000 H 
ATOM      5  C3  UNL A   1      40.932  21.258  27.375  1.00  0.00    +0.000 C 
ATOM    110  H5  UNL A   1      41.161  21.591  28.366  1.00  0.00    +0.000 H 
BRANCH    5    6
ATOM      6  C4  UNL A   1      41.434  19.812  27.281  1.00  0.00    +0.000 C 
ATOM    111  H6  UNL A   1      40.621  19.165  27.538  1.00  0.00    +0.000 H 
ATOM    112  H7  UNL A   1      42.267  19.749  27.949  1.00  0.00    +0.000 H 
BRANCH    6    7
ATOM    113  H8  UNL A   1      41.979  20.239  25.275  1.00  0.00    +0.000 H 
ATOM    114  H9  UNL A   1      41.309  18.604  25.573  1.00  0.00    +0.000 H 
ATOM      7  C5  UNL A   1      41.965  19.378  25.911  1.00  0.00    +0.000 C 
BRANCH    7    8
ATOM    115  H10 UNL A   1      43.272  17.707  25.834  1.00  0.00    +0.000 H 
ATOM    116  H11 UNL A   1      43.835  19.085  26.822  1.00  0.00    +0.000 H 
ATOM      8  C6  UNL A   1      43.370  18.770  25.911  1.00  0.00    +0.000 C 
BRANCH    8    9
ATOM      9  C7  UNL A   1      44.275  19.247  24.780  1.00  0.00    +0.000 C 
ATOM    117  H12 UNL A   1      43.673  19.436  23.916  1.00  0.00    +0.000 H 
ATOM    118  H13 UNL A   1      44.997  18.480  24.595  1.00  0.00    +0.000 H 
BRANCH    9   10
ATOM     10  N2  UNL A   1      44.996  20.463  25.120  1.00  0.00    +0.000 N 
ATOM    119  H14 UNL A   1      45.638  20.384  25.861  1.00  0.00    +0.000 H 
BRANCH   10   11
ATOM     11  C8  UNL A   1      44.903  21.705  24.546  1.00  0.00    +0.000 C 
ATOM     12  O2  UNL A   1      44.677  21.824  23.343  1.00  0.00    +0.000 O 
BRANCH   11   13
ATOM    134  H29 UNL A   1      45.930  23.873  28.469  1.00  0.00    +0.000 H 
ATOM    135  H30 UNL A   1      45.780  21.877  27.088  1.00  0.00    +0.000 H 
ATOM     41  C30 UNL A   1      45.591  23.939  27.497  1.00  0.00    +0.000 C 
ATOM     42  C31 UNL A   1      45.509  22.797  26.705  1.00  0.00    +0.000 C 
ATOM     13  C9  UNL A   1      45.056  22.907  25.387  1.00  0.00    +0.000 C 
ATOM     14  C10 UNL A   1      44.737  24.156  24.841  1.00  0.00    +0.000 C 
ATOM     15  C11 UNL A   1      44.776  25.299  25.643  1.00  0.00    +0.000 C 
ATOM     16  C12 UNL A   1      45.207  25.185  26.965  1.00  0.00    +0.000 C 
ATOM    120  H15 UNL A   1      44.473  24.233  23.846  1.00  0.00    +0.000 H 
ATOM    121  H16 UNL A   1      44.489  26.215  25.263  1.00  0.00    +0.000 H 
BRANCH   16   17
ATOM     39  N6  UNL A   1      45.241  28.404  28.403  1.00  0.00    +0.000 N 
ATOM     40  N7  UNL A   1      44.989  27.586  27.380  1.00  0.00    +0.000 N 
ATOM     17  N3  UNL A   1      45.374  26.345  27.741  1.00  0.00    +0.000 N 
ATOM     18  C13 UNL A   1      45.943  26.385  28.980  1.00  0.00    +0.000 C 
ATOM     19  C14 UNL A   1      45.897  27.694  29.384  1.00  0.00    +0.000 C 
ATOM    122  H17 UNL A   1      46.331  25.588  29.509  1.00  0.00    +0.000 H 
BRANCH   19   20
ATOM    124  H19 UNL A   1      46.539  27.401  31.239  1.00  0.00    +0.000 H 
ATOM    123  H18 UNL A   1      46.841  29.099  30.536  1.00  0.00    +0.000 H 
ATOM     20  C15 UNL A   1      46.191  28.269  30.718  1.00  0.00    +0.000 C 
BRANCH   20   21
ATOM     21  S1  UNL A   1      44.942  28.869  31.857  1.00  0.00    +0.000 S 
BRANCH   21   22
ATOM    127  H22 UNL A   1      42.315  22.650  35.412  1.00  0.00    +0.000 H 
ATOM    126  H21 UNL A   1      44.091  22.121  33.840  1.00  0.00    +0.000 H 
ATOM    128  H23 UNL A   1      41.750  24.978  35.852  1.00  0.00    +0.000 H 
ATOM    125  H20 UNL A   1      45.137  23.886  32.541  1.00  0.00    +0.000 H 
ATOM     22  C16 UNL A   1      44.464  27.709  33.067  1.00  0.00    +0.000 C 
ATOM     23  N4  UNL A   1      44.535  26.483  32.630  1.00  0.00    +0.000 N 
ATOM     24  C17 UNL A   1      44.067  25.454  33.459  1.00  0.00    +0.000 C 
ATOM     25  C18 UNL A   1      44.421  24.122  33.245  1.00  0.00    +0.000 C 
ATOM     26  C19 UNL A   1      43.805  23.102  33.983  1.00  0.00    +0.000 C 
ATOM     27  C20 UNL A   1      42.807  23.407  34.911  1.00  0.00    +0.000 C 
ATOM     28  C21 UNL A   1      42.478  24.737  35.161  1.00  0.00    +0.000 C 
ATOM     29  C22 UNL A   1      43.150  25.741  34.458  1.00  0.00    +0.000 C 
ATOM     30  C23 UNL A   1      43.016  27.161  34.803  1.00  0.00    +0.000 C 
ATOM     31  O3  UNL A   1      42.024  27.523  35.433  1.00  0.00    +0.000 O 
ATOM     32  N5  UNL A   1      44.058  27.985  34.360  1.00  0.00    +0.000 N 
BRANCH   32   33
ATOM     33  C24 UNL A   1      44.526  29.029  35.248  1.00  0.00    +0.000 C 
ATOM     34  C25 UNL A   1      45.497  28.726  36.228  1.00  0.00    +0.000 C 
ATOM    129  H24 UNL A   1      46.007  27.832  36.164  1.00  0.00    +0.000 H 
ATOM     35  C26 UNL A   1      45.789  29.596  37.281  1.00  0.00    +0.000 C 
ATOM    133  H28 UNL A   1      43.545  30.701  34.418  1.00  0.00    +0.000 H 
ATOM     38  C29 UNL A   1      44.065  30.350  35.237  1.00  0.00    +0.000 C 
ATOM     37  C28 UNL A   1      44.300  31.205  36.326  1.00  0.00    +0.000 C 
ATOM    130  H25 UNL A   1      46.490  29.333  37.991  1.00  0.00    +0.000 H 
ATOM     36  C27 UNL A   1      45.131  30.812  37.367  1.00  0.00    +0.000 C 
ATOM    132  H27 UNL A   1      43.850  32.133  36.353  1.00  0.00    +0.000 H 
ATOM    131  H26 UNL A   1      45.259  31.418  38.193  1.00  0.00    +0.000 H 
ENDBRANCH   32   33
ENDBRANCH   21   22
ENDBRANCH   20   21
ENDBRANCH   19   20
ENDBRANCH   16   17
ENDBRANCH   11   13
ENDBRANCH   10   11
ENDBRANCH    9   10
ENDBRANCH    8    9
ENDBRANCH    7    8
ENDBRANCH    6    7
ENDBRANCH    5    6
ENDBRANCH    4    5
ENDBRANCH    3    4
ENDBRANCH    2    3
ENDBRANCH   43    2
ENDBRANCH   47   46
BRANCH   51   52
ATOM     52  C40 UNL A   1      44.493  34.374  28.036  1.00  0.00    +0.000 C 
ATOM     53  C41 UNL A   1      45.776  34.923  27.819  1.00  0.00    +0.000 C 
ATOM     54  F1  UNL A   1      46.878  34.260  28.198  1.00  0.00    +0.000 F 
ATOM     55  C42 UNL A   1      45.953  36.213  27.309  1.00  0.00    +0.000 C 
ATOM     56  F2  UNL A   1      47.181  36.745  27.262  1.00  0.00    +0.000 F 
ATOM     57  C43 UNL A   1      44.863  36.971  26.928  1.00  0.00    +0.000 C 
ATOM     58  F3  UNL A   1      45.023  38.234  26.513  1.00  0.00    +0.000 F 
ATOM     59  C44 UNL A   1      43.599  36.432  27.028  1.00  0.00    +0.000 C 
ATOM     60  F4  UNL A   1      42.528  37.155  26.672  1.00  0.00    +0.000 F 
ATOM     61  C45 UNL A   1      43.415  35.166  27.584  1.00  0.00    +0.000 C 
ATOM     62  F5  UNL A   1      42.139  34.807  27.756  1.00  0.00    +0.000 F 
ENDBRANCH   51   52
BRANCH   68   69
ATOM     69  C51 UNL A   1      41.381  33.154  33.939  1.00  0.00    +0.000 C 
ATOM     70  C52 UNL A   1      41.294  33.890  35.134  1.00  0.00    +0.000 C 
ATOM     71  F6  UNL A   1      41.537  35.208  35.146  1.00  0.00    +0.000 F 
ATOM     72  C53 UNL A   1      40.894  33.287  36.325  1.00  0.00    +0.000 C 
ATOM     73  F7  UNL A   1      40.828  34.008  37.454  1.00  0.00    +0.000 F 
ATOM     74  C54 UNL A   1      40.524  31.952  36.337  1.00  0.00    +0.000 C 
ATOM     75  F8  UNL A   1      40.096  31.383  37.472  1.00  0.00    +0.000 F 
ATOM     76  C55 UNL A   1      40.567  31.215  35.164  1.00  0.00    +0.000 C 
ATOM     77  F9  UNL A   1      40.160  29.938  35.159  1.00  0.00    +0.000 F 
ATOM     78  C56 UNL A   1      41.003  31.806  33.981  1.00  0.00    +0.000 C 
ATOM     79  F10 UNL A   1      41.008  31.072  32.858  1.00  0.00    +0.000 F 
ENDBRANCH   68   69
BRANCH   83   84
ATOM     84  C60 UNL A   1      36.327  33.329  30.182  1.00  0.00    +0.000 C 
ATOM     85  C61 UNL A   1      35.342  33.801  31.065  1.00  0.00    +0.000 C 
ATOM     86  F11 UNL A   1      35.516  33.688  32.390  1.00  0.00    +0.000 F 
ATOM     87  C62 UNL A   1      34.196  34.457  30.603  1.00  0.00    +0.000 C 
ATOM     88  F12 UNL A   1      33.305  34.944  31.478  1.00  0.00    +0.000 F 
ATOM     89  C63 UNL A   1      34.001  34.657  29.246  1.00  0.00    +0.000 C 
ATOM     90  F13 UNL A   1      32.934  35.337  28.805  1.00  0.00    +0.000 F 
ATOM     91  C64 UNL A   1      34.942  34.186  28.348  1.00  0.00    +0.000 C 
ATOM     92  F14 UNL A   1      34.786  34.408  27.036  1.00  0.00    +0.000 F 
ATOM     93  C65 UNL A   1      36.087  33.536  28.809  1.00  0.00    +0.000 C 
ATOM     94  F15 UNL A   1      37.006  33.198  27.893  1.00  0.00    +0.000 F 
ENDBRANCH   83   84
TORSDOF 20
ENDMDL
MODEL 9
REMARK VINA RESULT:      -9.8      1.791      2.600
ROOT
ATOM    138  H33 UNL A   1      46.404  29.332  30.229  1.00  0.00    +0.000 H 
ATOM    139  H34 UNL A   1      45.144  29.339  32.578  1.00  0.00    +0.000 H 
ATOM    140  H35 UNL A   1      44.130  32.634  30.503  1.00  0.00    +0.000 H 
ATOM    141  H36 UNL A   1      36.941  28.580  30.947  1.00  0.00    +0.000 H 
ATOM    142  H37 UNL A   1      38.429  26.794  29.906  1.00  0.00    +0.000 H 
ATOM    143  H38 UNL A   1      40.708  30.255  30.226  1.00  0.00    +0.000 H 
ATOM    144  H39 UNL A   1      39.661  33.269  29.714  1.00  0.00    +0.000 H 
ATOM    145  H40 UNL A   1      42.181  32.935  30.148  1.00  0.00    +0.000 H 
ATOM    146  H41 UNL A   1      43.676  29.772  25.775  1.00  0.00    +0.000 H 
ATOM    147  H42 UNL A   1      41.448  28.517  26.069  1.00  0.00    +0.000 H 
ATOM     47  C36 UNL A   1      40.882  27.872  28.801  1.00  0.00    +0.000 C 
ATOM     48  C37 UNL A   1      42.008  28.685  28.263  1.00  0.00    +0.000 C 
ATOM     49  N8  UNL A   1      43.009  29.195  28.907  1.00  0.00    +0.000 N 
ATOM     50  C38 UNL A   1      43.745  29.913  27.965  1.00  0.00    +0.000 C 
ATOM     51  C39 UNL A   1      44.567  30.935  28.335  1.00  0.00    +0.000 C 
ATOM     63  C46 UNL A   1      44.926  30.839  29.726  1.00  0.00    +0.000 C 
ATOM     64  C47 UNL A   1      45.595  29.914  30.502  1.00  0.00    +0.000 C 
ATOM     65  C48 UNL A   1      44.928  29.934  31.763  1.00  0.00    +0.000 C 
ATOM     66  C49 UNL A   1      43.930  30.905  31.694  1.00  0.00    +0.000 C 
ATOM     67  N9  UNL A   1      44.293  31.669  30.617  1.00  0.00    +0.000 N 
ATOM     68  C50 UNL A   1      42.712  31.116  32.434  1.00  0.00    +0.000 C 
ATOM     80  C57 UNL A   1      41.636  31.813  31.969  1.00  0.00    +0.000 C 
ATOM     81  N10 UNL A   1      40.370  31.604  32.495  1.00  0.00    +0.000 N 
ATOM     82  C58 UNL A   1      39.555  31.915  31.524  1.00  0.00    +0.000 C 
ATOM     83  C59 UNL A   1      38.311  31.160  31.230  1.00  0.00    +0.000 C 
ATOM     95  C66 UNL A   1      38.682  29.935  30.779  1.00  0.00    +0.000 C 
ATOM     96  C67 UNL A   1      37.917  28.715  30.642  1.00  0.00    +0.000 C 
ATOM     97  C68 UNL A   1      38.691  27.781  30.049  1.00  0.00    +0.000 C 
ATOM     98  C69 UNL A   1      39.960  28.386  29.641  1.00  0.00    +0.000 C 
ATOM     99  N11 UNL A   1      39.938  29.640  30.213  1.00  0.00    +0.000 N 
ATOM    100  C70 UNL A   1      40.122  32.728  30.462  1.00  0.00    +0.000 C 
ATOM    101  C71 UNL A   1      41.419  32.568  30.738  1.00  0.00    +0.000 C 
ATOM    102  C72 UNL A   1      43.229  29.538  26.676  1.00  0.00    +0.000 C 
ATOM    103  C73 UNL A   1      42.095  28.849  26.803  1.00  0.00    +0.000 C 
ENDROOT
BRANCH   47   46
ATOM    104  C74 UNL A   1      39.917  26.284  27.163  1.00  0.00    +0.000 C 
ATOM    105  C75 UNL A   1      39.852  25.003  26.633  1.00  0.00    +0.000 C 
ATOM    136  H31 UNL A   1      42.210  23.523  28.489  1.00  0.00    +0.000 H 
ATOM     43  C32 UNL A   1      40.639  23.957  27.152  1.00  0.00    +0.000 C 
ATOM     44  C33 UNL A   1      41.566  24.255  28.152  1.00  0.00    +0.000 C 
ATOM     45  C34 UNL A   1      41.627  25.534  28.698  1.00  0.00    +0.000 C 
ATOM    137  H32 UNL A   1      42.305  25.743  29.449  1.00  0.00    +0.000 H 
ATOM     46  C35 UNL A   1      40.772  26.533  28.232  1.00  0.00    +0.000 C 
ATOM    148  H43 UNL A   1      39.337  27.042  26.770  1.00  0.00    +0.000 H 
ATOM    149  H44 UNL A   1      39.217  24.814  25.842  1.00  0.00    +0.000 H 
BRANCH   43    2
ATOM      1  O1  UNL A   1      39.179  22.352  26.266  1.00  0.00    +0.000 O 
ATOM      2  C1  UNL A   1      40.337  22.605  26.609  1.00  0.00    +0.000 C 
BRANCH    2    3
ATOM    106  H1  UNL A   1      40.961  20.794  27.054  1.00  0.00    +0.000 H 
ATOM      3  N1  UNL A   1      41.229  21.575  26.517  1.00  0.00    +0.000 N 
BRANCH    3    4
ATOM    108  H3  UNL A   1      42.634  20.308  25.776  1.00  0.00    +0.000 H 
ATOM    107  H2  UNL A   1      42.392  21.806  24.844  1.00  0.00    +0.000 H 
ATOM      4  C2  UNL A   1      42.475  21.365  25.815  1.00  0.00    +0.000 C 
BRANCH    4    5
ATOM    109  H4  UNL A   1      44.431  21.202  26.620  1.00  0.00    +0.000 H 
ATOM      5  C3  UNL A   1      43.694  21.970  26.514  1.00  0.00    +0.000 C 
ATOM    110  H5  UNL A   1      43.343  22.354  27.449  1.00  0.00    +0.000 H 
BRANCH    5    6
ATOM      6  C4  UNL A   1      44.340  23.151  25.780  1.00  0.00    +0.000 C 
ATOM    111  H6  UNL A   1      45.216  22.789  25.284  1.00  0.00    +0.000 H 
ATOM    112  H7  UNL A   1      44.539  23.887  26.531  1.00  0.00    +0.000 H 
BRANCH    6    7
ATOM    113  H8  UNL A   1      42.514  23.352  24.718  1.00  0.00    +0.000 H 
ATOM    114  H9  UNL A   1      43.999  23.788  23.813  1.00  0.00    +0.000 H 
ATOM      7  C5  UNL A   1      43.462  23.848  24.737  1.00  0.00    +0.000 C 
BRANCH    7    8
ATOM    115  H10 UNL A   1      42.257  25.440  25.460  1.00  0.00    +0.000 H 
ATOM    116  H11 UNL A   1      43.247  25.811  24.019  1.00  0.00    +0.000 H 
ATOM      8  C6  UNL A   1      43.208  25.339  24.979  1.00  0.00    +0.000 C 
BRANCH    8    9
ATOM      9  C7  UNL A   1      44.255  26.034  25.843  1.00  0.00    +0.000 C 
ATOM    117  H12 UNL A   1      44.784  25.293  26.404  1.00  0.00    +0.000 H 
ATOM    118  H13 UNL A   1      43.744  26.722  26.484  1.00  0.00    +0.000 H 
BRANCH    9   10
ATOM     10  N2  UNL A   1      45.212  26.793  25.054  1.00  0.00    +0.000 N 
ATOM    119  H14 UNL A   1      45.012  26.862  24.093  1.00  0.00    +0.000 H 
BRANCH   10   11
ATOM     11  C8  UNL A   1      46.355  27.428  25.469  1.00  0.00    +0.000 C 
ATOM     12  O2  UNL A   1      46.810  28.379  24.836  1.00  0.00    +0.000 O 
BRANCH   11   13
ATOM    134  H29 UNL A   1      49.051  24.573  27.863  1.00  0.00    +0.000 H 
ATOM    135  H30 UNL A   1      48.028  25.341  25.795  1.00  0.00    +0.000 H 
ATOM     41  C30 UNL A   1      48.435  25.401  27.864  1.00  0.00    +0.000 C 
ATOM     42  C31 UNL A   1      47.854  25.843  26.679  1.00  0.00    +0.000 C 
ATOM     13  C9  UNL A   1      47.032  26.974  26.699  1.00  0.00    +0.000 C 
ATOM     14  C10 UNL A   1      46.831  27.693  27.883  1.00  0.00    +0.000 C 
ATOM     15  C11 UNL A   1      47.377  27.230  29.082  1.00  0.00    +0.000 C 
ATOM     16  C12 UNL A   1      48.180  26.090  29.065  1.00  0.00    +0.000 C 
ATOM    120  H15 UNL A   1      46.280  28.566  27.870  1.00  0.00    +0.000 H 
ATOM    121  H16 UNL A   1      47.188  27.725  29.968  1.00  0.00    +0.000 H 
BRANCH   16   17
ATOM     39  N6  UNL A   1      50.397  25.024  31.591  1.00  0.00    +0.000 N 
ATOM     40  N7  UNL A   1      50.100  25.218  30.305  1.00  0.00    +0.000 N 
ATOM     17  N3  UNL A   1      48.839  25.690  30.241  1.00  0.00    +0.000 N 
ATOM     18  C13 UNL A   1      48.301  25.729  31.494  1.00  0.00    +0.000 C 
ATOM     19  C14 UNL A   1      49.272  25.270  32.345  1.00  0.00    +0.000 C 
ATOM    122  H17 UNL A   1      47.352  26.043  31.750  1.00  0.00    +0.000 H 
BRANCH   19   20
ATOM    124  H19 UNL A   1      50.340  25.138  34.013  1.00  0.00    +0.000 H 
ATOM    123  H18 UNL A   1      48.813  26.199  34.112  1.00  0.00    +0.000 H 
ATOM     20  C15 UNL A   1      49.297  25.289  33.827  1.00  0.00    +0.000 C 
BRANCH   20   21
ATOM     21  S1  UNL A   1      48.581  24.013  34.865  1.00  0.00    +0.000 S 
BRANCH   21   22
ATOM    127  H22 UNL A   1      54.364  19.038  34.679  1.00  0.00    +0.000 H 
ATOM    126  H21 UNL A   1      54.908  21.023  35.971  1.00  0.00    +0.000 H 
ATOM    128  H23 UNL A   1      52.101  18.737  33.832  1.00  0.00    +0.000 H 
ATOM    125  H20 UNL A   1      53.276  22.805  36.218  1.00  0.00    +0.000 H 
ATOM     22  C16 UNL A   1      49.559  22.577  35.005  1.00  0.00    +0.000 C 
ATOM     23  N4  UNL A   1      50.821  22.854  35.179  1.00  0.00    +0.000 N 
ATOM     24  C17 UNL A   1      51.739  21.794  35.189  1.00  0.00    +0.000 C 
ATOM     25  C18 UNL A   1      53.022  21.942  35.713  1.00  0.00    +0.000 C 
ATOM     26  C19 UNL A   1      53.970  20.920  35.557  1.00  0.00    +0.000 C 
ATOM     27  C20 UNL A   1      53.648  19.763  34.842  1.00  0.00    +0.000 C 
ATOM     28  C21 UNL A   1      52.356  19.591  34.352  1.00  0.00    +0.000 C 
ATOM     29  C22 UNL A   1      51.410  20.596  34.575  1.00  0.00    +0.000 C 
ATOM     30  C23 UNL A   1      49.986  20.408  34.277  1.00  0.00    +0.000 C 
ATOM     31  O3  UNL A   1      49.662  19.541  33.469  1.00  0.00    +0.000 O 
ATOM     32  N5  UNL A   1      49.114  21.267  34.959  1.00  0.00    +0.000 N 
BRANCH   32   33
ATOM     33  C24 UNL A   1      47.870  20.720  35.459  1.00  0.00    +0.000 C 
ATOM     34  C25 UNL A   1      47.620  20.720  36.849  1.00  0.00    +0.000 C 
ATOM    129  H24 UNL A   1      48.221  21.290  37.464  1.00  0.00    +0.000 H 
ATOM     35  C26 UNL A   1      46.585  19.974  37.420  1.00  0.00    +0.000 C 
ATOM    133  H28 UNL A   1      46.874  20.320  33.644  1.00  0.00    +0.000 H 
ATOM     38  C29 UNL A   1      46.873  20.148  34.662  1.00  0.00    +0.000 C 
ATOM     37  C28 UNL A   1      45.873  19.341  35.226  1.00  0.00    +0.000 C 
ATOM    130  H25 UNL A   1      46.443  19.981  38.441  1.00  0.00    +0.000 H 
ATOM     36  C27 UNL A   1      45.753  19.224  36.605  1.00  0.00    +0.000 C 
ATOM    132  H27 UNL A   1      45.220  18.831  34.611  1.00  0.00    +0.000 H 
ATOM    131  H26 UNL A   1      45.053  18.587  37.018  1.00  0.00    +0.000 H 
ENDBRANCH   32   33
ENDBRANCH   21   22
ENDBRANCH   20   21
ENDBRANCH   19   20
ENDBRANCH   16   17
ENDBRANCH   11   13
ENDBRANCH   10   11
ENDBRANCH    9   10
ENDBRANCH    8    9
ENDBRANCH    7    8
ENDBRANCH    6    7
ENDBRANCH    5    6
ENDBRANCH    4    5
ENDBRANCH    3    4
ENDBRANCH    2    3
ENDBRANCH   43    2
ENDBRANCH   47   46
BRANCH   51   52
ATOM     52  C40 UNL A   1      44.721  32.227  27.559  1.00  0.00    +0.000 C 
ATOM     53  C41 UNL A   1      45.880  32.414  26.776  1.00  0.00    +0.000 C 
ATOM     54  F1  UNL A   1      46.672  31.377  26.465  1.00  0.00    +0.000 F 
ATOM     55  C42 UNL A   1      46.314  33.685  26.387  1.00  0.00    +0.000 C 
ATOM     56  F2  UNL A   1      47.497  33.824  25.775  1.00  0.00    +0.000 F 
ATOM     57  C43 UNL A   1      45.569  34.805  26.701  1.00  0.00    +0.000 C 
ATOM     58  F3  UNL A   1      46.020  36.030  26.399  1.00  0.00    +0.000 F 
ATOM     59  C44 UNL A   1      44.377  34.655  27.376  1.00  0.00    +0.000 C 
ATOM     60  F4  UNL A   1      43.645  35.731  27.697  1.00  0.00    +0.000 F 
ATOM     61  C45 UNL A   1      43.968  33.395  27.809  1.00  0.00    +0.000 C 
ATOM     62  F5  UNL A   1      42.869  33.391  28.571  1.00  0.00    +0.000 F 
ENDBRANCH   51   52
BRANCH   68   69
ATOM     69  C51 UNL A   1      42.531  30.308  33.686  1.00  0.00    +0.000 C 
ATOM     70  C52 UNL A   1      42.638  30.845  34.982  1.00  0.00    +0.000 C 
ATOM     71  F6  UNL A   1      42.948  32.135  35.165  1.00  0.00    +0.000 F 
ATOM     72  C53 UNL A   1      42.364  30.071  36.108  1.00  0.00    +0.000 C 
ATOM     73  F7  UNL A   1      42.483  30.602  37.334  1.00  0.00    +0.000 F 
ATOM     74  C54 UNL A   1      41.930  28.763  35.963  1.00  0.00    +0.000 C 
ATOM     75  F8  UNL A   1      41.624  28.032  37.043  1.00  0.00    +0.000 F 
ATOM     76  C55 UNL A   1      41.784  28.223  34.695  1.00  0.00    +0.000 C 
ATOM     77  F9  UNL A   1      41.314  26.977  34.548  1.00  0.00    +0.000 F 
ATOM     78  C56 UNL A   1      42.092  28.983  33.570  1.00  0.00    +0.000 C 
ATOM     79  F10 UNL A   1      41.914  28.438  32.356  1.00  0.00    +0.000 F 
ENDBRANCH   68   69
BRANCH   83   84
ATOM     84  C60 UNL A   1      36.992  31.822  31.094  1.00  0.00    +0.000 C 
ATOM     85  C61 UNL A   1      36.181  32.071  32.213  1.00  0.00    +0.000 C 
ATOM     86  F11 UNL A   1      36.487  31.527  33.400  1.00  0.00    +0.000 F 
ATOM     87  C62 UNL A   1      35.085  32.937  32.146  1.00  0.00    +0.000 C 
ATOM     88  F12 UNL A   1      34.367  33.196  33.248  1.00  0.00    +0.000 F 
ATOM     89  C63 UNL A   1      34.767  33.575  30.958  1.00  0.00    +0.000 C 
ATOM     90  F13 UNL A   1      33.754  34.451  30.907  1.00  0.00    +0.000 F 
ATOM     91  C64 UNL A   1      35.532  33.335  29.832  1.00  0.00    +0.000 C 
ATOM     92  F14 UNL A   1      35.261  33.977  28.687  1.00  0.00    +0.000 F 
ATOM     93  C65 UNL A   1      36.628  32.475  29.900  1.00  0.00    +0.000 C 
ATOM     94  F15 UNL A   1      37.388  32.368  28.800  1.00  0.00    +0.000 F 
ENDBRANCH   83   84
TORSDOF 20
ENDMDL
MODEL 10
REMARK VINA RESULT:      -9.6      1.592      2.917
ROOT
ATOM    138  H33 UNL A   1      46.521  28.714  30.233  1.00  0.00    +0.000 H 
ATOM    139  H34 UNL A   1      45.273  28.746  32.588  1.00  0.00    +0.000 H 
ATOM    140  H35 UNL A   1      44.362  32.088  30.542  1.00  0.00    +0.000 H 
ATOM    141  H36 UNL A   1      37.041  28.277  30.992  1.00  0.00    +0.000 H 
ATOM    142  H37 UNL A   1      38.463  26.449  29.932  1.00  0.00    +0.000 H 
ATOM    143  H38 UNL A   1      40.859  29.829  30.264  1.00  0.00    +0.000 H 
ATOM    144  H39 UNL A   1      39.913  32.880  29.779  1.00  0.00    +0.000 H 
ATOM    145  H40 UNL A   1      42.422  32.458  30.198  1.00  0.00    +0.000 H 
ATOM    146  H41 UNL A   1      43.789  29.276  25.796  1.00  0.00    +0.000 H 
ATOM    147  H42 UNL A   1      41.521  28.096  26.092  1.00  0.00    +0.000 H 
ATOM     47  C36 UNL A   1      40.946  27.452  28.823  1.00  0.00    +0.000 C 
ATOM     48  C37 UNL A   1      42.097  28.230  28.284  1.00  0.00    +0.000 C 
ATOM     49  N8  UNL A   1      43.117  28.701  28.927  1.00  0.00    +0.000 N 
ATOM     50  C38 UNL A   1      43.873  29.400  27.986  1.00  0.00    +0.000 C 
ATOM     51  C39 UNL A   1      44.730  30.391  28.359  1.00  0.00    +0.000 C 
ATOM     63  C46 UNL A   1      45.092  30.273  29.748  1.00  0.00    +0.000 C 
ATOM     64  C47 UNL A   1      45.734  29.320  30.515  1.00  0.00    +0.000 C 
ATOM     65  C48 UNL A   1      45.073  29.354  31.779  1.00  0.00    +0.000 C 
ATOM     66  C49 UNL A   1      44.108  30.359  31.721  1.00  0.00    +0.000 C 
ATOM     67  N9  UNL A   1      44.492  31.118  30.648  1.00  0.00    +0.000 N 
ATOM     68  C50 UNL A   1      42.902  30.605  32.469  1.00  0.00    +0.000 C 
ATOM     80  C57 UNL A   1      41.848  31.342  32.013  1.00  0.00    +0.000 C 
ATOM     81  N10 UNL A   1      40.578  31.173  32.544  1.00  0.00    +0.000 N 
ATOM     82  C58 UNL A   1      39.769  31.518  31.580  1.00  0.00    +0.000 C 
ATOM     83  C59 UNL A   1      38.499  30.808  31.286  1.00  0.00    +0.000 C 
ATOM     95  C66 UNL A   1      38.827  29.574  30.825  1.00  0.00    +0.000 C 
ATOM     96  C67 UNL A   1      38.020  28.381  30.683  1.00  0.00    +0.000 C 
ATOM     97  C68 UNL A   1      38.759  27.426  30.080  1.00  0.00    +0.000 C 
ATOM     98  C69 UNL A   1      40.045  27.991  29.670  1.00  0.00    +0.000 C 
ATOM     99  N11 UNL A   1      40.069  29.241  30.251  1.00  0.00    +0.000 N 
ATOM    100  C70 UNL A   1      40.359  32.318  30.520  1.00  0.00    +0.000 C 
ATOM    101  C71 UNL A   1      41.651  32.112  30.788  1.00  0.00    +0.000 C 
ATOM    102  C72 UNL A   1      43.339  29.052  26.697  1.00  0.00    +0.000 C 
ATOM    103  C73 UNL A   1      42.183  28.401  26.825  1.00  0.00    +0.000 C 
ENDROOT
BRANCH   47   46
ATOM    104  C74 UNL A   1      39.864  25.893  27.230  1.00  0.00    +0.000 C 
ATOM    105  C75 UNL A   1      39.754  24.620  26.689  1.00  0.00    +0.000 C 
ATOM    136  H31 UNL A   1      42.214  23.096  28.370  1.00  0.00    +0.000 H 
ATOM     43  C32 UNL A   1      40.564  23.561  27.142  1.00  0.00    +0.000 C 
ATOM     44  C33 UNL A   1      41.556  23.838  28.085  1.00  0.00    +0.000 C 
ATOM     45  C34 UNL A   1      41.663  25.109  28.642  1.00  0.00    +0.000 C 
ATOM    137  H32 UNL A   1      42.389  25.303  29.350  1.00  0.00    +0.000 H 
ATOM     46  C35 UNL A   1      40.788  26.120  28.244  1.00  0.00    +0.000 C 
ATOM    148  H43 UNL A   1      39.267  26.660  26.885  1.00  0.00    +0.000 H 
ATOM    149  H44 UNL A   1      39.067  24.446  25.938  1.00  0.00    +0.000 H 
BRANCH   43    2
ATOM      1  O1  UNL A   1      39.056  22.012  26.237  1.00  0.00    +0.000 O 
ATOM      2  C1  UNL A   1      40.216  22.218  26.603  1.00  0.00    +0.000 C 
BRANCH    2    3
ATOM    106  H1  UNL A   1      40.755  20.389  27.081  1.00  0.00    +0.000 H 
ATOM      3  N1  UNL A   1      41.064  21.150  26.539  1.00  0.00    +0.000 N 
BRANCH    3    4
ATOM    108  H3  UNL A   1      42.456  19.818  25.891  1.00  0.00    +0.000 H 
ATOM    107  H2  UNL A   1      42.239  21.254  24.861  1.00  0.00    +0.000 H 
ATOM      4  C2  UNL A   1      42.311  20.878  25.860  1.00  0.00    +0.000 C 
BRANCH    4    5
ATOM    109  H4  UNL A   1      44.230  20.732  26.749  1.00  0.00    +0.000 H 
ATOM      5  C3  UNL A   1      43.534  21.512  26.524  1.00  0.00    +0.000 C 
ATOM    110  H5  UNL A   1      43.173  22.023  27.392  1.00  0.00    +0.000 H 
BRANCH    5    6
ATOM      6  C4  UNL A   1      44.258  22.565  25.676  1.00  0.00    +0.000 C 
ATOM    111  H6  UNL A   1      44.982  22.059  25.073  1.00  0.00    +0.000 H 
ATOM    112  H7  UNL A   1      44.679  23.259  26.372  1.00  0.00    +0.000 H 
BRANCH    6    7
ATOM    113  H8  UNL A   1      42.382  22.986  24.778  1.00  0.00    +0.000 H 
ATOM    114  H9  UNL A   1      43.826  23.345  23.779  1.00  0.00    +0.000 H 
ATOM      7  C5  UNL A   1      43.369  23.396  24.746  1.00  0.00    +0.000 C 
BRANCH    7    8
ATOM    115  H10 UNL A   1      42.379  25.039  25.656  1.00  0.00    +0.000 H 
ATOM    116  H11 UNL A   1      43.270  25.409  24.151  1.00  0.00    +0.000 H 
ATOM      8  C6  UNL A   1      43.271  24.886  25.085  1.00  0.00    +0.000 C 
BRANCH    8    9
ATOM      9  C7  UNL A   1      44.447  25.439  25.884  1.00  0.00    +0.000 C 
ATOM    117  H12 UNL A   1      44.927  24.629  26.394  1.00  0.00    +0.000 H 
ATOM    118  H13 UNL A   1      44.062  26.162  26.573  1.00  0.00    +0.000 H 
BRANCH    9   10
ATOM     10  N2  UNL A   1      45.427  26.107  25.042  1.00  0.00    +0.000 N 
ATOM    119  H14 UNL A   1      45.277  26.032  24.073  1.00  0.00    +0.000 H 
BRANCH   10   11
ATOM     11  C8  UNL A   1      46.532  26.827  25.418  1.00  0.00    +0.000 C 
ATOM     12  O2  UNL A   1      46.921  27.777  24.740  1.00  0.00    +0.000 O 
BRANCH   11   13
ATOM    134  H29 UNL A   1      49.530  24.344  27.866  1.00  0.00    +0.000 H 
ATOM    135  H30 UNL A   1      48.444  24.964  25.780  1.00  0.00    +0.000 H 
ATOM     41  C30 UNL A   1      48.818  25.091  27.853  1.00  0.00    +0.000 C 
ATOM     42  C31 UNL A   1      48.200  25.449  26.658  1.00  0.00    +0.000 C 
ATOM     13  C9  UNL A   1      47.245  26.470  26.659  1.00  0.00    +0.000 C 
ATOM     14  C10 UNL A   1      46.944  27.169  27.833  1.00  0.00    +0.000 C 
ATOM     15  C11 UNL A   1      47.529  26.787  29.042  1.00  0.00    +0.000 C 
ATOM     16  C12 UNL A   1      48.466  25.753  29.045  1.00  0.00    +0.000 C 
ATOM    120  H15 UNL A   1      46.291  27.968  27.807  1.00  0.00    +0.000 H 
ATOM    121  H16 UNL A   1      47.271  27.261  29.922  1.00  0.00    +0.000 H 
BRANCH   16   17
ATOM     39  N6  UNL A   1      50.738  24.846  31.585  1.00  0.00    +0.000 N 
ATOM     40  N7  UNL A   1      50.394  24.917  30.297  1.00  0.00    +0.000 N 
ATOM     17  N3  UNL A   1      49.156  25.446  30.231  1.00  0.00    +0.000 N 
ATOM     18  C13 UNL A   1      48.677  25.649  31.492  1.00  0.00    +0.000 C 
ATOM     19  C14 UNL A   1      49.660  25.232  32.350  1.00  0.00    +0.000 C 
ATOM    122  H17 UNL A   1      47.757  26.039  31.748  1.00  0.00    +0.000 H 
BRANCH   19   20
ATOM    124  H19 UNL A   1      50.789  25.649  33.928  1.00  0.00    +0.000 H 
ATOM    123  H18 UNL A   1      48.993  26.117  34.072  1.00  0.00    +0.000 H 
ATOM     20  C15 UNL A   1      49.752  25.408  33.819  1.00  0.00    +0.000 C 
BRANCH   20   21
ATOM     21  S1  UNL A   1      49.588  24.074  35.007  1.00  0.00    +0.000 S 
BRANCH   21   22
ATOM    127  H22 UNL A   1      41.992  23.387  34.779  1.00  0.00    +0.000 H 
ATOM    126  H21 UNL A   1      42.996  23.161  32.577  1.00  0.00    +0.000 H 
ATOM    128  H23 UNL A   1      43.423  23.554  36.742  1.00  0.00    +0.000 H 
ATOM    125  H20 UNL A   1      45.404  23.337  32.309  1.00  0.00    +0.000 H 
ATOM     22  C16 UNL A   1      47.945  23.562  35.282  1.00  0.00    +0.000 C 
ATOM     23  N4  UNL A   1      47.182  23.779  34.247  1.00  0.00    +0.000 N 
ATOM     24  C17 UNL A   1      45.809  23.524  34.370  1.00  0.00    +0.000 C 
ATOM     25  C18 UNL A   1      44.987  23.381  33.252  1.00  0.00    +0.000 C 
ATOM     26  C19 UNL A   1      43.597  23.296  33.405  1.00  0.00    +0.000 C 
ATOM     27  C20 UNL A   1      43.020  23.392  34.674  1.00  0.00    +0.000 C 
ATOM     28  C21 UNL A   1      43.835  23.494  35.798  1.00  0.00    +0.000 C 
ATOM     29  C22 UNL A   1      45.222  23.513  35.626  1.00  0.00    +0.000 C 
ATOM     30  C23 UNL A   1      46.152  23.409  36.756  1.00  0.00    +0.000 C 
ATOM     31  O3  UNL A   1      45.750  23.707  37.879  1.00  0.00    +0.000 O 
ATOM     32  N5  UNL A   1      47.443  22.977  36.431  1.00  0.00    +0.000 N 
BRANCH   32   33
ATOM     33  C24 UNL A   1      48.102  22.053  37.332  1.00  0.00    +0.000 C 
ATOM     34  C25 UNL A   1      48.117  20.675  37.026  1.00  0.00    +0.000 C 
ATOM    129  H24 UNL A   1      47.849  20.372  36.077  1.00  0.00    +0.000 H 
ATOM     35  C26 UNL A   1      48.482  19.707  37.966  1.00  0.00    +0.000 C 
ATOM    133  H28 UNL A   1      48.953  23.407  38.706  1.00  0.00    +0.000 H 
ATOM     38  C29 UNL A   1      48.719  22.417  38.533  1.00  0.00    +0.000 C 
ATOM     37  C28 UNL A   1      49.025  21.453  39.507  1.00  0.00    +0.000 C 
ATOM    130  H25 UNL A   1      48.463  18.707  37.714  1.00  0.00    +0.000 H 
ATOM     36  C27 UNL A   1      48.870  20.100  39.237  1.00  0.00    +0.000 C 
ATOM    132  H27 UNL A   1      49.368  21.754  40.433  1.00  0.00    +0.000 H 
ATOM    131  H26 UNL A   1      49.041  19.396  39.971  1.00  0.00    +0.000 H 
ENDBRANCH   32   33
ENDBRANCH   21   22
ENDBRANCH   20   21
ENDBRANCH   19   20
ENDBRANCH   16   17
ENDBRANCH   11   13
ENDBRANCH   10   11
ENDBRANCH    9   10
ENDBRANCH    8    9
ENDBRANCH    7    8
ENDBRANCH    6    7
ENDBRANCH    5    6
ENDBRANCH    4    5
ENDBRANCH    3    4
ENDBRANCH    2    3
ENDBRANCH   43    2
ENDBRANCH   47   46
BRANCH   51   52
ATOM     52  C40 UNL A   1      44.924  31.682  27.591  1.00  0.00    +0.000 C 
ATOM     53  C41 UNL A   1      46.144  31.892  26.914  1.00  0.00    +0.000 C 
ATOM     54  F1  UNL A   1      46.983  30.871  26.681  1.00  0.00    +0.000 F 
ATOM     55  C42 UNL A   1      46.583  33.170  26.557  1.00  0.00    +0.000 C 
ATOM     56  F2  UNL A   1      47.813  33.333  26.051  1.00  0.00    +0.000 F 
ATOM     57  C43 UNL A   1      45.789  34.275  26.795  1.00  0.00    +0.000 C 
ATOM     58  F3  UNL A   1      46.238  35.508  26.527  1.00  0.00    +0.000 F 
ATOM     59  C44 UNL A   1      44.545  34.101  27.363  1.00  0.00    +0.000 C 
ATOM     60  F4  UNL A   1      43.764  35.162  27.610  1.00  0.00    +0.000 F 
ATOM     61  C45 UNL A   1      44.126  32.834  27.766  1.00  0.00    +0.000 C 
ATOM     62  F5  UNL A   1      42.965  32.810  28.427  1.00  0.00    +0.000 F 
ENDBRANCH   51   52
BRANCH   68   69
ATOM     69  C51 UNL A   1      42.699  29.795  33.716  1.00  0.00    +0.000 C 
ATOM     70  C52 UNL A   1      42.849  30.314  35.014  1.00  0.00    +0.000 C 
ATOM     71  F6  UNL A   1      43.224  31.587  35.205  1.00  0.00    +0.000 F 
ATOM     72  C53 UNL A   1      42.555  29.544  36.138  1.00  0.00    +0.000 C 
ATOM     73  F7  UNL A   1      42.716  30.057  37.366  1.00  0.00    +0.000 F 
ATOM     74  C54 UNL A   1      42.056  28.259  35.987  1.00  0.00    +0.000 C 
ATOM     75  F8  UNL A   1      41.730  27.534  37.065  1.00  0.00    +0.000 F 
ATOM     76  C55 UNL A   1      41.866  27.739  34.717  1.00  0.00    +0.000 C 
ATOM     77  F9  UNL A   1      41.334  26.519  34.565  1.00  0.00    +0.000 F 
ATOM     78  C56 UNL A   1      42.195  28.494  33.594  1.00  0.00    +0.000 C 
ATOM     79  F10 UNL A   1      41.974  27.971  32.378  1.00  0.00    +0.000 F 
ENDBRANCH   68   69
BRANCH   83   84
ATOM     84  C60 UNL A   1      37.203  31.514  31.161  1.00  0.00    +0.000 C 
ATOM     85  C61 UNL A   1      36.417  31.804  32.288  1.00  0.00    +0.000 C 
ATOM     86  F11 UNL A   1      36.721  31.262  33.477  1.00  0.00    +0.000 F 
ATOM     87  C62 UNL A   1      35.351  32.708  32.227  1.00  0.00    +0.000 C 
ATOM     88  F12 UNL A   1      34.660  33.004  33.336  1.00  0.00    +0.000 F 
ATOM     89  C63 UNL A   1      35.040  33.345  31.037  1.00  0.00    +0.000 C 
ATOM     90  F13 UNL A   1      34.058  34.256  30.990  1.00  0.00    +0.000 F 
ATOM     91  C64 UNL A   1      35.780  33.066  29.903  1.00  0.00    +0.000 C 
ATOM     92  F14 UNL A   1      35.515  33.704  28.755  1.00  0.00    +0.000 F 
ATOM     93  C65 UNL A   1      36.846  32.168  29.965  1.00  0.00    +0.000 C 
ATOM     94  F15 UNL A   1      37.585  32.022  28.856  1.00  0.00    +0.000 F 
ENDBRANCH   83   84
TORSDOF 20
ENDMDL
