MODEL 1
REMARK VINA RESULT:      -7.5      0.000      0.000
ROOT
ATOM    129  H26 UNL A   1       0.052   7.792  39.744  1.00  0.00    +0.000 H 
ATOM    130  H27 UNL A   1      -4.331   5.657  38.514  1.00  0.00    +0.000 H 
ATOM    131  H28 UNL A   1      -2.985   4.022  37.076  1.00  0.00    +0.000 H 
ATOM    132  H29 UNL A   1       5.509   8.881  39.351  1.00  0.00    +0.000 H 
ATOM    133  H30 UNL A   1       4.259  10.225  41.134  1.00  0.00    +0.000 H 
ATOM     19  C15 UNL A   1       1.450   9.757  41.161  1.00  0.00    +0.000 C 
ATOM     20  C16 UNL A   1       2.489   9.051  40.337  1.00  0.00    +0.000 C 
ATOM     21  N3  UNL A   1       2.342   8.083  39.469  1.00  0.00    +0.000 N 
ATOM     22  C17 UNL A   1       3.611   7.835  38.961  1.00  0.00    +0.000 C 
ATOM     23  C18 UNL A   1       3.995   6.888  38.074  1.00  0.00    +0.000 C 
ATOM     35  C25 UNL A   1       3.106   5.923  37.480  1.00  0.00    +0.000 C 
ATOM     36  C26 UNL A   1       3.411   4.881  36.622  1.00  0.00    +0.000 C 
ATOM     37  C27 UNL A   1       2.219   4.232  36.281  1.00  0.00    +0.000 C 
ATOM     38  C28 UNL A   1       1.177   4.845  36.958  1.00  0.00    +0.000 C 
ATOM     39  N4  UNL A   1       1.735   5.882  37.688  1.00  0.00    +0.000 N 
ATOM     40  C29 UNL A   1      -0.224   4.513  36.941  1.00  0.00    +0.000 C 
ATOM     52  C36 UNL A   1      -1.185   5.156  37.648  1.00  0.00    +0.000 C 
ATOM     53  N5  UNL A   1      -1.058   6.231  38.516  1.00  0.00    +0.000 N 
ATOM     54  C37 UNL A   1      -2.268   6.496  38.940  1.00  0.00    +0.000 C 
ATOM     55  C38 UNL A   1      -2.722   7.547  39.917  1.00  0.00    +0.000 C 
ATOM     67  C45 UNL A   1      -1.809   8.352  40.492  1.00  0.00    +0.000 C 
ATOM     68  C46 UNL A   1      -2.097   9.406  41.459  1.00  0.00    +0.000 C 
ATOM     69  C47 UNL A   1      -0.952  10.027  41.785  1.00  0.00    +0.000 C 
ATOM     70  C48 UNL A   1       0.156   9.392  41.071  1.00  0.00    +0.000 C 
ATOM     71  N6  UNL A   1      -0.446   8.404  40.332  1.00  0.00    +0.000 N 
ATOM     72  C49 UNL A   1      -3.310   5.632  38.368  1.00  0.00    +0.000 C 
ATOM     73  C50 UNL A   1      -2.592   4.809  37.615  1.00  0.00    +0.000 C 
ATOM     74  C51 UNL A   1       4.508   8.785  39.583  1.00  0.00    +0.000 C 
ATOM     75  C52 UNL A   1       3.877   9.516  40.490  1.00  0.00    +0.000 C 
ATOM    124  H21 UNL A   1       4.354   4.626  36.292  1.00  0.00    +0.000 H 
ATOM    125  H22 UNL A   1       2.130   3.433  35.634  1.00  0.00    +0.000 H 
ATOM    126  H23 UNL A   1       1.234   6.500  38.268  1.00  0.00    +0.000 H 
ATOM    127  H24 UNL A   1      -3.032   9.637  41.832  1.00  0.00    +0.000 H 
ATOM    128  H25 UNL A   1      -0.868  10.825  42.433  1.00  0.00    +0.000 H 
ENDROOT
BRANCH   19   18
ATOM    134  H31 UNL A   1       2.515   9.690  43.617  1.00  0.00    +0.000 H 
ATOM    135  H32 UNL A   1       3.066  11.543  45.080  1.00  0.00    +0.000 H 
ATOM     76  C53 UNL A   1       2.376  10.661  43.294  1.00  0.00    +0.000 C 
ATOM     77  C54 UNL A   1       2.732  11.723  44.120  1.00  0.00    +0.000 C 
ATOM     15  C11 UNL A   1       2.636  13.035  43.647  1.00  0.00    +0.000 C 
ATOM     16  C12 UNL A   1       2.069  13.291  42.396  1.00  0.00    +0.000 C 
ATOM     17  C13 UNL A   1       1.652  12.226  41.593  1.00  0.00    +0.000 C 
ATOM     18  C14 UNL A   1       1.831  10.902  42.023  1.00  0.00    +0.000 C 
ATOM    122  H19 UNL A   1       1.959  14.262  42.066  1.00  0.00    +0.000 H 
ATOM    123  H20 UNL A   1       1.212  12.414  40.679  1.00  0.00    +0.000 H 
BRANCH   15   13
ATOM     13  C10 UNL A   1       3.119  14.175  44.457  1.00  0.00    +0.000 C 
ATOM     14  O2  UNL A   1       2.564  14.448  45.517  1.00  0.00    +0.000 O 
BRANCH   13   12
ATOM    121  H18 UNL A   1       4.051  15.909  44.079  1.00  0.00    +0.000 H 
ATOM     12  N2  UNL A   1       4.172  14.935  44.011  1.00  0.00    +0.000 N 
BRANCH   12   11
ATOM     11  C9  UNL A   1       5.440  14.500  43.450  1.00  0.00    +0.000 C 
ATOM    119  H16 UNL A   1       6.223  14.751  44.135  1.00  0.00    +0.000 H 
ATOM    120  H17 UNL A   1       5.382  13.442  43.293  1.00  0.00    +0.000 H 
BRANCH   11   10
ATOM     10  C8  UNL A   1       5.735  15.153  42.105  1.00  0.00    +0.000 C 
ATOM    117  H14 UNL A   1       5.193  16.074  42.057  1.00  0.00    +0.000 H 
ATOM    118  H15 UNL A   1       6.796  15.283  42.059  1.00  0.00    +0.000 H 
BRANCH   10    9
ATOM      9  C7  UNL A   1       5.353  14.312  40.885  1.00  0.00    +0.000 C 
ATOM    115  H12 UNL A   1       4.337  14.538  40.633  1.00  0.00    +0.000 H 
ATOM    116  H13 UNL A   1       6.050  14.569  40.116  1.00  0.00    +0.000 H 
BRANCH    9    8
ATOM    113  H10 UNL A   1       5.226  12.576  42.095  1.00  0.00    +0.000 H 
ATOM    114  H11 UNL A   1       4.795  12.362  40.369  1.00  0.00    +0.000 H 
ATOM      8  C6  UNL A   1       5.468  12.799  41.077  1.00  0.00    +0.000 C 
BRANCH    8    7
ATOM    111  H8  UNL A   1       7.376  12.099  41.702  1.00  0.00    +0.000 H 
ATOM      7  C5  UNL A   1       6.847  12.197  40.777  1.00  0.00    +0.000 C 
ATOM    112  H9  UNL A   1       6.667  11.261  40.290  1.00  0.00    +0.000 H 
BRANCH    7    6
ATOM    110  H7  UNL A   1       8.547  13.412  40.366  1.00  0.00    +0.000 H 
ATOM    109  H6  UNL A   1       7.128  13.808  39.401  1.00  0.00    +0.000 H 
ATOM      6  C4  UNL A   1       7.717  13.018  39.816  1.00  0.00    +0.000 C 
BRANCH    6    5
ATOM    108  H5  UNL A   1       9.159  12.362  38.450  1.00  0.00    +0.000 H 
ATOM      5  N1  UNL A   1       8.233  12.197  38.739  1.00  0.00    +0.000 N 
BRANCH    5    3
ATOM      3  C3  UNL A   1       7.541  11.209  38.089  1.00  0.00    +0.000 C 
ATOM      4  O1  UNL A   1       7.645  10.074  38.554  1.00  0.00    +0.000 O 
BRANCH    3    2
ATOM      2  C2  UNL A   1       6.687  11.579  36.863  1.00  0.00    +0.000 C 
ATOM    107  H4  UNL A   1       6.422  10.641  36.423  1.00  0.00    +0.000 H 
BRANCH    2    1
ATOM      1  C1  UNL A   1       7.522  12.462  35.925  1.00  0.00    +0.000 C 
ATOM    106  H3  UNL A   1       8.290  11.873  35.471  1.00  0.00    +0.000 H 
ATOM    105  H2  UNL A   1       6.890  12.872  35.166  1.00  0.00    +0.000 H 
ATOM    104  H1  UNL A   1       7.967  13.258  36.487  1.00  0.00    +0.000 H 
ENDBRANCH    2    1
BRANCH    2   78
ATOM    101  C75 UNL A   1       3.056  12.271  37.952  1.00  0.00    +0.000 C 
ATOM    102  F16 UNL A   1       2.002  11.554  38.375  1.00  0.00    +0.000 F 
ATOM    103  C76 UNL A   1       4.193  11.576  37.544  1.00  0.00    +0.000 C 
ATOM    136  H33 UNL A   1       6.069  14.193  36.685  1.00  0.00    +0.000 H 
ATOM    137  H34 UNL A   1       4.101  15.389  37.418  1.00  0.00    +0.000 H 
ATOM     78  C55 UNL A   1       5.344  12.259  37.140  1.00  0.00    +0.000 C 
ATOM     79  C56 UNL A   1       5.266  13.664  37.060  1.00  0.00    +0.000 C 
ATOM     80  C57 UNL A   1       4.123  14.358  37.479  1.00  0.00    +0.000 C 
ATOM     81  C58 UNL A   1       3.012  13.670  37.980  1.00  0.00    +0.000 C 
ATOM    154  H51 UNL A   1       4.184  10.544  37.539  1.00  0.00    +0.000 H 
BRANCH   81   82
ATOM    100  C74 UNL A   1       0.582  13.914  38.414  1.00  0.00    +0.000 C 
ATOM    138  H35 UNL A   1       3.040  15.837  39.634  1.00  0.00    +0.000 H 
ATOM    139  H36 UNL A   1       1.146  16.935  40.675  1.00  0.00    +0.000 H 
ATOM    140  H37 UNL A   1      -1.105  16.105  40.297  1.00  0.00    +0.000 H 
ATOM     82  C59 UNL A   1       1.895  14.377  38.623  1.00  0.00    +0.000 C 
ATOM     83  C60 UNL A   1       2.086  15.484  39.461  1.00  0.00    +0.000 C 
ATOM     84  C61 UNL A   1       0.994  16.115  40.067  1.00  0.00    +0.000 C 
ATOM     85  C62 UNL A   1      -0.300  15.640  39.851  1.00  0.00    +0.000 C 
ATOM     86  C63 UNL A   1      -0.500  14.532  39.031  1.00  0.00    +0.000 C 
ATOM    153  H50 UNL A   1       0.421  13.105  37.794  1.00  0.00    +0.000 H 
BRANCH   86   87
ATOM     87  O3  UNL A   1      -1.845  14.143  38.829  1.00  0.00    +0.000 O 
BRANCH   87   88
ATOM     89  O4  UNL A   1      -3.363  15.788  38.146  1.00  0.00    +0.000 O 
ATOM     88  C64 UNL A   1      -2.729  14.765  37.946  1.00  0.00    +0.000 C 
BRANCH   88   90
ATOM     90  N7  UNL A   1      -2.836  14.110  36.745  1.00  0.00    +0.000 N 
ATOM    141  H38 UNL A   1      -3.318  14.561  36.015  1.00  0.00    +0.000 H 
BRANCH   90   91
ATOM     91  C65 UNL A   1      -2.284  12.801  36.485  1.00  0.00    +0.000 C 
ATOM    142  H39 UNL A   1      -3.083  12.154  36.191  1.00  0.00    +0.000 H 
ATOM    143  H40 UNL A   1      -1.803  12.488  37.388  1.00  0.00    +0.000 H 
BRANCH   91   92
ATOM    145  H42 UNL A   1      -1.284  13.737  34.931  1.00  0.00    +0.000 H 
ATOM     92  C66 UNL A   1      -1.217  12.772  35.390  1.00  0.00    +0.000 C 
ATOM    144  H41 UNL A   1      -0.284  12.542  35.863  1.00  0.00    +0.000 H 
BRANCH   92   93
ATOM    146  H43 UNL A   1      -0.465  11.775  33.693  1.00  0.00    +0.000 H 
ATOM    147  H44 UNL A   1      -2.255  12.164  33.720  1.00  0.00    +0.000 H 
ATOM     93  C67 UNL A   1      -1.392  11.786  34.228  1.00  0.00    +0.000 C 
BRANCH   93   94
ATOM     97  C71 UNL A   1      -2.299   7.655  35.153  1.00  0.00    +0.000 C 
ATOM     98  C72 UNL A   1      -1.059   8.206  35.453  1.00  0.00    +0.000 C 
ATOM     99  C73 UNL A   1      -0.794   9.539  35.132  1.00  0.00    +0.000 C 
ATOM    148  H45 UNL A   1      -3.719  10.332  33.724  1.00  0.00    +0.000 H 
ATOM    149  H46 UNL A   1      -4.188   8.029  34.305  1.00  0.00    +0.000 H 
ATOM    150  H47 UNL A   1      -2.501   6.672  35.394  1.00  0.00    +0.000 H 
ATOM    151  H48 UNL A   1      -0.335   7.632  35.911  1.00  0.00    +0.000 H 
ATOM    152  H49 UNL A   1       0.126   9.943  35.368  1.00  0.00    +0.000 H 
ATOM     94  C68 UNL A   1      -1.757  10.343  34.494  1.00  0.00    +0.000 C 
ATOM     95  C69 UNL A   1      -2.994   9.767  34.195  1.00  0.00    +0.000 C 
ATOM     96  C70 UNL A   1      -3.265   8.435  34.526  1.00  0.00    +0.000 C 
ENDBRANCH   93   94
ENDBRANCH   92   93
ENDBRANCH   91   92
ENDBRANCH   90   91
ENDBRANCH   88   90
ENDBRANCH   87   88
ENDBRANCH   86   87
ENDBRANCH   81   82
ENDBRANCH    2   78
ENDBRANCH    3    2
ENDBRANCH    5    3
ENDBRANCH    6    5
ENDBRANCH    7    6
ENDBRANCH    8    7
ENDBRANCH    9    8
ENDBRANCH   10    9
ENDBRANCH   11   10
ENDBRANCH   12   11
ENDBRANCH   13   12
ENDBRANCH   15   13
ENDBRANCH   19   18
BRANCH   23   24
ATOM     33  C24 UNL A   1       5.956   7.735  36.735  1.00  0.00    +0.000 C 
ATOM     34  F5  UNL A   1       5.157   8.652  36.167  1.00  0.00    +0.000 F 
ATOM     24  C19 UNL A   1       5.445   6.845  37.692  1.00  0.00    +0.000 C 
ATOM     25  C20 UNL A   1       6.324   5.905  38.249  1.00  0.00    +0.000 C 
ATOM     26  F1  UNL A   1       5.887   5.041  39.177  1.00  0.00    +0.000 F 
ATOM     27  C21 UNL A   1       7.668   5.876  37.885  1.00  0.00    +0.000 C 
ATOM     28  F2  UNL A   1       8.499   5.000  38.466  1.00  0.00    +0.000 F 
ATOM     29  C22 UNL A   1       8.149   6.761  36.932  1.00  0.00    +0.000 C 
ATOM     30  F3  UNL A   1       9.442   6.729  36.579  1.00  0.00    +0.000 F 
ATOM     31  C23 UNL A   1       7.294   7.685  36.352  1.00  0.00    +0.000 C 
ATOM     32  F4  UNL A   1       7.756   8.535  35.425  1.00  0.00    +0.000 F 
ENDBRANCH   23   24
BRANCH   40   41
ATOM     41  C30 UNL A   1      -0.657   3.354  36.093  1.00  0.00    +0.000 C 
ATOM     42  C31 UNL A   1      -0.701   2.048  36.603  1.00  0.00    +0.000 C 
ATOM     43  F6  UNL A   1      -0.302   1.802  37.860  1.00  0.00    +0.000 F 
ATOM     44  C32 UNL A   1      -1.122   0.986  35.809  1.00  0.00    +0.000 C 
ATOM     45  F7  UNL A   1      -1.117  -0.260  36.303  1.00  0.00    +0.000 F 
ATOM     46  C33 UNL A   1      -1.534   1.211  34.504  1.00  0.00    +0.000 C 
ATOM     47  F8  UNL A   1      -1.944   0.187  33.743  1.00  0.00    +0.000 F 
ATOM     48  C34 UNL A   1      -1.513   2.497  33.985  1.00  0.00    +0.000 C 
ATOM     49  F9  UNL A   1      -1.920   2.717  32.727  1.00  0.00    +0.000 F 
ATOM     50  C35 UNL A   1      -1.068   3.558  34.767  1.00  0.00    +0.000 C 
ATOM     51  F10 UNL A   1      -1.048   4.789  34.235  1.00  0.00    +0.000 F 
ENDBRANCH   40   41
BRANCH   55   56
ATOM     65  C44 UNL A   1      -4.700   7.021  41.385  1.00  0.00    +0.000 C 
ATOM     66  F15 UNL A   1      -3.921   6.244  42.151  1.00  0.00    +0.000 F 
ATOM     56  C39 UNL A   1      -4.157   7.683  40.275  1.00  0.00    +0.000 C 
ATOM     57  C40 UNL A   1      -5.015   8.479  39.503  1.00  0.00    +0.000 C 
ATOM     58  F11 UNL A   1      -4.535   9.148  38.445  1.00  0.00    +0.000 F 
ATOM     59  C41 UNL A   1      -6.359   8.620  39.838  1.00  0.00    +0.000 C 
ATOM     60  F12 UNL A   1      -7.150   9.418  39.106  1.00  0.00    +0.000 F 
ATOM     61  C42 UNL A   1      -6.878   7.948  40.934  1.00  0.00    +0.000 C 
ATOM     62  F13 UNL A   1      -8.172   8.080  41.253  1.00  0.00    +0.000 F 
ATOM     63  C43 UNL A   1      -6.051   7.143  41.704  1.00  0.00    +0.000 C 
ATOM     64  F14 UNL A   1      -6.550   6.482  42.757  1.00  0.00    +0.000 F 
ENDBRANCH   55   56
TORSDOF 25
ENDMDL
MODEL 2
REMARK VINA RESULT:      -7.3     52.072     57.368
ROOT
ATOM    129  H26 UNL A   1      15.963  51.280   1.558  1.00  0.00    +0.000 H 
ATOM    130  H27 UNL A   1      17.971  50.860  -3.033  1.00  0.00    +0.000 H 
ATOM    131  H28 UNL A   1      18.422  53.378  -2.927  1.00  0.00    +0.000 H 
ATOM    132  H29 UNL A   1      13.862  53.904   6.010  1.00  0.00    +0.000 H 
ATOM    133  H30 UNL A   1      13.812  51.347   6.131  1.00  0.00    +0.000 H 
ATOM     19  C15 UNL A   1      14.729  50.070   3.756  1.00  0.00    +0.000 C 
ATOM     20  C16 UNL A   1      14.742  51.539   4.071  1.00  0.00    +0.000 C 
ATOM     21  N3  UNL A   1      15.170  52.540   3.343  1.00  0.00    +0.000 N 
ATOM     22  C17 UNL A   1      14.905  53.685   4.083  1.00  0.00    +0.000 C 
ATOM     23  C18 UNL A   1      15.211  54.970   3.787  1.00  0.00    +0.000 C 
ATOM     35  C25 UNL A   1      15.904  55.387   2.596  1.00  0.00    +0.000 C 
ATOM     36  C26 UNL A   1      16.318  56.657   2.237  1.00  0.00    +0.000 C 
ATOM     37  C27 UNL A   1      16.919  56.582   0.976  1.00  0.00    +0.000 C 
ATOM     38  C28 UNL A   1      16.914  55.258   0.567  1.00  0.00    +0.000 C 
ATOM     39  N4  UNL A   1      16.286  54.536   1.568  1.00  0.00    +0.000 N 
ATOM     40  C29 UNL A   1      17.441  54.691  -0.648  1.00  0.00    +0.000 C 
ATOM     52  C36 UNL A   1      17.411  53.375  -0.971  1.00  0.00    +0.000 C 
ATOM     53  N5  UNL A   1      16.895  52.312  -0.244  1.00  0.00    +0.000 N 
ATOM     54  C37 UNL A   1      17.093  51.245  -0.978  1.00  0.00    +0.000 C 
ATOM     55  C38 UNL A   1      16.756  49.809  -0.678  1.00  0.00    +0.000 C 
ATOM     67  C45 UNL A   1      16.185  49.499   0.502  1.00  0.00    +0.000 C 
ATOM     68  C46 UNL A   1      15.811  48.157   0.935  1.00  0.00    +0.000 C 
ATOM     69  C47 UNL A   1      15.234  48.232   2.145  1.00  0.00    +0.000 C 
ATOM     70  C48 UNL A   1      15.229  49.627   2.587  1.00  0.00    +0.000 C 
ATOM     71  N6  UNL A   1      15.818  50.307   1.550  1.00  0.00    +0.000 N 
ATOM     72  C49 UNL A   1      17.738  51.515  -2.271  1.00  0.00    +0.000 C 
ATOM     73  C50 UNL A   1      17.943  52.824  -2.200  1.00  0.00    +0.000 C 
ATOM     74  C51 UNL A   1      14.237  53.261   5.295  1.00  0.00    +0.000 C 
ATOM     75  C52 UNL A   1      14.170  51.940   5.367  1.00  0.00    +0.000 C 
ATOM    124  H21 UNL A   1      16.206  57.512   2.803  1.00  0.00    +0.000 H 
ATOM    125  H22 UNL A   1      17.301  57.377   0.440  1.00  0.00    +0.000 H 
ATOM    126  H23 UNL A   1      16.133  53.564   1.554  1.00  0.00    +0.000 H 
ATOM    127  H24 UNL A   1      15.964  47.289   0.396  1.00  0.00    +0.000 H 
ATOM    128  H25 UNL A   1      14.856  47.433   2.677  1.00  0.00    +0.000 H 
ENDROOT
BRANCH   19   18
ATOM    134  H31 UNL A   1      12.154  49.352   3.915  1.00  0.00    +0.000 H 
ATOM    135  H32 UNL A   1      11.095  47.854   5.498  1.00  0.00    +0.000 H 
ATOM     76  C53 UNL A   1      12.724  48.868   4.627  1.00  0.00    +0.000 C 
ATOM     77  C54 UNL A   1      12.119  47.976   5.508  1.00  0.00    +0.000 C 
ATOM     15  C11 UNL A   1      12.903  47.246   6.407  1.00  0.00    +0.000 C 
ATOM     16  C12 UNL A   1      14.274  47.498   6.508  1.00  0.00    +0.000 C 
ATOM     17  C13 UNL A   1      14.869  48.440   5.667  1.00  0.00    +0.000 C 
ATOM     18  C14 UNL A   1      14.105  49.110   4.699  1.00  0.00    +0.000 C 
ATOM    122  H19 UNL A   1      14.844  46.990   7.203  1.00  0.00    +0.000 H 
ATOM    123  H20 UNL A   1      15.877  48.645   5.757  1.00  0.00    +0.000 H 
BRANCH   15   13
ATOM     13  C10 UNL A   1      12.303  46.206   7.272  1.00  0.00    +0.000 C 
ATOM     14  O2  UNL A   1      12.056  45.098   6.808  1.00  0.00    +0.000 O 
BRANCH   13   12
ATOM    121  H18 UNL A   1      11.091  46.808   8.750  1.00  0.00    +0.000 H 
ATOM     12  N2  UNL A   1      12.007  46.492   8.581  1.00  0.00    +0.000 N 
BRANCH   12   11
ATOM     11  C9  UNL A   1      12.860  46.392   9.754  1.00  0.00    +0.000 C 
ATOM    119  H16 UNL A   1      12.270  46.055  10.581  1.00  0.00    +0.000 H 
ATOM    120  H17 UNL A   1      13.647  45.702   9.528  1.00  0.00    +0.000 H 
BRANCH   11   10
ATOM     10  C8  UNL A   1      13.503  47.726  10.120  1.00  0.00    +0.000 C 
ATOM    117  H14 UNL A   1      12.896  48.509   9.716  1.00  0.00    +0.000 H 
ATOM    118  H15 UNL A   1      13.566  47.747  11.187  1.00  0.00    +0.000 H 
BRANCH   10    9
ATOM      9  C7  UNL A   1      14.930  47.914   9.601  1.00  0.00    +0.000 C 
ATOM    115  H12 UNL A   1      15.309  46.952   9.321  1.00  0.00    +0.000 H 
ATOM    116  H13 UNL A   1      14.861  48.599   8.784  1.00  0.00    +0.000 H 
BRANCH    9    8
ATOM    113  H10 UNL A   1      15.338  49.068  11.331  1.00  0.00    +0.000 H 
ATOM    114  H11 UNL A   1      16.473  47.721  11.003  1.00  0.00    +0.000 H 
ATOM      8  C6  UNL A   1      15.908  48.536  10.600  1.00  0.00    +0.000 C 
BRANCH    8    7
ATOM    111  H8  UNL A   1      17.830  48.959   9.796  1.00  0.00    +0.000 H 
ATOM      7  C5  UNL A   1      16.935  49.507  10.002  1.00  0.00    +0.000 C 
ATOM    112  H9  UNL A   1      16.481  49.921   9.125  1.00  0.00    +0.000 H 
BRANCH    7    6
ATOM    110  H7  UNL A   1      17.194  51.596  10.324  1.00  0.00    +0.000 H 
ATOM    109  H6  UNL A   1      18.307  50.582  11.237  1.00  0.00    +0.000 H 
ATOM      6  C4  UNL A   1      17.300  50.697  10.897  1.00  0.00    +0.000 C 
BRANCH    6    5
ATOM    108  H5  UNL A   1      16.415  50.020  12.667  1.00  0.00    +0.000 H 
ATOM      5  N1  UNL A   1      16.421  50.784  12.046  1.00  0.00    +0.000 N 
BRANCH    5    3
ATOM      3  C3  UNL A   1      15.598  51.838  12.341  1.00  0.00    +0.000 C 
ATOM      4  O1  UNL A   1      15.469  52.112  13.534  1.00  0.00    +0.000 O 
BRANCH    3    2
ATOM      2  C2  UNL A   1      14.920  52.601  11.189  1.00  0.00    +0.000 C 
ATOM    107  H4  UNL A   1      15.705  52.783  10.485  1.00  0.00    +0.000 H 
BRANCH    2    1
ATOM      1  C1  UNL A   1      14.306  53.893  11.743  1.00  0.00    +0.000 C 
ATOM    106  H3  UNL A   1      13.682  53.661  12.580  1.00  0.00    +0.000 H 
ATOM    105  H2  UNL A   1      15.087  54.555  12.053  1.00  0.00    +0.000 H 
ATOM    104  H1  UNL A   1      13.721  54.365  10.981  1.00  0.00    +0.000 H 
ENDBRANCH    2    1
BRANCH    2   78
ATOM    101  C75 UNL A   1      11.610  51.014  10.017  1.00  0.00    +0.000 C 
ATOM    102  F16 UNL A   1      10.384  50.808  10.525  1.00  0.00    +0.000 F 
ATOM    103  C76 UNL A   1      12.580  51.550  10.862  1.00  0.00    +0.000 C 
ATOM    136  H33 UNL A   1      15.121  51.584   8.705  1.00  0.00    +0.000 H 
ATOM    137  H34 UNL A   1      13.423  50.677   7.244  1.00  0.00    +0.000 H 
ATOM     78  C55 UNL A   1      13.863  51.839  10.386  1.00  0.00    +0.000 C 
ATOM     79  C56 UNL A   1      14.160  51.464   9.060  1.00  0.00    +0.000 C 
ATOM     80  C57 UNL A   1      13.177  50.932   8.213  1.00  0.00    +0.000 C 
ATOM     81  C58 UNL A   1      11.867  50.743   8.669  1.00  0.00    +0.000 C 
ATOM    154  H51 UNL A   1      12.349  51.737  11.850  1.00  0.00    +0.000 H 
BRANCH   81   82
ATOM    100  C74 UNL A   1       9.987  49.261   8.022  1.00  0.00    +0.000 C 
ATOM    138  H35 UNL A   1      11.032  52.000   6.398  1.00  0.00    +0.000 H 
ATOM    139  H36 UNL A   1       9.200  51.370   4.940  1.00  0.00    +0.000 H 
ATOM    140  H37 UNL A   1       7.855  49.412   5.446  1.00  0.00    +0.000 H 
ATOM     82  C59 UNL A   1      10.776  50.394   7.747  1.00  0.00    +0.000 C 
ATOM     83  C60 UNL A   1      10.471  51.162   6.615  1.00  0.00    +0.000 C 
ATOM     84  C61 UNL A   1       9.410  50.802   5.776  1.00  0.00    +0.000 C 
ATOM     85  C62 UNL A   1       8.636  49.678   6.065  1.00  0.00    +0.000 C 
ATOM     86  C63 UNL A   1       8.923  48.916   7.196  1.00  0.00    +0.000 C 
ATOM    153  H50 UNL A   1      10.201  48.680   8.846  1.00  0.00    +0.000 H 
BRANCH   86   87
ATOM     87  O3  UNL A   1       8.119  47.768   7.390  1.00  0.00    +0.000 O 
BRANCH   87   88
ATOM     89  O4  UNL A   1       8.792  45.546   7.681  1.00  0.00    +0.000 O 
ATOM     88  C64 UNL A   1       8.455  46.480   6.972  1.00  0.00    +0.000 C 
BRANCH   88   90
ATOM     90  N7  UNL A   1       8.361  46.316   5.613  1.00  0.00    +0.000 N 
ATOM    141  H38 UNL A   1       7.514  46.561   5.175  1.00  0.00    +0.000 H 
BRANCH   90   91
ATOM     91  C65 UNL A   1       9.428  45.808   4.783  1.00  0.00    +0.000 C 
ATOM    142  H39 UNL A   1       9.337  44.744   4.736  1.00  0.00    +0.000 H 
ATOM    143  H40 UNL A   1      10.344  46.131   5.232  1.00  0.00    +0.000 H 
BRANCH   91   92
ATOM    145  H42 UNL A   1      10.448  46.631   3.179  1.00  0.00    +0.000 H 
ATOM     92  C66 UNL A   1       9.430  46.352   3.353  1.00  0.00    +0.000 C 
ATOM    144  H41 UNL A   1       9.040  45.580   2.721  1.00  0.00    +0.000 H 
BRANCH   92   93
ATOM    146  H43 UNL A   1       8.224  47.958   3.990  1.00  0.00    +0.000 H 
ATOM    147  H44 UNL A   1       7.946  47.313   2.299  1.00  0.00    +0.000 H 
ATOM     93  C67 UNL A   1       8.631  47.628   3.058  1.00  0.00    +0.000 C 
BRANCH   93   94
ATOM     97  C71 UNL A   1      10.680  50.927   1.142  1.00  0.00    +0.000 C 
ATOM     98  C72 UNL A   1      11.285  49.682   1.277  1.00  0.00    +0.000 C 
ATOM     99  C73 UNL A   1      10.600  48.641   1.909  1.00  0.00    +0.000 C 
ATOM    148  H45 UNL A   1       7.773  50.253   2.666  1.00  0.00    +0.000 H 
ATOM    149  H46 UNL A   1       8.948  52.050   1.546  1.00  0.00    +0.000 H 
ATOM    150  H47 UNL A   1      11.179  51.697   0.670  1.00  0.00    +0.000 H 
ATOM    151  H48 UNL A   1      12.237  49.527   0.912  1.00  0.00    +0.000 H 
ATOM    152  H49 UNL A   1      11.053  47.718   1.996  1.00  0.00    +0.000 H 
ATOM     94  C68 UNL A   1       9.306  48.827   2.430  1.00  0.00    +0.000 C 
ATOM     95  C69 UNL A   1       8.720  50.087   2.290  1.00  0.00    +0.000 C 
ATOM     96  C70 UNL A   1       9.399  51.128   1.647  1.00  0.00    +0.000 C 
ENDBRANCH   93   94
ENDBRANCH   92   93
ENDBRANCH   91   92
ENDBRANCH   90   91
ENDBRANCH   88   90
ENDBRANCH   87   88
ENDBRANCH   86   87
ENDBRANCH   81   82
ENDBRANCH    2   78
ENDBRANCH    3    2
ENDBRANCH    5    3
ENDBRANCH    6    5
ENDBRANCH    7    6
ENDBRANCH    8    7
ENDBRANCH    9    8
ENDBRANCH   10    9
ENDBRANCH   11   10
ENDBRANCH   12   11
ENDBRANCH   13   12
ENDBRANCH   15   13
ENDBRANCH   19   18
BRANCH   23   24
ATOM     33  C24 UNL A   1      13.509  56.572   4.732  1.00  0.00    +0.000 C 
ATOM     34  F5  UNL A   1      12.619  56.144   3.824  1.00  0.00    +0.000 F 
ATOM     24  C19 UNL A   1      14.800  56.023   4.773  1.00  0.00    +0.000 C 
ATOM     25  C20 UNL A   1      15.690  56.511   5.740  1.00  0.00    +0.000 C 
ATOM     26  F1  UNL A   1      16.931  56.010   5.828  1.00  0.00    +0.000 F 
ATOM     27  C21 UNL A   1      15.297  57.490   6.649  1.00  0.00    +0.000 C 
ATOM     28  F2  UNL A   1      16.150  57.907   7.595  1.00  0.00    +0.000 F 
ATOM     29  C22 UNL A   1      14.018  58.023   6.586  1.00  0.00    +0.000 C 
ATOM     30  F3  UNL A   1      13.641  58.968   7.459  1.00  0.00    +0.000 F 
ATOM     31  C23 UNL A   1      13.127  57.571   5.625  1.00  0.00    +0.000 C 
ATOM     32  F4  UNL A   1      11.894  58.092   5.557  1.00  0.00    +0.000 F 
ENDBRANCH   23   24
BRANCH   40   41
ATOM     41  C30 UNL A   1      18.094  55.622  -1.627  1.00  0.00    +0.000 C 
ATOM     42  C31 UNL A   1      17.402  56.114  -2.744  1.00  0.00    +0.000 C 
ATOM     43  F6  UNL A   1      16.145  55.714  -2.988  1.00  0.00    +0.000 F 
ATOM     44  C32 UNL A   1      18.015  56.991  -3.633  1.00  0.00    +0.000 C 
ATOM     45  F7  UNL A   1      17.350  57.417  -4.716  1.00  0.00    +0.000 F 
ATOM     46  C33 UNL A   1      19.316  57.416  -3.409  1.00  0.00    +0.000 C 
ATOM     47  F8  UNL A   1      19.902  58.265  -4.263  1.00  0.00    +0.000 F 
ATOM     48  C34 UNL A   1      20.012  56.954  -2.301  1.00  0.00    +0.000 C 
ATOM     49  F9  UNL A   1      21.267  57.372  -2.078  1.00  0.00    +0.000 F 
ATOM     50  C35 UNL A   1      19.412  56.056  -1.424  1.00  0.00    +0.000 C 
ATOM     51  F10 UNL A   1      20.114  55.618  -0.368  1.00  0.00    +0.000 F 
ENDBRANCH   40   41
BRANCH   55   56
ATOM     65  C44 UNL A   1      18.280  48.025  -1.591  1.00  0.00    +0.000 C 
ATOM     66  F15 UNL A   1      19.180  48.311  -0.639  1.00  0.00    +0.000 F 
ATOM     56  C39 UNL A   1      17.072  48.734  -1.651  1.00  0.00    +0.000 C 
ATOM     57  C40 UNL A   1      16.167  48.400  -2.669  1.00  0.00    +0.000 C 
ATOM     58  F11 UNL A   1      14.991  49.038  -2.753  1.00  0.00    +0.000 F 
ATOM     59  C41 UNL A   1      16.453  47.386  -3.580  1.00  0.00    +0.000 C 
ATOM     60  F12 UNL A   1      15.553  47.060  -4.519  1.00  0.00    +0.000 F 
ATOM     61  C42 UNL A   1      17.657  46.704  -3.508  1.00  0.00    +0.000 C 
ATOM     62  F13 UNL A   1      17.933  45.732  -4.387  1.00  0.00    +0.000 F 
ATOM     63  C43 UNL A   1      18.574  47.027  -2.518  1.00  0.00    +0.000 C 
ATOM     64  F14 UNL A   1      19.745  46.379  -2.453  1.00  0.00    +0.000 F 
ENDBRANCH   55   56
TORSDOF 25
ENDMDL
MODEL 3
REMARK VINA RESULT:      -7.3     41.500     48.249
ROOT
ATOM    129  H26 UNL A   1      48.453  11.687  49.317  1.00  0.00    +0.000 H 
ATOM    130  H27 UNL A   1      52.238  14.634  50.826  1.00  0.00    +0.000 H 
ATOM    131  H28 UNL A   1      52.702  12.890  52.643  1.00  0.00    +0.000 H 
ATOM    132  H29 UNL A   1      44.736   7.541  49.664  1.00  0.00    +0.000 H 
ATOM    133  H30 UNL A   1      44.532   9.013  47.579  1.00  0.00    +0.000 H 
ATOM     19  C15 UNL A   1      46.337  11.216  47.551  1.00  0.00    +0.000 C 
ATOM     20  C16 UNL A   1      46.272  10.096  48.550  1.00  0.00    +0.000 C 
ATOM     21  N3  UNL A   1      47.015   9.883  49.607  1.00  0.00    +0.000 N 
ATOM     22  C17 UNL A   1      46.503   8.739  50.205  1.00  0.00    +0.000 C 
ATOM     23  C18 UNL A   1      46.960   8.080  51.295  1.00  0.00    +0.000 C 
ATOM     35  C25 UNL A   1      48.119   8.471  52.055  1.00  0.00    +0.000 C 
ATOM     36  C26 UNL A   1      48.701   7.831  53.135  1.00  0.00    +0.000 C 
ATOM     37  C27 UNL A   1      49.786   8.601  53.567  1.00  0.00    +0.000 C 
ATOM     38  C28 UNL A   1      49.905   9.700  52.731  1.00  0.00    +0.000 C 
ATOM     39  N4  UNL A   1      48.874   9.609  51.810  1.00  0.00    +0.000 N 
ATOM     40  C29 UNL A   1      50.883  10.756  52.768  1.00  0.00    +0.000 C 
ATOM     52  C36 UNL A   1      50.941  11.795  51.901  1.00  0.00    +0.000 C 
ATOM     53  N5  UNL A   1      50.117  12.075  50.820  1.00  0.00    +0.000 N 
ATOM     54  C37 UNL A   1      50.570  13.189  50.302  1.00  0.00    +0.000 C 
ATOM     55  C38 UNL A   1      50.077  13.946  49.098  1.00  0.00    +0.000 C 
ATOM     67  C45 UNL A   1      49.038  13.459  48.393  1.00  0.00    +0.000 C 
ATOM     68  C46 UNL A   1      48.456  14.075  47.205  1.00  0.00    +0.000 C 
ATOM     69  C47 UNL A   1      47.415  13.335  46.793  1.00  0.00    +0.000 C 
ATOM     70  C48 UNL A   1      47.276  12.173  47.671  1.00  0.00    +0.000 C 
ATOM     71  N6  UNL A   1      48.285  12.327  48.589  1.00  0.00    +0.000 N 
ATOM     72  C49 UNL A   1      51.724  13.759  51.012  1.00  0.00    +0.000 C 
ATOM     73  C50 UNL A   1      51.932  12.850  51.956  1.00  0.00    +0.000 C 
ATOM     74  C51 UNL A   1      45.358   8.329  49.421  1.00  0.00    +0.000 C 
ATOM     75  C52 UNL A   1      45.211   9.095  48.350  1.00  0.00    +0.000 C 
ATOM    124  H21 UNL A   1      48.389   6.940  53.549  1.00  0.00    +0.000 H 
ATOM    125  H22 UNL A   1      50.395   8.387  54.372  1.00  0.00    +0.000 H 
ATOM    126  H23 UNL A   1      48.702  10.256  51.088  1.00  0.00    +0.000 H 
ATOM    127  H24 UNL A   1      48.793  14.942  46.755  1.00  0.00    +0.000 H 
ATOM    128  H25 UNL A   1      46.810  13.552  45.986  1.00  0.00    +0.000 H 
ENDROOT
BRANCH   19   18
ATOM    134  H31 UNL A   1      46.421  10.116  45.111  1.00  0.00    +0.000 H 
ATOM    135  H32 UNL A   1      44.825  10.327  43.299  1.00  0.00    +0.000 H 
ATOM     76  C53 UNL A   1      45.555  10.661  45.248  1.00  0.00    +0.000 C 
ATOM     77  C54 UNL A   1      44.621  10.746  44.219  1.00  0.00    +0.000 C 
ATOM     15  C11 UNL A   1      43.405  11.402  44.435  1.00  0.00    +0.000 C 
ATOM     16  C12 UNL A   1      43.176  12.077  45.637  1.00  0.00    +0.000 C 
ATOM     17  C13 UNL A   1      44.141  12.045  46.645  1.00  0.00    +0.000 C 
ATOM     18  C14 UNL A   1      45.325  11.311  46.470  1.00  0.00    +0.000 C 
ATOM    122  H19 UNL A   1      42.296  12.597  45.778  1.00  0.00    +0.000 H 
ATOM    123  H20 UNL A   1      43.983  12.563  47.524  1.00  0.00    +0.000 H 
BRANCH   15   13
ATOM     13  C10 UNL A   1      42.347  11.405  43.402  1.00  0.00    +0.000 C 
ATOM     14  O2  UNL A   1      41.480  10.537  43.416  1.00  0.00    +0.000 O 
BRANCH   13   12
ATOM    121  H18 UNL A   1      42.831  13.195  42.642  1.00  0.00    +0.000 H 
ATOM     12  N2  UNL A   1      42.350  12.366  42.421  1.00  0.00    +0.000 N 
BRANCH   12   11
ATOM     11  C9  UNL A   1      41.742  12.327  41.101  1.00  0.00    +0.000 C 
ATOM    119  H16 UNL A   1      42.450  11.924  40.408  1.00  0.00    +0.000 H 
ATOM    120  H17 UNL A   1      40.864  11.717  41.164  1.00  0.00    +0.000 H 
BRANCH   11   10
ATOM     10  C8  UNL A   1      41.314  13.709  40.618  1.00  0.00    +0.000 C 
ATOM    117  H14 UNL A   1      41.381  13.723  39.551  1.00  0.00    +0.000 H 
ATOM    118  H15 UNL A   1      40.320  13.860  40.982  1.00  0.00    +0.000 H 
BRANCH   10    9
ATOM      9  C7  UNL A   1      42.152  14.867  41.164  1.00  0.00    +0.000 C 
ATOM    115  H12 UNL A   1      41.507  15.502  41.735  1.00  0.00    +0.000 H 
ATOM    116  H13 UNL A   1      42.933  14.422  41.743  1.00  0.00    +0.000 H 
BRANCH    9    8
ATOM    113  H10 UNL A   1      43.074  15.096  39.269  1.00  0.00    +0.000 H 
ATOM    114  H11 UNL A   1      42.158  16.514  39.871  1.00  0.00    +0.000 H 
ATOM      8  C6  UNL A   1      42.844  15.725  40.102  1.00  0.00    +0.000 C 
BRANCH    8    7
ATOM    111  H8  UNL A   1      44.760  15.676  41.022  1.00  0.00    +0.000 H 
ATOM      7  C5  UNL A   1      44.142  16.411  40.550  1.00  0.00    +0.000 C 
ATOM    112  H9  UNL A   1      44.579  16.831  39.668  1.00  0.00    +0.000 H 
BRANCH    7    6
ATOM    110  H7  UNL A   1      42.923  17.863  41.520  1.00  0.00    +0.000 H 
ATOM    109  H6  UNL A   1      44.578  18.391  41.228  1.00  0.00    +0.000 H 
ATOM      6  C4  UNL A   1      43.955  17.576  41.530  1.00  0.00    +0.000 C 
BRANCH    6    5
ATOM    108  H5  UNL A   1      43.566  17.005  43.504  1.00  0.00    +0.000 H 
ATOM      5  N1  UNL A   1      44.306  17.190  42.883  1.00  0.00    +0.000 N 
BRANCH    5    3
ATOM      3  C3  UNL A   1      45.580  17.060  43.368  1.00  0.00    +0.000 C 
ATOM      4  O1  UNL A   1      46.414  17.849  42.927  1.00  0.00    +0.000 O 
BRANCH    3    2
ATOM      2  C2  UNL A   1      45.871  15.975  44.419  1.00  0.00    +0.000 C 
ATOM    107  H4  UNL A   1      46.936  15.975  44.523  1.00  0.00    +0.000 H 
BRANCH    2    1
ATOM      1  C1  UNL A   1      45.321  14.634  43.914  1.00  0.00    +0.000 C 
ATOM    106  H3  UNL A   1      44.710  14.191  44.671  1.00  0.00    +0.000 H 
ATOM    105  H2  UNL A   1      44.737  14.797  43.033  1.00  0.00    +0.000 H 
ATOM    104  H1  UNL A   1      46.136  13.978  43.685  1.00  0.00    +0.000 H 
ENDBRANCH    2    1
BRANCH    2   78
ATOM    101  C75 UNL A   1      43.999  15.690  47.776  1.00  0.00    +0.000 C 
ATOM    102  F16 UNL A   1      43.006  14.945  48.288  1.00  0.00    +0.000 F 
ATOM    103  C76 UNL A   1      44.300  15.529  46.425  1.00  0.00    +0.000 C 
ATOM    136  H33 UNL A   1      46.746  17.783  46.211  1.00  0.00    +0.000 H 
ATOM    137  H34 UNL A   1      46.231  18.035  48.559  1.00  0.00    +0.000 H 
ATOM     78  C55 UNL A   1      45.355  16.234  45.837  1.00  0.00    +0.000 C 
ATOM     79  C56 UNL A   1      46.020  17.186  46.637  1.00  0.00    +0.000 C 
ATOM     80  C57 UNL A   1      45.718  17.337  47.997  1.00  0.00    +0.000 C 
ATOM     81  C58 UNL A   1      44.729  16.552  48.601  1.00  0.00    +0.000 C 
ATOM    154  H51 UNL A   1      43.737  14.882  45.851  1.00  0.00    +0.000 H 
BRANCH   81   82
ATOM    100  C74 UNL A   1      45.516  15.915  50.865  1.00  0.00    +0.000 C 
ATOM    138  H35 UNL A   1      42.727  17.613  50.117  1.00  0.00    +0.000 H 
ATOM    139  H36 UNL A   1      42.506  17.565  52.531  1.00  0.00    +0.000 H 
ATOM    140  H37 UNL A   1      44.205  16.486  53.890  1.00  0.00    +0.000 H 
ATOM     82  C59 UNL A   1      44.544  16.538  50.059  1.00  0.00    +0.000 C 
ATOM     83  C60 UNL A   1      43.448  17.145  50.687  1.00  0.00    +0.000 C 
ATOM     84  C61 UNL A   1      43.323  17.122  52.081  1.00  0.00    +0.000 C 
ATOM     85  C62 UNL A   1      44.298  16.503  52.863  1.00  0.00    +0.000 C 
ATOM     86  C63 UNL A   1      45.399  15.908  52.250  1.00  0.00    +0.000 C 
ATOM    153  H50 UNL A   1      46.326  15.456  50.420  1.00  0.00    +0.000 H 
BRANCH   86   87
ATOM     87  O3  UNL A   1      46.316  15.263  53.113  1.00  0.00    +0.000 O 
BRANCH   87   88
ATOM     89  O4  UNL A   1      47.793  13.450  53.154  1.00  0.00    +0.000 O 
ATOM     88  C64 UNL A   1      46.673  13.917  53.032  1.00  0.00    +0.000 C 
BRANCH   88   90
ATOM     90  N7  UNL A   1      45.601  13.091  52.805  1.00  0.00    +0.000 N 
ATOM    141  H38 UNL A   1      44.828  13.160  53.412  1.00  0.00    +0.000 H 
BRANCH   90   91
ATOM     91  C65 UNL A   1      45.535  12.127  51.732  1.00  0.00    +0.000 C 
ATOM    142  H39 UNL A   1      45.133  11.217  52.125  1.00  0.00    +0.000 H 
ATOM    143  H40 UNL A   1      46.532  12.018  51.358  1.00  0.00    +0.000 H 
BRANCH   91   92
ATOM    145  H42 UNL A   1      44.414  13.576  50.765  1.00  0.00    +0.000 H 
ATOM     92  C66 UNL A   1      44.670  12.560  50.547  1.00  0.00    +0.000 C 
ATOM    144  H41 UNL A   1      45.248  12.402  49.659  1.00  0.00    +0.000 H 
BRANCH   92   93
ATOM    146  H43 UNL A   1      43.443  10.851  50.654  1.00  0.00    +0.000 H 
ATOM    147  H44 UNL A   1      43.114  12.043  49.303  1.00  0.00    +0.000 H 
ATOM     93  C67 UNL A   1      43.318  11.865  50.339  1.00  0.00    +0.000 C 
BRANCH   93   94
ATOM     97  C71 UNL A   1      39.782  13.533  52.198  1.00  0.00    +0.000 C 
ATOM     98  C72 UNL A   1      40.812  14.349  51.746  1.00  0.00    +0.000 C 
ATOM     99  C73 UNL A   1      41.945  13.779  51.160  1.00  0.00    +0.000 C 
ATOM    148  H45 UNL A   1      41.101  10.555  51.411  1.00  0.00    +0.000 H 
ATOM    149  H46 UNL A   1      39.126  11.545  52.402  1.00  0.00    +0.000 H 
ATOM    150  H47 UNL A   1      38.940  13.950  52.626  1.00  0.00    +0.000 H 
ATOM    151  H48 UNL A   1      40.742  15.373  51.844  1.00  0.00    +0.000 H 
ATOM    152  H49 UNL A   1      42.700  14.392  50.818  1.00  0.00    +0.000 H 
ATOM     94  C68 UNL A   1      42.076  12.384  51.026  1.00  0.00    +0.000 C 
ATOM     95  C69 UNL A   1      41.031  11.582  51.493  1.00  0.00    +0.000 C 
ATOM     96  C70 UNL A   1      39.891  12.152  52.070  1.00  0.00    +0.000 C 
ENDBRANCH   93   94
ENDBRANCH   92   93
ENDBRANCH   91   92
ENDBRANCH   90   91
ENDBRANCH   88   90
ENDBRANCH   87   88
ENDBRANCH   86   87
ENDBRANCH   81   82
ENDBRANCH    2   78
ENDBRANCH    3    2
ENDBRANCH    5    3
ENDBRANCH    6    5
ENDBRANCH    7    6
ENDBRANCH    8    7
ENDBRANCH    9    8
ENDBRANCH   10    9
ENDBRANCH   11   10
ENDBRANCH   12   11
ENDBRANCH   13   12
ENDBRANCH   15   13
ENDBRANCH   19   18
BRANCH   23   24
ATOM     33  C24 UNL A   1      46.679   5.578  51.414  1.00  0.00    +0.000 C 
ATOM     34  F5  UNL A   1      47.827   5.428  50.735  1.00  0.00    +0.000 F 
ATOM     24  C19 UNL A   1      46.205   6.859  51.732  1.00  0.00    +0.000 C 
ATOM     25  C20 UNL A   1      44.998   6.956  52.439  1.00  0.00    +0.000 C 
ATOM     26  F1  UNL A   1      44.509   8.158  52.777  1.00  0.00    +0.000 F 
ATOM     27  C21 UNL A   1      44.307   5.815  52.837  1.00  0.00    +0.000 C 
ATOM     28  F2  UNL A   1      43.180   5.931  53.553  1.00  0.00    +0.000 F 
ATOM     29  C22 UNL A   1      44.790   4.558  52.506  1.00  0.00    +0.000 C 
ATOM     30  F3  UNL A   1      44.122   3.460  52.887  1.00  0.00    +0.000 F 
ATOM     31  C23 UNL A   1      45.971   4.438  51.789  1.00  0.00    +0.000 C 
ATOM     32  F4  UNL A   1      46.434   3.225  51.461  1.00  0.00    +0.000 F 
ENDBRANCH   23   24
BRANCH   40   41
ATOM     41  C30 UNL A   1      51.934  10.696  53.837  1.00  0.00    +0.000 C 
ATOM     42  C31 UNL A   1      51.737  11.285  55.094  1.00  0.00    +0.000 C 
ATOM     43  F6  UNL A   1      50.610  11.967  55.349  1.00  0.00    +0.000 F 
ATOM     44  C32 UNL A   1      52.714  11.205  56.082  1.00  0.00    +0.000 C 
ATOM     45  F7  UNL A   1      52.522  11.811  57.262  1.00  0.00    +0.000 F 
ATOM     46  C33 UNL A   1      53.891  10.511  55.843  1.00  0.00    +0.000 C 
ATOM     47  F8  UNL A   1      54.828  10.431  56.797  1.00  0.00    +0.000 F 
ATOM     48  C34 UNL A   1      54.100   9.907  54.612  1.00  0.00    +0.000 C 
ATOM     49  F9  UNL A   1      55.233   9.228  54.384  1.00  0.00    +0.000 F 
ATOM     50  C35 UNL A   1      53.136  10.007  53.613  1.00  0.00    +0.000 C 
ATOM     51  F10 UNL A   1      53.370   9.422  52.429  1.00  0.00    +0.000 F 
ENDBRANCH   40   41
BRANCH   55   56
ATOM     65  C44 UNL A   1      50.284  16.455  49.095  1.00  0.00    +0.000 C 
ATOM     66  F15 UNL A   1      49.227  16.540  49.917  1.00  0.00    +0.000 F 
ATOM     56  C39 UNL A   1      50.740  15.202  48.665  1.00  0.00    +0.000 C 
ATOM     57  C40 UNL A   1      51.845  15.168  47.802  1.00  0.00    +0.000 C 
ATOM     58  F11 UNL A   1      52.328  13.990  47.382  1.00  0.00    +0.000 F 
ATOM     59  C41 UNL A   1      52.477  16.341  47.399  1.00  0.00    +0.000 C 
ATOM     60  F12 UNL A   1      53.556  16.279  46.605  1.00  0.00    +0.000 F 
ATOM     61  C42 UNL A   1      52.004  17.571  47.829  1.00  0.00    +0.000 C 
ATOM     62  F13 UNL A   1      52.610  18.699  47.437  1.00  0.00    +0.000 F 
ATOM     63  C43 UNL A   1      50.903  17.630  48.671  1.00  0.00    +0.000 C 
ATOM     64  F14 UNL A   1      50.434  18.817  49.079  1.00  0.00    +0.000 F 
ENDBRANCH   55   56
TORSDOF 25
ENDMDL
MODEL 4
REMARK VINA RESULT:      -7.3     41.708     48.046
ROOT
ATOM    129  H26 UNL A   1      48.573  12.708  48.648  1.00  0.00    +0.000 H 
ATOM    130  H27 UNL A   1      51.721  16.549  49.439  1.00  0.00    +0.000 H 
ATOM    131  H28 UNL A   1      52.588  15.253  51.469  1.00  0.00    +0.000 H 
ATOM    132  H29 UNL A   1      45.796   8.027  49.868  1.00  0.00    +0.000 H 
ATOM    133  H30 UNL A   1      45.229   9.066  47.599  1.00  0.00    +0.000 H 
ATOM     19  C15 UNL A   1      46.543  11.546  47.115  1.00  0.00    +0.000 C 
ATOM     20  C16 UNL A   1      46.741  10.615  48.278  1.00  0.00    +0.000 C 
ATOM     21  N3  UNL A   1      47.544  10.729  49.305  1.00  0.00    +0.000 N 
ATOM     22  C17 UNL A   1      47.297   9.621  50.103  1.00  0.00    +0.000 C 
ATOM     23  C18 UNL A   1      47.913   9.252  51.251  1.00  0.00    +0.000 C 
ATOM     35  C25 UNL A   1      48.990   9.983  51.865  1.00  0.00    +0.000 C 
ATOM     36  C26 UNL A   1      49.724   9.657  52.992  1.00  0.00    +0.000 C 
ATOM     37  C27 UNL A   1      50.643  10.685  53.229  1.00  0.00    +0.000 C 
ATOM     38  C28 UNL A   1      50.507  11.633  52.228  1.00  0.00    +0.000 C 
ATOM     39  N4  UNL A   1      49.488  11.192  51.400  1.00  0.00    +0.000 N 
ATOM     40  C29 UNL A   1      51.250  12.853  52.039  1.00  0.00    +0.000 C 
ATOM     52  C36 UNL A   1      51.067  13.726  51.020  1.00  0.00    +0.000 C 
ATOM     53  N5  UNL A   1      50.169  13.657  49.964  1.00  0.00    +0.000 N 
ATOM     54  C37 UNL A   1      50.368  14.739  49.251  1.00  0.00    +0.000 C 
ATOM     55  C38 UNL A   1      49.693  15.175  47.980  1.00  0.00    +0.000 C 
ATOM     67  C45 UNL A   1      48.754  14.385  47.427  1.00  0.00    +0.000 C 
ATOM     68  C46 UNL A   1      48.021  14.671  46.197  1.00  0.00    +0.000 C 
ATOM     69  C47 UNL A   1      47.141  13.683  45.971  1.00  0.00    +0.000 C 
ATOM     70  C48 UNL A   1      47.270  12.676  47.026  1.00  0.00    +0.000 C 
ATOM     71  N6  UNL A   1      48.255  13.175  47.842  1.00  0.00    +0.000 N 
ATOM     72  C49 UNL A   1      51.403  15.633  49.791  1.00  0.00    +0.000 C 
ATOM     73  C50 UNL A   1      51.822  14.951  50.848  1.00  0.00    +0.000 C 
ATOM     74  C51 UNL A   1      46.235   8.870  49.467  1.00  0.00    +0.000 C 
ATOM     75  C52 UNL A   1      45.901   9.406  48.303  1.00  0.00    +0.000 C 
ATOM    124  H21 UNL A   1      49.615   8.801  53.558  1.00  0.00    +0.000 H 
ATOM    125  H22 UNL A   1      51.308  10.731  54.017  1.00  0.00    +0.000 H 
ATOM    126  H23 UNL A   1      49.165  11.665  50.599  1.00  0.00    +0.000 H 
ATOM    127  H24 UNL A   1      48.159  15.501  45.598  1.00  0.00    +0.000 H 
ATOM    128  H25 UNL A   1      46.479  13.641  45.181  1.00  0.00    +0.000 H 
ENDROOT
BRANCH   19   18
ATOM    134  H31 UNL A   1      43.973  12.297  47.136  1.00  0.00    +0.000 H 
ATOM    135  H32 UNL A   1      42.230  11.774  45.535  1.00  0.00    +0.000 H 
ATOM     76  C53 UNL A   1      44.196  11.743  46.294  1.00  0.00    +0.000 C 
ATOM     77  C54 UNL A   1      43.202  11.480  45.355  1.00  0.00    +0.000 C 
ATOM     15  C11 UNL A   1      43.524  10.814  44.168  1.00  0.00    +0.000 C 
ATOM     16  C12 UNL A   1      44.811  10.306  43.976  1.00  0.00    +0.000 C 
ATOM     17  C13 UNL A   1      45.792  10.515  44.947  1.00  0.00    +0.000 C 
ATOM     18  C14 UNL A   1      45.500  11.262  46.100  1.00  0.00    +0.000 C 
ATOM    122  H19 UNL A   1      45.036   9.777  43.118  1.00  0.00    +0.000 H 
ATOM    123  H20 UNL A   1      46.737  10.120  44.817  1.00  0.00    +0.000 H 
BRANCH   15   13
ATOM     13  C10 UNL A   1      42.516  10.627  43.102  1.00  0.00    +0.000 C 
ATOM     14  O2  UNL A   1      42.525   9.601  42.429  1.00  0.00    +0.000 O 
BRANCH   13   12
ATOM    121  H18 UNL A   1      41.067  11.905  43.636  1.00  0.00    +0.000 H 
ATOM     12  N2  UNL A   1      41.589  11.610  42.856  1.00  0.00    +0.000 N 
BRANCH   12   11
ATOM     11  C9  UNL A   1      41.272  12.274  41.602  1.00  0.00    +0.000 C 
ATOM    119  H16 UNL A   1      41.763  11.756  40.805  1.00  0.00    +0.000 H 
ATOM    120  H17 UNL A   1      40.208  12.257  41.484  1.00  0.00    +0.000 H 
BRANCH   11   10
ATOM     10  C8  UNL A   1      41.718  13.732  41.589  1.00  0.00    +0.000 C 
ATOM    117  H14 UNL A   1      41.000  14.304  42.139  1.00  0.00    +0.000 H 
ATOM    118  H15 UNL A   1      42.696  13.752  42.022  1.00  0.00    +0.000 H 
BRANCH   10    9
ATOM      9  C7  UNL A   1      41.852  14.350  40.196  1.00  0.00    +0.000 C 
ATOM    115  H12 UNL A   1      41.812  13.557  39.478  1.00  0.00    +0.000 H 
ATOM    116  H13 UNL A   1      41.049  15.050  40.103  1.00  0.00    +0.000 H 
BRANCH    9    8
ATOM    113  H10 UNL A   1      43.860  14.826  40.682  1.00  0.00    +0.000 H 
ATOM    114  H11 UNL A   1      43.426  14.935  38.946  1.00  0.00    +0.000 H 
ATOM      8  C6  UNL A   1      43.140  15.141  39.957  1.00  0.00    +0.000 C 
BRANCH    8    7
ATOM    111  H8  UNL A   1      43.307  17.088  39.120  1.00  0.00    +0.000 H 
ATOM      7  C5  UNL A   1      43.005  16.667  40.056  1.00  0.00    +0.000 C 
ATOM    112  H9  UNL A   1      41.982  16.863  40.298  1.00  0.00    +0.000 H 
BRANCH    7    6
ATOM    110  H7  UNL A   1      43.476  16.974  42.110  1.00  0.00    +0.000 H 
ATOM    109  H6  UNL A   1      43.748  18.384  41.089  1.00  0.00    +0.000 H 
ATOM      6  C4  UNL A   1      43.840  17.321  41.164  1.00  0.00    +0.000 C 
BRANCH    6    5
ATOM    108  H5  UNL A   1      45.607  16.852  40.148  1.00  0.00    +0.000 H 
ATOM      5  N1  UNL A   1      45.239  16.959  41.055  1.00  0.00    +0.000 N 
BRANCH    5    3
ATOM      3  C3  UNL A   1      46.093  16.754  42.106  1.00  0.00    +0.000 C 
ATOM      4  O1  UNL A   1      46.957  15.892  41.946  1.00  0.00    +0.000 O 
BRANCH    3    2
ATOM      2  C2  UNL A   1      45.929  17.605  43.377  1.00  0.00    +0.000 C 
ATOM    107  H4  UNL A   1      45.165  18.313  43.134  1.00  0.00    +0.000 H 
BRANCH    2    1
ATOM      1  C1  UNL A   1      47.273  18.268  43.708  1.00  0.00    +0.000 C 
ATOM    106  H3  UNL A   1      47.116  19.063  44.405  1.00  0.00    +0.000 H 
ATOM    105  H2  UNL A   1      47.933  17.542  44.135  1.00  0.00    +0.000 H 
ATOM    104  H1  UNL A   1      47.707  18.660  42.810  1.00  0.00    +0.000 H 
ENDBRANCH    2    1
BRANCH    2   78
ATOM    101  C75 UNL A   1      45.053  16.685  47.015  1.00  0.00    +0.000 C 
ATOM    102  F16 UNL A   1      45.368  17.124  48.245  1.00  0.00    +0.000 F 
ATOM    103  C76 UNL A   1      45.711  17.261  45.931  1.00  0.00    +0.000 C 
ATOM    136  H33 UNL A   1      44.283  15.478  43.504  1.00  0.00    +0.000 H 
ATOM    137  H34 UNL A   1      43.131  14.502  45.391  1.00  0.00    +0.000 H 
ATOM     78  C55 UNL A   1      45.396  16.888  44.621  1.00  0.00    +0.000 C 
ATOM     79  C56 UNL A   1      44.474  15.835  44.454  1.00  0.00    +0.000 C 
ATOM     80  C57 UNL A   1      43.810  15.264  45.548  1.00  0.00    +0.000 C 
ATOM     81  C58 UNL A   1      44.056  15.716  46.849  1.00  0.00    +0.000 C 
ATOM    154  H51 UNL A   1      46.439  17.973  46.097  1.00  0.00    +0.000 H 
BRANCH   81   82
ATOM    100  C74 UNL A   1      43.418  14.007  48.528  1.00  0.00    +0.000 C 
ATOM    138  H35 UNL A   1      42.097  17.066  48.181  1.00  0.00    +0.000 H 
ATOM    139  H36 UNL A   1      40.777  16.294  50.063  1.00  0.00    +0.000 H 
ATOM    140  H37 UNL A   1      41.146  14.077  50.984  1.00  0.00    +0.000 H 
ATOM     82  C59 UNL A   1      43.222  15.289  47.982  1.00  0.00    +0.000 C 
ATOM     83  C60 UNL A   1      42.253  16.120  48.561  1.00  0.00    +0.000 C 
ATOM     84  C61 UNL A   1      41.494  15.677  49.651  1.00  0.00    +0.000 C 
ATOM     85  C62 UNL A   1      41.705  14.404  50.181  1.00  0.00    +0.000 C 
ATOM     86  C63 UNL A   1      42.676  13.575  49.622  1.00  0.00    +0.000 C 
ATOM    153  H50 UNL A   1      44.122  13.378  48.111  1.00  0.00    +0.000 H 
BRANCH   86   87
ATOM     87  O3  UNL A   1      42.793  12.285  50.191  1.00  0.00    +0.000 O 
BRANCH   87   88
ATOM     89  O4  UNL A   1      44.849  11.834  51.210  1.00  0.00    +0.000 O 
ATOM     88  C64 UNL A   1      43.636  11.957  51.252  1.00  0.00    +0.000 C 
BRANCH   88   90
ATOM     90  N7  UNL A   1      42.965  11.784  52.437  1.00  0.00    +0.000 N 
ATOM    141  H38 UNL A   1      43.145  12.420  53.166  1.00  0.00    +0.000 H 
BRANCH   90   91
ATOM     91  C65 UNL A   1      42.011  10.728  52.680  1.00  0.00    +0.000 C 
ATOM    142  H39 UNL A   1      42.427  10.063  53.406  1.00  0.00    +0.000 H 
ATOM    143  H40 UNL A   1      41.831  10.257  51.736  1.00  0.00    +0.000 H 
BRANCH   91   92
ATOM    145  H42 UNL A   1      39.978  10.420  52.932  1.00  0.00    +0.000 H 
ATOM     92  C66 UNL A   1      40.653  11.210  53.192  1.00  0.00    +0.000 C 
ATOM    144  H41 UNL A   1      40.762  11.407  54.239  1.00  0.00    +0.000 H 
BRANCH   92   93
ATOM    146  H43 UNL A   1      39.305  12.119  51.852  1.00  0.00    +0.000 H 
ATOM    147  H44 UNL A   1      40.888  12.983  52.173  1.00  0.00    +0.000 H 
ATOM     93  C67 UNL A   1      40.035  12.461  52.555  1.00  0.00    +0.000 C 
BRANCH   93   94
ATOM     97  C71 UNL A   1      38.034  15.548  54.837  1.00  0.00    +0.000 C 
ATOM     98  C72 UNL A   1      38.590  15.817  53.592  1.00  0.00    +0.000 C 
ATOM     99  C73 UNL A   1      39.238  14.801  52.885  1.00  0.00    +0.000 C 
ATOM    148  H45 UNL A   1      38.870  12.313  55.085  1.00  0.00    +0.000 H 
ATOM    149  H46 UNL A   1      37.722  14.067  56.298  1.00  0.00    +0.000 H 
ATOM    150  H47 UNL A   1      37.549  16.294  55.360  1.00  0.00    +0.000 H 
ATOM    151  H48 UNL A   1      38.525  16.765  53.190  1.00  0.00    +0.000 H 
ATOM    152  H49 UNL A   1      39.638  15.007  51.957  1.00  0.00    +0.000 H 
ATOM     94  C68 UNL A   1      39.355  13.503  53.414  1.00  0.00    +0.000 C 
ATOM     95  C69 UNL A   1      38.796  13.256  54.670  1.00  0.00    +0.000 C 
ATOM     96  C70 UNL A   1      38.136  14.269  55.375  1.00  0.00    +0.000 C 
ENDBRANCH   93   94
ENDBRANCH   92   93
ENDBRANCH   91   92
ENDBRANCH   90   91
ENDBRANCH   88   90
ENDBRANCH   87   88
ENDBRANCH   86   87
ENDBRANCH   81   82
ENDBRANCH    2   78
ENDBRANCH    3    2
ENDBRANCH    5    3
ENDBRANCH    6    5
ENDBRANCH    7    6
ENDBRANCH    8    7
ENDBRANCH    9    8
ENDBRANCH   10    9
ENDBRANCH   11   10
ENDBRANCH   12   11
ENDBRANCH   13   12
ENDBRANCH   15   13
ENDBRANCH   19   18
BRANCH   23   24
ATOM     33  C24 UNL A   1      48.056   6.767  51.645  1.00  0.00    +0.000 C 
ATOM     34  F5  UNL A   1      49.097   6.705  50.799  1.00  0.00    +0.000 F 
ATOM     24  C19 UNL A   1      47.438   7.995  51.918  1.00  0.00    +0.000 C 
ATOM     25  C20 UNL A   1      46.352   8.000  52.806  1.00  0.00    +0.000 C 
ATOM     26  F1  UNL A   1      45.734   9.152  53.110  1.00  0.00    +0.000 F 
ATOM     27  C21 UNL A   1      45.920   6.826  53.418  1.00  0.00    +0.000 C 
ATOM     28  F2  UNL A   1      44.911   6.863  54.299  1.00  0.00    +0.000 F 
ATOM     29  C22 UNL A   1      46.543   5.621  53.127  1.00  0.00    +0.000 C 
ATOM     30  F3  UNL A   1      46.124   4.491  53.714  1.00  0.00    +0.000 F 
ATOM     31  C23 UNL A   1      47.605   5.589  52.237  1.00  0.00    +0.000 C 
ATOM     32  F4  UNL A   1      48.201   4.424  51.948  1.00  0.00    +0.000 F 
ENDBRANCH   23   24
BRANCH   40   41
ATOM     41  C30 UNL A   1      52.324  13.177  53.035  1.00  0.00    +0.000 C 
ATOM     42  C31 UNL A   1      53.648  12.753  52.849  1.00  0.00    +0.000 C 
ATOM     43  F6  UNL A   1      53.971  11.995  51.791  1.00  0.00    +0.000 F 
ATOM     44  C32 UNL A   1      54.637  13.078  53.773  1.00  0.00    +0.000 C 
ATOM     45  F7  UNL A   1      55.888  12.627  53.598  1.00  0.00    +0.000 F 
ATOM     46  C33 UNL A   1      54.330  13.854  54.880  1.00  0.00    +0.000 C 
ATOM     47  F8  UNL A   1      55.286  14.171  55.764  1.00  0.00    +0.000 F 
ATOM     48  C34 UNL A   1      53.030  14.298  55.074  1.00  0.00    +0.000 C 
ATOM     49  F9  UNL A   1      52.734  15.057  56.138  1.00  0.00    +0.000 F 
ATOM     50  C35 UNL A   1      52.033  13.954  54.167  1.00  0.00    +0.000 C 
ATOM     51  F10 UNL A   1      50.782  14.387  54.386  1.00  0.00    +0.000 F 
ENDBRANCH   40   41
BRANCH   55   56
ATOM     65  C44 UNL A   1      49.344  17.628  47.529  1.00  0.00    +0.000 C 
ATOM     66  F15 UNL A   1      48.282  17.624  48.348  1.00  0.00    +0.000 F 
ATOM     56  C39 UNL A   1      50.071  16.449  47.316  1.00  0.00    +0.000 C 
ATOM     57  C40 UNL A   1      51.170  16.505  46.447  1.00  0.00    +0.000 C 
ATOM     58  F11 UNL A   1      51.906  15.406  46.229  1.00  0.00    +0.000 F 
ATOM     59  C41 UNL A   1      51.536  17.697  45.829  1.00  0.00    +0.000 C 
ATOM     60  F12 UNL A   1      52.614  17.733  45.032  1.00  0.00    +0.000 F 
ATOM     61  C42 UNL A   1      50.797  18.851  46.046  1.00  0.00    +0.000 C 
ATOM     62  F13 UNL A   1      51.148  19.996  45.447  1.00  0.00    +0.000 F 
ATOM     63  C43 UNL A   1      49.698  18.815  46.891  1.00  0.00    +0.000 C 
ATOM     64  F14 UNL A   1      48.973  19.924  47.094  1.00  0.00    +0.000 F 
ENDBRANCH   55   56
TORSDOF 25
ENDMDL
MODEL 5
REMARK VINA RESULT:      -7.0     51.032     55.941
ROOT
ATOM    129  H26 UNL A   1      14.620  51.643   3.291  1.00  0.00    +0.000 H 
ATOM    130  H27 UNL A   1      13.654  46.802   2.334  1.00  0.00    +0.000 H 
ATOM    131  H28 UNL A   1      15.344  46.975   0.419  1.00  0.00    +0.000 H 
ATOM    132  H29 UNL A   1      16.610  56.761   2.310  1.00  0.00    +0.000 H 
ATOM    133  H30 UNL A   1      15.291  56.507   4.489  1.00  0.00    +0.000 H 
ATOM     19  C15 UNL A   1      14.149  53.922   4.841  1.00  0.00    +0.000 C 
ATOM     20  C16 UNL A   1      15.077  54.374   3.750  1.00  0.00    +0.000 C 
ATOM     21  N3  UNL A   1      15.562  53.696   2.740  1.00  0.00    +0.000 N 
ATOM     22  C17 UNL A   1      16.324  54.598   2.010  1.00  0.00    +0.000 C 
ATOM     23  C18 UNL A   1      17.075  54.371   0.907  1.00  0.00    +0.000 C 
ATOM     35  C25 UNL A   1      17.222  53.085   0.276  1.00  0.00    +0.000 C 
ATOM     36  C26 UNL A   1      18.013  52.739  -0.806  1.00  0.00    +0.000 C 
ATOM     37  C27 UNL A   1      17.803  51.385  -1.086  1.00  0.00    +0.000 C 
ATOM     38  C28 UNL A   1      16.912  50.877  -0.154  1.00  0.00    +0.000 C 
ATOM     39  N4  UNL A   1      16.561  51.932   0.673  1.00  0.00    +0.000 N 
ATOM     40  C29 UNL A   1      16.414  49.532  -0.027  1.00  0.00    +0.000 C 
ATOM     52  C36 UNL A   1      15.550  49.108   0.927  1.00  0.00    +0.000 C 
ATOM     53  N5  UNL A   1      14.970  49.830   1.960  1.00  0.00    +0.000 N 
ATOM     54  C37 UNL A   1      14.204  48.985   2.604  1.00  0.00    +0.000 C 
ATOM     55  C38 UNL A   1      13.354  49.213   3.825  1.00  0.00    +0.000 C 
ATOM     67  C45 UNL A   1      13.344  50.430   4.403  1.00  0.00    +0.000 C 
ATOM     68  C46 UNL A   1      12.579  50.797   5.590  1.00  0.00    +0.000 C 
ATOM     69  C47 UNL A   1      12.781  52.097   5.857  1.00  0.00    +0.000 C 
ATOM     70  C48 UNL A   1      13.718  52.647   4.876  1.00  0.00    +0.000 C 
ATOM     71  N6  UNL A   1      14.002  51.583   4.055  1.00  0.00    +0.000 N 
ATOM     72  C49 UNL A   1      14.192  47.630   2.035  1.00  0.00    +0.000 C 
ATOM     73  C50 UNL A   1      15.058  47.751   1.038  1.00  0.00    +0.000 C 
ATOM     74  C51 UNL A   1      16.201  55.883   2.666  1.00  0.00    +0.000 C 
ATOM     75  C52 UNL A   1      15.495  55.784   3.782  1.00  0.00    +0.000 C 
ATOM    124  H21 UNL A   1      18.649  53.371  -1.316  1.00  0.00    +0.000 H 
ATOM    125  H22 UNL A   1      18.238  50.853  -1.857  1.00  0.00    +0.000 H 
ATOM    126  H23 UNL A   1      15.936  51.873   1.431  1.00  0.00    +0.000 H 
ATOM    127  H24 UNL A   1      11.978  50.159   6.136  1.00  0.00    +0.000 H 
ATOM    128  H25 UNL A   1      12.346  52.624   6.629  1.00  0.00    +0.000 H 
ENDROOT
BRANCH   19   18
ATOM    134  H31 UNL A   1      15.298  54.653   7.147  1.00  0.00    +0.000 H 
ATOM    135  H32 UNL A   1      14.461  56.169   8.843  1.00  0.00    +0.000 H 
ATOM     76  C53 UNL A   1      14.400  55.141   7.004  1.00  0.00    +0.000 C 
ATOM     77  C54 UNL A   1      13.942  56.043   7.960  1.00  0.00    +0.000 C 
ATOM     15  C11 UNL A   1      12.775  56.777   7.723  1.00  0.00    +0.000 C 
ATOM     16  C12 UNL A   1      12.004  56.520   6.587  1.00  0.00    +0.000 C 
ATOM     17  C13 UNL A   1      12.431  55.568   5.659  1.00  0.00    +0.000 C 
ATOM     18  C14 UNL A   1      13.648  54.893   5.845  1.00  0.00    +0.000 C 
ATOM    122  H19 UNL A   1      11.120  57.031   6.435  1.00  0.00    +0.000 H 
ATOM    123  H20 UNL A   1      11.850  55.360   4.831  1.00  0.00    +0.000 H 
BRANCH   15   13
ATOM     13  C10 UNL A   1      12.330  57.827   8.665  1.00  0.00    +0.000 C 
ATOM     14  O2  UNL A   1      12.705  58.984   8.508  1.00  0.00    +0.000 O 
BRANCH   13   12
ATOM    121  H18 UNL A   1      11.843  57.775  10.608  1.00  0.00    +0.000 H 
ATOM     12  N2  UNL A   1      11.518  57.498   9.722  1.00  0.00    +0.000 N 
BRANCH   12   11
ATOM     11  C9  UNL A   1      10.244  56.797   9.713  1.00  0.00    +0.000 C 
ATOM    119  H16 UNL A   1       9.533  57.370  10.270  1.00  0.00    +0.000 H 
ATOM    120  H17 UNL A   1       9.941  56.684   8.692  1.00  0.00    +0.000 H 
BRANCH   11   10
ATOM     10  C8  UNL A   1      10.343  55.405  10.326  1.00  0.00    +0.000 C 
ATOM    117  H14 UNL A   1       9.509  55.271  10.982  1.00  0.00    +0.000 H 
ATOM    118  H15 UNL A   1      10.355  54.716   9.509  1.00  0.00    +0.000 H 
BRANCH   10    9
ATOM      9  C7  UNL A   1      11.622  55.145  11.124  1.00  0.00    +0.000 C 
ATOM    115  H12 UNL A   1      12.185  56.056  11.154  1.00  0.00    +0.000 H 
ATOM    116  H13 UNL A   1      11.308  54.808  12.089  1.00  0.00    +0.000 H 
BRANCH    9    8
ATOM    113  H10 UNL A   1      11.970  53.135  10.549  1.00  0.00    +0.000 H 
ATOM    114  H11 UNL A   1      12.828  54.384   9.591  1.00  0.00    +0.000 H 
ATOM      8  C6  UNL A   1      12.528  54.047  10.562  1.00  0.00    +0.000 C 
BRANCH    8    7
ATOM    111  H8  UNL A   1      14.088  52.767  11.230  1.00  0.00    +0.000 H 
ATOM      7  C5  UNL A   1      13.826  53.798  11.342  1.00  0.00    +0.000 C 
ATOM    112  H9  UNL A   1      14.554  54.467  10.934  1.00  0.00    +0.000 H 
BRANCH    7    6
ATOM    110  H7  UNL A   1      13.244  55.044  12.968  1.00  0.00    +0.000 H 
ATOM    109  H6  UNL A   1      14.744  54.161  13.238  1.00  0.00    +0.000 H 
ATOM      6  C4  UNL A   1      13.751  54.110  12.842  1.00  0.00    +0.000 C 
BRANCH    6    5
ATOM    108  H5  UNL A   1      12.212  53.380  14.055  1.00  0.00    +0.000 H 
ATOM      5  N1  UNL A   1      13.009  53.090  13.557  1.00  0.00    +0.000 N 
BRANCH    5    3
ATOM      3  C3  UNL A   1      13.324  51.758  13.597  1.00  0.00    +0.000 C 
ATOM      4  O1  UNL A   1      14.496  51.482  13.855  1.00  0.00    +0.000 O 
BRANCH    3    2
ATOM      2  C2  UNL A   1      12.216  50.721  13.343  1.00  0.00    +0.000 C 
ATOM    107  H4  UNL A   1      11.465  50.940  14.074  1.00  0.00    +0.000 H 
BRANCH    2    1
ATOM      1  C1  UNL A   1      12.807  49.314  13.500  1.00  0.00    +0.000 C 
ATOM    106  H3  UNL A   1      12.055  48.651  13.873  1.00  0.00    +0.000 H 
ATOM    105  H2  UNL A   1      13.153  48.964  12.550  1.00  0.00    +0.000 H 
ATOM    104  H1  UNL A   1      13.627  49.346  14.188  1.00  0.00    +0.000 H 
ENDBRANCH    2    1
BRANCH    2   78
ATOM    101  C75 UNL A   1       9.670  51.599  10.587  1.00  0.00    +0.000 C 
ATOM    102  F16 UNL A   1       8.467  52.190  10.511  1.00  0.00    +0.000 F 
ATOM    103  C76 UNL A   1      10.207  51.380  11.853  1.00  0.00    +0.000 C 
ATOM    136  H33 UNL A   1      13.036  49.886  10.919  1.00  0.00    +0.000 H 
ATOM    137  H34 UNL A   1      12.105  50.292   8.727  1.00  0.00    +0.000 H 
ATOM     78  C55 UNL A   1      11.478  50.817  12.005  1.00  0.00    +0.000 C 
ATOM     79  C56 UNL A   1      12.136  50.383  10.836  1.00  0.00    +0.000 C 
ATOM     80  C57 UNL A   1      11.594  50.612   9.564  1.00  0.00    +0.000 C 
ATOM     81  C58 UNL A   1      10.367  51.271   9.418  1.00  0.00    +0.000 C 
ATOM    154  H51 UNL A   1       9.661  51.637  12.690  1.00  0.00    +0.000 H 
BRANCH   81   82
ATOM    100  C74 UNL A   1       9.515  50.746   7.149  1.00  0.00    +0.000 C 
ATOM    138  H35 UNL A   1      10.011  53.794   8.448  1.00  0.00    +0.000 H 
ATOM    139  H36 UNL A   1       9.186  54.443   6.263  1.00  0.00    +0.000 H 
ATOM    140  H37 UNL A   1       8.552  52.745   4.645  1.00  0.00    +0.000 H 
ATOM     82  C59 UNL A   1       9.885  51.714   8.102  1.00  0.00    +0.000 C 
ATOM     83  C60 UNL A   1       9.752  53.067   7.763  1.00  0.00    +0.000 C 
ATOM     84  C61 UNL A   1       9.271  53.443   6.504  1.00  0.00    +0.000 C 
ATOM     85  C62 UNL A   1       8.906  52.469   5.573  1.00  0.00    +0.000 C 
ATOM     86  C63 UNL A   1       9.021  51.121   5.905  1.00  0.00    +0.000 C 
ATOM    153  H50 UNL A   1       9.613  49.744   7.378  1.00  0.00    +0.000 H 
BRANCH   86   87
ATOM     87  O3  UNL A   1       8.673  50.200   4.889  1.00  0.00    +0.000 O 
BRANCH   87   88
ATOM     89  O4  UNL A   1       7.072  48.783   3.938  1.00  0.00    +0.000 O 
ATOM     88  C64 UNL A   1       7.505  49.436   4.873  1.00  0.00    +0.000 C 
BRANCH   88   90
ATOM     90  N7  UNL A   1       6.834  49.458   6.069  1.00  0.00    +0.000 N 
ATOM    141  H38 UNL A   1       6.435  50.310   6.360  1.00  0.00    +0.000 H 
BRANCH   90   91
ATOM     91  C65 UNL A   1       6.675  48.309   6.929  1.00  0.00    +0.000 C 
ATOM    142  H39 UNL A   1       5.797  47.781   6.623  1.00  0.00    +0.000 H 
ATOM    143  H40 UNL A   1       6.611  48.683   7.930  1.00  0.00    +0.000 H 
BRANCH   91   92
ATOM    145  H42 UNL A   1       7.661  46.711   6.053  1.00  0.00    +0.000 H 
ATOM     92  C66 UNL A   1       7.852  47.333   6.903  1.00  0.00    +0.000 C 
ATOM    144  H41 UNL A   1       8.748  47.919   6.863  1.00  0.00    +0.000 H 
BRANCH   92   93
ATOM    146  H43 UNL A   1       8.345  45.423   7.644  1.00  0.00    +0.000 H 
ATOM    147  H44 UNL A   1       7.039  46.359   8.524  1.00  0.00    +0.000 H 
ATOM     93  C67 UNL A   1       8.007  46.345   8.067  1.00  0.00    +0.000 C 
BRANCH   93   94
ATOM     97  C71 UNL A   1      10.822  47.215  11.239  1.00  0.00    +0.000 C 
ATOM     98  C72 UNL A   1      11.167  46.391  10.174  1.00  0.00    +0.000 C 
ATOM     99  C73 UNL A   1      10.232  46.121   9.172  1.00  0.00    +0.000 C 
ATOM    148  H45 UNL A   1       7.657  47.885  10.367  1.00  0.00    +0.000 H 
ATOM    149  H46 UNL A   1       9.286  48.374  12.091  1.00  0.00    +0.000 H 
ATOM    150  H47 UNL A   1      11.512  47.422  11.979  1.00  0.00    +0.000 H 
ATOM    151  H48 UNL A   1      12.111  45.978  10.124  1.00  0.00    +0.000 H 
ATOM    152  H49 UNL A   1      10.500  45.517   8.380  1.00  0.00    +0.000 H 
ATOM     94  C68 UNL A   1       8.932  46.659   9.221  1.00  0.00    +0.000 C 
ATOM     95  C69 UNL A   1       8.605  47.479  10.303  1.00  0.00    +0.000 C 
ATOM     96  C70 UNL A   1       9.544  47.759  11.302  1.00  0.00    +0.000 C 
ENDBRANCH   93   94
ENDBRANCH   92   93
ENDBRANCH   91   92
ENDBRANCH   90   91
ENDBRANCH   88   90
ENDBRANCH   87   88
ENDBRANCH   86   87
ENDBRANCH   81   82
ENDBRANCH    2   78
ENDBRANCH    3    2
ENDBRANCH    5    3
ENDBRANCH    6    5
ENDBRANCH    7    6
ENDBRANCH    8    7
ENDBRANCH    9    8
ENDBRANCH   10    9
ENDBRANCH   11   10
ENDBRANCH   12   11
ENDBRANCH   13   12
ENDBRANCH   15   13
ENDBRANCH   19   18
BRANCH   23   24
ATOM     33  C24 UNL A   1      19.055  55.929   0.811  1.00  0.00    +0.000 C 
ATOM     34  F5  UNL A   1      19.628  55.243   1.812  1.00  0.00    +0.000 F 
ATOM     24  C19 UNL A   1      17.802  55.540   0.313  1.00  0.00    +0.000 C 
ATOM     25  C20 UNL A   1      17.248  56.296  -0.731  1.00  0.00    +0.000 C 
ATOM     26  F1  UNL A   1      16.059  55.958  -1.251  1.00  0.00    +0.000 F 
ATOM     27  C21 UNL A   1      17.933  57.380  -1.274  1.00  0.00    +0.000 C 
ATOM     28  F2  UNL A   1      17.405  58.058  -2.302  1.00  0.00    +0.000 F 
ATOM     29  C22 UNL A   1      19.167  57.750  -0.760  1.00  0.00    +0.000 C 
ATOM     30  F3  UNL A   1      19.824  58.797  -1.281  1.00  0.00    +0.000 F 
ATOM     31  C23 UNL A   1      19.725  57.031   0.285  1.00  0.00    +0.000 C 
ATOM     32  F4  UNL A   1      20.913  57.393   0.788  1.00  0.00    +0.000 F 
ENDBRANCH   23   24
BRANCH   40   41
ATOM     41  C30 UNL A   1      16.902  48.511  -1.012  1.00  0.00    +0.000 C 
ATOM     42  C31 UNL A   1      18.068  47.767  -0.780  1.00  0.00    +0.000 C 
ATOM     43  F6  UNL A   1      18.806  47.995   0.317  1.00  0.00    +0.000 F 
ATOM     44  C32 UNL A   1      18.498  46.810  -1.694  1.00  0.00    +0.000 C 
ATOM     45  F7  UNL A   1      19.637  46.140  -1.474  1.00  0.00    +0.000 F 
ATOM     46  C33 UNL A   1      17.758  46.558  -2.840  1.00  0.00    +0.000 C 
ATOM     47  F8  UNL A   1      18.170  45.633  -3.716  1.00  0.00    +0.000 F 
ATOM     48  C34 UNL A   1      16.592  47.272  -3.080  1.00  0.00    +0.000 C 
ATOM     49  F9  UNL A   1      15.871  47.022  -4.182  1.00  0.00    +0.000 F 
ATOM     50  C35 UNL A   1      16.173  48.247  -2.181  1.00  0.00    +0.000 C 
ATOM     51  F10 UNL A   1      15.049  48.929  -2.446  1.00  0.00    +0.000 F 
ENDBRANCH   40   41
BRANCH   55   56
ATOM     65  C44 UNL A   1      11.290  47.773   3.907  1.00  0.00    +0.000 C 
ATOM     66  F15 UNL A   1      10.778  48.453   2.871  1.00  0.00    +0.000 F 
ATOM     56  C39 UNL A   1      12.554  48.109   4.412  1.00  0.00    +0.000 C 
ATOM     57  C40 UNL A   1      13.041  47.371   5.500  1.00  0.00    +0.000 C 
ATOM     58  F11 UNL A   1      14.254  47.644   6.002  1.00  0.00    +0.000 F 
ATOM     59  C41 UNL A   1      12.301  46.328   6.050  1.00  0.00    +0.000 C 
ATOM     60  F12 UNL A   1      12.807  45.613   7.064  1.00  0.00    +0.000 F 
ATOM     61  C42 UNL A   1      11.049  46.019   5.541  1.00  0.00    +0.000 C 
ATOM     62  F13 UNL A   1      10.336  45.018   6.074  1.00  0.00    +0.000 F 
ATOM     63  C43 UNL A   1      10.540  46.745   4.475  1.00  0.00    +0.000 C 
ATOM     64  F14 UNL A   1       9.325  46.458   3.987  1.00  0.00    +0.000 F 
ENDBRANCH   55   56
TORSDOF 25
ENDMDL
MODEL 6
REMARK VINA RESULT:      -7.0     29.164     36.271
ROOT
ATOM    129  H26 UNL A   1      26.736 -12.756  31.857  1.00  0.00    +0.000 H 
ATOM    130  H27 UNL A   1      22.963 -10.156  29.785  1.00  0.00    +0.000 H 
ATOM    131  H28 UNL A   1      22.082  -9.787  32.160  1.00  0.00    +0.000 H 
ATOM    132  H29 UNL A   1      29.473 -15.486  35.878  1.00  0.00    +0.000 H 
ATOM    133  H30 UNL A   1      30.620 -15.487  33.589  1.00  0.00    +0.000 H 
ATOM     19  C15 UNL A   1      29.088 -14.235  31.541  1.00  0.00    +0.000 C 
ATOM     20  C16 UNL A   1      28.776 -14.301  33.009  1.00  0.00    +0.000 C 
ATOM     21  N3  UNL A   1      27.754 -13.808  33.663  1.00  0.00    +0.000 N 
ATOM     22  C17 UNL A   1      27.929 -14.195  34.985  1.00  0.00    +0.000 C 
ATOM     23  C18 UNL A   1      27.170 -13.887  36.062  1.00  0.00    +0.000 C 
ATOM     35  C25 UNL A   1      25.996 -13.055  36.018  1.00  0.00    +0.000 C 
ATOM     36  C26 UNL A   1      25.198 -12.630  37.065  1.00  0.00    +0.000 C 
ATOM     37  C27 UNL A   1      24.151 -11.868  36.535  1.00  0.00    +0.000 C 
ATOM     38  C28 UNL A   1      24.319 -11.786  35.163  1.00  0.00    +0.000 C 
ATOM     39  N4  UNL A   1      25.453 -12.521  34.858  1.00  0.00    +0.000 N 
ATOM     40  C29 UNL A   1      23.506 -11.090  34.198  1.00  0.00    +0.000 C 
ATOM     52  C36 UNL A   1      23.747 -11.045  32.866  1.00  0.00    +0.000 C 
ATOM     53  N5  UNL A   1      24.783 -11.624  32.147  1.00  0.00    +0.000 N 
ATOM     54  C37 UNL A   1      24.574 -11.304  30.893  1.00  0.00    +0.000 C 
ATOM     55  C38 UNL A   1      25.395 -11.641  29.678  1.00  0.00    +0.000 C 
ATOM     67  C45 UNL A   1      26.529 -12.353  29.824  1.00  0.00    +0.000 C 
ATOM     68  C46 UNL A   1      27.428 -12.746  28.745  1.00  0.00    +0.000 C 
ATOM     69  C47 UNL A   1      28.432 -13.477  29.255  1.00  0.00    +0.000 C 
ATOM     70  C48 UNL A   1      28.263 -13.576  30.705  1.00  0.00    +0.000 C 
ATOM     71  N6  UNL A   1      27.109 -12.874  30.954  1.00  0.00    +0.000 N 
ATOM     72  C49 UNL A   1      23.362 -10.503  30.671  1.00  0.00    +0.000 C 
ATOM     73  C50 UNL A   1      22.916 -10.343  31.909  1.00  0.00    +0.000 C 
ATOM     74  C51 UNL A   1      29.128 -15.005  35.033  1.00  0.00    +0.000 C 
ATOM     75  C52 UNL A   1      29.725 -15.047  33.851  1.00  0.00    +0.000 C 
ATOM    124  H21 UNL A   1      25.350 -12.837  38.064  1.00  0.00    +0.000 H 
ATOM    125  H22 UNL A   1      23.382 -11.440  37.076  1.00  0.00    +0.000 H 
ATOM    126  H23 UNL A   1      25.820 -12.646  33.953  1.00  0.00    +0.000 H 
ATOM    127  H24 UNL A   1      27.310 -12.502  27.748  1.00  0.00    +0.000 H 
ATOM    128  H25 UNL A   1      29.199 -13.902  28.711  1.00  0.00    +0.000 H 
ENDROOT
BRANCH   19   18
ATOM    134  H31 UNL A   1      29.175 -16.687  30.469  1.00  0.00    +0.000 H 
ATOM    135  H32 UNL A   1      31.097 -17.915  29.649  1.00  0.00    +0.000 H 
ATOM     76  C53 UNL A   1      30.108 -16.247  30.475  1.00  0.00    +0.000 C 
ATOM     77  C54 UNL A   1      31.204 -16.938  29.965  1.00  0.00    +0.000 C 
ATOM     15  C11 UNL A   1      32.449 -16.308  29.884  1.00  0.00    +0.000 C 
ATOM     16  C12 UNL A   1      32.625 -15.031  30.423  1.00  0.00    +0.000 C 
ATOM     17  C13 UNL A   1      31.539 -14.362  30.992  1.00  0.00    +0.000 C 
ATOM     18  C14 UNL A   1      30.266 -14.953  30.995  1.00  0.00    +0.000 C 
ATOM    122  H19 UNL A   1      33.555 -14.584  30.401  1.00  0.00    +0.000 H 
ATOM    123  H20 UNL A   1      31.674 -13.429  31.413  1.00  0.00    +0.000 H 
BRANCH   15   13
ATOM     13  C10 UNL A   1      33.601 -16.975  29.238  1.00  0.00    +0.000 C 
ATOM     14  O2  UNL A   1      34.645 -17.128  29.864  1.00  0.00    +0.000 O 
BRANCH   13   12
ATOM    121  H18 UNL A   1      33.776 -18.332  27.774  1.00  0.00    +0.000 H 
ATOM     12  N2  UNL A   1      33.503 -17.400  27.937  1.00  0.00    +0.000 N 
BRANCH   12   11
ATOM     11  C9  UNL A   1      33.054 -16.666  26.765  1.00  0.00    +0.000 C 
ATOM    119  H16 UNL A   1      33.337 -17.210  25.889  1.00  0.00    +0.000 H 
ATOM    120  H17 UNL A   1      31.991 -16.560  26.834  1.00  0.00    +0.000 H 
BRANCH   11   10
ATOM     10  C8  UNL A   1      33.657 -15.267  26.691  1.00  0.00    +0.000 C 
ATOM    117  H14 UNL A   1      34.479 -15.223  27.374  1.00  0.00    +0.000 H 
ATOM    118  H15 UNL A   1      33.944 -15.117  25.672  1.00  0.00    +0.000 H 
BRANCH   10    9
ATOM      9  C7  UNL A   1      32.690 -14.133  27.036  1.00  0.00    +0.000 C 
ATOM    115  H12 UNL A   1      32.052 -13.974  26.191  1.00  0.00    +0.000 H 
ATOM    116  H13 UNL A   1      32.164 -14.447  27.913  1.00  0.00    +0.000 H 
BRANCH    9    8
ATOM    113  H10 UNL A   1      32.618 -12.029  27.279  1.00  0.00    +0.000 H 
ATOM    114  H11 UNL A   1      33.715 -12.908  28.390  1.00  0.00    +0.000 H 
ATOM      8  C6  UNL A   1      33.351 -12.799  27.389  1.00  0.00    +0.000 C 
BRANCH    8    7
ATOM    111  H8  UNL A   1      35.445 -12.790  27.024  1.00  0.00    +0.000 H 
ATOM      7  C5  UNL A   1      34.569 -12.419  26.536  1.00  0.00    +0.000 C 
ATOM    112  H9  UNL A   1      34.406 -12.852  25.571  1.00  0.00    +0.000 H 
BRANCH    7    6
ATOM    110  H7  UNL A   1      34.358 -10.671  25.338  1.00  0.00    +0.000 H 
ATOM    109  H6  UNL A   1      35.795 -10.678  26.357  1.00  0.00    +0.000 H 
ATOM      6  C4  UNL A   1      34.753 -10.914  26.303  1.00  0.00    +0.000 C 
BRANCH    6    5
ATOM    108  H5  UNL A   1      33.832 -10.576  28.150  1.00  0.00    +0.000 H 
ATOM      5  N1  UNL A   1      34.040 -10.135  27.295  1.00  0.00    +0.000 N 
BRANCH    5    3
ATOM      3  C3  UNL A   1      33.631  -8.837  27.145  1.00  0.00    +0.000 C 
ATOM      4  O1  UNL A   1      34.377  -8.102  26.497  1.00  0.00    +0.000 O 
BRANCH    3    2
ATOM      2  C2  UNL A   1      32.292  -8.399  27.764  1.00  0.00    +0.000 C 
ATOM    107  H4  UNL A   1      32.250  -7.342  27.602  1.00  0.00    +0.000 H 
BRANCH    2    1
ATOM      1  C1  UNL A   1      32.287  -8.774  29.252  1.00  0.00    +0.000 C 
ATOM    106  H3  UNL A   1      33.293  -8.903  29.591  1.00  0.00    +0.000 H 
ATOM    105  H2  UNL A   1      31.817  -7.995  29.814  1.00  0.00    +0.000 H 
ATOM    104  H1  UNL A   1      31.745  -9.688  29.387  1.00  0.00    +0.000 H 
ENDBRANCH    2    1
BRANCH    2   78
ATOM    101  C75 UNL A   1      29.305  -8.904  25.382  1.00  0.00    +0.000 C 
ATOM    102  F16 UNL A   1      28.737  -8.240  24.362  1.00  0.00    +0.000 F 
ATOM    103  C76 UNL A   1      30.349  -8.279  26.061  1.00  0.00    +0.000 C 
ATOM    136  H33 UNL A   1      30.943 -10.662  28.315  1.00  0.00    +0.000 H 
ATOM    137  H34 UNL A   1      29.147 -11.745  27.114  1.00  0.00    +0.000 H 
ATOM     78  C55 UNL A   1      31.020  -8.933  27.100  1.00  0.00    +0.000 C 
ATOM     79  C56 UNL A   1      30.525 -10.191  27.497  1.00  0.00    +0.000 C 
ATOM     80  C57 UNL A   1      29.479 -10.817  26.805  1.00  0.00    +0.000 C 
ATOM     81  C58 UNL A   1      28.882 -10.199  25.700  1.00  0.00    +0.000 C 
ATOM    154  H51 UNL A   1      30.631  -7.323  25.795  1.00  0.00    +0.000 H 
BRANCH   81   82
ATOM    100  C74 UNL A   1      27.562 -12.232  25.177  1.00  0.00    +0.000 C 
ATOM    138  H35 UNL A   1      27.639  -9.383  23.416  1.00  0.00    +0.000 H 
ATOM    139  H36 UNL A   1      26.074 -10.632  22.048  1.00  0.00    +0.000 H 
ATOM    140  H37 UNL A   1      25.439 -12.891  22.676  1.00  0.00    +0.000 H 
ATOM     82  C59 UNL A   1      27.941 -10.921  24.832  1.00  0.00    +0.000 C 
ATOM     83  C60 UNL A   1      27.381 -10.345  23.684  1.00  0.00    +0.000 C 
ATOM     84  C61 UNL A   1      26.474 -11.064  22.897  1.00  0.00    +0.000 C 
ATOM     85  C62 UNL A   1      26.107 -12.361  23.256  1.00  0.00    +0.000 C 
ATOM     86  C63 UNL A   1      26.648 -12.938  24.403  1.00  0.00    +0.000 C 
ATOM    153  H50 UNL A   1      27.970 -12.676  26.015  1.00  0.00    +0.000 H 
BRANCH   86   87
ATOM     87  O3  UNL A   1      26.258 -14.272  24.669  1.00  0.00    +0.000 O 
BRANCH   87   88
ATOM     89  O4  UNL A   1      25.465 -14.916  26.774  1.00  0.00    +0.000 O 
ATOM     88  C64 UNL A   1      26.335 -14.889  25.919  1.00  0.00    +0.000 C 
BRANCH   88   90
ATOM     90  N7  UNL A   1      27.533 -15.522  26.131  1.00  0.00    +0.000 N 
ATOM    141  H38 UNL A   1      27.823 -15.661  27.062  1.00  0.00    +0.000 H 
BRANCH   90   91
ATOM     91  C65 UNL A   1      28.395 -15.999  25.076  1.00  0.00    +0.000 C 
ATOM    142  H39 UNL A   1      27.828 -16.031  24.170  1.00  0.00    +0.000 H 
ATOM    143  H40 UNL A   1      28.748 -16.962  25.382  1.00  0.00    +0.000 H 
BRANCH   91   92
ATOM    145  H42 UNL A   1      29.463 -14.259  25.422  1.00  0.00    +0.000 H 
ATOM     92  C66 UNL A   1      29.634 -15.137  24.834  1.00  0.00    +0.000 C 
ATOM    144  H41 UNL A   1      30.487 -15.725  25.106  1.00  0.00    +0.000 H 
BRANCH   92   93
ATOM    146  H43 UNL A   1      28.958 -14.683  22.891  1.00  0.00    +0.000 H 
ATOM    147  H44 UNL A   1      30.706 -15.196  23.078  1.00  0.00    +0.000 H 
ATOM     93  C67 UNL A   1      29.885 -14.601  23.418  1.00  0.00    +0.000 C 
BRANCH   93   94
ATOM     97  C71 UNL A   1      31.478 -10.605  22.926  1.00  0.00    +0.000 C 
ATOM     98  C72 UNL A   1      31.848 -11.402  24.003  1.00  0.00    +0.000 C 
ATOM     99  C73 UNL A   1      31.308 -12.683  24.139  1.00  0.00    +0.000 C 
ATOM    148  H45 UNL A   1      29.333 -12.710  21.443  1.00  0.00    +0.000 H 
ATOM    149  H46 UNL A   1      30.290 -10.499  21.193  1.00  0.00    +0.000 H 
ATOM    150  H47 UNL A   1      31.879  -9.660  22.819  1.00  0.00    +0.000 H 
ATOM    151  H48 UNL A   1      32.519 -11.048  24.702  1.00  0.00    +0.000 H 
ATOM    152  H49 UNL A   1      31.596 -13.271  24.936  1.00  0.00    +0.000 H 
ATOM     94  C68 UNL A   1      30.379 -13.188  23.210  1.00  0.00    +0.000 C 
ATOM     95  C69 UNL A   1      30.015 -12.367  22.139  1.00  0.00    +0.000 C 
ATOM     96  C70 UNL A   1      30.564 -11.088  21.995  1.00  0.00    +0.000 C 
ENDBRANCH   93   94
ENDBRANCH   92   93
ENDBRANCH   91   92
ENDBRANCH   90   91
ENDBRANCH   88   90
ENDBRANCH   87   88
ENDBRANCH   86   87
ENDBRANCH   81   82
ENDBRANCH    2   78
ENDBRANCH    3    2
ENDBRANCH    5    3
ENDBRANCH    6    5
ENDBRANCH    7    6
ENDBRANCH    8    7
ENDBRANCH    9    8
ENDBRANCH   10    9
ENDBRANCH   11   10
ENDBRANCH   12   11
ENDBRANCH   13   12
ENDBRANCH   15   13
ENDBRANCH   19   18
BRANCH   23   24
ATOM     33  C24 UNL A   1      28.626 -13.851  38.120  1.00  0.00    +0.000 C 
ATOM     34  F5  UNL A   1      29.239 -12.752  37.653  1.00  0.00    +0.000 F 
ATOM     24  C19 UNL A   1      27.590 -14.450  37.388  1.00  0.00    +0.000 C 
ATOM     25  C20 UNL A   1      26.989 -15.599  37.922  1.00  0.00    +0.000 C 
ATOM     26  F1  UNL A   1      25.986 -16.201  37.266  1.00  0.00    +0.000 F 
ATOM     27  C21 UNL A   1      27.389 -16.112  39.153  1.00  0.00    +0.000 C 
ATOM     28  F2  UNL A   1      26.767 -17.183  39.665  1.00  0.00    +0.000 F 
ATOM     29  C22 UNL A   1      28.420 -15.507  39.856  1.00  0.00    +0.000 C 
ATOM     30  F3  UNL A   1      28.807 -16.004  41.039  1.00  0.00    +0.000 F 
ATOM     31  C23 UNL A   1      29.044 -14.383  39.338  1.00  0.00    +0.000 C 
ATOM     32  F4  UNL A   1      30.046 -13.803  40.012  1.00  0.00    +0.000 F 
ENDBRANCH   23   24
BRANCH   40   41
ATOM     41  C30 UNL A   1      22.310 -10.340  34.704  1.00  0.00    +0.000 C 
ATOM     42  C31 UNL A   1      21.030 -10.911  34.698  1.00  0.00    +0.000 C 
ATOM     43  F6  UNL A   1      20.840 -12.135  34.184  1.00  0.00    +0.000 F 
ATOM     44  C32 UNL A   1      19.932 -10.209  35.189  1.00  0.00    +0.000 C 
ATOM     45  F7  UNL A   1      18.710 -10.757  35.135  1.00  0.00    +0.000 F 
ATOM     46  C33 UNL A   1      20.098  -8.939  35.720  1.00  0.00    +0.000 C 
ATOM     47  F8  UNL A   1      19.042  -8.267  36.197  1.00  0.00    +0.000 F 
ATOM     48  C34 UNL A   1      21.359  -8.362  35.751  1.00  0.00    +0.000 C 
ATOM     49  F9  UNL A   1      21.523  -7.138  36.273  1.00  0.00    +0.000 F 
ATOM     50  C35 UNL A   1      22.454  -9.050  35.237  1.00  0.00    +0.000 C 
ATOM     51  F10 UNL A   1      23.660  -8.462  35.270  1.00  0.00    +0.000 F 
ENDBRANCH   40   41
BRANCH   55   56
ATOM     65  C44 UNL A   1      25.563 -10.039  27.743  1.00  0.00    +0.000 C 
ATOM     66  F15 UNL A   1      26.508  -9.350  28.399  1.00  0.00    +0.000 F 
ATOM     56  C39 UNL A   1      24.985 -11.173  28.330  1.00  0.00    +0.000 C 
ATOM     57  C40 UNL A   1      23.998 -11.855  27.604  1.00  0.00    +0.000 C 
ATOM     58  F11 UNL A   1      23.432 -12.957  28.118  1.00  0.00    +0.000 F 
ATOM     59  C41 UNL A   1      23.615 -11.428  26.336  1.00  0.00    +0.000 C 
ATOM     60  F12 UNL A   1      22.696 -12.120  25.647  1.00  0.00    +0.000 F 
ATOM     61  C42 UNL A   1      24.192 -10.298  25.777  1.00  0.00    +0.000 C 
ATOM     62  F13 UNL A   1      23.820  -9.885  24.559  1.00  0.00    +0.000 F 
ATOM     63  C43 UNL A   1      25.161  -9.599  26.483  1.00  0.00    +0.000 C 
ATOM     64  F14 UNL A   1      25.713  -8.499  25.953  1.00  0.00    +0.000 F 
ENDBRANCH   55   56
TORSDOF 25
ENDMDL
MODEL 7
REMARK VINA RESULT:      -7.0     55.800     60.866
ROOT
ATOM    129  H26 UNL A   1      16.099  52.179   0.793  1.00  0.00    +0.000 H 
ATOM    130  H27 UNL A   1      15.467  47.295  -0.224  1.00  0.00    +0.000 H 
ATOM    131  H28 UNL A   1      13.486  47.345   1.397  1.00  0.00    +0.000 H 
ATOM    132  H29 UNL A   1      15.394  56.966   3.568  1.00  0.00    +0.000 H 
ATOM    133  H30 UNL A   1      17.069  57.067   1.635  1.00  0.00    +0.000 H 
ATOM     19  C15 UNL A   1      17.519  54.552   0.378  1.00  0.00    +0.000 C 
ATOM     20  C16 UNL A   1      16.518  54.875   1.451  1.00  0.00    +0.000 C 
ATOM     21  N3  UNL A   1      15.645  54.092   2.034  1.00  0.00    +0.000 N 
ATOM     22  C17 UNL A   1      15.006  54.880   2.982  1.00  0.00    +0.000 C 
ATOM     23  C18 UNL A   1      13.984  54.548   3.805  1.00  0.00    +0.000 C 
ATOM     35  C25 UNL A   1      13.351  53.255   3.833  1.00  0.00    +0.000 C 
ATOM     36  C26 UNL A   1      12.265  52.840   4.584  1.00  0.00    +0.000 C 
ATOM     37  C27 UNL A   1      12.029  51.490   4.304  1.00  0.00    +0.000 C 
ATOM     38  C28 UNL A   1      12.943  51.074   3.349  1.00  0.00    +0.000 C 
ATOM     39  N4  UNL A   1      13.750  52.166   3.071  1.00  0.00    +0.000 N 
ATOM     40  C29 UNL A   1      13.074  49.778   2.735  1.00  0.00    +0.000 C 
ATOM     52  C36 UNL A   1      13.990  49.452   1.791  1.00  0.00    +0.000 C 
ATOM     53  N5  UNL A   1      14.970  50.249   1.216  1.00  0.00    +0.000 N 
ATOM     54  C37 UNL A   1      15.607  49.479   0.369  1.00  0.00    +0.000 C 
ATOM     55  C38 UNL A   1      16.749  49.821  -0.550  1.00  0.00    +0.000 C 
ATOM     67  C45 UNL A   1      17.223  51.081  -0.573  1.00  0.00    +0.000 C 
ATOM     68  C46 UNL A   1      18.316  51.560  -1.413  1.00  0.00    +0.000 C 
ATOM     69  C47 UNL A   1      18.541  52.856  -1.143  1.00  0.00    +0.000 C 
ATOM     70  C48 UNL A   1      17.584  53.306  -0.131  1.00  0.00    +0.000 C 
ATOM     71  N6  UNL A   1      16.839  52.187   0.144  1.00  0.00    +0.000 N 
ATOM     72  C49 UNL A   1      15.118  48.094   0.328  1.00  0.00    +0.000 C 
ATOM     73  C50 UNL A   1      14.108  48.141   1.187  1.00  0.00    +0.000 C 
ATOM     74  C51 UNL A   1      15.622  56.188   2.930  1.00  0.00    +0.000 C 
ATOM     75  C52 UNL A   1      16.517  56.257   1.956  1.00  0.00    +0.000 C 
ATOM    124  H21 UNL A   1      11.723  53.426   5.236  1.00  0.00    +0.000 H 
ATOM    125  H22 UNL A   1      11.298  50.903   4.736  1.00  0.00    +0.000 H 
ATOM    126  H23 UNL A   1      14.495  52.169   2.428  1.00  0.00    +0.000 H 
ATOM    127  H24 UNL A   1      18.833  50.993  -2.105  1.00  0.00    +0.000 H 
ATOM    128  H25 UNL A   1      19.271  53.440  -1.578  1.00  0.00    +0.000 H 
ENDROOT
BRANCH   19   18
ATOM    134  H31 UNL A   1      17.232  56.317  -1.616  1.00  0.00    +0.000 H 
ATOM    135  H32 UNL A   1      18.826  57.949  -2.434  1.00  0.00    +0.000 H 
ATOM     76  C53 UNL A   1      18.149  56.418  -1.153  1.00  0.00    +0.000 C 
ATOM     77  C54 UNL A   1      19.047  57.385  -1.599  1.00  0.00    +0.000 C 
ATOM     15  C11 UNL A   1      20.248  57.589  -0.913  1.00  0.00    +0.000 C 
ATOM     16  C12 UNL A   1      20.606  56.745   0.142  1.00  0.00    +0.000 C 
ATOM     17  C13 UNL A   1      19.733  55.733   0.547  1.00  0.00    +0.000 C 
ATOM     18  C14 UNL A   1      18.485  55.582  -0.077  1.00  0.00    +0.000 C 
ATOM    122  H19 UNL A   1      21.513  56.869   0.619  1.00  0.00    +0.000 H 
ATOM    123  H20 UNL A   1      20.006  55.094   1.310  1.00  0.00    +0.000 H 
BRANCH   15   13
ATOM     13  C10 UNL A   1      21.164  58.687  -1.291  1.00  0.00    +0.000 C 
ATOM     14  O2  UNL A   1      20.801  59.852  -1.169  1.00  0.00    +0.000 O 
BRANCH   13   12
ATOM    121  H18 UNL A   1      23.161  58.557  -1.182  1.00  0.00    +0.000 H 
ATOM     12  N2  UNL A   1      22.408  58.398  -1.795  1.00  0.00    +0.000 N 
BRANCH   12   11
ATOM     11  C9  UNL A   1      22.767  57.890  -3.109  1.00  0.00    +0.000 C 
ATOM    119  H16 UNL A   1      21.896  57.901  -3.731  1.00  0.00    +0.000 H 
ATOM    120  H17 UNL A   1      23.538  58.521  -3.503  1.00  0.00    +0.000 H 
BRANCH   11   10
ATOM     10  C8  UNL A   1      23.313  56.468  -3.053  1.00  0.00    +0.000 C 
ATOM    117  H14 UNL A   1      23.150  56.088  -2.066  1.00  0.00    +0.000 H 
ATOM    118  H15 UNL A   1      22.795  55.917  -3.809  1.00  0.00    +0.000 H 
BRANCH   10    9
ATOM      9  C7  UNL A   1      24.803  56.340  -3.373  1.00  0.00    +0.000 C 
ATOM    115  H12 UNL A   1      25.193  57.325  -3.533  1.00  0.00    +0.000 H 
ATOM    116  H13 UNL A   1      25.245  55.839  -2.538  1.00  0.00    +0.000 H 
BRANCH    9    8
ATOM    113  H10 UNL A   1      26.067  55.837  -4.999  1.00  0.00    +0.000 H 
ATOM    114  H11 UNL A   1      25.158  54.479  -4.264  1.00  0.00    +0.000 H 
ATOM      8  C6  UNL A   1      25.135  55.494  -4.604  1.00  0.00    +0.000 C 
BRANCH    8    7
ATOM    111  H8  UNL A   1      23.293  56.170  -5.422  1.00  0.00    +0.000 H 
ATOM      7  C5  UNL A   1      24.097  55.538  -5.734  1.00  0.00    +0.000 C 
ATOM    112  H9  UNL A   1      24.612  55.901  -6.599  1.00  0.00    +0.000 H 
BRANCH    7    6
ATOM    110  H7  UNL A   1      24.066  53.411  -5.627  1.00  0.00    +0.000 H 
ATOM    109  H6  UNL A   1      23.574  54.061  -7.188  1.00  0.00    +0.000 H 
ATOM      6  C4  UNL A   1      23.509  54.177  -6.127  1.00  0.00    +0.000 C 
BRANCH    6    5
ATOM    108  H5  UNL A   1      21.937  53.644  -4.854  1.00  0.00    +0.000 H 
ATOM      5  N1  UNL A   1      22.121  54.066  -5.724  1.00  0.00    +0.000 N 
BRANCH    5    3
ATOM      3  C3  UNL A   1      21.044  54.499  -6.451  1.00  0.00    +0.000 C 
ATOM      4  O1  UNL A   1      21.226  54.646  -7.660  1.00  0.00    +0.000 O 
BRANCH    3    2
ATOM      2  C2  UNL A   1      19.708  54.748  -5.730  1.00  0.00    +0.000 C 
ATOM    107  H4  UNL A   1      19.322  55.643  -6.173  1.00  0.00    +0.000 H 
BRANCH    2    1
ATOM      1  C1  UNL A   1      19.976  54.896  -4.226  1.00  0.00    +0.000 C 
ATOM    106  H3  UNL A   1      20.874  54.375  -3.971  1.00  0.00    +0.000 H 
ATOM    105  H2  UNL A   1      20.082  55.932  -3.983  1.00  0.00    +0.000 H 
ATOM    104  H1  UNL A   1      19.155  54.483  -3.676  1.00  0.00    +0.000 H 
ENDBRANCH    2    1
BRANCH    2   78
ATOM    101  C75 UNL A   1      16.882  52.641  -7.286  1.00  0.00    +0.000 C 
ATOM    102  F16 UNL A   1      16.119  52.680  -8.391  1.00  0.00    +0.000 F 
ATOM    103  C76 UNL A   1      17.743  53.711  -7.054  1.00  0.00    +0.000 C 
ATOM    136  H33 UNL A   1      19.038  52.661  -4.167  1.00  0.00    +0.000 H 
ATOM    137  H34 UNL A   1      17.557  50.800  -4.593  1.00  0.00    +0.000 H 
ATOM     78  C55 UNL A   1      18.603  53.712  -5.951  1.00  0.00    +0.000 C 
ATOM     79  C56 UNL A   1      18.480  52.647  -5.035  1.00  0.00    +0.000 C 
ATOM     80  C57 UNL A   1      17.616  51.570  -5.278  1.00  0.00    +0.000 C 
ATOM     81  C58 UNL A   1      16.835  51.528  -6.439  1.00  0.00    +0.000 C 
ATOM    154  H51 UNL A   1      17.748  54.512  -7.704  1.00  0.00    +0.000 H 
BRANCH   81   82
ATOM    100  C74 UNL A   1      14.776  50.149  -6.348  1.00  0.00    +0.000 C 
ATOM    138  H35 UNL A   1      17.589  49.443  -8.026  1.00  0.00    +0.000 H 
ATOM    139  H36 UNL A   1      16.288  47.488  -8.627  1.00  0.00    +0.000 H 
ATOM    140  H37 UNL A   1      14.020  47.229  -7.798  1.00  0.00    +0.000 H 
ATOM     82  C59 UNL A   1      16.091  50.319  -6.821  1.00  0.00    +0.000 C 
ATOM     83  C60 UNL A   1      16.630  49.336  -7.662  1.00  0.00    +0.000 C 
ATOM     84  C61 UNL A   1      15.877  48.210  -8.014  1.00  0.00    +0.000 C 
ATOM     85  C62 UNL A   1      14.574  48.059  -7.539  1.00  0.00    +0.000 C 
ATOM     86  C63 UNL A   1      14.024  49.037  -6.713  1.00  0.00    +0.000 C 
ATOM    153  H50 UNL A   1      14.365  50.858  -5.721  1.00  0.00    +0.000 H 
BRANCH   86   87
ATOM     87  O3  UNL A   1      12.715  48.785  -6.239  1.00  0.00    +0.000 O 
BRANCH   87   88
ATOM     89  O4  UNL A   1      11.442  47.118  -5.203  1.00  0.00    +0.000 O 
ATOM     88  C64 UNL A   1      12.396  47.878  -5.228  1.00  0.00    +0.000 C 
BRANCH   88   90
ATOM     90  N7  UNL A   1      13.300  47.886  -4.196  1.00  0.00    +0.000 N 
ATOM    141  H38 UNL A   1      14.074  47.281  -4.255  1.00  0.00    +0.000 H 
BRANCH   90   91
ATOM     91  C65 UNL A   1      13.187  48.727  -3.027  1.00  0.00    +0.000 C 
ATOM    142  H39 UNL A   1      14.159  48.831  -2.595  1.00  0.00    +0.000 H 
ATOM    143  H40 UNL A   1      12.487  48.249  -2.374  1.00  0.00    +0.000 H 
BRANCH   91   92
ATOM    145  H42 UNL A   1      12.911  50.319  -4.323  1.00  0.00    +0.000 H 
ATOM     92  C66 UNL A   1      12.635  50.126  -3.307  1.00  0.00    +0.000 C 
ATOM    144  H41 UNL A   1      11.584  50.098  -3.104  1.00  0.00    +0.000 H 
BRANCH   92   93
ATOM    146  H43 UNL A   1      13.906  50.899  -1.815  1.00  0.00    +0.000 H 
ATOM    147  H44 UNL A   1      12.346  51.800  -2.145  1.00  0.00    +0.000 H 
ATOM     93  C67 UNL A   1      13.218  51.310  -2.524  1.00  0.00    +0.000 C 
BRANCH   93   94
ATOM     97  C71 UNL A   1      15.127  54.537  -4.688  1.00  0.00    +0.000 C 
ATOM     98  C72 UNL A   1      14.035  53.860  -5.218  1.00  0.00    +0.000 C 
ATOM     99  C73 UNL A   1      13.448  52.817  -4.499  1.00  0.00    +0.000 C 
ATOM    148  H45 UNL A   1      15.442  52.838  -1.818  1.00  0.00    +0.000 H 
ATOM    149  H46 UNL A   1      16.443  54.666  -3.052  1.00  0.00    +0.000 H 
ATOM    150  H47 UNL A   1      15.561  55.313  -5.214  1.00  0.00    +0.000 H 
ATOM    151  H48 UNL A   1      13.658  54.127  -6.140  1.00  0.00    +0.000 H 
ATOM    152  H49 UNL A   1      12.631  52.327  -4.895  1.00  0.00    +0.000 H 
ATOM     94  C68 UNL A   1      13.948  52.420  -3.245  1.00  0.00    +0.000 C 
ATOM     95  C69 UNL A   1      15.051  53.110  -2.734  1.00  0.00    +0.000 C 
ATOM     96  C70 UNL A   1      15.633  54.163  -3.448  1.00  0.00    +0.000 C 
ENDBRANCH   93   94
ENDBRANCH   92   93
ENDBRANCH   91   92
ENDBRANCH   90   91
ENDBRANCH   88   90
ENDBRANCH   87   88
ENDBRANCH   86   87
ENDBRANCH   81   82
ENDBRANCH    2   78
ENDBRANCH    3    2
ENDBRANCH    5    3
ENDBRANCH    6    5
ENDBRANCH    7    6
ENDBRANCH    8    7
ENDBRANCH    9    8
ENDBRANCH   10    9
ENDBRANCH   11   10
ENDBRANCH   12   11
ENDBRANCH   13   12
ENDBRANCH   15   13
ENDBRANCH   19   18
BRANCH   23   24
ATOM     33  C24 UNL A   1      13.998  55.702   6.046  1.00  0.00    +0.000 C 
ATOM     34  F5  UNL A   1      14.965  54.867   6.457  1.00  0.00    +0.000 F 
ATOM     24  C19 UNL A   1      13.482  55.603   4.745  1.00  0.00    +0.000 C 
ATOM     25  C20 UNL A   1      12.470  56.499   4.370  1.00  0.00    +0.000 C 
ATOM     26  F1  UNL A   1      11.953  56.453   3.134  1.00  0.00    +0.000 F 
ATOM     27  C21 UNL A   1      12.012  57.474   5.253  1.00  0.00    +0.000 C 
ATOM     28  F2  UNL A   1      11.077  58.349   4.857  1.00  0.00    +0.000 F 
ATOM     29  C22 UNL A   1      12.531  57.549   6.537  1.00  0.00    +0.000 C 
ATOM     30  F3  UNL A   1      12.087  58.485   7.387  1.00  0.00    +0.000 F 
ATOM     31  C23 UNL A   1      13.518  56.660   6.936  1.00  0.00    +0.000 C 
ATOM     32  F4  UNL A   1      14.014  56.726   8.179  1.00  0.00    +0.000 F 
ENDBRANCH   23   24
BRANCH   40   41
ATOM     41  C30 UNL A   1      12.110  48.707   3.154  1.00  0.00    +0.000 C 
ATOM     42  C31 UNL A   1      12.415  47.811   4.188  1.00  0.00    +0.000 C 
ATOM     43  F6  UNL A   1      13.610  47.863   4.795  1.00  0.00    +0.000 F 
ATOM     44  C32 UNL A   1      11.504  46.834   4.578  1.00  0.00    +0.000 C 
ATOM     45  F7  UNL A   1      11.831  45.962   5.542  1.00  0.00    +0.000 F 
ATOM     46  C33 UNL A   1      10.263  46.753   3.964  1.00  0.00    +0.000 C 
ATOM     47  F8  UNL A   1       9.385  45.816   4.345  1.00  0.00    +0.000 F 
ATOM     48  C34 UNL A   1       9.935  47.640   2.949  1.00  0.00    +0.000 C 
ATOM     49  F9  UNL A   1       8.732  47.569   2.361  1.00  0.00    +0.000 F 
ATOM     50  C35 UNL A   1      10.854  48.601   2.538  1.00  0.00    +0.000 C 
ATOM     51  F10 UNL A   1      10.514  49.438   1.547  1.00  0.00    +0.000 F 
ENDBRANCH   40   41
BRANCH   55   56
ATOM     65  C44 UNL A   1      18.301  47.887  -0.990  1.00  0.00    +0.000 C 
ATOM     66  F15 UNL A   1      18.715  47.933   0.285  1.00  0.00    +0.000 F 
ATOM     56  C39 UNL A   1      17.336  48.794  -1.449  1.00  0.00    +0.000 C 
ATOM     57  C40 UNL A   1      16.941  48.707  -2.791  1.00  0.00    +0.000 C 
ATOM     58  F11 UNL A   1      16.005  49.541  -3.268  1.00  0.00    +0.000 F 
ATOM     59  C41 UNL A   1      17.479  47.742  -3.637  1.00  0.00    +0.000 C 
ATOM     60  F12 UNL A   1      17.056  47.655  -4.906  1.00  0.00    +0.000 F 
ATOM     61  C42 UNL A   1      18.440  46.860  -3.166  1.00  0.00    +0.000 C 
ATOM     62  F13 UNL A   1      18.961  45.935  -3.982  1.00  0.00    +0.000 F 
ATOM     63  C43 UNL A   1      18.856  46.937  -1.845  1.00  0.00    +0.000 C 
ATOM     64  F14 UNL A   1      19.794  46.095  -1.388  1.00  0.00    +0.000 F 
ENDBRANCH   55   56
TORSDOF 25
ENDMDL
MODEL 8
REMARK VINA RESULT:      -7.0     37.675     42.016
ROOT
ATOM    129  H26 UNL A   1      11.299  25.160   3.615  1.00  0.00    +0.000 H 
ATOM    130  H27 UNL A   1       9.919  22.715   7.786  1.00  0.00    +0.000 H 
ATOM    131  H28 UNL A   1      11.419  20.794   7.004  1.00  0.00    +0.000 H 
ATOM    132  H29 UNL A   1      13.523  25.775  -1.464  1.00  0.00    +0.000 H 
ATOM    133  H30 UNL A   1      12.411  27.871  -0.503  1.00  0.00    +0.000 H 
ATOM     19  C15 UNL A   1      11.138  27.443   2.008  1.00  0.00    +0.000 C 
ATOM     20  C16 UNL A   1      11.983  26.473   1.231  1.00  0.00    +0.000 C 
ATOM     21  N3  UNL A   1      12.318  25.243   1.527  1.00  0.00    +0.000 N 
ATOM     22  C17 UNL A   1      13.064  24.785   0.449  1.00  0.00    +0.000 C 
ATOM     23  C18 UNL A   1      13.685  23.592   0.298  1.00  0.00    +0.000 C 
ATOM     35  C25 UNL A   1      13.682  22.544   1.286  1.00  0.00    +0.000 C 
ATOM     36  C26 UNL A   1      14.337  21.326   1.255  1.00  0.00    +0.000 C 
ATOM     37  C27 UNL A   1      14.010  20.623   2.420  1.00  0.00    +0.000 C 
ATOM     38  C28 UNL A   1      13.183  21.420   3.194  1.00  0.00    +0.000 C 
ATOM     39  N4  UNL A   1      12.987  22.595   2.486  1.00  0.00    +0.000 N 
ATOM     40  C29 UNL A   1      12.610  21.134   4.485  1.00  0.00    +0.000 C 
ATOM     52  C36 UNL A   1      11.818  21.977   5.190  1.00  0.00    +0.000 C 
ATOM     53  N5  UNL A   1      11.393  23.256   4.858  1.00  0.00    +0.000 N 
ATOM     54  C37 UNL A   1      10.639  23.654   5.852  1.00  0.00    +0.000 C 
ATOM     55  C38 UNL A   1       9.931  24.968   6.040  1.00  0.00    +0.000 C 
ATOM     67  C45 UNL A   1      10.060  25.927   5.103  1.00  0.00    +0.000 C 
ATOM     68  C46 UNL A   1       9.442  27.248   5.151  1.00  0.00    +0.000 C 
ATOM     69  C47 UNL A   1       9.758  27.920   4.032  1.00  0.00    +0.000 C 
ATOM     70  C48 UNL A   1      10.628  27.086   3.202  1.00  0.00    +0.000 C 
ATOM     71  N6  UNL A   1      10.757  25.923   3.920  1.00  0.00    +0.000 N 
ATOM     72  C49 UNL A   1      10.480  22.659   6.922  1.00  0.00    +0.000 C 
ATOM     73  C50 UNL A   1      11.248  21.670   6.486  1.00  0.00    +0.000 C 
ATOM     74  C51 UNL A   1      13.093  25.852  -0.529  1.00  0.00    +0.000 C 
ATOM     75  C52 UNL A   1      12.495  26.940  -0.067  1.00  0.00    +0.000 C 
ATOM    124  H21 UNL A   1      14.960  20.993   0.503  1.00  0.00    +0.000 H 
ATOM    125  H22 UNL A   1      14.329  19.672   2.661  1.00  0.00    +0.000 H 
ATOM    126  H23 UNL A   1      12.437  23.353   2.788  1.00  0.00    +0.000 H 
ATOM    127  H24 UNL A   1       8.857  27.607   5.922  1.00  0.00    +0.000 H 
ATOM    128  H25 UNL A   1       9.437  28.872   3.796  1.00  0.00    +0.000 H 
ENDROOT
BRANCH   19   18
ATOM    134  H31 UNL A   1      12.235  29.815   2.593  1.00  0.00    +0.000 H 
ATOM    135  H32 UNL A   1      11.652  32.006   1.735  1.00  0.00    +0.000 H 
ATOM     76  C53 UNL A   1      11.497  29.909   1.878  1.00  0.00    +0.000 C 
ATOM     77  C54 UNL A   1      11.192  31.163   1.356  1.00  0.00    +0.000 C 
ATOM     15  C11 UNL A   1      10.261  31.280   0.320  1.00  0.00    +0.000 C 
ATOM     16  C12 UNL A   1       9.547  30.159  -0.110  1.00  0.00    +0.000 C 
ATOM     17  C13 UNL A   1       9.807  28.910   0.458  1.00  0.00    +0.000 C 
ATOM     18  C14 UNL A   1      10.806  28.770   1.435  1.00  0.00    +0.000 C 
ATOM    122  H19 UNL A   1       8.828  30.254  -0.846  1.00  0.00    +0.000 H 
ATOM    123  H20 UNL A   1       9.263  28.086   0.158  1.00  0.00    +0.000 H 
BRANCH   15   13
ATOM     13  C10 UNL A   1      10.007  32.582  -0.333  1.00  0.00    +0.000 C 
ATOM     14  O2  UNL A   1       9.001  33.222  -0.044  1.00  0.00    +0.000 O 
BRANCH   13   12
ATOM    121  H18 UNL A   1      10.685  32.810  -2.205  1.00  0.00    +0.000 H 
ATOM     12  N2  UNL A   1      10.885  33.059  -1.275  1.00  0.00    +0.000 N 
BRANCH   12   11
ATOM     11  C9  UNL A   1      12.070  33.880  -1.087  1.00  0.00    +0.000 C 
ATOM    119  H16 UNL A   1      11.976  34.761  -1.687  1.00  0.00    +0.000 H 
ATOM    120  H17 UNL A   1      12.139  34.121  -0.046  1.00  0.00    +0.000 H 
BRANCH   11   10
ATOM     10  C8  UNL A   1      13.350  33.151  -1.481  1.00  0.00    +0.000 C 
ATOM    117  H14 UNL A   1      13.115  32.471  -2.272  1.00  0.00    +0.000 H 
ATOM    118  H15 UNL A   1      14.051  33.907  -1.767  1.00  0.00    +0.000 H 
BRANCH   10    9
ATOM      9  C7  UNL A   1      14.010  32.358  -0.352  1.00  0.00    +0.000 C 
ATOM    115  H12 UNL A   1      14.895  32.882  -0.053  1.00  0.00    +0.000 H 
ATOM    116  H13 UNL A   1      13.278  32.281   0.424  1.00  0.00    +0.000 H 
BRANCH    9    8
ATOM    113  H10 UNL A   1      15.308  30.965  -1.282  1.00  0.00    +0.000 H 
ATOM    114  H11 UNL A   1      14.509  30.407   0.222  1.00  0.00    +0.000 H 
ATOM      8  C6  UNL A   1      14.406  30.924  -0.710  1.00  0.00    +0.000 C 
BRANCH    8    7
ATOM    111  H8  UNL A   1      13.053  29.299  -0.928  1.00  0.00    +0.000 H 
ATOM      7  C5  UNL A   1      13.368  30.134  -1.518  1.00  0.00    +0.000 C 
ATOM    112  H9  UNL A   1      12.576  30.819  -1.740  1.00  0.00    +0.000 H 
BRANCH    7    6
ATOM    110  H7  UNL A   1      13.753  28.538  -2.874  1.00  0.00    +0.000 H 
ATOM    109  H6  UNL A   1      14.892  29.876  -2.994  1.00  0.00    +0.000 H 
ATOM      6  C4  UNL A   1      13.865  29.603  -2.868  1.00  0.00    +0.000 C 
BRANCH    6    5
ATOM    108  H5  UNL A   1      13.067  31.127  -4.057  1.00  0.00    +0.000 H 
ATOM      5  N1  UNL A   1      13.093  30.148  -3.967  1.00  0.00    +0.000 N 
BRANCH    5    3
ATOM      3  C3  UNL A   1      12.397  29.415  -4.891  1.00  0.00    +0.000 C 
ATOM      4  O1  UNL A   1      11.629  30.044  -5.620  1.00  0.00    +0.000 O 
BRANCH    3    2
ATOM      2  C2  UNL A   1      12.628  27.896  -4.966  1.00  0.00    +0.000 C 
ATOM    107  H4  UNL A   1      13.515  27.727  -4.393  1.00  0.00    +0.000 H 
BRANCH    2    1
ATOM      1  C1  UNL A   1      12.784  27.490  -6.438  1.00  0.00    +0.000 C 
ATOM    106  H3  UNL A   1      12.658  28.350  -7.061  1.00  0.00    +0.000 H 
ATOM    105  H2  UNL A   1      13.759  27.077  -6.593  1.00  0.00    +0.000 H 
ATOM    104  H1  UNL A   1      12.043  26.758  -6.686  1.00  0.00    +0.000 H 
ENDBRANCH    2    1
BRANCH    2   78
ATOM    101  C75 UNL A   1      10.574  24.852  -3.796  1.00  0.00    +0.000 C 
ATOM    102  F16 UNL A   1      10.520  23.538  -4.069  1.00  0.00    +0.000 F 
ATOM    103  C76 UNL A   1      11.429  25.640  -4.564  1.00  0.00    +0.000 C 
ATOM    136  H33 UNL A   1      10.762  28.584  -3.152  1.00  0.00    +0.000 H 
ATOM    137  H34 UNL A   1       9.299  27.204  -1.811  1.00  0.00    +0.000 H 
ATOM     78  C55 UNL A   1      11.574  27.006  -4.302  1.00  0.00    +0.000 C 
ATOM     79  C56 UNL A   1      10.742  27.565  -3.311  1.00  0.00    +0.000 C 
ATOM     80  C57 UNL A   1       9.888  26.766  -2.537  1.00  0.00    +0.000 C 
ATOM     81  C58 UNL A   1       9.827  25.382  -2.738  1.00  0.00    +0.000 C 
ATOM    154  H51 UNL A   1      11.963  25.210  -5.336  1.00  0.00    +0.000 H 
BRANCH   81   82
ATOM    100  C74 UNL A   1       9.621  24.326  -0.504  1.00  0.00    +0.000 C 
ATOM    138  H35 UNL A   1       7.524  23.966  -3.093  1.00  0.00    +0.000 H 
ATOM    139  H36 UNL A   1       6.390  22.548  -1.487  1.00  0.00    +0.000 H 
ATOM    140  H37 UNL A   1       7.296  22.271   0.750  1.00  0.00    +0.000 H 
ATOM     82  C59 UNL A   1       9.111  24.502  -1.804  1.00  0.00    +0.000 C 
ATOM     83  C60 UNL A   1       7.920  23.847  -2.148  1.00  0.00    +0.000 C 
ATOM     84  C61 UNL A   1       7.262  23.032  -1.219  1.00  0.00    +0.000 C 
ATOM     85  C62 UNL A   1       7.780  22.872   0.066  1.00  0.00    +0.000 C 
ATOM     86  C63 UNL A   1       8.956  23.530   0.422  1.00  0.00    +0.000 C 
ATOM    153  H50 UNL A   1      10.500  24.794  -0.235  1.00  0.00    +0.000 H 
BRANCH   86   87
ATOM     87  O3  UNL A   1       9.436  23.277   1.729  1.00  0.00    +0.000 O 
BRANCH   87   88
ATOM     89  O4  UNL A   1       7.821  23.076   3.409  1.00  0.00    +0.000 O 
ATOM     88  C64 UNL A   1       8.720  22.614   2.726  1.00  0.00    +0.000 C 
BRANCH   88   90
ATOM     90  N7  UNL A   1       9.111  21.309   2.889  1.00  0.00    +0.000 N 
ATOM    141  H38 UNL A   1       9.766  21.108   3.597  1.00  0.00    +0.000 H 
BRANCH   90   91
ATOM     91  C65 UNL A   1       8.622  20.212   2.089  1.00  0.00    +0.000 C 
ATOM    142  H39 UNL A   1       7.901  20.596   1.399  1.00  0.00    +0.000 H 
ATOM    143  H40 UNL A   1       8.209  19.497   2.770  1.00  0.00    +0.000 H 
BRANCH   91   92
ATOM    145  H42 UNL A   1      10.239  18.918   2.031  1.00  0.00    +0.000 H 
ATOM     92  C66 UNL A   1       9.704  19.479   1.293  1.00  0.00    +0.000 C 
ATOM    144  H41 UNL A   1       9.207  18.906   0.537  1.00  0.00    +0.000 H 
BRANCH   92   93
ATOM    146  H43 UNL A   1      11.717  20.049   1.046  1.00  0.00    +0.000 H 
ATOM    147  H44 UNL A   1      10.436  21.317   0.723  1.00  0.00    +0.000 H 
ATOM     93  C67 UNL A   1      10.785  20.314   0.594  1.00  0.00    +0.000 C 
BRANCH   93   94
ATOM     97  C71 UNL A   1      11.485  19.857  -3.654  1.00  0.00    +0.000 C 
ATOM     98  C72 UNL A   1      12.435  19.460  -2.720  1.00  0.00    +0.000 C 
ATOM     99  C73 UNL A   1      12.182  19.631  -1.356  1.00  0.00    +0.000 C 
ATOM    148  H45 UNL A   1       9.160  21.043  -1.553  1.00  0.00    +0.000 H 
ATOM    149  H46 UNL A   1       9.586  20.723  -3.916  1.00  0.00    +0.000 H 
ATOM    150  H47 UNL A   1      11.665  19.728  -4.663  1.00  0.00    +0.000 H 
ATOM    151  H48 UNL A   1      13.324  19.042  -3.032  1.00  0.00    +0.000 H 
ATOM    152  H49 UNL A   1      12.888  19.324  -0.670  1.00  0.00    +0.000 H 
ATOM     94  C68 UNL A   1      10.984  20.212  -0.901  1.00  0.00    +0.000 C 
ATOM     95  C69 UNL A   1      10.047  20.610  -1.858  1.00  0.00    +0.000 C 
ATOM     96  C70 UNL A   1      10.293  20.430  -3.224  1.00  0.00    +0.000 C 
ENDBRANCH   93   94
ENDBRANCH   92   93
ENDBRANCH   91   92
ENDBRANCH   90   91
ENDBRANCH   88   90
ENDBRANCH   87   88
ENDBRANCH   86   87
ENDBRANCH   81   82
ENDBRANCH    2   78
ENDBRANCH    3    2
ENDBRANCH    5    3
ENDBRANCH    6    5
ENDBRANCH    7    6
ENDBRANCH    8    7
ENDBRANCH    9    8
ENDBRANCH   10    9
ENDBRANCH   11   10
ENDBRANCH   12   11
ENDBRANCH   13   12
ENDBRANCH   15   13
ENDBRANCH   19   18
BRANCH   23   24
ATOM     33  C24 UNL A   1      15.815  23.549  -1.050  1.00  0.00    +0.000 C 
ATOM     34  F5  UNL A   1      16.499  23.925   0.042  1.00  0.00    +0.000 F 
ATOM     24  C19 UNL A   1      14.427  23.356  -0.984  1.00  0.00    +0.000 C 
ATOM     25  C20 UNL A   1      13.762  22.967  -2.156  1.00  0.00    +0.000 C 
ATOM     26  F1  UNL A   1      12.437  22.757  -2.142  1.00  0.00    +0.000 F 
ATOM     27  C21 UNL A   1      14.463  22.751  -3.340  1.00  0.00    +0.000 C 
ATOM     28  F2  UNL A   1      13.813  22.334  -4.435  1.00  0.00    +0.000 F 
ATOM     29  C22 UNL A   1      15.834  22.955  -3.384  1.00  0.00    +0.000 C 
ATOM     30  F3  UNL A   1      16.507  22.752  -4.525  1.00  0.00    +0.000 F 
ATOM     31  C23 UNL A   1      16.509  23.360  -2.242  1.00  0.00    +0.000 C 
ATOM     32  F4  UNL A   1      17.832  23.566  -2.285  1.00  0.00    +0.000 F 
ENDBRANCH   23   24
BRANCH   40   41
ATOM     41  C30 UNL A   1      12.929  19.808   5.111  1.00  0.00    +0.000 C 
ATOM     42  C31 UNL A   1      14.046  19.639   5.940  1.00  0.00    +0.000 C 
ATOM     43  F6  UNL A   1      14.892  20.659   6.149  1.00  0.00    +0.000 F 
ATOM     44  C32 UNL A   1      14.318  18.407   6.529  1.00  0.00    +0.000 C 
ATOM     45  F7  UNL A   1      15.415  18.256   7.285  1.00  0.00    +0.000 F 
ATOM     46  C33 UNL A   1      13.465  17.334   6.325  1.00  0.00    +0.000 C 
ATOM     47  F8  UNL A   1      13.725  16.151   6.898  1.00  0.00    +0.000 F 
ATOM     48  C34 UNL A   1      12.344  17.484   5.521  1.00  0.00    +0.000 C 
ATOM     49  F9  UNL A   1      11.513  16.449   5.331  1.00  0.00    +0.000 F 
ATOM     50  C35 UNL A   1      12.083  18.707   4.910  1.00  0.00    +0.000 C 
ATOM     51  F10 UNL A   1      10.998  18.820   4.129  1.00  0.00    +0.000 F 
ENDBRANCH   40   41
BRANCH   55   56
ATOM     65  C44 UNL A   1       9.715  25.640   8.457  1.00  0.00    +0.000 C 
ATOM     66  F15 UNL A   1      11.044  25.809   8.526  1.00  0.00    +0.000 F 
ATOM     56  C39 UNL A   1       9.120  25.229   7.256  1.00  0.00    +0.000 C 
ATOM     57  C40 UNL A   1       7.728  25.063   7.238  1.00  0.00    +0.000 C 
ATOM     58  F11 UNL A   1       7.114  24.690   6.106  1.00  0.00    +0.000 F 
ATOM     59  C41 UNL A   1       6.960  25.314   8.372  1.00  0.00    +0.000 C 
ATOM     60  F12 UNL A   1       5.627  25.185   8.317  1.00  0.00    +0.000 F 
ATOM     61  C42 UNL A   1       7.569  25.711   9.553  1.00  0.00    +0.000 C 
ATOM     62  F13 UNL A   1       6.830  25.948  10.644  1.00  0.00    +0.000 F 
ATOM     63  C43 UNL A   1       8.947  25.868   9.598  1.00  0.00    +0.000 C 
ATOM     64  F14 UNL A   1       9.542  26.240  10.739  1.00  0.00    +0.000 F 
ENDBRANCH   55   56
TORSDOF 25
ENDMDL
MODEL 9
REMARK VINA RESULT:      -6.9     31.728     39.097
ROOT
ATOM    129  H26 UNL A   1      22.096  37.599  47.231  1.00  0.00    +0.000 H 
ATOM    130  H27 UNL A   1      19.024  33.618  47.204  1.00  0.00    +0.000 H 
ATOM    131  H28 UNL A   1      17.286  35.112  48.346  1.00  0.00    +0.000 H 
ATOM    132  H29 UNL A   1      23.889  42.675  48.691  1.00  0.00    +0.000 H 
ATOM    133  H30 UNL A   1      25.466  41.365  47.158  1.00  0.00    +0.000 H 
ATOM     19  C15 UNL A   1      24.579  38.717  46.598  1.00  0.00    +0.000 C 
ATOM     20  C16 UNL A   1      23.845  39.790  47.352  1.00  0.00    +0.000 C 
ATOM     21  N3  UNL A   1      22.660  39.751  47.906  1.00  0.00    +0.000 N 
ATOM     22  C17 UNL A   1      22.485  40.989  48.511  1.00  0.00    +0.000 C 
ATOM     23  C18 UNL A   1      21.400  41.463  49.166  1.00  0.00    +0.000 C 
ATOM     35  C25 UNL A   1      20.176  40.726  49.350  1.00  0.00    +0.000 C 
ATOM     36  C26 UNL A   1      18.997  41.143  49.941  1.00  0.00    +0.000 C 
ATOM     37  C27 UNL A   1      18.095  40.073  49.922  1.00  0.00    +0.000 C 
ATOM     38  C28 UNL A   1      18.700  39.002  49.283  1.00  0.00    +0.000 C 
ATOM     39  N4  UNL A   1      19.977  39.415  48.940  1.00  0.00    +0.000 N 
ATOM     40  C29 UNL A   1      18.156  37.698  49.007  1.00  0.00    +0.000 C 
ATOM     52  C36 UNL A   1      18.809  36.702  48.360  1.00  0.00    +0.000 C 
ATOM     53  N5  UNL A   1      20.092  36.702  47.832  1.00  0.00    +0.000 N 
ATOM     54  C37 UNL A   1      20.269  35.509  47.319  1.00  0.00    +0.000 C 
ATOM     55  C38 UNL A   1      21.467  34.955  46.595  1.00  0.00    +0.000 C 
ATOM     67  C45 UNL A   1      22.538  35.746  46.392  1.00  0.00    +0.000 C 
ATOM     68  C46 UNL A   1      23.763  35.352  45.702  1.00  0.00    +0.000 C 
ATOM     69  C47 UNL A   1      24.626  36.380  45.722  1.00  0.00    +0.000 C 
ATOM     70  C48 UNL A   1      24.001  37.517  46.398  1.00  0.00    +0.000 C 
ATOM     71  N6  UNL A   1      22.761  37.050  46.758  1.00  0.00    +0.000 N 
ATOM     72  C49 UNL A   1      19.122  34.606  47.486  1.00  0.00    +0.000 C 
ATOM     73  C50 UNL A   1      18.247  35.394  48.094  1.00  0.00    +0.000 C 
ATOM     74  C51 UNL A   1      23.704  41.739  48.297  1.00  0.00    +0.000 C 
ATOM     75  C52 UNL A   1      24.551  41.069  47.531  1.00  0.00    +0.000 C 
ATOM    124  H21 UNL A   1      18.813  42.082  50.327  1.00  0.00    +0.000 H 
ATOM    125  H22 UNL A   1      17.142  40.080  50.317  1.00  0.00    +0.000 H 
ATOM    126  H23 UNL A   1      20.645  38.862  48.475  1.00  0.00    +0.000 H 
ATOM    127  H24 UNL A   1      23.937  34.431  45.270  1.00  0.00    +0.000 H 
ATOM    128  H25 UNL A   1      25.578  36.369  45.324  1.00  0.00    +0.000 H 
ENDROOT
BRANCH   19   18
ATOM    134  H31 UNL A   1      26.536  36.917  46.282  1.00  0.00    +0.000 H 
ATOM    135  H32 UNL A   1      28.834  37.281  45.604  1.00  0.00    +0.000 H 
ATOM     76  C53 UNL A   1      26.856  37.867  46.035  1.00  0.00    +0.000 C 
ATOM     77  C54 UNL A   1      28.165  38.067  45.606  1.00  0.00    +0.000 C 
ATOM     15  C11 UNL A   1      28.572  39.335  45.179  1.00  0.00    +0.000 C 
ATOM     16  C12 UNL A   1      27.707  40.425  45.295  1.00  0.00    +0.000 C 
ATOM     17  C13 UNL A   1      26.414  40.235  45.786  1.00  0.00    +0.000 C 
ATOM     18  C14 UNL A   1      25.968  38.949  46.131  1.00  0.00    +0.000 C 
ATOM    122  H19 UNL A   1      28.023  41.369  45.020  1.00  0.00    +0.000 H 
ATOM    123  H20 UNL A   1      25.781  41.044  45.896  1.00  0.00    +0.000 H 
BRANCH   15   13
ATOM     13  C10 UNL A   1      29.919  39.550  44.606  1.00  0.00    +0.000 C 
ATOM     14  O2  UNL A   1      30.387  38.728  43.825  1.00  0.00    +0.000 O 
BRANCH   13   12
ATOM    121  H18 UNL A   1      30.500  41.459  44.418  1.00  0.00    +0.000 H 
ATOM     12  N2  UNL A   1      30.647  40.657  44.968  1.00  0.00    +0.000 N 
BRANCH   12   11
ATOM     11  C9  UNL A   1      31.606  40.807  46.050  1.00  0.00    +0.000 C 
ATOM    119  H16 UNL A   1      31.191  41.462  46.788  1.00  0.00    +0.000 H 
ATOM    120  H17 UNL A   1      31.798  39.834  46.454  1.00  0.00    +0.000 H 
BRANCH   11   10
ATOM     10  C8  UNL A   1      32.935  41.382  45.573  1.00  0.00    +0.000 C 
ATOM    117  H14 UNL A   1      33.721  40.886  46.102  1.00  0.00    +0.000 H 
ATOM    118  H15 UNL A   1      32.969  41.223  44.516  1.00  0.00    +0.000 H 
BRANCH   10    9
ATOM      9  C7  UNL A   1      33.095  42.889  45.786  1.00  0.00    +0.000 C 
ATOM    115  H12 UNL A   1      34.017  43.053  46.305  1.00  0.00    +0.000 H 
ATOM    116  H13 UNL A   1      33.069  43.331  44.813  1.00  0.00    +0.000 H 
BRANCH    9    8
ATOM    113  H10 UNL A   1      31.692  44.451  46.077  1.00  0.00    +0.000 H 
ATOM    114  H11 UNL A   1      31.190  42.830  46.652  1.00  0.00    +0.000 H 
ATOM      8  C6  UNL A   1      31.974  43.555  46.588  1.00  0.00    +0.000 C 
BRANCH    8    7
ATOM    111  H8  UNL A   1      33.347  44.249  48.055  1.00  0.00    +0.000 H 
ATOM      7  C5  UNL A   1      32.327  43.926  48.034  1.00  0.00    +0.000 C 
ATOM    112  H9  UNL A   1      31.635  44.688  48.326  1.00  0.00    +0.000 H 
BRANCH    7    6
ATOM    110  H7  UNL A   1      33.083  42.695  49.599  1.00  0.00    +0.000 H 
ATOM    109  H6  UNL A   1      31.941  41.883  48.532  1.00  0.00    +0.000 H 
ATOM      6  C4  UNL A   1      32.167  42.790  49.052  1.00  0.00    +0.000 C 
BRANCH    6    5
ATOM    108  H5  UNL A   1      31.363  43.262  50.924  1.00  0.00    +0.000 H 
ATOM      5  N1  UNL A   1      31.102  43.072  49.995  1.00  0.00    +0.000 N 
BRANCH    5    3
ATOM      3  C3  UNL A   1      29.765  43.096  49.700  1.00  0.00    +0.000 C 
ATOM      4  O1  UNL A   1      29.091  43.935  50.298  1.00  0.00    +0.000 O 
BRANCH    3    2
ATOM      2  C2  UNL A   1      29.213  42.111  48.656  1.00  0.00    +0.000 C 
ATOM    107  H4  UNL A   1      30.080  41.657  48.224  1.00  0.00    +0.000 H 
BRANCH    2    1
ATOM      1  C1  UNL A   1      28.376  42.890  47.632  1.00  0.00    +0.000 C 
ATOM    106  H3  UNL A   1      28.045  43.808  48.067  1.00  0.00    +0.000 H 
ATOM    105  H2  UNL A   1      28.972  43.097  46.768  1.00  0.00    +0.000 H 
ATOM    104  H1  UNL A   1      27.526  42.303  47.346  1.00  0.00    +0.000 H 
ENDBRANCH    2    1
BRANCH    2   78
ATOM    101  C75 UNL A   1      26.394  39.946  50.145  1.00  0.00    +0.000 C 
ATOM    102  F16 UNL A   1      25.204  40.148  50.734  1.00  0.00    +0.000 F 
ATOM    103  C76 UNL A   1      27.170  41.064  49.847  1.00  0.00    +0.000 C 
ATOM    136  H33 UNL A   1      29.795  39.485  48.534  1.00  0.00    +0.000 H 
ATOM    137  H34 UNL A   1      28.429  37.555  49.033  1.00  0.00    +0.000 H 
ATOM     78  C55 UNL A   1      28.396  40.930  49.188  1.00  0.00    +0.000 C 
ATOM     79  C56 UNL A   1      28.857  39.621  48.941  1.00  0.00    +0.000 C 
ATOM     80  C57 UNL A   1      28.068  38.500  49.236  1.00  0.00    +0.000 C 
ATOM     81  C58 UNL A   1      26.796  38.650  49.802  1.00  0.00    +0.000 C 
ATOM    154  H51 UNL A   1      26.836  42.002  50.117  1.00  0.00    +0.000 H 
BRANCH   81   82
ATOM    100  C74 UNL A   1      24.806  37.594  50.838  1.00  0.00    +0.000 C 
ATOM    138  H35 UNL A   1      26.753  36.285  48.446  1.00  0.00    +0.000 H 
ATOM    139  H36 UNL A   1      25.169  34.465  48.684  1.00  0.00    +0.000 H 
ATOM    140  H37 UNL A   1      23.342  34.638  50.276  1.00  0.00    +0.000 H 
ATOM     82  C59 UNL A   1      25.869  37.515  49.919  1.00  0.00    +0.000 C 
ATOM     83  C60 UNL A   1      25.985  36.362  49.131  1.00  0.00    +0.000 C 
ATOM     84  C61 UNL A   1      25.068  35.313  49.264  1.00  0.00    +0.000 C 
ATOM     85  C62 UNL A   1      24.018  35.411  50.178  1.00  0.00    +0.000 C 
ATOM     86  C63 UNL A   1      23.886  36.559  50.956  1.00  0.00    +0.000 C 
ATOM    153  H50 UNL A   1      24.709  38.432  51.432  1.00  0.00    +0.000 H 
BRANCH   86   87
ATOM     87  O3  UNL A   1      22.822  36.557  51.888  1.00  0.00    +0.000 O 
BRANCH   87   88
ATOM     89  O4  UNL A   1      20.558  36.475  51.302  1.00  0.00    +0.000 O 
ATOM     88  C64 UNL A   1      21.553  37.088  51.650  1.00  0.00    +0.000 C 
BRANCH   88   90
ATOM     90  N7  UNL A   1      21.491  38.442  51.862  1.00  0.00    +0.000 N 
ATOM    141  H38 UNL A   1      21.668  39.038  51.098  1.00  0.00    +0.000 H 
BRANCH   90   91
ATOM     91  C65 UNL A   1      21.181  39.049  53.135  1.00  0.00    +0.000 C 
ATOM    142  H39 UNL A   1      21.878  39.842  53.306  1.00  0.00    +0.000 H 
ATOM    143  H40 UNL A   1      21.244  38.271  53.867  1.00  0.00    +0.000 H 
BRANCH   91   92
ATOM    145  H42 UNL A   1      19.448  39.714  52.215  1.00  0.00    +0.000 H 
ATOM     92  C66 UNL A   1      19.767  39.624  53.233  1.00  0.00    +0.000 C 
ATOM    144  H41 UNL A   1      19.196  38.958  53.846  1.00  0.00    +0.000 H 
BRANCH   92   93
ATOM    146  H43 UNL A   1      20.506  41.559  53.620  1.00  0.00    +0.000 H 
ATOM    147  H44 UNL A   1      19.329  40.848  54.829  1.00  0.00    +0.000 H 
ATOM     93  C67 UNL A   1      19.593  41.036  53.809  1.00  0.00    +0.000 C 
BRANCH   93   94
ATOM     97  C71 UNL A   1      16.528  43.702  52.314  1.00  0.00    +0.000 C 
ATOM     98  C72 UNL A   1      17.846  44.123  52.451  1.00  0.00    +0.000 C 
ATOM     99  C73 UNL A   1      18.809  43.241  52.946  1.00  0.00    +0.000 C 
ATOM    148  H45 UNL A   1      16.864  40.572  53.461  1.00  0.00    +0.000 H 
ATOM    149  H46 UNL A   1      15.199  42.092  52.576  1.00  0.00    +0.000 H 
ATOM    150  H47 UNL A   1      15.814  44.349  51.942  1.00  0.00    +0.000 H 
ATOM    151  H48 UNL A   1      18.112  45.084  52.188  1.00  0.00    +0.000 H 
ATOM    152  H49 UNL A   1      19.786  43.558  53.035  1.00  0.00    +0.000 H 
ATOM     94  C68 UNL A   1      18.473  41.928  53.326  1.00  0.00    +0.000 C 
ATOM     95  C69 UNL A   1      17.141  41.529  53.187  1.00  0.00    +0.000 C 
ATOM     96  C70 UNL A   1      16.177  42.407  52.680  1.00  0.00    +0.000 C 
ENDBRANCH   93   94
ENDBRANCH   92   93
ENDBRANCH   91   92
ENDBRANCH   90   91
ENDBRANCH   88   90
ENDBRANCH   87   88
ENDBRANCH   86   87
ENDBRANCH   81   82
ENDBRANCH    2   78
ENDBRANCH    3    2
ENDBRANCH    5    3
ENDBRANCH    6    5
ENDBRANCH    7    6
ENDBRANCH    8    7
ENDBRANCH    9    8
ENDBRANCH   10    9
ENDBRANCH   11   10
ENDBRANCH   12   11
ENDBRANCH   13   12
ENDBRANCH   15   13
ENDBRANCH   19   18
BRANCH   23   24
ATOM     33  C24 UNL A   1      21.175  43.963  48.937  1.00  0.00    +0.000 C 
ATOM     34  F5  UNL A   1      20.777  43.799  47.666  1.00  0.00    +0.000 F 
ATOM     24  C19 UNL A   1      21.484  42.849  49.732  1.00  0.00    +0.000 C 
ATOM     25  C20 UNL A   1      21.899  43.080  51.052  1.00  0.00    +0.000 C 
ATOM     26  F1  UNL A   1      22.194  42.048  51.856  1.00  0.00    +0.000 F 
ATOM     27  C21 UNL A   1      21.974  44.372  51.565  1.00  0.00    +0.000 C 
ATOM     28  F2  UNL A   1      22.327  44.565  52.843  1.00  0.00    +0.000 F 
ATOM     29  C22 UNL A   1      21.670  45.459  50.758  1.00  0.00    +0.000 C 
ATOM     30  F3  UNL A   1      21.747  46.703  51.252  1.00  0.00    +0.000 F 
ATOM     31  C23 UNL A   1      21.278  45.256  49.444  1.00  0.00    +0.000 C 
ATOM     32  F4  UNL A   1      20.993  46.306  48.661  1.00  0.00    +0.000 F 
ENDBRANCH   23   24
BRANCH   40   41
ATOM     41  C30 UNL A   1      16.749  37.420  49.450  1.00  0.00    +0.000 C 
ATOM     42  C31 UNL A   1      16.408  37.356  50.808  1.00  0.00    +0.000 C 
ATOM     43  F6  UNL A   1      17.354  37.491  51.749  1.00  0.00    +0.000 F 
ATOM     44  C32 UNL A   1      15.095  37.115  51.203  1.00  0.00    +0.000 C 
ATOM     45  F7  UNL A   1      14.797  37.017  52.506  1.00  0.00    +0.000 F 
ATOM     46  C33 UNL A   1      14.097  36.964  50.252  1.00  0.00    +0.000 C 
ATOM     47  F8  UNL A   1      12.833  36.739  50.635  1.00  0.00    +0.000 F 
ATOM     48  C34 UNL A   1      14.411  37.040  48.903  1.00  0.00    +0.000 C 
ATOM     49  F9  UNL A   1      13.445  36.904  47.983  1.00  0.00    +0.000 F 
ATOM     50  C35 UNL A   1      15.727  37.254  48.504  1.00  0.00    +0.000 C 
ATOM     51  F10 UNL A   1      16.003  37.312  47.192  1.00  0.00    +0.000 F 
ENDBRANCH   40   41
BRANCH   55   56
ATOM     65  C44 UNL A   1      20.925  33.248  44.826  1.00  0.00    +0.000 C 
ATOM     66  F15 UNL A   1      20.391  34.213  44.062  1.00  0.00    +0.000 F 
ATOM     56  C39 UNL A   1      21.467  33.563  46.079  1.00  0.00    +0.000 C 
ATOM     57  C40 UNL A   1      22.008  32.517  46.840  1.00  0.00    +0.000 C 
ATOM     58  F11 UNL A   1      22.556  32.775  48.036  1.00  0.00    +0.000 F 
ATOM     59  C41 UNL A   1      22.020  31.211  46.359  1.00  0.00    +0.000 C 
ATOM     60  F12 UNL A   1      22.578  30.235  47.090  1.00  0.00    +0.000 F 
ATOM     61  C42 UNL A   1      21.470  30.919  45.120  1.00  0.00    +0.000 C 
ATOM     62  F13 UNL A   1      21.478  29.662  44.661  1.00  0.00    +0.000 F 
ATOM     63  C43 UNL A   1      20.916  31.936  44.356  1.00  0.00    +0.000 C 
ATOM     64  F14 UNL A   1      20.372  31.657  43.164  1.00  0.00    +0.000 F 
ENDBRANCH   55   56
TORSDOF 25
ENDMDL
MODEL 10
REMARK VINA RESULT:      -6.9     34.406     40.891
ROOT
ATOM    129  H26 UNL A   1      23.885   4.860   7.163  1.00  0.00    +0.000 H 
ATOM    130  H27 UNL A   1      25.469   8.665   4.282  1.00  0.00    +0.000 H 
ATOM    131  H28 UNL A   1      23.764  10.132   5.505  1.00  0.00    +0.000 H 
ATOM    132  H29 UNL A   1      20.510   2.171  10.698  1.00  0.00    +0.000 H 
ATOM    133  H30 UNL A   1      22.491   0.800   9.832  1.00  0.00    +0.000 H 
ATOM     19  C15 UNL A   1      24.070   2.167   7.895  1.00  0.00    +0.000 C 
ATOM     20  C16 UNL A   1      22.920   2.714   8.693  1.00  0.00    +0.000 C 
ATOM     21  N3  UNL A   1      22.399   3.915   8.680  1.00  0.00    +0.000 N 
ATOM     22  C17 UNL A   1      21.332   3.873   9.568  1.00  0.00    +0.000 C 
ATOM     23  C18 UNL A   1      20.509   4.878   9.948  1.00  0.00    +0.000 C 
ATOM     35  C25 UNL A   1      20.613   6.235   9.475  1.00  0.00    +0.000 C 
ATOM     36  C26 UNL A   1      19.869   7.340   9.850  1.00  0.00    +0.000 C 
ATOM     37  C27 UNL A   1      20.303   8.436   9.097  1.00  0.00    +0.000 C 
ATOM     38  C28 UNL A   1      21.344   8.022   8.280  1.00  0.00    +0.000 C 
ATOM     39  N4  UNL A   1      21.521   6.669   8.520  1.00  0.00    +0.000 N 
ATOM     40  C29 UNL A   1      22.119   8.800   7.349  1.00  0.00    +0.000 C 
ATOM     52  C36 UNL A   1      23.136   8.323   6.593  1.00  0.00    +0.000 C 
ATOM     53  N5  UNL A   1      23.653   7.036   6.540  1.00  0.00    +0.000 N 
ATOM     54  C37 UNL A   1      24.618   7.072   5.654  1.00  0.00    +0.000 C 
ATOM     55  C38 UNL A   1      25.539   5.969   5.207  1.00  0.00    +0.000 C 
ATOM     67  C45 UNL A   1      25.428   4.749   5.768  1.00  0.00    +0.000 C 
ATOM     68  C46 UNL A   1      26.252   3.590   5.444  1.00  0.00    +0.000 C 
ATOM     69  C47 UNL A   1      25.834   2.539   6.169  1.00  0.00    +0.000 C 
ATOM     70  C48 UNL A   1      24.731   2.962   7.032  1.00  0.00    +0.000 C 
ATOM     71  N6  UNL A   1      24.562   4.291   6.730  1.00  0.00    +0.000 N 
ATOM     72  C49 UNL A   1      24.807   8.386   5.023  1.00  0.00    +0.000 C 
ATOM     73  C50 UNL A   1      23.903   9.120   5.658  1.00  0.00    +0.000 C 
ATOM     74  C51 UNL A   1      21.250   2.516  10.067  1.00  0.00    +0.000 C 
ATOM     75  C52 UNL A   1      22.248   1.777   9.608  1.00  0.00    +0.000 C 
ATOM    124  H21 UNL A   1      19.125   7.353  10.564  1.00  0.00    +0.000 H 
ATOM    125  H22 UNL A   1      19.914   9.391   9.141  1.00  0.00    +0.000 H 
ATOM    126  H23 UNL A   1      22.192   6.099   8.079  1.00  0.00    +0.000 H 
ATOM    127  H24 UNL A   1      27.031   3.579   4.767  1.00  0.00    +0.000 H 
ATOM    128  H25 UNL A   1      26.227   1.587   6.122  1.00  0.00    +0.000 H 
ENDROOT
BRANCH   19   18
ATOM    134  H31 UNL A   1      23.065   0.099   6.522  1.00  0.00    +0.000 H 
ATOM    135  H32 UNL A   1      23.586  -2.258   6.736  1.00  0.00    +0.000 H 
ATOM     76  C53 UNL A   1      23.788  -0.210   7.191  1.00  0.00    +0.000 C 
ATOM     77  C54 UNL A   1      24.115  -1.560   7.283  1.00  0.00    +0.000 C 
ATOM     15  C11 UNL A   1      25.159  -1.968   8.117  1.00  0.00    +0.000 C 
ATOM     16  C12 UNL A   1      25.795  -1.044   8.950  1.00  0.00    +0.000 C 
ATOM     17  C13 UNL A   1      25.422   0.301   8.904  1.00  0.00    +0.000 C 
ATOM     18  C14 UNL A   1      24.438   0.734   8.002  1.00  0.00    +0.000 C 
ATOM    122  H19 UNL A   1      26.536  -1.354   9.597  1.00  0.00    +0.000 H 
ATOM    123  H20 UNL A   1      25.874   0.981   9.536  1.00  0.00    +0.000 H 
BRANCH   15   13
ATOM     13  C10 UNL A   1      25.606  -3.378   8.144  1.00  0.00    +0.000 C 
ATOM     14  O2  UNL A   1      26.768  -3.654   7.862  1.00  0.00    +0.000 O 
BRANCH   13   12
ATOM    121  H18 UNL A   1      24.250  -4.786   7.703  1.00  0.00    +0.000 H 
ATOM     12  N2  UNL A   1      24.716  -4.373   8.465  1.00  0.00    +0.000 N 
BRANCH   12   11
ATOM     11  C9  UNL A   1      24.364  -4.899   9.774  1.00  0.00    +0.000 C 
ATOM    119  H16 UNL A   1      23.324  -4.722   9.947  1.00  0.00    +0.000 H 
ATOM    120  H17 UNL A   1      24.589  -5.946   9.775  1.00  0.00    +0.000 H 
BRANCH   11   10
ATOM     10  C8  UNL A   1      25.167  -4.249  10.895  1.00  0.00    +0.000 C 
ATOM    117  H14 UNL A   1      25.476  -3.280  10.565  1.00  0.00    +0.000 H 
ATOM    118  H15 UNL A   1      24.524  -4.221  11.749  1.00  0.00    +0.000 H 
BRANCH   10    9
ATOM      9  C7  UNL A   1      26.415  -5.025  11.323  1.00  0.00    +0.000 C 
ATOM    115  H12 UNL A   1      26.109  -6.010  11.613  1.00  0.00    +0.000 H 
ATOM    116  H13 UNL A   1      27.075  -5.014  10.482  1.00  0.00    +0.000 H 
BRANCH    9    8
ATOM    113  H10 UNL A   1      26.537  -4.341  13.326  1.00  0.00    +0.000 H 
ATOM    114  H11 UNL A   1      28.035  -5.054  12.649  1.00  0.00    +0.000 H 
ATOM      8  C6  UNL A   1      27.195  -4.410  12.487  1.00  0.00    +0.000 C 
BRANCH    8    7
ATOM    111  H8  UNL A   1      28.236  -3.020  11.260  1.00  0.00    +0.000 H 
ATOM      7  C5  UNL A   1      27.778  -3.014  12.227  1.00  0.00    +0.000 C 
ATOM    112  H9  UNL A   1      26.960  -2.328  12.305  1.00  0.00    +0.000 H 
BRANCH    7    6
ATOM    110  H7  UNL A   1      29.791  -2.603  12.788  1.00  0.00    +0.000 H 
ATOM    109  H6  UNL A   1      28.778  -3.180  14.108  1.00  0.00    +0.000 H 
ATOM      6  C4  UNL A   1      28.825  -2.548  13.247  1.00  0.00    +0.000 C 
BRANCH    6    5
ATOM    108  H5  UNL A   1      27.914  -1.022  14.350  1.00  0.00    +0.000 H 
ATOM      5  N1  UNL A   1      28.592  -1.177  13.653  1.00  0.00    +0.000 N 
BRANCH    5    3
ATOM      3  C3  UNL A   1      29.236  -0.077  13.151  1.00  0.00    +0.000 C 
ATOM      4  O1  UNL A   1      30.466  -0.105  13.180  1.00  0.00    +0.000 O 
BRANCH    3    2
ATOM      2  C2  UNL A   1      28.399   1.081  12.580  1.00  0.00    +0.000 C 
ATOM    107  H4  UNL A   1      28.305   1.774  13.390  1.00  0.00    +0.000 H 
BRANCH    2    1
ATOM      1  C1  UNL A   1      27.047   0.531  12.107  1.00  0.00    +0.000 C 
ATOM    106  H3  UNL A   1      26.946   0.689  11.054  1.00  0.00    +0.000 H 
ATOM    105  H2  UNL A   1      26.994  -0.516  12.318  1.00  0.00    +0.000 H 
ATOM    104  H1  UNL A   1      26.256   1.039  12.621  1.00  0.00    +0.000 H 
ENDBRANCH    2    1
BRANCH    2   78
ATOM    101  C75 UNL A   1      28.996   2.990   9.286  1.00  0.00    +0.000 C 
ATOM    102  F16 UNL A   1      28.357   3.157   8.116  1.00  0.00    +0.000 F 
ATOM    103  C76 UNL A   1      28.453   2.088  10.198  1.00  0.00    +0.000 C 
ATOM    136  H33 UNL A   1      30.748   2.396  12.595  1.00  0.00    +0.000 H 
ATOM    137  H34 UNL A   1      31.667   3.975  11.014  1.00  0.00    +0.000 H 
ATOM     78  C55 UNL A   1      29.036   1.902  11.455  1.00  0.00    +0.000 C 
ATOM     79  C56 UNL A   1      30.247   2.577  11.711  1.00  0.00    +0.000 C 
ATOM     80  C57 UNL A   1      30.785   3.488  10.792  1.00  0.00    +0.000 C 
ATOM     81  C58 UNL A   1      30.137   3.746   9.578  1.00  0.00    +0.000 C 
ATOM    154  H51 UNL A   1      27.610   1.550   9.944  1.00  0.00    +0.000 H 
BRANCH   81   82
ATOM    100  C74 UNL A   1      31.150   4.543   7.460  1.00  0.00    +0.000 C 
ATOM    138  H35 UNL A   1      29.934   6.440   9.939  1.00  0.00    +0.000 H 
ATOM    139  H36 UNL A   1      30.637   8.199   8.426  1.00  0.00    +0.000 H 
ATOM    140  H37 UNL A   1      31.649   7.638   6.290  1.00  0.00    +0.000 H 
ATOM     82  C59 UNL A   1      30.558   4.847   8.701  1.00  0.00    +0.000 C 
ATOM     83  C60 UNL A   1      30.371   6.194   9.038  1.00  0.00    +0.000 C 
ATOM     84  C61 UNL A   1      30.772   7.210   8.163  1.00  0.00    +0.000 C 
ATOM     85  C62 UNL A   1      31.353   6.890   6.935  1.00  0.00    +0.000 C 
ATOM     86  C63 UNL A   1      31.531   5.553   6.584  1.00  0.00    +0.000 C 
ATOM    153  H50 UNL A   1      31.302   3.557   7.197  1.00  0.00    +0.000 H 
BRANCH   86   87
ATOM     87  O3  UNL A   1      32.169   5.317   5.344  1.00  0.00    +0.000 O 
BRANCH   87   88
ATOM     89  O4  UNL A   1      30.860   4.065   3.862  1.00  0.00    +0.000 O 
ATOM     88  C64 UNL A   1      31.887   4.246   4.495  1.00  0.00    +0.000 C 
BRANCH   88   90
ATOM     90  N7  UNL A   1      32.923   3.351   4.400  1.00  0.00    +0.000 N 
ATOM    141  H38 UNL A   1      33.684   3.585   3.820  1.00  0.00    +0.000 H 
BRANCH   90   91
ATOM     91  C65 UNL A   1      32.968   2.088   5.098  1.00  0.00    +0.000 C 
ATOM    142  H39 UNL A   1      33.873   1.587   4.825  1.00  0.00    +0.000 H 
ATOM    143  H40 UNL A   1      32.089   1.549   4.812  1.00  0.00    +0.000 H 
BRANCH   91   92
ATOM    145  H42 UNL A   1      33.803   2.776   6.865  1.00  0.00    +0.000 H 
ATOM     92  C66 UNL A   1      32.929   2.207   6.623  1.00  0.00    +0.000 C 
ATOM    144  H41 UNL A   1      31.991   2.655   6.881  1.00  0.00    +0.000 H 
BRANCH   92   93
ATOM    146  H43 UNL A   1      33.738   1.155   8.259  1.00  0.00    +0.000 H 
ATOM    147  H44 UNL A   1      33.380   0.202   6.736  1.00  0.00    +0.000 H 
ATOM     93  C67 UNL A   1      33.066   0.927   7.458  1.00  0.00    +0.000 C 
BRANCH   93   94
ATOM     97  C71 UNL A   1      29.511  -0.963   9.048  1.00  0.00    +0.000 C 
ATOM     98  C72 UNL A   1      29.520  -0.393   7.780  1.00  0.00    +0.000 C 
ATOM     99  C73 UNL A   1      30.680   0.218   7.300  1.00  0.00    +0.000 C 
ATOM    148  H45 UNL A   1      32.658  -0.252   9.953  1.00  0.00    +0.000 H 
ATOM    149  H46 UNL A   1      30.654  -1.335  10.774  1.00  0.00    +0.000 H 
ATOM    150  H47 UNL A   1      28.657  -1.421   9.405  1.00  0.00    +0.000 H 
ATOM    151  H48 UNL A   1      28.671  -0.421   7.195  1.00  0.00    +0.000 H 
ATOM    152  H49 UNL A   1      30.681   0.629   6.354  1.00  0.00    +0.000 H 
ATOM     94  C68 UNL A   1      31.849   0.284   8.081  1.00  0.00    +0.000 C 
ATOM     95  C69 UNL A   1      31.816  -0.288   9.356  1.00  0.00    +0.000 C 
ATOM     96  C70 UNL A   1      30.658  -0.911   9.834  1.00  0.00    +0.000 C 
ENDBRANCH   93   94
ENDBRANCH   92   93
ENDBRANCH   91   92
ENDBRANCH   90   91
ENDBRANCH   88   90
ENDBRANCH   87   88
ENDBRANCH   86   87
ENDBRANCH   81   82
ENDBRANCH    2   78
ENDBRANCH    3    2
ENDBRANCH    5    3
ENDBRANCH    6    5
ENDBRANCH    7    6
ENDBRANCH    8    7
ENDBRANCH    9    8
ENDBRANCH   10    9
ENDBRANCH   11   10
ENDBRANCH   12   11
ENDBRANCH   13   12
ENDBRANCH   15   13
ENDBRANCH   19   18
BRANCH   23   24
ATOM     33  C24 UNL A   1      18.154   4.157  10.483  1.00  0.00    +0.000 C 
ATOM     34  F5  UNL A   1      17.902   4.046   9.169  1.00  0.00    +0.000 F 
ATOM     24  C19 UNL A   1      19.424   4.551  10.930  1.00  0.00    +0.000 C 
ATOM     25  C20 UNL A   1      19.629   4.655  12.314  1.00  0.00    +0.000 C 
ATOM     26  F1  UNL A   1      20.830   5.015  12.792  1.00  0.00    +0.000 F 
ATOM     27  C21 UNL A   1      18.613   4.348  13.215  1.00  0.00    +0.000 C 
ATOM     28  F2  UNL A   1      18.847   4.409  14.533  1.00  0.00    +0.000 F 
ATOM     29  C22 UNL A   1      17.363   3.968  12.750  1.00  0.00    +0.000 C 
ATOM     30  F3  UNL A   1      16.384   3.677  13.618  1.00  0.00    +0.000 F 
ATOM     31  C23 UNL A   1      17.131   3.878  11.386  1.00  0.00    +0.000 C 
ATOM     32  F4  UNL A   1      15.921   3.519  10.935  1.00  0.00    +0.000 F 
ENDBRANCH   23   24
BRANCH   40   41
ATOM     41  C30 UNL A   1      21.791  10.258   7.215  1.00  0.00    +0.000 C 
ATOM     42  C31 UNL A   1      22.578  11.245   7.826  1.00  0.00    +0.000 C 
ATOM     43  F6  UNL A   1      23.621  10.897   8.594  1.00  0.00    +0.000 F 
ATOM     44  C32 UNL A   1      22.272  12.595   7.677  1.00  0.00    +0.000 C 
ATOM     45  F7  UNL A   1      23.012  13.520   8.304  1.00  0.00    +0.000 F 
ATOM     46  C33 UNL A   1      21.196  12.984   6.894  1.00  0.00    +0.000 C 
ATOM     47  F8  UNL A   1      20.907  14.284   6.748  1.00  0.00    +0.000 F 
ATOM     48  C34 UNL A   1      20.414  12.024   6.268  1.00  0.00    +0.000 C 
ATOM     49  F9  UNL A   1      19.379  12.399   5.503  1.00  0.00    +0.000 F 
ATOM     50  C35 UNL A   1      20.701  10.673   6.435  1.00  0.00    +0.000 C 
ATOM     51  F10 UNL A   1      19.921   9.766   5.827  1.00  0.00    +0.000 F 
ENDBRANCH   40   41
BRANCH   55   56
ATOM     65  C44 UNL A   1      26.317   6.064   2.815  1.00  0.00    +0.000 C 
ATOM     66  F15 UNL A   1      25.098   5.685   2.406  1.00  0.00    +0.000 F 
ATOM     56  C39 UNL A   1      26.584   6.218   4.182  1.00  0.00    +0.000 C 
ATOM     57  C40 UNL A   1      27.876   6.612   4.557  1.00  0.00    +0.000 C 
ATOM     58  F11 UNL A   1      28.170   6.791   5.853  1.00  0.00    +0.000 F 
ATOM     59  C41 UNL A   1      28.858   6.856   3.601  1.00  0.00    +0.000 C 
ATOM     60  F12 UNL A   1      30.075   7.269   3.984  1.00  0.00    +0.000 F 
ATOM     61  C42 UNL A   1      28.576   6.688   2.254  1.00  0.00    +0.000 C 
ATOM     62  F13 UNL A   1      29.523   6.920   1.336  1.00  0.00    +0.000 F 
ATOM     63  C43 UNL A   1      27.308   6.286   1.861  1.00  0.00    +0.000 C 
ATOM     64  F14 UNL A   1      27.035   6.110   0.561  1.00  0.00    +0.000 F 
ENDBRANCH   55   56
TORSDOF 25
ENDMDL
