MODEL 1
REMARK VINA RESULT:     -10.7      0.000      0.000
ROOT
ATOM    129  H31 UNL A   1      36.729  34.839  33.842  1.00  0.00    +0.000 H 
ATOM    130  H32 UNL A   1      38.182  35.220  35.915  1.00  0.00    +0.000 H 
ATOM    131  H33 UNL A   1      43.536  26.990  33.770  1.00  0.00    +0.000 H 
ATOM    132  H34 UNL A   1      42.405  26.853  31.476  1.00  0.00    +0.000 H 
ATOM     28  C21 UNL A   1      40.342  28.781  31.103  1.00  0.00    +0.000 C 
ATOM     29  C22 UNL A   1      41.287  28.661  32.264  1.00  0.00    +0.000 C 
ATOM     30  N5  UNL A   1      41.371  29.401  33.341  1.00  0.00    +0.000 N 
ATOM     31  C23 UNL A   1      42.371  28.827  34.115  1.00  0.00    +0.000 C 
ATOM     32  C24 UNL A   1      42.868  29.252  35.302  1.00  0.00    +0.000 C 
ATOM     44  C31 UNL A   1      42.430  30.441  35.986  1.00  0.00    +0.000 C 
ATOM     45  C32 UNL A   1      42.940  31.010  37.141  1.00  0.00    +0.000 C 
ATOM     46  C33 UNL A   1      42.162  32.129  37.458  1.00  0.00    +0.000 C 
ATOM     47  C34 UNL A   1      41.195  32.282  36.478  1.00  0.00    +0.000 C 
ATOM     48  N6  UNL A   1      41.373  31.243  35.579  1.00  0.00    +0.000 N 
ATOM     49  C35 UNL A   1      40.183  33.302  36.367  1.00  0.00    +0.000 C 
ATOM     61  C42 UNL A   1      39.294  33.406  35.348  1.00  0.00    +0.000 C 
ATOM     62  N7  UNL A   1      39.144  32.591  34.235  1.00  0.00    +0.000 N 
ATOM     63  C43 UNL A   1      38.144  33.092  33.553  1.00  0.00    +0.000 C 
ATOM     64  C44 UNL A   1      37.554  32.618  32.255  1.00  0.00    +0.000 C 
ATOM     76  C51 UNL A   1      38.113  31.574  31.616  1.00  0.00    +0.000 C 
ATOM     77  C52 UNL A   1      37.657  31.017  30.347  1.00  0.00    +0.000 C 
ATOM     78  C53 UNL A   1      38.412  29.952  30.039  1.00  0.00    +0.000 C 
ATOM     79  C54 UNL A   1      39.426  29.768  31.078  1.00  0.00    +0.000 C 
ATOM     80  N8  UNL A   1      39.185  30.789  31.964  1.00  0.00    +0.000 N 
ATOM     81  C55 UNL A   1      37.535  34.280  34.166  1.00  0.00    +0.000 C 
ATOM     82  C56 UNL A   1      38.293  34.447  35.241  1.00  0.00    +0.000 C 
ATOM     83  C57 UNL A   1      42.834  27.654  33.404  1.00  0.00    +0.000 C 
ATOM     84  C58 UNL A   1      42.241  27.543  32.225  1.00  0.00    +0.000 C 
ATOM    123  H25 UNL A   1      43.754  30.667  37.675  1.00  0.00    +0.000 H 
ATOM    124  H26 UNL A   1      42.288  32.736  38.282  1.00  0.00    +0.000 H 
ATOM    125  H27 UNL A   1      40.831  31.094  34.772  1.00  0.00    +0.000 H 
ATOM    126  H28 UNL A   1      36.878  31.384  29.777  1.00  0.00    +0.000 H 
ATOM    127  H29 UNL A   1      38.296  29.356  29.203  1.00  0.00    +0.000 H 
ATOM    128  H30 UNL A   1      39.728  30.942  32.771  1.00  0.00    +0.000 H 
ENDROOT
BRANCH   28   27
ATOM    122  H24 UNL A   1      42.097  28.464  29.060  1.00  0.00    +0.000 H 
ATOM    133  H35 UNL A   1      38.620  26.764  30.724  1.00  0.00    +0.000 H 
ATOM    134  H36 UNL A   1      38.610  25.087  28.974  1.00  0.00    +0.000 H 
ATOM     85  C59 UNL A   1      39.341  26.786  29.986  1.00  0.00    +0.000 C 
ATOM     86  C60 UNL A   1      39.311  25.845  28.961  1.00  0.00    +0.000 C 
ATOM     24  C17 UNL A   1      40.232  25.928  27.911  1.00  0.00    +0.000 C 
ATOM     25  C18 UNL A   1      41.260  26.874  27.955  1.00  0.00    +0.000 C 
ATOM     26  C19 UNL A   1      41.326  27.780  29.015  1.00  0.00    +0.000 C 
ATOM     27  C20 UNL A   1      40.345  27.765  30.021  1.00  0.00    +0.000 C 
ATOM    121  H23 UNL A   1      41.968  26.904  27.205  1.00  0.00    +0.000 H 
BRANCH   24   22
ATOM     22  C16 UNL A   1      40.158  25.010  26.755  1.00  0.00    +0.000 C 
ATOM     23  O3  UNL A   1      39.097  24.878  26.151  1.00  0.00    +0.000 O 
BRANCH   22   21
ATOM     21  N4  UNL A   1      41.264  24.297  26.365  1.00  0.00    +0.000 N 
ATOM    120  H22 UNL A   1      41.972  24.825  25.929  1.00  0.00    +0.000 H 
BRANCH   21   20
ATOM     20  C15 UNL A   1      41.545  22.876  26.501  1.00  0.00    +0.000 C 
ATOM    118  H20 UNL A   1      41.793  22.481  25.538  1.00  0.00    +0.000 H 
ATOM    119  H21 UNL A   1      42.358  22.767  27.187  1.00  0.00    +0.000 H 
BRANCH   20   19
ATOM     19  C14 UNL A   1      40.353  22.103  27.059  1.00  0.00    +0.000 C 
ATOM    116  H18 UNL A   1      40.691  21.533  27.898  1.00  0.00    +0.000 H 
ATOM    117  H19 UNL A   1      39.614  22.832  27.315  1.00  0.00    +0.000 H 
BRANCH   19   18
ATOM     18  C13 UNL A   1      39.690  21.144  26.067  1.00  0.00    +0.000 C 
ATOM    115  H17 UNL A   1      39.536  20.228  26.599  1.00  0.00    +0.000 H 
ATOM    114  H16 UNL A   1      40.336  21.044  25.220  1.00  0.00    +0.000 H 
BRANCH   18   17
ATOM     17  C12 UNL A   1      38.308  21.577  25.559  1.00  0.00    +0.000 C 
ATOM    113  H15 UNL A   1      38.484  22.148  24.671  1.00  0.00    +0.000 H 
ATOM    112  H14 UNL A   1      37.828  22.134  26.336  1.00  0.00    +0.000 H 
BRANCH   17   16
ATOM    110  H12 UNL A   1      37.819  19.908  24.327  1.00  0.00    +0.000 H 
ATOM    111  H13 UNL A   1      37.252  19.803  26.009  1.00  0.00    +0.000 H 
ATOM     16  C11 UNL A   1      37.375  20.429  25.151  1.00  0.00    +0.000 C 
BRANCH   16   15
ATOM    108  H10 UNL A   1      36.064  21.471  23.831  1.00  0.00    +0.000 H 
ATOM    109  H11 UNL A   1      35.369  20.034  24.574  1.00  0.00    +0.000 H 
ATOM     15  C10 UNL A   1      35.981  20.898  24.730  1.00  0.00    +0.000 C 
BRANCH   15   14
ATOM    107  H9  UNL A   1      35.872  22.514  26.030  1.00  0.00    +0.000 H 
ATOM     14  N3  UNL A   1      35.366  21.715  25.758  1.00  0.00    +0.000 N 
BRANCH   14   12
ATOM     12  C9  UNL A   1      34.173  21.517  26.398  1.00  0.00    +0.000 C 
ATOM     13  O2  UNL A   1      34.178  21.414  27.626  1.00  0.00    +0.000 O 
BRANCH   12   11
ATOM    105  H7  UNL A   1      32.838  20.386  25.173  1.00  0.00    +0.000 H 
ATOM    106  H8  UNL A   1      32.054  21.554  26.237  1.00  0.00    +0.000 H 
ATOM     11  C8  UNL A   1      32.881  21.373  25.584  1.00  0.00    +0.000 C 
BRANCH   11   10
ATOM     10  N2  UNL A   1      32.820  22.337  24.499  1.00  0.00    +0.000 N 
ATOM    104  H6  UNL A   1      33.229  22.075  23.642  1.00  0.00    +0.000 H 
BRANCH   10    9
ATOM      7  C6  UNL A   1      32.089  25.704  25.097  1.00  0.00    +0.000 C 
ATOM      8  N1  UNL A   1      32.805  24.530  25.249  1.00  0.00    +0.000 N 
ATOM      9  C7  UNL A   1      32.250  23.559  24.561  1.00  0.00    +0.000 C 
ATOM     87  S1  UNL A   1      30.801  24.012  23.739  1.00  0.00    +0.000 S 
ATOM     88  C61 UNL A   1      31.027  25.644  24.206  1.00  0.00    +0.000 C 
BRANCH    7    6
ATOM     97  C69 UNL A   1      31.607  27.532  26.698  1.00  0.00    +0.000 C 
ATOM     98  C70 UNL A   1      32.023  28.648  27.435  1.00  0.00    +0.000 C 
ATOM      3  C2  UNL A   1      33.310  29.163  27.256  1.00  0.00    +0.000 C 
ATOM      4  C3  UNL A   1      34.158  28.594  26.308  1.00  0.00    +0.000 C 
ATOM      5  C4  UNL A   1      33.749  27.475  25.581  1.00  0.00    +0.000 C 
ATOM    102  H4  UNL A   1      35.092  29.001  26.141  1.00  0.00    +0.000 H 
ATOM      6  C5  UNL A   1      32.478  26.923  25.789  1.00  0.00    +0.000 C 
ATOM    103  H5  UNL A   1      34.386  27.052  24.888  1.00  0.00    +0.000 H 
ATOM    142  H44 UNL A   1      30.653  27.159  26.825  1.00  0.00    +0.000 H 
ATOM    143  H45 UNL A   1      31.381  29.091  28.110  1.00  0.00    +0.000 H 
BRANCH    3    2
ATOM      2  O1  UNL A   1      33.812  30.247  27.919  1.00  0.00    +0.000 O 
BRANCH    2    1
ATOM      1  C1  UNL A   1      33.354  31.505  27.430  1.00  0.00    +0.000 C 
ATOM     99  H1  UNL A   1      33.122  32.145  28.256  1.00  0.00    +0.000 H 
ATOM    100  H2  UNL A   1      32.474  31.358  26.837  1.00  0.00    +0.000 H 
ATOM    101  H3  UNL A   1      34.117  31.954  26.831  1.00  0.00    +0.000 H 
ENDBRANCH    2    1
ENDBRANCH    3    2
ENDBRANCH    7    6
BRANCH   88   89
ATOM    135  H37 UNL A   1      28.349  26.010  24.417  1.00  0.00    +0.000 H 
ATOM    136  H38 UNL A   1      27.030  27.833  23.518  1.00  0.00    +0.000 H 
ATOM    140  H42 UNL A   1      30.471  29.513  21.802  1.00  0.00    +0.000 H 
ATOM    141  H43 UNL A   1      31.792  27.682  22.681  1.00  0.00    +0.000 H 
ATOM     89  C62 UNL A   1      30.187  26.704  23.644  1.00  0.00    +0.000 C 
ATOM     90  C63 UNL A   1      28.808  26.754  23.868  1.00  0.00    +0.000 C 
ATOM     91  C64 UNL A   1      28.047  27.809  23.351  1.00  0.00    +0.000 C 
ATOM     92  C65 UNL A   1      28.649  28.829  22.611  1.00  0.00    +0.000 C 
ATOM     95  C67 UNL A   1      30.018  28.774  22.363  1.00  0.00    +0.000 C 
ATOM     96  C68 UNL A   1      30.778  27.718  22.873  1.00  0.00    +0.000 C 
BRANCH   92   93
ATOM     93  O4  UNL A   1      27.800  29.813  22.185  1.00  0.00    +0.000 O 
BRANCH   93   94
ATOM    137  H39 UNL A   1      28.616  31.685  22.050  1.00  0.00    +0.000 H 
ATOM    138  H40 UNL A   1      27.679  31.178  20.665  1.00  0.00    +0.000 H 
ATOM    139  H41 UNL A   1      29.268  30.505  20.939  1.00  0.00    +0.000 H 
ATOM     94  C66 UNL A   1      28.376  30.860  21.412  1.00  0.00    +0.000 C 
ENDBRANCH   93   94
ENDBRANCH   92   93
ENDBRANCH   88   89
ENDBRANCH   10    9
ENDBRANCH   11   10
ENDBRANCH   12   11
ENDBRANCH   14   12
ENDBRANCH   15   14
ENDBRANCH   16   15
ENDBRANCH   17   16
ENDBRANCH   18   17
ENDBRANCH   19   18
ENDBRANCH   20   19
ENDBRANCH   21   20
ENDBRANCH   22   21
ENDBRANCH   24   22
ENDBRANCH   28   27
BRANCH   32   33
ATOM     33  C25 UNL A   1      43.942  28.421  35.941  1.00  0.00    +0.000 C 
ATOM     34  C26 UNL A   1      43.639  27.360  36.806  1.00  0.00    +0.000 C 
ATOM     35  F1  UNL A   1      42.363  27.085  37.115  1.00  0.00    +0.000 F 
ATOM     36  C27 UNL A   1      44.649  26.601  37.391  1.00  0.00    +0.000 C 
ATOM     37  F2  UNL A   1      44.337  25.625  38.256  1.00  0.00    +0.000 F 
ATOM     38  C28 UNL A   1      45.978  26.866  37.097  1.00  0.00    +0.000 C 
ATOM     39  F3  UNL A   1      46.950  26.134  37.659  1.00  0.00    +0.000 F 
ATOM     40  C29 UNL A   1      46.301  27.895  36.225  1.00  0.00    +0.000 C 
ATOM     41  F4  UNL A   1      47.584  28.146  35.930  1.00  0.00    +0.000 F 
ATOM     42  C30 UNL A   1      45.293  28.673  35.660  1.00  0.00    +0.000 C 
ATOM     43  F5  UNL A   1      45.638  29.673  34.835  1.00  0.00    +0.000 F 
ENDBRANCH   32   33
BRANCH   49   50
ATOM     50  C36 UNL A   1      40.110  34.338  37.448  1.00  0.00    +0.000 C 
ATOM     51  C37 UNL A   1      40.898  35.498  37.402  1.00  0.00    +0.000 C 
ATOM     52  F6  UNL A   1      41.779  35.676  36.405  1.00  0.00    +0.000 F 
ATOM     53  C38 UNL A   1      40.808  36.463  38.401  1.00  0.00    +0.000 C 
ATOM     54  F7  UNL A   1      41.599  37.544  38.357  1.00  0.00    +0.000 F 
ATOM     55  C39 UNL A   1      39.910  36.303  39.446  1.00  0.00    +0.000 C 
ATOM     56  F8  UNL A   1      39.820  37.236  40.403  1.00  0.00    +0.000 F 
ATOM     57  C40 UNL A   1      39.112  35.170  39.503  1.00  0.00    +0.000 C 
ATOM     58  F9  UNL A   1      38.237  35.019  40.507  1.00  0.00    +0.000 F 
ATOM     59  C41 UNL A   1      39.217  34.191  38.520  1.00  0.00    +0.000 C 
ATOM     60  F10 UNL A   1      38.439  33.102  38.607  1.00  0.00    +0.000 F 
ENDBRANCH   49   50
BRANCH   64   65
ATOM     65  C45 UNL A   1      36.379  33.296  31.654  1.00  0.00    +0.000 C 
ATOM     66  C46 UNL A   1      36.456  33.877  30.382  1.00  0.00    +0.000 C 
ATOM     67  F11 UNL A   1      37.618  33.868  29.713  1.00  0.00    +0.000 F 
ATOM     68  C47 UNL A   1      35.348  34.494  29.805  1.00  0.00    +0.000 C 
ATOM     69  F12 UNL A   1      35.456  35.069  28.600  1.00  0.00    +0.000 F 
ATOM     70  C48 UNL A   1      34.136  34.519  30.480  1.00  0.00    +0.000 C 
ATOM     71  F13 UNL A   1      33.068  35.102  29.920  1.00  0.00    +0.000 F 
ATOM     72  C49 UNL A   1      34.035  33.943  31.738  1.00  0.00    +0.000 C 
ATOM     73  F14 UNL A   1      32.863  33.954  32.388  1.00  0.00    +0.000 F 
ATOM     74  C50 UNL A   1      35.148  33.347  32.326  1.00  0.00    +0.000 C 
ATOM     75  F15 UNL A   1      35.024  32.800  33.544  1.00  0.00    +0.000 F 
ENDBRANCH   64   65
TORSDOF 23
ENDMDL
MODEL 2
REMARK VINA RESULT:     -10.6     37.656     43.275
ROOT
ATOM    129  H31 UNL A   1      15.987  57.462   3.229  1.00  0.00    +0.000 H 
ATOM    130  H32 UNL A   1      17.320  57.256   1.052  1.00  0.00    +0.000 H 
ATOM    131  H33 UNL A   1      15.398  47.398   0.714  1.00  0.00    +0.000 H 
ATOM    132  H34 UNL A   1      13.701  47.665   2.615  1.00  0.00    +0.000 H 
ATOM     28  C21 UNL A   1      13.618  50.292   3.711  1.00  0.00    +0.000 C 
ATOM     29  C22 UNL A   1      14.395  49.821   2.515  1.00  0.00    +0.000 C 
ATOM     30  N5  UNL A   1      15.190  50.499   1.726  1.00  0.00    +0.000 N 
ATOM     31  C23 UNL A   1      15.694  49.578   0.817  1.00  0.00    +0.000 C 
ATOM     32  C24 UNL A   1      16.523  49.796  -0.232  1.00  0.00    +0.000 C 
ATOM     44  C31 UNL A   1      17.031  51.089  -0.610  1.00  0.00    +0.000 C 
ATOM     45  C32 UNL A   1      17.794  51.427  -1.715  1.00  0.00    +0.000 C 
ATOM     46  C33 UNL A   1      18.095  52.791  -1.638  1.00  0.00    +0.000 C 
ATOM     47  C34 UNL A   1      17.484  53.312  -0.508  1.00  0.00    +0.000 C 
ATOM     48  N6  UNL A   1      16.832  52.257   0.111  1.00  0.00    +0.000 N 
ATOM     49  C35 UNL A   1      17.493  54.670  -0.028  1.00  0.00    +0.000 C 
ATOM     61  C42 UNL A   1      16.832  55.109   1.071  1.00  0.00    +0.000 C 
ATOM     62  N7  UNL A   1      16.043  54.392   1.958  1.00  0.00    +0.000 N 
ATOM     63  C43 UNL A   1      15.639  55.253   2.860  1.00  0.00    +0.000 C 
ATOM     64  C44 UNL A   1      14.751  55.028   4.051  1.00  0.00    +0.000 C 
ATOM     76  C51 UNL A   1      14.211  53.811   4.253  1.00  0.00    +0.000 C 
ATOM     77  C52 UNL A   1      13.322  53.454   5.354  1.00  0.00    +0.000 C 
ATOM     78  C53 UNL A   1      13.026  52.148   5.271  1.00  0.00    +0.000 C 
ATOM     79  C54 UNL A   1      13.682  51.582   4.091  1.00  0.00    +0.000 C 
ATOM     80  N8  UNL A   1      14.347  52.647   3.537  1.00  0.00    +0.000 N 
ATOM     81  C55 UNL A   1      16.140  56.618   2.653  1.00  0.00    +0.000 C 
ATOM     82  C56 UNL A   1      16.836  56.482   1.533  1.00  0.00    +0.000 C 
ATOM     83  C57 UNL A   1      15.149  48.287   1.179  1.00  0.00    +0.000 C 
ATOM     84  C58 UNL A   1      14.290  48.392   2.182  1.00  0.00    +0.000 C 
ATOM    123  H25 UNL A   1      18.089  50.783  -2.466  1.00  0.00    +0.000 H 
ATOM    124  H26 UNL A   1      18.674  53.319  -2.308  1.00  0.00    +0.000 H 
ATOM    125  H27 UNL A   1      16.305  52.327   0.939  1.00  0.00    +0.000 H 
ATOM    126  H28 UNL A   1      12.978  54.101   6.081  1.00  0.00    +0.000 H 
ATOM    127  H29 UNL A   1      12.430  51.625   5.933  1.00  0.00    +0.000 H 
ATOM    128  H30 UNL A   1      14.872  52.582   2.706  1.00  0.00    +0.000 H 
ENDROOT
BRANCH   28   27
ATOM    122  H24 UNL A   1      11.044  49.482   3.448  1.00  0.00    +0.000 H 
ATOM    133  H35 UNL A   1      14.471  48.878   5.822  1.00  0.00    +0.000 H 
ATOM    134  H36 UNL A   1      13.243  47.292   7.181  1.00  0.00    +0.000 H 
ATOM     85  C59 UNL A   1      13.476  48.691   5.621  1.00  0.00    +0.000 C 
ATOM     86  C60 UNL A   1      12.763  47.807   6.427  1.00  0.00    +0.000 C 
ATOM     24  C17 UNL A   1      11.393  47.621   6.213  1.00  0.00    +0.000 C 
ATOM     25  C18 UNL A   1      10.768  48.219   5.115  1.00  0.00    +0.000 C 
ATOM     26  C19 UNL A   1      11.498  49.058   4.271  1.00  0.00    +0.000 C 
ATOM     27  C20 UNL A   1      12.851  49.327   4.539  1.00  0.00    +0.000 C 
ATOM    121  H23 UNL A   1       9.768  48.043   4.929  1.00  0.00    +0.000 H 
BRANCH   24   22
ATOM     22  C16 UNL A   1      10.587  46.774   7.117  1.00  0.00    +0.000 C 
ATOM     23  O3  UNL A   1      10.098  45.730   6.697  1.00  0.00    +0.000 O 
BRANCH   22   21
ATOM     21  N4  UNL A   1      10.374  47.159   8.417  1.00  0.00    +0.000 N 
ATOM    120  H22 UNL A   1       9.857  47.990   8.530  1.00  0.00    +0.000 H 
BRANCH   21   20
ATOM     20  C15 UNL A   1      10.799  46.521   9.654  1.00  0.00    +0.000 C 
ATOM    118  H20 UNL A   1       9.945  46.088  10.129  1.00  0.00    +0.000 H 
ATOM    119  H21 UNL A   1      11.526  45.776   9.405  1.00  0.00    +0.000 H 
BRANCH   20   19
ATOM     19  C14 UNL A   1      11.451  47.509  10.617  1.00  0.00    +0.000 C 
ATOM    116  H18 UNL A   1      10.811  47.614  11.468  1.00  0.00    +0.000 H 
ATOM    117  H19 UNL A   1      12.411  47.106  10.859  1.00  0.00    +0.000 H 
BRANCH   19   18
ATOM     18  C13 UNL A   1      11.701  48.902  10.034  1.00  0.00    +0.000 C 
ATOM    115  H17 UNL A   1      11.427  49.597  10.801  1.00  0.00    +0.000 H 
ATOM    114  H16 UNL A   1      11.118  48.997   9.142  1.00  0.00    +0.000 H 
BRANCH   18   17
ATOM     17  C12 UNL A   1      13.161  49.214   9.681  1.00  0.00    +0.000 C 
ATOM    113  H15 UNL A   1      13.295  50.260   9.865  1.00  0.00    +0.000 H 
ATOM    112  H14 UNL A   1      13.322  48.937   8.660  1.00  0.00    +0.000 H 
BRANCH   17   16
ATOM    110  H12 UNL A   1      14.906  49.218  10.904  1.00  0.00    +0.000 H 
ATOM    111  H13 UNL A   1      13.683  48.002  11.331  1.00  0.00    +0.000 H 
ATOM     16  C11 UNL A   1      14.209  48.492  10.540  1.00  0.00    +0.000 C 
BRANCH   16   15
ATOM    108  H10 UNL A   1      15.809  47.092  10.379  1.00  0.00    +0.000 H 
ATOM    109  H11 UNL A   1      14.320  46.602   9.576  1.00  0.00    +0.000 H 
ATOM     15  C10 UNL A   1      14.984  47.416   9.779  1.00  0.00    +0.000 C 
BRANCH   15   14
ATOM    107  H9  UNL A   1      15.037  47.586   7.709  1.00  0.00    +0.000 H 
ATOM     14  N3  UNL A   1      15.489  47.921   8.517  1.00  0.00    +0.000 N 
BRANCH   14   12
ATOM     12  C9  UNL A   1      16.513  48.803   8.305  1.00  0.00    +0.000 C 
ATOM     13  O2  UNL A   1      16.655  49.275   7.175  1.00  0.00    +0.000 O 
BRANCH   12   11
ATOM    105  H7  UNL A   1      17.160  48.639  10.334  1.00  0.00    +0.000 H 
ATOM    106  H8  UNL A   1      18.461  48.817   9.156  1.00  0.00    +0.000 H 
ATOM     11  C8  UNL A   1      17.482  49.139   9.445  1.00  0.00    +0.000 C 
BRANCH   11   10
ATOM     10  N2  UNL A   1      17.534  50.568   9.703  1.00  0.00    +0.000 N 
ATOM    104  H6  UNL A   1      18.380  51.030   9.505  1.00  0.00    +0.000 H 
BRANCH   10    9
ATOM      7  C6  UNL A   1      14.686  52.557  10.112  1.00  0.00    +0.000 C 
ATOM      8  N1  UNL A   1      15.680  51.923   9.386  1.00  0.00    +0.000 N 
ATOM      9  C7  UNL A   1      16.523  51.317  10.191  1.00  0.00    +0.000 C 
ATOM     87  S1  UNL A   1      16.179  51.533  11.869  1.00  0.00    +0.000 S 
ATOM     88  C61 UNL A   1      14.726  52.351  11.483  1.00  0.00    +0.000 C 
BRANCH    7    6
ATOM     97  C69 UNL A   1      12.457  52.724   9.044  1.00  0.00    +0.000 C 
ATOM     98  C70 UNL A   1      11.420  53.494   8.502  1.00  0.00    +0.000 C 
ATOM      3  C2  UNL A   1      11.578  54.875   8.358  1.00  0.00    +0.000 C 
ATOM      4  C3  UNL A   1      12.785  55.475   8.709  1.00  0.00    +0.000 C 
ATOM      5  C4  UNL A   1      13.814  54.712   9.261  1.00  0.00    +0.000 C 
ATOM    102  H4  UNL A   1      12.919  56.488   8.561  1.00  0.00    +0.000 H 
ATOM      6  C5  UNL A   1      13.647  53.334   9.453  1.00  0.00    +0.000 C 
ATOM    103  H5  UNL A   1      14.702  55.164   9.529  1.00  0.00    +0.000 H 
ATOM    142  H44 UNL A   1      12.342  51.703   9.141  1.00  0.00    +0.000 H 
ATOM    143  H45 UNL A   1      10.540  53.042   8.208  1.00  0.00    +0.000 H 
BRANCH    3    2
ATOM      2  O1  UNL A   1      10.633  55.714   7.837  1.00  0.00    +0.000 O 
BRANCH    2    1
ATOM      1  C1  UNL A   1      10.045  55.262   6.621  1.00  0.00    +0.000 C 
ATOM     99  H1  UNL A   1       9.436  56.039   6.209  1.00  0.00    +0.000 H 
ATOM    100  H2  UNL A   1       9.439  54.401   6.816  1.00  0.00    +0.000 H 
ATOM    101  H3  UNL A   1      10.816  55.005   5.926  1.00  0.00    +0.000 H 
ENDBRANCH    2    1
ENDBRANCH    3    2
ENDBRANCH    7    6
BRANCH   88   89
ATOM    135  H37 UNL A   1      14.080  54.766  12.532  1.00  0.00    +0.000 H 
ATOM    136  H38 UNL A   1      12.405  55.248  14.215  1.00  0.00    +0.000 H 
ATOM    140  H42 UNL A   1      11.488  51.163  14.510  1.00  0.00    +0.000 H 
ATOM    141  H43 UNL A   1      13.176  50.674  12.843  1.00  0.00    +0.000 H 
ATOM     89  C62 UNL A   1      13.754  52.680  12.529  1.00  0.00    +0.000 C 
ATOM     90  C63 UNL A   1      13.529  53.996  12.943  1.00  0.00    +0.000 C 
ATOM     91  C64 UNL A   1      12.559  54.273  13.914  1.00  0.00    +0.000 C 
ATOM     92  C65 UNL A   1      11.797  53.248  14.478  1.00  0.00    +0.000 C 
ATOM     95  C67 UNL A   1      12.032  51.932  14.088  1.00  0.00    +0.000 C 
ATOM     96  C68 UNL A   1      13.004  51.652  13.123  1.00  0.00    +0.000 C 
BRANCH   92   93
ATOM     93  O4  UNL A   1      10.866  53.655  15.393  1.00  0.00    +0.000 O 
BRANCH   93   94
ATOM    137  H39 UNL A   1       9.002  52.895  15.762  1.00  0.00    +0.000 H 
ATOM    138  H40 UNL A   1       9.440  53.011  14.075  1.00  0.00    +0.000 H 
ATOM    139  H41 UNL A   1       9.030  54.453  14.972  1.00  0.00    +0.000 H 
ATOM     94  C66 UNL A   1       9.500  53.493  15.028  1.00  0.00    +0.000 C 
ENDBRANCH   93   94
ENDBRANCH   92   93
ENDBRANCH   88   89
ENDBRANCH   10    9
ENDBRANCH   11   10
ENDBRANCH   12   11
ENDBRANCH   14   12
ENDBRANCH   15   14
ENDBRANCH   16   15
ENDBRANCH   17   16
ENDBRANCH   18   17
ENDBRANCH   19   18
ENDBRANCH   20   19
ENDBRANCH   21   20
ENDBRANCH   22   21
ENDBRANCH   24   22
ENDBRANCH   28   27
BRANCH   32   33
ATOM     33  C25 UNL A   1      16.934  48.605  -1.048  1.00  0.00    +0.000 C 
ATOM     34  C26 UNL A   1      16.216  48.204  -2.184  1.00  0.00    +0.000 C 
ATOM     35  F1  UNL A   1      15.108  48.865  -2.550  1.00  0.00    +0.000 F 
ATOM     36  C27 UNL A   1      16.612  47.094  -2.927  1.00  0.00    +0.000 C 
ATOM     37  F2  UNL A   1      15.881  46.699  -3.979  1.00  0.00    +0.000 F 
ATOM     38  C28 UNL A   1      17.749  46.387  -2.569  1.00  0.00    +0.000 C 
ATOM     39  F3  UNL A   1      18.130  45.320  -3.285  1.00  0.00    +0.000 F 
ATOM     40  C29 UNL A   1      18.488  46.779  -1.463  1.00  0.00    +0.000 C 
ATOM     41  F4  UNL A   1      19.594  46.103  -1.122  1.00  0.00    +0.000 F 
ATOM     42  C30 UNL A   1      18.080  47.872  -0.703  1.00  0.00    +0.000 C 
ATOM     43  F5  UNL A   1      18.804  48.216   0.372  1.00  0.00    +0.000 F 
ENDBRANCH   32   33
BRANCH   49   50
ATOM     50  C36 UNL A   1      18.278  55.684  -0.805  1.00  0.00    +0.000 C 
ATOM     51  C37 UNL A   1      17.718  56.360  -1.898  1.00  0.00    +0.000 C 
ATOM     52  F6  UNL A   1      16.471  56.071  -2.304  1.00  0.00    +0.000 F 
ATOM     53  C38 UNL A   1      18.449  57.314  -2.601  1.00  0.00    +0.000 C 
ATOM     54  F7  UNL A   1      17.906  57.919  -3.666  1.00  0.00    +0.000 F 
ATOM     55  C39 UNL A   1      19.740  57.630  -2.207  1.00  0.00    +0.000 C 
ATOM     56  F8  UNL A   1      20.441  58.553  -2.881  1.00  0.00    +0.000 F 
ATOM     57  C40 UNL A   1      20.310  56.983  -1.121  1.00  0.00    +0.000 C 
ATOM     58  F9  UNL A   1      21.554  57.295  -0.734  1.00  0.00    +0.000 F 
ATOM     59  C41 UNL A   1      19.591  56.011  -0.432  1.00  0.00    +0.000 C 
ATOM     60  F10 UNL A   1      20.170  55.394   0.609  1.00  0.00    +0.000 F 
ENDBRANCH   49   50
BRANCH   64   65
ATOM     65  C45 UNL A   1      14.441  56.128   4.996  1.00  0.00    +0.000 C 
ATOM     66  C46 UNL A   1      13.184  56.748   4.992  1.00  0.00    +0.000 C 
ATOM     67  F11 UNL A   1      12.260  56.379   4.092  1.00  0.00    +0.000 F 
ATOM     68  C47 UNL A   1      12.882  57.767   5.893  1.00  0.00    +0.000 C 
ATOM     69  F12 UNL A   1      11.683  58.362   5.849  1.00  0.00    +0.000 F 
ATOM     70  C48 UNL A   1      13.823  58.168   6.830  1.00  0.00    +0.000 C 
ATOM     71  F13 UNL A   1      13.528  59.139   7.704  1.00  0.00    +0.000 F 
ATOM     72  C49 UNL A   1      15.071  57.563   6.857  1.00  0.00    +0.000 C 
ATOM     73  F14 UNL A   1      15.979  57.939   7.768  1.00  0.00    +0.000 F 
ATOM     74  C50 UNL A   1      15.383  56.561   5.941  1.00  0.00    +0.000 C 
ATOM     75  F15 UNL A   1      16.598  55.996   5.986  1.00  0.00    +0.000 F 
ENDBRANCH   64   65
TORSDOF 23
ENDMDL
MODEL 3
REMARK VINA RESULT:     -10.5      5.546     10.831
ROOT
ATOM    129  H31 UNL A   1      38.966  29.014  27.051  1.00  0.00    +0.000 H 
ATOM    130  H32 UNL A   1      37.231  30.785  27.692  1.00  0.00    +0.000 H 
ATOM    131  H33 UNL A   1      40.832  31.032  37.071  1.00  0.00    +0.000 H 
ATOM    132  H34 UNL A   1      42.840  29.621  36.336  1.00  0.00    +0.000 H 
ATOM     28  C21 UNL A   1      42.680  28.726  33.637  1.00  0.00    +0.000 C 
ATOM     29  C22 UNL A   1      41.751  29.668  34.348  1.00  0.00    +0.000 C 
ATOM     30  N5  UNL A   1      40.684  30.276  33.895  1.00  0.00    +0.000 N 
ATOM     31  C23 UNL A   1      40.165  30.982  34.972  1.00  0.00    +0.000 C 
ATOM     32  C24 UNL A   1      39.092  31.808  35.002  1.00  0.00    +0.000 C 
ATOM     44  C31 UNL A   1      38.277  32.121  33.857  1.00  0.00    +0.000 C 
ATOM     45  C32 UNL A   1      37.231  33.024  33.762  1.00  0.00    +0.000 C 
ATOM     46  C33 UNL A   1      36.707  32.951  32.468  1.00  0.00    +0.000 C 
ATOM     47  C34 UNL A   1      37.452  32.035  31.743  1.00  0.00    +0.000 C 
ATOM     48  N6  UNL A   1      38.415  31.537  32.606  1.00  0.00    +0.000 N 
ATOM     49  C35 UNL A   1      37.300  31.644  30.364  1.00  0.00    +0.000 C 
ATOM     61  C42 UNL A   1      38.103  30.766  29.714  1.00  0.00    +0.000 C 
ATOM     62  N7  UNL A   1      39.195  30.060  30.197  1.00  0.00    +0.000 N 
ATOM     63  C43 UNL A   1      39.627  29.333  29.196  1.00  0.00    +0.000 C 
ATOM     64  C44 UNL A   1      40.791  28.385  29.150  1.00  0.00    +0.000 C 
ATOM     76  C51 UNL A   1      41.581  28.253  30.232  1.00  0.00    +0.000 C 
ATOM     77  C52 UNL A   1      42.750  27.384  30.324  1.00  0.00    +0.000 C 
ATOM     78  C53 UNL A   1      43.258  27.465  31.564  1.00  0.00    +0.000 C 
ATOM     79  C54 UNL A   1      42.466  28.415  32.345  1.00  0.00    +0.000 C 
ATOM     80  N8  UNL A   1      41.503  28.849  31.467  1.00  0.00    +0.000 N 
ATOM     81  C55 UNL A   1      38.846  29.487  27.961  1.00  0.00    +0.000 C 
ATOM     82  C56 UNL A   1      37.948  30.394  28.323  1.00  0.00    +0.000 C 
ATOM     83  C57 UNL A   1      41.011  30.693  36.111  1.00  0.00    +0.000 C 
ATOM     84  C58 UNL A   1      42.042  29.938  35.764  1.00  0.00    +0.000 C 
ATOM    123  H25 UNL A   1      36.897  33.642  34.518  1.00  0.00    +0.000 H 
ATOM    124  H26 UNL A   1      35.900  33.488  32.113  1.00  0.00    +0.000 H 
ATOM    125  H27 UNL A   1      39.096  30.867  32.367  1.00  0.00    +0.000 H 
ATOM    126  H28 UNL A   1      43.125  26.801  29.560  1.00  0.00    +0.000 H 
ATOM    127  H29 UNL A   1      44.077  26.940  31.910  1.00  0.00    +0.000 H 
ATOM    128  H30 UNL A   1      40.823  29.521  31.701  1.00  0.00    +0.000 H 
ENDROOT
BRANCH   28   27
ATOM    122  H24 UNL A   1      45.323  29.332  33.672  1.00  0.00    +0.000 H 
ATOM    133  H35 UNL A   1      42.529  26.638  35.308  1.00  0.00    +0.000 H 
ATOM    134  H36 UNL A   1      44.312  25.537  36.527  1.00  0.00    +0.000 H 
ATOM     85  C59 UNL A   1      43.503  26.960  35.198  1.00  0.00    +0.000 C 
ATOM     86  C60 UNL A   1      44.530  26.303  35.870  1.00  0.00    +0.000 C 
ATOM     24  C17 UNL A   1      45.858  26.682  35.652  1.00  0.00    +0.000 C 
ATOM     25  C18 UNL A   1      46.148  27.798  34.862  1.00  0.00    +0.000 C 
ATOM     26  C19 UNL A   1      45.113  28.494  34.237  1.00  0.00    +0.000 C 
ATOM     27  C20 UNL A   1      43.784  28.059  34.372  1.00  0.00    +0.000 C 
ATOM    121  H23 UNL A   1      47.126  28.106  34.741  1.00  0.00    +0.000 H 
BRANCH   24   22
ATOM     22  C16 UNL A   1      46.976  25.934  36.266  1.00  0.00    +0.000 C 
ATOM     23  O3  UNL A   1      47.678  26.478  37.113  1.00  0.00    +0.000 O 
BRANCH   22   21
ATOM     21  N4  UNL A   1      47.238  24.642  35.882  1.00  0.00    +0.000 N 
ATOM    120  H22 UNL A   1      47.658  24.076  36.570  1.00  0.00    +0.000 H 
BRANCH   21   20
ATOM     20  C15 UNL A   1      46.987  23.986  34.608  1.00  0.00    +0.000 C 
ATOM    118  H20 UNL A   1      46.832  24.734  33.860  1.00  0.00    +0.000 H 
ATOM    119  H21 UNL A   1      47.836  23.377  34.380  1.00  0.00    +0.000 H 
BRANCH   20   19
ATOM     19  C14 UNL A   1      45.760  23.080  34.660  1.00  0.00    +0.000 C 
ATOM    116  H18 UNL A   1      46.098  22.065  34.700  1.00  0.00    +0.000 H 
ATOM    117  H19 UNL A   1      45.203  23.373  35.524  1.00  0.00    +0.000 H 
BRANCH   19   18
ATOM     18  C13 UNL A   1      44.810  23.217  33.467  1.00  0.00    +0.000 C 
ATOM    115  H17 UNL A   1      43.820  23.206  33.873  1.00  0.00    +0.000 H 
ATOM    114  H16 UNL A   1      45.006  22.409  32.793  1.00  0.00    +0.000 H 
BRANCH   18   17
ATOM     17  C12 UNL A   1      44.931  24.528  32.679  1.00  0.00    +0.000 C 
ATOM    113  H15 UNL A   1      45.908  24.913  32.890  1.00  0.00    +0.000 H 
ATOM    112  H14 UNL A   1      44.141  25.178  32.994  1.00  0.00    +0.000 H 
BRANCH   17   16
ATOM    110  H12 UNL A   1      45.034  23.359  30.901  1.00  0.00    +0.000 H 
ATOM    111  H13 UNL A   1      43.873  24.705  30.859  1.00  0.00    +0.000 H 
ATOM     16  C11 UNL A   1      44.850  24.383  31.154  1.00  0.00    +0.000 C 
BRANCH   16   15
ATOM    108  H10 UNL A   1      45.447  26.237  30.285  1.00  0.00    +0.000 H 
ATOM    109  H11 UNL A   1      46.762  25.290  30.973  1.00  0.00    +0.000 H 
ATOM     15  C10 UNL A   1      45.857  25.256  30.404  1.00  0.00    +0.000 C 
BRANCH   15   14
ATOM    107  H9  UNL A   1      46.401  23.755  29.075  1.00  0.00    +0.000 H 
ATOM     14  N3  UNL A   1      46.160  24.709  29.096  1.00  0.00    +0.000 N 
BRANCH   14   12
ATOM     12  C9  UNL A   1      46.152  25.349  27.886  1.00  0.00    +0.000 C 
ATOM     13  O2  UNL A   1      46.978  25.006  27.037  1.00  0.00    +0.000 O 
BRANCH   12   11
ATOM    105  H7  UNL A   1      44.507  26.223  26.842  1.00  0.00    +0.000 H 
ATOM    106  H8  UNL A   1      44.633  26.684  28.541  1.00  0.00    +0.000 H 
ATOM     11  C8  UNL A   1      45.171  26.500  27.635  1.00  0.00    +0.000 C 
BRANCH   11   10
ATOM     10  N2  UNL A   1      45.861  27.723  27.262  1.00  0.00    +0.000 N 
ATOM    104  H6  UNL A   1      46.726  27.629  26.800  1.00  0.00    +0.000 H 
BRANCH   10    9
ATOM      7  C6  UNL A   1      44.518  30.637  28.654  1.00  0.00    +0.000 C 
ATOM      8  N1  UNL A   1      44.797  29.283  28.608  1.00  0.00    +0.000 N 
ATOM      9  C7  UNL A   1      45.420  28.978  27.493  1.00  0.00    +0.000 C 
ATOM     87  S1  UNL A   1      45.649  30.313  26.422  1.00  0.00    +0.000 S 
ATOM     88  C61 UNL A   1      45.018  31.386  27.598  1.00  0.00    +0.000 C 
BRANCH    7    6
ATOM     97  C69 UNL A   1      44.398  31.317  31.034  1.00  0.00    +0.000 C 
ATOM     98  C70 UNL A   1      43.739  31.972  32.082  1.00  0.00    +0.000 C 
ATOM      3  C2  UNL A   1      42.472  32.525  31.874  1.00  0.00    +0.000 C 
ATOM      4  C3  UNL A   1      41.848  32.380  30.636  1.00  0.00    +0.000 C 
ATOM      5  C4  UNL A   1      42.508  31.739  29.588  1.00  0.00    +0.000 C 
ATOM    102  H4  UNL A   1      40.894  32.747  30.495  1.00  0.00    +0.000 H 
ATOM      6  C5  UNL A   1      43.798  31.224  29.774  1.00  0.00    +0.000 C 
ATOM    103  H5  UNL A   1      42.044  31.643  28.671  1.00  0.00    +0.000 H 
ATOM    142  H44 UNL A   1      45.329  30.902  31.192  1.00  0.00    +0.000 H 
ATOM    143  H45 UNL A   1      44.187  32.046  33.008  1.00  0.00    +0.000 H 
BRANCH    3    2
ATOM      2  O1  UNL A   1      41.743  33.177  32.828  1.00  0.00    +0.000 O 
BRANCH    2    1
ATOM      1  C1  UNL A   1      42.511  33.688  33.913  1.00  0.00    +0.000 C 
ATOM     99  H1  UNL A   1      41.950  34.445  34.422  1.00  0.00    +0.000 H 
ATOM    100  H2  UNL A   1      43.420  34.111  33.539  1.00  0.00    +0.000 H 
ATOM    101  H3  UNL A   1      42.740  32.895  34.593  1.00  0.00    +0.000 H 
ENDBRANCH    2    1
ENDBRANCH    3    2
ENDBRANCH    7    6
BRANCH   88   89
ATOM    135  H37 UNL A   1      46.804  33.154  28.614  1.00  0.00    +0.000 H 
ATOM    136  H38 UNL A   1      46.927  35.537  28.198  1.00  0.00    +0.000 H 
ATOM    140  H42 UNL A   1      43.535  35.310  25.738  1.00  0.00    +0.000 H 
ATOM    141  H43 UNL A   1      43.395  32.930  26.167  1.00  0.00    +0.000 H 
ATOM     89  C62 UNL A   1      45.101  32.836  27.407  1.00  0.00    +0.000 C 
ATOM     90  C63 UNL A   1      46.110  33.604  27.997  1.00  0.00    +0.000 C 
ATOM     91  C64 UNL A   1      46.181  34.980  27.754  1.00  0.00    +0.000 C 
ATOM     92  C65 UNL A   1      45.257  35.608  26.916  1.00  0.00    +0.000 C 
ATOM     95  C67 UNL A   1      44.235  34.854  26.344  1.00  0.00    +0.000 C 
ATOM     96  C68 UNL A   1      44.158  33.480  26.591  1.00  0.00    +0.000 C 
BRANCH   92   93
ATOM     93  O4  UNL A   1      45.453  36.950  26.740  1.00  0.00    +0.000 O 
BRANCH   93   94
ATOM    137  H39 UNL A   1      43.641  37.556  27.475  1.00  0.00    +0.000 H 
ATOM    138  H40 UNL A   1      44.814  38.829  27.236  1.00  0.00    +0.000 H 
ATOM    139  H41 UNL A   1      44.987  37.723  28.576  1.00  0.00    +0.000 H 
ATOM     94  C66 UNL A   1      44.676  37.819  27.557  1.00  0.00    +0.000 C 
ENDBRANCH   93   94
ENDBRANCH   92   93
ENDBRANCH   88   89
ENDBRANCH   10    9
ENDBRANCH   11   10
ENDBRANCH   12   11
ENDBRANCH   14   12
ENDBRANCH   15   14
ENDBRANCH   16   15
ENDBRANCH   17   16
ENDBRANCH   18   17
ENDBRANCH   19   18
ENDBRANCH   20   19
ENDBRANCH   21   20
ENDBRANCH   22   21
ENDBRANCH   24   22
ENDBRANCH   28   27
BRANCH   32   33
ATOM     33  C25 UNL A   1      38.733  32.430  36.320  1.00  0.00    +0.000 C 
ATOM     34  C26 UNL A   1      38.004  31.731  37.293  1.00  0.00    +0.000 C 
ATOM     35  F1  UNL A   1      37.573  30.485  37.047  1.00  0.00    +0.000 F 
ATOM     36  C27 UNL A   1      37.678  32.326  38.509  1.00  0.00    +0.000 C 
ATOM     37  F2  UNL A   1      36.936  31.658  39.403  1.00  0.00    +0.000 F 
ATOM     38  C28 UNL A   1      38.103  33.616  38.789  1.00  0.00    +0.000 C 
ATOM     39  F3  UNL A   1      37.791  34.187  39.960  1.00  0.00    +0.000 F 
ATOM     40  C29 UNL A   1      38.846  34.317  37.851  1.00  0.00    +0.000 C 
ATOM     41  F4  UNL A   1      39.268  35.560  38.124  1.00  0.00    +0.000 F 
ATOM     42  C30 UNL A   1      39.150  33.735  36.624  1.00  0.00    +0.000 C 
ATOM     43  F5  UNL A   1      39.854  34.445  35.729  1.00  0.00    +0.000 F 
ENDBRANCH   32   33
BRANCH   49   50
ATOM     50  C36 UNL A   1      36.182  32.261  29.579  1.00  0.00    +0.000 C 
ATOM     51  C37 UNL A   1      36.189  33.623  29.245  1.00  0.00    +0.000 C 
ATOM     52  F6  UNL A   1      37.183  34.417  29.672  1.00  0.00    +0.000 F 
ATOM     53  C38 UNL A   1      35.156  34.182  28.498  1.00  0.00    +0.000 C 
ATOM     54  F7  UNL A   1      35.164  35.494  28.225  1.00  0.00    +0.000 F 
ATOM     55  C39 UNL A   1      34.113  33.386  28.047  1.00  0.00    +0.000 C 
ATOM     56  F8  UNL A   1      33.122  33.924  27.323  1.00  0.00    +0.000 F 
ATOM     57  C40 UNL A   1      34.093  32.034  28.355  1.00  0.00    +0.000 C 
ATOM     58  F9  UNL A   1      33.091  31.262  27.912  1.00  0.00    +0.000 F 
ATOM     59  C41 UNL A   1      35.111  31.477  29.123  1.00  0.00    +0.000 C 
ATOM     60  F10 UNL A   1      35.060  30.169  29.413  1.00  0.00    +0.000 F 
ENDBRANCH   49   50
BRANCH   64   65
ATOM     65  C45 UNL A   1      41.099  27.607  27.925  1.00  0.00    +0.000 C 
ATOM     66  C46 UNL A   1      41.776  28.196  26.849  1.00  0.00    +0.000 C 
ATOM     67  F11 UNL A   1      42.112  29.494  26.901  1.00  0.00    +0.000 F 
ATOM     68  C47 UNL A   1      42.087  27.462  25.706  1.00  0.00    +0.000 C 
ATOM     69  F12 UNL A   1      42.710  28.057  24.680  1.00  0.00    +0.000 F 
ATOM     70  C48 UNL A   1      41.747  26.120  25.628  1.00  0.00    +0.000 C 
ATOM     71  F13 UNL A   1      42.057  25.412  24.534  1.00  0.00    +0.000 F 
ATOM     72  C49 UNL A   1      41.083  25.514  26.684  1.00  0.00    +0.000 C 
ATOM     73  F14 UNL A   1      40.763  24.214  26.618  1.00  0.00    +0.000 F 
ATOM     74  C50 UNL A   1      40.750  26.253  27.817  1.00  0.00    +0.000 C 
ATOM     75  F15 UNL A   1      40.104  25.643  28.823  1.00  0.00    +0.000 F 
ENDBRANCH   64   65
TORSDOF 23
ENDMDL
MODEL 4
REMARK VINA RESULT:     -10.4     37.838     43.195
ROOT
ATOM    129  H31 UNL A   1      18.216  50.703  -1.767  1.00  0.00    +0.000 H 
ATOM    130  H32 UNL A   1      18.649  53.192  -1.350  1.00  0.00    +0.000 H 
ATOM    131  H33 UNL A   1      11.969  53.175   6.158  1.00  0.00    +0.000 H 
ATOM    132  H34 UNL A   1      11.864  50.618   6.058  1.00  0.00    +0.000 H 
ATOM     28  C21 UNL A   1      13.364  49.496   3.912  1.00  0.00    +0.000 C 
ATOM     29  C22 UNL A   1      13.308  50.935   4.339  1.00  0.00    +0.000 C 
ATOM     30  N5  UNL A   1      13.924  51.973   3.831  1.00  0.00    +0.000 N 
ATOM     31  C23 UNL A   1      13.481  53.069   4.560  1.00  0.00    +0.000 C 
ATOM     32  C24 UNL A   1      13.862  54.364   4.451  1.00  0.00    +0.000 C 
ATOM     44  C31 UNL A   1      14.853  54.843   3.523  1.00  0.00    +0.000 C 
ATOM     45  C32 UNL A   1      15.380  56.118   3.406  1.00  0.00    +0.000 C 
ATOM     46  C33 UNL A   1      16.275  56.124   2.331  1.00  0.00    +0.000 C 
ATOM     47  C34 UNL A   1      16.339  54.843   1.806  1.00  0.00    +0.000 C 
ATOM     48  N6  UNL A   1      15.464  54.067   2.549  1.00  0.00    +0.000 N 
ATOM     49  C35 UNL A   1      17.138  54.361   0.708  1.00  0.00    +0.000 C 
ATOM     61  C42 UNL A   1      17.174  53.074   0.280  1.00  0.00    +0.000 C 
ATOM     62  N7  UNL A   1      16.475  51.976   0.761  1.00  0.00    +0.000 N 
ATOM     63  C43 UNL A   1      16.837  50.963   0.013  1.00  0.00    +0.000 C 
ATOM     64  C44 UNL A   1      16.402  49.527   0.091  1.00  0.00    +0.000 C 
ATOM     76  C51 UNL A   1      15.571  49.141   1.078  1.00  0.00    +0.000 C 
ATOM     77  C52 UNL A   1      15.079  47.782   1.285  1.00  0.00    +0.000 C 
ATOM     78  C53 UNL A   1      14.230  47.778   2.324  1.00  0.00    +0.000 C 
ATOM     79  C54 UNL A   1      14.140  49.131   2.874  1.00  0.00    +0.000 C 
ATOM     80  N8  UNL A   1      14.985  49.870   2.084  1.00  0.00    +0.000 N 
ATOM     81  C55 UNL A   1      17.800  51.308  -1.042  1.00  0.00    +0.000 C 
ATOM     82  C56 UNL A   1      17.995  52.600  -0.814  1.00  0.00    +0.000 C 
ATOM     83  C57 UNL A   1      12.514  52.575   5.517  1.00  0.00    +0.000 C 
ATOM     84  C58 UNL A   1      12.418  51.254   5.465  1.00  0.00    +0.000 C 
ATOM    123  H25 UNL A   1      15.151  56.925   4.007  1.00  0.00    +0.000 H 
ATOM    124  H26 UNL A   1      16.799  56.943   1.986  1.00  0.00    +0.000 H 
ATOM    125  H27 UNL A   1      15.301  53.107   2.408  1.00  0.00    +0.000 H 
ATOM    126  H28 UNL A   1      15.342  46.958   0.722  1.00  0.00    +0.000 H 
ATOM    127  H29 UNL A   1      13.721  46.952   2.678  1.00  0.00    +0.000 H 
ATOM    128  H30 UNL A   1      15.154  50.829   2.225  1.00  0.00    +0.000 H 
ENDROOT
BRANCH   28   27
ATOM    122  H24 UNL A   1      10.759  48.912   3.434  1.00  0.00    +0.000 H 
ATOM    133  H35 UNL A   1      14.020  47.749   5.834  1.00  0.00    +0.000 H 
ATOM    134  H36 UNL A   1      12.627  46.080   6.906  1.00  0.00    +0.000 H 
ATOM     85  C59 UNL A   1      13.026  47.661   5.570  1.00  0.00    +0.000 C 
ATOM     86  C60 UNL A   1      12.219  46.727   6.213  1.00  0.00    +0.000 C 
ATOM     24  C17 UNL A   1      10.853  46.668   5.920  1.00  0.00    +0.000 C 
ATOM     25  C18 UNL A   1      10.322  47.454   4.894  1.00  0.00    +0.000 C 
ATOM     26  C19 UNL A   1      11.145  48.348   4.207  1.00  0.00    +0.000 C 
ATOM     27  C20 UNL A   1      12.497  48.483   4.564  1.00  0.00    +0.000 C 
ATOM    121  H23 UNL A   1       9.323  47.375   4.645  1.00  0.00    +0.000 H 
BRANCH   24   22
ATOM     22  C16 UNL A   1       9.950  45.762   6.664  1.00  0.00    +0.000 C 
ATOM     23  O3  UNL A   1       9.046  45.183   6.069  1.00  0.00    +0.000 O 
BRANCH   22   21
ATOM     21  N4  UNL A   1      10.113  45.580   8.014  1.00  0.00    +0.000 N 
ATOM    120  H22 UNL A   1      10.557  44.741   8.275  1.00  0.00    +0.000 H 
BRANCH   21   20
ATOM     20  C15 UNL A   1       9.725  46.444   9.119  1.00  0.00    +0.000 C 
ATOM    118  H20 UNL A   1       8.927  47.080   8.795  1.00  0.00    +0.000 H 
ATOM    119  H21 UNL A   1       9.419  45.820   9.932  1.00  0.00    +0.000 H 
BRANCH   20   19
ATOM     19  C14 UNL A   1      10.881  47.314   9.604  1.00  0.00    +0.000 C 
ATOM    116  H18 UNL A   1      11.062  48.067   8.866  1.00  0.00    +0.000 H 
ATOM    117  H19 UNL A   1      10.583  47.714  10.549  1.00  0.00    +0.000 H 
BRANCH   19   18
ATOM     18  C13 UNL A   1      12.192  46.561   9.847  1.00  0.00    +0.000 C 
ATOM    115  H17 UNL A   1      12.478  46.152   8.900  1.00  0.00    +0.000 H 
ATOM    114  H16 UNL A   1      12.013  45.819  10.597  1.00  0.00    +0.000 H 
BRANCH   18   17
ATOM     17  C12 UNL A   1      13.371  47.427  10.309  1.00  0.00    +0.000 C 
ATOM    113  H15 UNL A   1      13.991  46.791  10.905  1.00  0.00    +0.000 H 
ATOM    112  H14 UNL A   1      12.977  48.264  10.847  1.00  0.00    +0.000 H 
BRANCH   17   16
ATOM    110  H12 UNL A   1      13.995  47.472   8.272  1.00  0.00    +0.000 H 
ATOM    111  H13 UNL A   1      14.114  49.020   9.137  1.00  0.00    +0.000 H 
ATOM     16  C11 UNL A   1      14.267  47.963   9.184  1.00  0.00    +0.000 C 
BRANCH   16   15
ATOM    108  H10 UNL A   1      16.056  48.284  10.299  1.00  0.00    +0.000 H 
ATOM    109  H11 UNL A   1      15.919  46.685   9.573  1.00  0.00    +0.000 H 
ATOM     15  C10 UNL A   1      15.759  47.733   9.431  1.00  0.00    +0.000 C 
BRANCH   15   14
ATOM    107  H9  UNL A   1      17.126  47.482   7.887  1.00  0.00    +0.000 H 
ATOM     14  N3  UNL A   1      16.554  48.169   8.299  1.00  0.00    +0.000 N 
BRANCH   14   12
ATOM     12  C9  UNL A   1      16.612  49.413   7.733  1.00  0.00    +0.000 C 
ATOM     13  O2  UNL A   1      15.895  49.645   6.757  1.00  0.00    +0.000 O 
BRANCH   12   11
ATOM    105  H7  UNL A   1      18.593  50.117   8.113  1.00  0.00    +0.000 H 
ATOM    106  H8  UNL A   1      17.412  51.382   7.768  1.00  0.00    +0.000 H 
ATOM     11  C8  UNL A   1      17.592  50.459   8.278  1.00  0.00    +0.000 C 
BRANCH   11   10
ATOM     10  N2  UNL A   1      17.402  50.683   9.701  1.00  0.00    +0.000 N 
ATOM    104  H6  UNL A   1      18.155  50.464  10.296  1.00  0.00    +0.000 H 
BRANCH   10    9
ATOM      7  C6  UNL A   1      14.162  51.805  10.392  1.00  0.00    +0.000 C 
ATOM      8  N1  UNL A   1      15.199  51.396   9.573  1.00  0.00    +0.000 N 
ATOM      9  C7  UNL A   1      16.282  51.166  10.280  1.00  0.00    +0.000 C 
ATOM     87  S1  UNL A   1      16.107  51.488  11.967  1.00  0.00    +0.000 S 
ATOM     88  C61 UNL A   1      14.437  51.798  11.752  1.00  0.00    +0.000 C 
BRANCH    7    6
ATOM     97  C69 UNL A   1      12.576  53.481   9.490  1.00  0.00    +0.000 C 
ATOM     98  C70 UNL A   1      11.359  53.799   8.873  1.00  0.00    +0.000 C 
ATOM      3  C2  UNL A   1      10.421  52.795   8.622  1.00  0.00    +0.000 C 
ATOM      4  C3  UNL A   1      10.678  51.488   9.030  1.00  0.00    +0.000 C 
ATOM      5  C4  UNL A   1      11.894  51.167   9.633  1.00  0.00    +0.000 C 
ATOM    102  H4  UNL A   1       9.966  50.754   8.886  1.00  0.00    +0.000 H 
ATOM      6  C5  UNL A   1      12.861  52.159   9.846  1.00  0.00    +0.000 C 
ATOM    103  H5  UNL A   1      12.083  50.195   9.925  1.00  0.00    +0.000 H 
ATOM    142  H44 UNL A   1      13.264  54.226   9.683  1.00  0.00    +0.000 H 
ATOM    143  H45 UNL A   1      11.155  54.774   8.605  1.00  0.00    +0.000 H 
BRANCH    3    2
ATOM      2  O1  UNL A   1       9.204  52.998   8.032  1.00  0.00    +0.000 O 
BRANCH    2    1
ATOM      1  C1  UNL A   1       9.171  54.075   7.100  1.00  0.00    +0.000 C 
ATOM     99  H1  UNL A   1       8.181  54.175   6.705  1.00  0.00    +0.000 H 
ATOM    100  H2  UNL A   1       9.855  53.877   6.300  1.00  0.00    +0.000 H 
ATOM    101  H3  UNL A   1       9.452  54.982   7.593  1.00  0.00    +0.000 H 
ENDBRANCH    2    1
ENDBRANCH    3    2
ENDBRANCH    7    6
BRANCH   88   89
ATOM    135  H37 UNL A   1      13.135  54.013  12.615  1.00  0.00    +0.000 H 
ATOM    136  H38 UNL A   1      11.626  54.202  14.501  1.00  0.00    +0.000 H 
ATOM    140  H42 UNL A   1      12.226  50.151  15.421  1.00  0.00    +0.000 H 
ATOM    141  H43 UNL A   1      13.751  49.962  13.548  1.00  0.00    +0.000 H 
ATOM     89  C62 UNL A   1      13.554  51.964  12.909  1.00  0.00    +0.000 C 
ATOM     90  C63 UNL A   1      12.942  53.187  13.203  1.00  0.00    +0.000 C 
ATOM     91  C64 UNL A   1      12.069  53.294  14.291  1.00  0.00    +0.000 C 
ATOM     92  C65 UNL A   1      11.787  52.187  15.095  1.00  0.00    +0.000 C 
ATOM     95  C67 UNL A   1      12.412  50.972  14.823  1.00  0.00    +0.000 C 
ATOM     96  C68 UNL A   1      13.289  50.864  13.740  1.00  0.00    +0.000 C 
BRANCH   92   93
ATOM     93  O4  UNL A   1      10.899  52.418  16.108  1.00  0.00    +0.000 O 
BRANCH   93   94
ATOM    137  H39 UNL A   1      10.904  51.054  17.634  1.00  0.00    +0.000 H 
ATOM    138  H40 UNL A   1      10.944  52.729  18.130  1.00  0.00    +0.000 H 
ATOM    139  H41 UNL A   1      12.373  51.983  17.458  1.00  0.00    +0.000 H 
ATOM     94  C66 UNL A   1      11.305  52.022  17.414  1.00  0.00    +0.000 C 
ENDBRANCH   93   94
ENDBRANCH   92   93
ENDBRANCH   88   89
ENDBRANCH   10    9
ENDBRANCH   11   10
ENDBRANCH   12   11
ENDBRANCH   14   12
ENDBRANCH   15   14
ENDBRANCH   16   15
ENDBRANCH   17   16
ENDBRANCH   18   17
ENDBRANCH   19   18
ENDBRANCH   20   19
ENDBRANCH   21   20
ENDBRANCH   22   21
ENDBRANCH   24   22
ENDBRANCH   28   27
BRANCH   32   33
ATOM     33  C25 UNL A   1      13.199  55.359   5.359  1.00  0.00    +0.000 C 
ATOM     34  C26 UNL A   1      13.732  55.681   6.616  1.00  0.00    +0.000 C 
ATOM     35  F1  UNL A   1      14.843  55.069   7.055  1.00  0.00    +0.000 F 
ATOM     36  C27 UNL A   1      13.102  56.604   7.446  1.00  0.00    +0.000 C 
ATOM     37  F2  UNL A   1      13.601  56.858   8.664  1.00  0.00    +0.000 F 
ATOM     38  C28 UNL A   1      11.949  57.248   7.023  1.00  0.00    +0.000 C 
ATOM     39  F3  UNL A   1      11.344  58.138   7.822  1.00  0.00    +0.000 F 
ATOM     40  C29 UNL A   1      11.418  56.963   5.774  1.00  0.00    +0.000 C 
ATOM     41  F4  UNL A   1      10.310  57.592   5.358  1.00  0.00    +0.000 F 
ATOM     42  C30 UNL A   1      12.031  56.020   4.953  1.00  0.00    +0.000 C 
ATOM     43  F5  UNL A   1      11.483  55.752   3.758  1.00  0.00    +0.000 F 
ENDBRANCH   32   33
BRANCH   49   50
ATOM     50  C36 UNL A   1      18.010  55.346  -0.011  1.00  0.00    +0.000 C 
ATOM     51  C37 UNL A   1      19.258  55.728   0.503  1.00  0.00    +0.000 C 
ATOM     52  F6  UNL A   1      19.674  55.251   1.687  1.00  0.00    +0.000 F 
ATOM     53  C38 UNL A   1      20.069  56.628  -0.182  1.00  0.00    +0.000 C 
ATOM     54  F7  UNL A   1      21.239  57.009   0.348  1.00  0.00    +0.000 F 
ATOM     55  C39 UNL A   1      19.662  57.140  -1.405  1.00  0.00    +0.000 C 
ATOM     56  F8  UNL A   1      20.446  58.002  -2.067  1.00  0.00    +0.000 F 
ATOM     57  C40 UNL A   1      18.438  56.766  -1.938  1.00  0.00    +0.000 C 
ATOM     58  F9  UNL A   1      18.048  57.252  -3.124  1.00  0.00    +0.000 F 
ATOM     59  C41 UNL A   1      17.613  55.885  -1.243  1.00  0.00    +0.000 C 
ATOM     60  F10 UNL A   1      16.430  55.549  -1.779  1.00  0.00    +0.000 F 
ENDBRANCH   49   50
BRANCH   64   65
ATOM     65  C45 UNL A   1      16.890  48.523  -0.885  1.00  0.00    +0.000 C 
ATOM     66  C46 UNL A   1      18.074  47.810  -0.654  1.00  0.00    +0.000 C 
ATOM     67  F11 UNL A   1      18.806  48.069   0.439  1.00  0.00    +0.000 F 
ATOM     68  C47 UNL A   1      18.523  46.850  -1.558  1.00  0.00    +0.000 C 
ATOM     69  F12 UNL A   1      19.673  46.203  -1.328  1.00  0.00    +0.000 F 
ATOM     70  C48 UNL A   1      17.784  46.568  -2.697  1.00  0.00    +0.000 C 
ATOM     71  F13 UNL A   1      18.210  45.637  -3.560  1.00  0.00    +0.000 F 
ATOM     72  C49 UNL A   1      16.605  47.256  -2.943  1.00  0.00    +0.000 C 
ATOM     73  F14 UNL A   1      15.882  46.978  -4.036  1.00  0.00    +0.000 F 
ATOM     74  C50 UNL A   1      16.167  48.233  -2.052  1.00  0.00    +0.000 C 
ATOM     75  F15 UNL A   1      15.025  48.886  -2.315  1.00  0.00    +0.000 F 
ENDBRANCH   64   65
TORSDOF 23
ENDMDL
MODEL 5
REMARK VINA RESULT:     -10.3     20.262     26.765
ROOT
ATOM    129  H31 UNL A   1      20.866  33.925  46.771  1.00  0.00    +0.000 H 
ATOM    130  H32 UNL A   1      19.017  35.387  47.770  1.00  0.00    +0.000 H 
ATOM    131  H33 UNL A   1      25.334  43.188  48.242  1.00  0.00    +0.000 H 
ATOM    132  H34 UNL A   1      27.039  41.892  46.838  1.00  0.00    +0.000 H 
ATOM     28  C21 UNL A   1      26.263  39.206  46.292  1.00  0.00    +0.000 C 
ATOM     29  C22 UNL A   1      25.455  40.275  46.970  1.00  0.00    +0.000 C 
ATOM     30  N5  UNL A   1      24.239  40.212  47.451  1.00  0.00    +0.000 N 
ATOM     31  C23 UNL A   1      23.993  41.456  48.019  1.00  0.00    +0.000 C 
ATOM     32  C24 UNL A   1      22.857  41.907  48.603  1.00  0.00    +0.000 C 
ATOM     44  C31 UNL A   1      21.646  41.137  48.724  1.00  0.00    +0.000 C 
ATOM     45  C32 UNL A   1      20.412  41.539  49.208  1.00  0.00    +0.000 C 
ATOM     46  C33 UNL A   1      19.552  40.437  49.181  1.00  0.00    +0.000 C 
ATOM     47  C34 UNL A   1      20.235  39.359  48.640  1.00  0.00    +0.000 C 
ATOM     48  N6  UNL A   1      21.517  39.804  48.361  1.00  0.00    +0.000 N 
ATOM     49  C35 UNL A   1      19.755  38.023  48.395  1.00  0.00    +0.000 C 
ATOM     61  C42 UNL A   1      20.480  37.032  47.821  1.00  0.00    +0.000 C 
ATOM     62  N7  UNL A   1      21.792  37.059  47.369  1.00  0.00    +0.000 N 
ATOM     63  C43 UNL A   1      22.042  35.858  46.911  1.00  0.00    +0.000 C 
ATOM     64  C44 UNL A   1      23.304  35.325  46.293  1.00  0.00    +0.000 C 
ATOM     76  C51 UNL A   1      24.346  36.155  46.098  1.00  0.00    +0.000 C 
ATOM     77  C52 UNL A   1      25.622  35.780  45.497  1.00  0.00    +0.000 C 
ATOM     78  C53 UNL A   1      26.442  36.843  45.513  1.00  0.00    +0.000 C 
ATOM     79  C54 UNL A   1      25.736  37.982  46.101  1.00  0.00    +0.000 C 
ATOM     80  N8  UNL A   1      24.491  37.486  46.400  1.00  0.00    +0.000 N 
ATOM     81  C55 UNL A   1      20.915  34.922  47.033  1.00  0.00    +0.000 C 
ATOM     82  C56 UNL A   1      19.980  35.697  47.565  1.00  0.00    +0.000 C 
ATOM     83  C57 UNL A   1      25.201  42.238  47.860  1.00  0.00    +0.000 C 
ATOM     84  C58 UNL A   1      26.112  41.577  47.162  1.00  0.00    +0.000 C 
ATOM    123  H25 UNL A   1      20.171  42.489  49.532  1.00  0.00    +0.000 H 
ATOM    124  H26 UNL A   1      18.573  40.428  49.509  1.00  0.00    +0.000 H 
ATOM    125  H27 UNL A   1      22.232  39.256  47.964  1.00  0.00    +0.000 H 
ATOM    126  H28 UNL A   1      25.857  34.848  45.121  1.00  0.00    +0.000 H 
ATOM    127  H29 UNL A   1      27.414  36.854  45.167  1.00  0.00    +0.000 H 
ATOM    128  H30 UNL A   1      23.773  38.033  46.794  1.00  0.00    +0.000 H 
ENDROOT
BRANCH   28   27
ATOM    122  H24 UNL A   1      27.246  40.529  44.139  1.00  0.00    +0.000 H 
ATOM    133  H35 UNL A   1      28.482  38.494  47.614  1.00  0.00    +0.000 H 
ATOM    134  H36 UNL A   1      30.797  38.900  47.021  1.00  0.00    +0.000 H 
ATOM     85  C59 UNL A   1      28.710  38.989  46.737  1.00  0.00    +0.000 C 
ATOM     86  C60 UNL A   1      30.040  39.188  46.380  1.00  0.00    +0.000 C 
ATOM     24  C17 UNL A   1      30.351  39.778  45.151  1.00  0.00    +0.000 C 
ATOM     25  C18 UNL A   1      29.332  40.282  44.339  1.00  0.00    +0.000 C 
ATOM     26  C19 UNL A   1      27.998  40.137  44.726  1.00  0.00    +0.000 C 
ATOM     27  C20 UNL A   1      27.676  39.457  45.913  1.00  0.00    +0.000 C 
ATOM    121  H23 UNL A   1      29.563  40.761  43.454  1.00  0.00    +0.000 H 
BRANCH   24   22
ATOM     22  C16 UNL A   1      31.752  39.904  44.696  1.00  0.00    +0.000 C 
ATOM     23  O3  UNL A   1      32.268  38.991  44.057  1.00  0.00    +0.000 O 
BRANCH   22   21
ATOM     21  N4  UNL A   1      32.479  41.029  44.997  1.00  0.00    +0.000 N 
ATOM    120  H22 UNL A   1      32.883  41.487  44.225  1.00  0.00    +0.000 H 
BRANCH   21   20
ATOM     20  C15 UNL A   1      32.740  41.644  46.289  1.00  0.00    +0.000 C 
ATOM    118  H20 UNL A   1      32.004  41.304  46.987  1.00  0.00    +0.000 H 
ATOM    119  H21 UNL A   1      33.725  41.361  46.594  1.00  0.00    +0.000 H 
BRANCH   20   19
ATOM     19  C14 UNL A   1      32.689  43.168  46.222  1.00  0.00    +0.000 C 
ATOM    116  H18 UNL A   1      33.583  43.550  46.669  1.00  0.00    +0.000 H 
ATOM    117  H19 UNL A   1      32.592  43.422  45.188  1.00  0.00    +0.000 H 
BRANCH   19   18
ATOM     18  C13 UNL A   1      31.493  43.802  46.937  1.00  0.00    +0.000 C 
ATOM    115  H17 UNL A   1      31.211  44.650  46.348  1.00  0.00    +0.000 H 
ATOM    114  H16 UNL A   1      31.796  44.053  47.932  1.00  0.00    +0.000 H 
BRANCH   18   17
ATOM     17  C12 UNL A   1      30.242  42.919  47.033  1.00  0.00    +0.000 C 
ATOM    113  H15 UNL A   1      30.315  42.401  47.967  1.00  0.00    +0.000 H 
ATOM    112  H14 UNL A   1      30.230  42.266  46.185  1.00  0.00    +0.000 H 
BRANCH   17   16
ATOM    110  H12 UNL A   1      28.588  43.845  46.061  1.00  0.00    +0.000 H 
ATOM    111  H13 UNL A   1      28.218  43.074  47.620  1.00  0.00    +0.000 H 
ATOM     16  C11 UNL A   1      28.909  43.677  47.069  1.00  0.00    +0.000 C 
BRANCH   16   15
ATOM    108  H10 UNL A   1      29.758  44.980  48.528  1.00  0.00    +0.000 H 
ATOM    109  H11 UNL A   1      29.225  45.778  47.051  1.00  0.00    +0.000 H 
ATOM     15  C10 UNL A   1      28.994  45.029  47.779  1.00  0.00    +0.000 C 
BRANCH   15   14
ATOM    107  H9  UNL A   1      27.011  45.646  47.801  1.00  0.00    +0.000 H 
ATOM     14  N3  UNL A   1      27.736  45.375  48.410  1.00  0.00    +0.000 N 
BRANCH   14   12
ATOM     12  C9  UNL A   1      27.427  45.374  49.743  1.00  0.00    +0.000 C 
ATOM     13  O2  UNL A   1      27.701  46.375  50.408  1.00  0.00    +0.000 O 
BRANCH   12   11
ATOM    105  H7  UNL A   1      26.385  44.397  51.331  1.00  0.00    +0.000 H 
ATOM    106  H8  UNL A   1      26.054  43.751  49.723  1.00  0.00    +0.000 H 
ATOM     11  C8  UNL A   1      26.806  44.127  50.384  1.00  0.00    +0.000 C 
BRANCH   11   10
ATOM     10  N2  UNL A   1      27.792  43.080  50.590  1.00  0.00    +0.000 N 
ATOM    104  H6  UNL A   1      28.733  43.358  50.669  1.00  0.00    +0.000 H 
BRANCH   10    9
ATOM      7  C6  UNL A   1      26.324  39.948  51.103  1.00  0.00    +0.000 C 
ATOM      8  N1  UNL A   1      26.399  41.327  51.190  1.00  0.00    +0.000 N 
ATOM      9  C7  UNL A   1      27.531  41.759  50.683  1.00  0.00    +0.000 C 
ATOM     87  S1  UNL A   1      28.581  40.507  50.126  1.00  0.00    +0.000 S 
ATOM     88  C61 UNL A   1      27.375  39.333  50.437  1.00  0.00    +0.000 C 
BRANCH    7    6
ATOM     97  C69 UNL A   1      23.964  39.211  50.941  1.00  0.00    +0.000 C 
ATOM     98  C70 UNL A   1      22.898  38.426  51.401  1.00  0.00    +0.000 C 
ATOM      3  C2  UNL A   1      23.046  37.656  52.557  1.00  0.00    +0.000 C 
ATOM      4  C3  UNL A   1      24.237  37.708  53.277  1.00  0.00    +0.000 C 
ATOM      5  C4  UNL A   1      25.304  38.479  52.815  1.00  0.00    +0.000 C 
ATOM    102  H4  UNL A   1      24.332  37.175  54.156  1.00  0.00    +0.000 H 
ATOM      6  C5  UNL A   1      25.181  39.217  51.630  1.00  0.00    +0.000 C 
ATOM    103  H5  UNL A   1      26.187  38.506  53.347  1.00  0.00    +0.000 H 
ATOM    142  H44 UNL A   1      23.850  39.786  50.093  1.00  0.00    +0.000 H 
ATOM    143  H45 UNL A   1      22.004  38.417  50.886  1.00  0.00    +0.000 H 
BRANCH    3    2
ATOM      2  O1  UNL A   1      22.069  36.862  53.092  1.00  0.00    +0.000 O 
BRANCH    2    1
ATOM      1  C1  UNL A   1      21.343  36.093  52.138  1.00  0.00    +0.000 C 
ATOM     99  H1  UNL A   1      20.302  36.110  52.385  1.00  0.00    +0.000 H 
ATOM    100  H2  UNL A   1      21.696  35.082  52.152  1.00  0.00    +0.000 H 
ATOM    101  H3  UNL A   1      21.486  36.507  51.162  1.00  0.00    +0.000 H 
ENDBRANCH    2    1
ENDBRANCH    3    2
ENDBRANCH    7    6
BRANCH   88   89
ATOM    135  H37 UNL A   1      29.606  37.795  50.394  1.00  0.00    +0.000 H 
ATOM    136  H38 UNL A   1      29.797  35.485  49.688  1.00  0.00    +0.000 H 
ATOM    140  H42 UNL A   1      25.714  35.416  48.718  1.00  0.00    +0.000 H 
ATOM    141  H43 UNL A   1      25.522  37.731  49.404  1.00  0.00    +0.000 H 
ATOM     89  C62 UNL A   1      27.541  37.952  49.979  1.00  0.00    +0.000 C 
ATOM     90  C63 UNL A   1      28.774  37.294  50.045  1.00  0.00    +0.000 C 
ATOM     91  C64 UNL A   1      28.882  35.959  49.639  1.00  0.00    +0.000 C 
ATOM     92  C65 UNL A   1      27.767  35.260  49.171  1.00  0.00    +0.000 C 
ATOM     95  C67 UNL A   1      26.542  35.916  49.080  1.00  0.00    +0.000 C 
ATOM     96  C68 UNL A   1      26.433  37.251  49.479  1.00  0.00    +0.000 C 
BRANCH   92   93
ATOM     93  O4  UNL A   1      28.001  33.957  48.832  1.00  0.00    +0.000 O 
BRANCH   93   94
ATOM    137  H39 UNL A   1      27.241  32.924  47.237  1.00  0.00    +0.000 H 
ATOM    138  H40 UNL A   1      28.954  33.258  47.161  1.00  0.00    +0.000 H 
ATOM    139  H41 UNL A   1      27.801  34.540  46.881  1.00  0.00    +0.000 H 
ATOM     94  C66 UNL A   1      28.000  33.650  47.442  1.00  0.00    +0.000 C 
ENDBRANCH   93   94
ENDBRANCH   92   93
ENDBRANCH   88   89
ENDBRANCH   10    9
ENDBRANCH   11   10
ENDBRANCH   12   11
ENDBRANCH   14   12
ENDBRANCH   15   14
ENDBRANCH   16   15
ENDBRANCH   17   16
ENDBRANCH   18   17
ENDBRANCH   19   18
ENDBRANCH   20   19
ENDBRANCH   21   20
ENDBRANCH   22   21
ENDBRANCH   24   22
ENDBRANCH   28   27
BRANCH   32   33
ATOM     33  C25 UNL A   1      22.871  43.300  49.161  1.00  0.00    +0.000 C 
ATOM     34  C26 UNL A   1      22.577  44.417  48.366  1.00  0.00    +0.000 C 
ATOM     35  F1  UNL A   1      22.308  44.264  47.060  1.00  0.00    +0.000 F 
ATOM     36  C27 UNL A   1      22.598  45.703  48.901  1.00  0.00    +0.000 C 
ATOM     37  F2  UNL A   1      22.364  46.760  48.110  1.00  0.00    +0.000 F 
ATOM     38  C28 UNL A   1      22.880  45.893  50.245  1.00  0.00    +0.000 C 
ATOM     39  F3  UNL A   1      22.898  47.131  50.759  1.00  0.00    +0.000 F 
ATOM     40  C29 UNL A   1      23.150  44.801  51.055  1.00  0.00    +0.000 C 
ATOM     41  F4  UNL A   1      23.412  44.982  52.358  1.00  0.00    +0.000 F 
ATOM     42  C30 UNL A   1      23.156  43.517  50.518  1.00  0.00    +0.000 C 
ATOM     43  F5  UNL A   1      23.440  42.482  51.323  1.00  0.00    +0.000 F 
ENDBRANCH   32   33
BRANCH   49   50
ATOM     50  C36 UNL A   1      18.345  37.701  48.788  1.00  0.00    +0.000 C 
ATOM     51  C37 UNL A   1      17.369  37.403  47.826  1.00  0.00    +0.000 C 
ATOM     52  F6  UNL A   1      17.672  37.453  46.519  1.00  0.00    +0.000 F 
ATOM     53  C38 UNL A   1      16.067  37.086  48.202  1.00  0.00    +0.000 C 
ATOM     54  F7  UNL A   1      15.141  36.844  47.264  1.00  0.00    +0.000 F 
ATOM     55  C39 UNL A   1      15.724  37.031  49.545  1.00  0.00    +0.000 C 
ATOM     56  F8  UNL A   1      14.472  36.720  49.906  1.00  0.00    +0.000 F 
ATOM     57  C40 UNL A   1      16.677  37.310  50.513  1.00  0.00    +0.000 C 
ATOM     58  F9  UNL A   1      16.349  37.248  51.811  1.00  0.00    +0.000 F 
ATOM     59  C41 UNL A   1      17.973  37.652  50.140  1.00  0.00    +0.000 C 
ATOM     60  F10 UNL A   1      18.871  37.925  51.098  1.00  0.00    +0.000 F 
ENDBRANCH   49   50
BRANCH   64   65
ATOM     65  C45 UNL A   1      23.413  33.906  45.874  1.00  0.00    +0.000 C 
ATOM     66  C46 UNL A   1      22.812  33.457  44.690  1.00  0.00    +0.000 C 
ATOM     67  F11 UNL A   1      22.085  34.305  43.947  1.00  0.00    +0.000 F 
ATOM     68  C47 UNL A   1      22.932  32.130  44.282  1.00  0.00    +0.000 C 
ATOM     69  F12 UNL A   1      22.323  31.720  43.162  1.00  0.00    +0.000 F 
ATOM     70  C48 UNL A   1      23.675  31.235  45.036  1.00  0.00    +0.000 C 
ATOM     71  F13 UNL A   1      23.799  29.963  44.638  1.00  0.00    +0.000 F 
ATOM     72  C49 UNL A   1      24.285  31.660  46.208  1.00  0.00    +0.000 C 
ATOM     73  F14 UNL A   1      25.013  30.801  46.934  1.00  0.00    +0.000 F 
ATOM     74  C50 UNL A   1      24.145  32.980  46.630  1.00  0.00    +0.000 C 
ATOM     75  F15 UNL A   1      24.743  33.363  47.768  1.00  0.00    +0.000 F 
ENDBRANCH   64   65
TORSDOF 23
ENDMDL
MODEL 6
REMARK VINA RESULT:     -10.2     36.211     42.992
ROOT
ATOM    129  H31 UNL A   1      18.496  53.233  -1.061  1.00  0.00    +0.000 H 
ATOM    130  H32 UNL A   1      17.992  50.768  -1.536  1.00  0.00    +0.000 H 
ATOM    131  H33 UNL A   1      12.045  50.346   6.554  1.00  0.00    +0.000 H 
ATOM    132  H34 UNL A   1      12.171  52.894   6.778  1.00  0.00    +0.000 H 
ATOM     28  C21 UNL A   1      13.959  54.117   4.930  1.00  0.00    +0.000 C 
ATOM     29  C22 UNL A   1      13.550  52.673   4.992  1.00  0.00    +0.000 C 
ATOM     30  N5  UNL A   1      13.915  51.676   4.227  1.00  0.00    +0.000 N 
ATOM     31  C23 UNL A   1      13.292  50.551   4.750  1.00  0.00    +0.000 C 
ATOM     32  C24 UNL A   1      13.316  49.279   4.283  1.00  0.00    +0.000 C 
ATOM     44  C31 UNL A   1      14.015  48.864   3.095  1.00  0.00    +0.000 C 
ATOM     45  C32 UNL A   1      14.017  47.621   2.484  1.00  0.00    +0.000 C 
ATOM     46  C33 UNL A   1      14.881  47.675   1.385  1.00  0.00    +0.000 C 
ATOM     47  C34 UNL A   1      15.384  48.962   1.286  1.00  0.00    +0.000 C 
ATOM     48  N6  UNL A   1      14.842  49.682   2.338  1.00  0.00    +0.000 N 
ATOM     49  C35 UNL A   1      16.292  49.498   0.303  1.00  0.00    +0.000 C 
ATOM     61  C42 UNL A   1      16.706  50.788   0.251  1.00  0.00    +0.000 C 
ATOM     62  N7  UNL A   1      16.385  51.842   1.095  1.00  0.00    +0.000 N 
ATOM     63  C43 UNL A   1      17.043  52.881   0.643  1.00  0.00    +0.000 C 
ATOM     64  C44 UNL A   1      17.061  54.289   1.164  1.00  0.00    +0.000 C 
ATOM     76  C51 UNL A   1      16.271  54.619   2.203  1.00  0.00    +0.000 C 
ATOM     77  C52 UNL A   1      16.174  55.947   2.802  1.00  0.00    +0.000 C 
ATOM     78  C53 UNL A   1      15.335  55.895   3.848  1.00  0.00    +0.000 C 
ATOM     79  C54 UNL A   1      14.813  54.534   3.975  1.00  0.00    +0.000 C 
ATOM     80  N8  UNL A   1      15.408  53.851   2.944  1.00  0.00    +0.000 N 
ATOM     81  C55 UNL A   1      17.872  52.598  -0.537  1.00  0.00    +0.000 C 
ATOM     82  C56 UNL A   1      17.606  51.318  -0.753  1.00  0.00    +0.000 C 
ATOM     83  C57 UNL A   1      12.559  50.981   5.922  1.00  0.00    +0.000 C 
ATOM     84  C58 UNL A   1      12.634  52.295   6.079  1.00  0.00    +0.000 C 
ATOM    123  H25 UNL A   1      13.474  46.798   2.788  1.00  0.00    +0.000 H 
ATOM    124  H26 UNL A   1      15.106  46.889   0.757  1.00  0.00    +0.000 H 
ATOM    125  H27 UNL A   1      15.016  50.633   2.522  1.00  0.00    +0.000 H 
ATOM    126  H28 UNL A   1      16.672  56.790   2.474  1.00  0.00    +0.000 H 
ATOM    127  H29 UNL A   1      15.098  56.688   4.465  1.00  0.00    +0.000 H 
ATOM    128  H30 UNL A   1      15.232  52.900   2.755  1.00  0.00    +0.000 H 
ENDROOT
BRANCH   28   27
ATOM    122  H24 UNL A   1      15.102  54.723   7.312  1.00  0.00    +0.000 H 
ATOM    133  H35 UNL A   1      11.812  55.718   4.878  1.00  0.00    +0.000 H 
ATOM    134  H36 UNL A   1      11.056  57.296   6.555  1.00  0.00    +0.000 H 
ATOM     85  C59 UNL A   1      12.336  55.821   5.760  1.00  0.00    +0.000 C 
ATOM     86  C60 UNL A   1      11.879  56.701   6.738  1.00  0.00    +0.000 C 
ATOM     24  C17 UNL A   1      12.537  56.776   7.970  1.00  0.00    +0.000 C 
ATOM     25  C18 UNL A   1      13.723  56.066   8.175  1.00  0.00    +0.000 C 
ATOM     26  C19 UNL A   1      14.215  55.229   7.171  1.00  0.00    +0.000 C 
ATOM     27  C20 UNL A   1      13.505  55.075   5.969  1.00  0.00    +0.000 C 
ATOM    121  H23 UNL A   1      14.235  56.159   9.067  1.00  0.00    +0.000 H 
BRANCH   24   22
ATOM     22  C16 UNL A   1      12.013  57.619   9.066  1.00  0.00    +0.000 C 
ATOM     23  O3  UNL A   1      12.194  58.832   9.038  1.00  0.00    +0.000 O 
BRANCH   22   21
ATOM     21  N4  UNL A   1      11.340  57.047  10.116  1.00  0.00    +0.000 N 
ATOM    120  H22 UNL A   1      11.238  57.620  10.911  1.00  0.00    +0.000 H 
BRANCH   21   20
ATOM     20  C15 UNL A   1      10.755  55.720  10.230  1.00  0.00    +0.000 C 
ATOM    118  H20 UNL A   1       9.750  55.816  10.585  1.00  0.00    +0.000 H 
ATOM    119  H21 UNL A   1      10.783  55.266   9.262  1.00  0.00    +0.000 H 
BRANCH   20   19
ATOM     19  C14 UNL A   1      11.535  54.827  11.191  1.00  0.00    +0.000 C 
ATOM    116  H18 UNL A   1      12.402  55.364  11.514  1.00  0.00    +0.000 H 
ATOM    117  H19 UNL A   1      10.866  54.587  11.990  1.00  0.00    +0.000 H 
BRANCH   19   18
ATOM     18  C13 UNL A   1      11.996  53.494  10.596  1.00  0.00    +0.000 C 
ATOM    115  H17 UNL A   1      13.065  53.505  10.638  1.00  0.00    +0.000 H 
ATOM    114  H16 UNL A   1      11.606  53.422   9.602  1.00  0.00    +0.000 H 
BRANCH   18   17
ATOM     17  C12 UNL A   1      11.554  52.243  11.368  1.00  0.00    +0.000 C 
ATOM    113  H15 UNL A   1      11.568  52.513  12.403  1.00  0.00    +0.000 H 
ATOM    112  H14 UNL A   1      12.230  51.449  11.126  1.00  0.00    +0.000 H 
BRANCH   17   16
ATOM    110  H12 UNL A   1      10.103  50.696  11.165  1.00  0.00    +0.000 H 
ATOM    111  H13 UNL A   1       9.480  52.248  11.770  1.00  0.00    +0.000 H 
ATOM     16  C11 UNL A   1      10.128  51.763  11.070  1.00  0.00    +0.000 C 
BRANCH   16   15
ATOM    108  H10 UNL A   1       9.713  53.195   9.546  1.00  0.00    +0.000 H 
ATOM    109  H11 UNL A   1      10.249  51.626   8.954  1.00  0.00    +0.000 H 
ATOM     15  C10 UNL A   1       9.638  52.135   9.670  1.00  0.00    +0.000 C 
BRANCH   15   14
ATOM    107  H9  UNL A   1       7.633  52.451   9.232  1.00  0.00    +0.000 H 
ATOM     14  N3  UNL A   1       8.261  51.731   9.467  1.00  0.00    +0.000 N 
BRANCH   14   12
ATOM     12  C9  UNL A   1       7.723  50.476   9.560  1.00  0.00    +0.000 C 
ATOM     13  O2  UNL A   1       7.290  50.105  10.653  1.00  0.00    +0.000 O 
BRANCH   12   11
ATOM    105  H7  UNL A   1       7.163  48.666   8.573  1.00  0.00    +0.000 H 
ATOM    106  H8  UNL A   1       7.276  50.078   7.521  1.00  0.00    +0.000 H 
ATOM     11  C8  UNL A   1       7.720  49.550   8.338  1.00  0.00    +0.000 C 
BRANCH   11   10
ATOM     10  N2  UNL A   1       9.067  49.166   7.951  1.00  0.00    +0.000 N 
ATOM    104  H6  UNL A   1       9.294  49.227   6.995  1.00  0.00    +0.000 H 
BRANCH   10    9
ATOM      7  C6  UNL A   1      12.061  48.641   9.681  1.00  0.00    +0.000 C 
ATOM      8  N1  UNL A   1      11.272  49.153   8.666  1.00  0.00    +0.000 N 
ATOM      9  C7  UNL A   1      10.034  48.734   8.787  1.00  0.00    +0.000 C 
ATOM     87  S1  UNL A   1       9.779  47.653  10.110  1.00  0.00    +0.000 S 
ATOM     88  C61 UNL A   1      11.389  47.895  10.639  1.00  0.00    +0.000 C 
BRANCH    7    6
ATOM     97  C69 UNL A   1      14.417  47.886   9.812  1.00  0.00    +0.000 C 
ATOM     98  C70 UNL A   1      15.789  48.165   9.778  1.00  0.00    +0.000 C 
ATOM      3  C2  UNL A   1      16.231  49.488   9.694  1.00  0.00    +0.000 C 
ATOM      4  C3  UNL A   1      15.306  50.529   9.694  1.00  0.00    +0.000 C 
ATOM      5  C4  UNL A   1      13.939  50.254   9.715  1.00  0.00    +0.000 C 
ATOM    102  H4  UNL A   1      15.632  51.508   9.679  1.00  0.00    +0.000 H 
ATOM      6  C5  UNL A   1      13.485  48.928   9.751  1.00  0.00    +0.000 C 
ATOM    103  H5  UNL A   1      13.258  51.029   9.705  1.00  0.00    +0.000 H 
ATOM    142  H44 UNL A   1      14.092  46.909   9.883  1.00  0.00    +0.000 H 
ATOM    143  H45 UNL A   1      16.474  47.394   9.815  1.00  0.00    +0.000 H 
BRANCH    3    2
ATOM      2  O1  UNL A   1      17.544  49.867   9.661  1.00  0.00    +0.000 O 
BRANCH    2    1
ATOM      1  C1  UNL A   1      18.054  50.344  10.902  1.00  0.00    +0.000 C 
ATOM     99  H1  UNL A   1      18.914  49.770  11.179  1.00  0.00    +0.000 H 
ATOM    100  H2  UNL A   1      17.303  50.247  11.659  1.00  0.00    +0.000 H 
ATOM    101  H3  UNL A   1      18.328  51.374  10.803  1.00  0.00    +0.000 H 
ENDBRANCH    2    1
ENDBRANCH    3    2
ENDBRANCH    7    6
BRANCH   88   89
ATOM    135  H37 UNL A   1      11.887  49.231  12.944  1.00  0.00    +0.000 H 
ATOM    136  H38 UNL A   1      12.554  48.301  15.079  1.00  0.00    +0.000 H 
ATOM    140  H42 UNL A   1      12.587  44.447  13.420  1.00  0.00    +0.000 H 
ATOM    141  H43 UNL A   1      11.940  45.374  11.278  1.00  0.00    +0.000 H 
ATOM     89  C62 UNL A   1      11.835  47.377  11.935  1.00  0.00    +0.000 C 
ATOM     90  C63 UNL A   1      12.027  48.214  13.039  1.00  0.00    +0.000 C 
ATOM     91  C64 UNL A   1      12.410  47.675  14.273  1.00  0.00    +0.000 C 
ATOM     92  C65 UNL A   1      12.599  46.299  14.426  1.00  0.00    +0.000 C 
ATOM     95  C67 UNL A   1      12.433  45.463  13.325  1.00  0.00    +0.000 C 
ATOM     96  C68 UNL A   1      12.057  46.000  12.090  1.00  0.00    +0.000 C 
BRANCH   92   93
ATOM     93  O4  UNL A   1      12.946  45.899  15.686  1.00  0.00    +0.000 O 
BRANCH   93   94
ATOM    137  H39 UNL A   1      11.800  44.650  16.832  1.00  0.00    +0.000 H 
ATOM    138  H40 UNL A   1      10.963  46.033  16.171  1.00  0.00    +0.000 H 
ATOM    139  H41 UNL A   1      12.072  46.239  17.504  1.00  0.00    +0.000 H 
ATOM     94  C66 UNL A   1      11.879  45.692  16.605  1.00  0.00    +0.000 C 
ENDBRANCH   93   94
ENDBRANCH   92   93
ENDBRANCH   88   89
ENDBRANCH   10    9
ENDBRANCH   11   10
ENDBRANCH   12   11
ENDBRANCH   14   12
ENDBRANCH   15   14
ENDBRANCH   16   15
ENDBRANCH   17   16
ENDBRANCH   18   17
ENDBRANCH   19   18
ENDBRANCH   20   19
ENDBRANCH   21   20
ENDBRANCH   22   21
ENDBRANCH   24   22
ENDBRANCH   28   27
BRANCH   32   33
ATOM     33  C25 UNL A   1      12.564  48.240   5.063  1.00  0.00    +0.000 C 
ATOM     34  C26 UNL A   1      11.234  47.909   4.762  1.00  0.00    +0.000 C 
ATOM     35  F1  UNL A   1      10.586  48.550   3.778  1.00  0.00    +0.000 F 
ATOM     36  C27 UNL A   1      10.552  46.945   5.499  1.00  0.00    +0.000 C 
ATOM     37  F2  UNL A   1       9.266  46.682   5.227  1.00  0.00    +0.000 F 
ATOM     38  C28 UNL A   1      11.194  46.271   6.527  1.00  0.00    +0.000 C 
ATOM     39  F3  UNL A   1      10.536  45.342   7.235  1.00  0.00    +0.000 F 
ATOM     40  C29 UNL A   1      12.515  46.565   6.827  1.00  0.00    +0.000 C 
ATOM     41  F4  UNL A   1      13.141  45.907   7.813  1.00  0.00    +0.000 F 
ATOM     42  C30 UNL A   1      13.192  47.548   6.109  1.00  0.00    +0.000 C 
ATOM     43  F5  UNL A   1      14.463  47.824   6.435  1.00  0.00    +0.000 F 
ENDBRANCH   32   33
BRANCH   49   50
ATOM     50  C36 UNL A   1      16.810  48.570  -0.753  1.00  0.00    +0.000 C 
ATOM     51  C37 UNL A   1      16.078  48.311  -1.922  1.00  0.00    +0.000 C 
ATOM     52  F6  UNL A   1      14.864  48.857  -2.091  1.00  0.00    +0.000 F 
ATOM     53  C38 UNL A   1      16.578  47.463  -2.906  1.00  0.00    +0.000 C 
ATOM     54  F7  UNL A   1      15.843  47.199  -3.995  1.00  0.00    +0.000 F 
ATOM     55  C39 UNL A   1      17.827  46.881  -2.755  1.00  0.00    +0.000 C 
ATOM     56  F8  UNL A   1      18.310  46.069  -3.706  1.00  0.00    +0.000 F 
ATOM     57  C40 UNL A   1      18.574  47.133  -1.613  1.00  0.00    +0.000 C 
ATOM     58  F9  UNL A   1      19.786  46.580  -1.471  1.00  0.00    +0.000 F 
ATOM     59  C41 UNL A   1      18.067  47.961  -0.616  1.00  0.00    +0.000 C 
ATOM     60  F10 UNL A   1      18.807  48.179   0.481  1.00  0.00    +0.000 F 
ENDBRANCH   49   50
BRANCH   64   65
ATOM     65  C45 UNL A   1      17.916  55.328   0.540  1.00  0.00    +0.000 C 
ATOM     66  C46 UNL A   1      17.520  55.974  -0.638  1.00  0.00    +0.000 C 
ATOM     67  F11 UNL A   1      16.376  55.621  -1.242  1.00  0.00    +0.000 F 
ATOM     68  C47 UNL A   1      18.311  56.967  -1.214  1.00  0.00    +0.000 C 
ATOM     69  F12 UNL A   1      17.923  57.549  -2.357  1.00  0.00    +0.000 F 
ATOM     70  C48 UNL A   1      19.499  57.347  -0.610  1.00  0.00    +0.000 C 
ATOM     71  F13 UNL A   1      20.253  58.309  -1.158  1.00  0.00    +0.000 F 
ATOM     72  C49 UNL A   1      19.908  56.725   0.561  1.00  0.00    +0.000 C 
ATOM     73  F14 UNL A   1      21.050  57.098   1.154  1.00  0.00    +0.000 F 
ATOM     74  C50 UNL A   1      19.131  55.716   1.125  1.00  0.00    +0.000 C 
ATOM     75  F15 UNL A   1      19.550  55.130   2.256  1.00  0.00    +0.000 F 
ENDBRANCH   64   65
TORSDOF 23
ENDMDL
MODEL 7
REMARK VINA RESULT:     -10.0     22.181     27.512
ROOT
ATOM    129  H31 UNL A   1      50.599  22.614  12.457  1.00  0.00    +0.000 H 
ATOM    130  H32 UNL A   1      50.902  23.158  14.941  1.00  0.00    +0.000 H 
ATOM    131  H33 UNL A   1      60.302  19.617  14.650  1.00  0.00    +0.000 H 
ATOM    132  H34 UNL A   1      60.176  19.494  12.095  1.00  0.00    +0.000 H 
ATOM     28  C21 UNL A   1      57.605  20.127  11.047  1.00  0.00    +0.000 C 
ATOM     29  C22 UNL A   1      58.063  20.223  12.474  1.00  0.00    +0.000 C 
ATOM     30  N5  UNL A   1      57.397  20.612  13.532  1.00  0.00    +0.000 N 
ATOM     31  C23 UNL A   1      58.266  20.456  14.603  1.00  0.00    +0.000 C 
ATOM     32  C24 UNL A   1      58.064  20.767  15.906  1.00  0.00    +0.000 C 
ATOM     44  C31 UNL A   1      56.856  21.357  16.421  1.00  0.00    +0.000 C 
ATOM     45  C32 UNL A   1      56.592  21.802  17.706  1.00  0.00    +0.000 C 
ATOM     46  C33 UNL A   1      55.268  22.252  17.750  1.00  0.00    +0.000 C 
ATOM     47  C34 UNL A   1      54.720  22.128  16.483  1.00  0.00    +0.000 C 
ATOM     48  N6  UNL A   1      55.706  21.581  15.678  1.00  0.00    +0.000 N 
ATOM     49  C35 UNL A   1      53.396  22.481  16.039  1.00  0.00    +0.000 C 
ATOM     61  C42 UNL A   1      52.949  22.366  14.764  1.00  0.00    +0.000 C 
ATOM     62  N7  UNL A   1      53.617  21.891  13.645  1.00  0.00    +0.000 N 
ATOM     63  C43 UNL A   1      52.761  21.964  12.655  1.00  0.00    +0.000 C 
ATOM     64  C44 UNL A   1      52.951  21.592  11.212  1.00  0.00    +0.000 C 
ATOM     76  C51 UNL A   1      54.159  21.172  10.791  1.00  0.00    +0.000 C 
ATOM     77  C52 UNL A   1      54.491  20.793   9.421  1.00  0.00    +0.000 C 
ATOM     78  C53 UNL A   1      55.765  20.373   9.379  1.00  0.00    +0.000 C 
ATOM     79  C54 UNL A   1      56.348  20.481  10.717  1.00  0.00    +0.000 C 
ATOM     80  N8  UNL A   1      55.328  20.983  11.486  1.00  0.00    +0.000 N 
ATOM     81  C55 UNL A   1      51.442  22.483  13.039  1.00  0.00    +0.000 C 
ATOM     82  C56 UNL A   1      51.620  22.742  14.327  1.00  0.00    +0.000 C 
ATOM     83  C57 UNL A   1      59.493  19.899  14.073  1.00  0.00    +0.000 C 
ATOM     84  C58 UNL A   1      59.442  19.795  12.754  1.00  0.00    +0.000 C 
ATOM    123  H25 UNL A   1      57.258  21.801  18.494  1.00  0.00    +0.000 H 
ATOM    124  H26 UNL A   1      54.782  22.614  18.585  1.00  0.00    +0.000 H 
ATOM    125  H27 UNL A   1      55.607  21.382  14.719  1.00  0.00    +0.000 H 
ATOM    126  H28 UNL A   1      53.849  20.839   8.614  1.00  0.00    +0.000 H 
ATOM    127  H29 UNL A   1      56.255  20.029   8.538  1.00  0.00    +0.000 H 
ATOM    128  H30 UNL A   1      55.425  21.188  12.445  1.00  0.00    +0.000 H 
ENDROOT
BRANCH   28   27
ATOM    122  H24 UNL A   1      59.504  21.363   9.557  1.00  0.00    +0.000 H 
ATOM    133  H35 UNL A   1      57.759  17.586  10.214  1.00  0.00    +0.000 H 
ATOM    134  H36 UNL A   1      59.211  16.627   8.526  1.00  0.00    +0.000 H 
ATOM     85  C59 UNL A   1      58.418  18.190   9.699  1.00  0.00    +0.000 C 
ATOM     86  C60 UNL A   1      59.224  17.644   8.704  1.00  0.00    +0.000 C 
ATOM     24  C17 UNL A   1      60.052  18.477   7.944  1.00  0.00    +0.000 C 
ATOM     25  C18 UNL A   1      60.167  19.832   8.265  1.00  0.00    +0.000 C 
ATOM     26  C19 UNL A   1      59.403  20.368   9.304  1.00  0.00    +0.000 C 
ATOM     27  C20 UNL A   1      58.496  19.556  10.006  1.00  0.00    +0.000 C 
ATOM    121  H23 UNL A   1      60.815  20.436   7.736  1.00  0.00    +0.000 H 
BRANCH   24   22
ATOM     22  C16 UNL A   1      60.838  17.944   6.810  1.00  0.00    +0.000 C 
ATOM     23  O3  UNL A   1      61.274  16.798   6.859  1.00  0.00    +0.000 O 
BRANCH   22   21
ATOM     21  N4  UNL A   1      61.091  18.731   5.715  1.00  0.00    +0.000 N 
ATOM    120  H22 UNL A   1      62.044  18.880   5.516  1.00  0.00    +0.000 H 
BRANCH   21   20
ATOM     20  C15 UNL A   1      60.159  19.378   4.804  1.00  0.00    +0.000 C 
ATOM    118  H20 UNL A   1      59.581  20.091   5.353  1.00  0.00    +0.000 H 
ATOM    119  H21 UNL A   1      60.729  19.850   4.032  1.00  0.00    +0.000 H 
BRANCH   20   19
ATOM     19  C14 UNL A   1      59.211  18.379   4.143  1.00  0.00    +0.000 C 
ATOM    116  H18 UNL A   1      58.930  18.771   3.188  1.00  0.00    +0.000 H 
ATOM    117  H19 UNL A   1      59.744  17.455   4.080  1.00  0.00    +0.000 H 
BRANCH   19   18
ATOM     18  C13 UNL A   1      57.933  18.089   4.934  1.00  0.00    +0.000 C 
ATOM    115  H17 UNL A   1      58.125  18.411   5.936  1.00  0.00    +0.000 H 
ATOM    114  H16 UNL A   1      57.724  17.043   4.853  1.00  0.00    +0.000 H 
BRANCH   18   17
ATOM     17  C12 UNL A   1      56.688  18.858   4.473  1.00  0.00    +0.000 C 
ATOM    113  H15 UNL A   1      55.874  18.165   4.528  1.00  0.00    +0.000 H 
ATOM    112  H14 UNL A   1      56.870  19.222   3.483  1.00  0.00    +0.000 H 
BRANCH   17   16
ATOM    110  H12 UNL A   1      56.978  20.105   6.176  1.00  0.00    +0.000 H 
ATOM    111  H13 UNL A   1      56.331  20.923   4.736  1.00  0.00    +0.000 H 
ATOM     16  C11 UNL A   1      56.294  20.051   5.354  1.00  0.00    +0.000 C 
BRANCH   16   15
ATOM    108  H10 UNL A   1      54.774  20.639   6.729  1.00  0.00    +0.000 H 
ATOM    109  H11 UNL A   1      54.186  20.195   5.129  1.00  0.00    +0.000 H 
ATOM     15  C10 UNL A   1      54.873  19.953   5.913  1.00  0.00    +0.000 C 
BRANCH   15   14
ATOM    107  H9  UNL A   1      55.359  18.025   6.513  1.00  0.00    +0.000 H 
ATOM     14  N3  UNL A   1      54.581  18.613   6.382  1.00  0.00    +0.000 N 
BRANCH   14   12
ATOM     12  C9  UNL A   1      53.361  18.062   6.666  1.00  0.00    +0.000 C 
ATOM     13  O2  UNL A   1      52.790  18.406   7.703  1.00  0.00    +0.000 O 
BRANCH   12   11
ATOM    105  H7  UNL A   1      53.546  16.587   5.132  1.00  0.00    +0.000 H 
ATOM    106  H8  UNL A   1      52.301  16.250   6.335  1.00  0.00    +0.000 H 
ATOM     11  C8  UNL A   1      52.763  17.002   5.732  1.00  0.00    +0.000 C 
BRANCH   11   10
ATOM     10  N2  UNL A   1      51.751  17.567   4.857  1.00  0.00    +0.000 N 
ATOM    104  H6  UNL A   1      52.064  18.116   4.101  1.00  0.00    +0.000 H 
BRANCH   10    9
ATOM      7  C6  UNL A   1      48.271  17.884   4.703  1.00  0.00    +0.000 C 
ATOM      8  N1  UNL A   1      49.578  18.306   4.530  1.00  0.00    +0.000 N 
ATOM      9  C7  UNL A   1      50.417  17.405   4.988  1.00  0.00    +0.000 C 
ATOM     87  S1  UNL A   1      49.658  16.027   5.699  1.00  0.00    +0.000 S 
ATOM     88  C61 UNL A   1      48.120  16.604   5.217  1.00  0.00    +0.000 C 
BRANCH    7    6
ATOM     97  C69 UNL A   1      46.854  19.891   5.017  1.00  0.00    +0.000 C 
ATOM     98  C70 UNL A   1      45.834  20.744   4.575  1.00  0.00    +0.000 C 
ATOM      3  C2  UNL A   1      45.099  20.420   3.432  1.00  0.00    +0.000 C 
ATOM      4  C3  UNL A   1      45.350  19.224   2.762  1.00  0.00    +0.000 C 
ATOM      5  C4  UNL A   1      46.373  18.380   3.193  1.00  0.00    +0.000 C 
ATOM    102  H4  UNL A   1      44.777  18.962   1.944  1.00  0.00    +0.000 H 
ATOM      6  C5  UNL A   1      47.147  18.720   4.311  1.00  0.00    +0.000 C 
ATOM    103  H5  UNL A   1      46.561  17.500   2.687  1.00  0.00    +0.000 H 
ATOM    142  H44 UNL A   1      47.389  20.128   5.867  1.00  0.00    +0.000 H 
ATOM    143  H45 UNL A   1      45.625  21.611   5.094  1.00  0.00    +0.000 H 
BRANCH    3    2
ATOM      2  O1  UNL A   1      44.082  21.178   2.921  1.00  0.00    +0.000 O 
BRANCH    2    1
ATOM      1  C1  UNL A   1      44.428  21.929   1.761  1.00  0.00    +0.000 C 
ATOM     99  H1  UNL A   1      43.832  21.603   0.935  1.00  0.00    +0.000 H 
ATOM    100  H2  UNL A   1      45.464  21.777   1.534  1.00  0.00    +0.000 H 
ATOM    101  H3  UNL A   1      44.251  22.968   1.943  1.00  0.00    +0.000 H 
ENDBRANCH    2    1
ENDBRANCH    3    2
ENDBRANCH    7    6
BRANCH   88   89
ATOM    135  H37 UNL A   1      47.835  13.955   4.715  1.00  0.00    +0.000 H 
ATOM    136  H38 UNL A   1      45.852  12.597   5.019  1.00  0.00    +0.000 H 
ATOM    140  H42 UNL A   1      43.707  15.968   6.303  1.00  0.00    +0.000 H 
ATOM    141  H43 UNL A   1      45.682  17.334   5.983  1.00  0.00    +0.000 H 
ATOM     89  C62 UNL A   1      46.932  15.757   5.345  1.00  0.00    +0.000 C 
ATOM     90  C63 UNL A   1      46.964  14.388   5.059  1.00  0.00    +0.000 C 
ATOM     91  C64 UNL A   1      45.818  13.604   5.237  1.00  0.00    +0.000 C 
ATOM     92  C65 UNL A   1      44.631  14.169   5.708  1.00  0.00    +0.000 C 
ATOM     95  C67 UNL A   1      44.584  15.535   5.972  1.00  0.00    +0.000 C 
ATOM     96  C68 UNL A   1      45.726  16.321   5.789  1.00  0.00    +0.000 C 
BRANCH   92   93
ATOM     93  O4  UNL A   1      43.594  13.291   5.863  1.00  0.00    +0.000 O 
BRANCH   93   94
ATOM    137  H39 UNL A   1      42.021  13.179   7.168  1.00  0.00    +0.000 H 
ATOM    138  H40 UNL A   1      41.653  13.889   5.615  1.00  0.00    +0.000 H 
ATOM    139  H41 UNL A   1      42.568  14.796   6.794  1.00  0.00    +0.000 H 
ATOM     94  C66 UNL A   1      42.384  13.821   6.392  1.00  0.00    +0.000 C 
ENDBRANCH   93   94
ENDBRANCH   92   93
ENDBRANCH   88   89
ENDBRANCH   10    9
ENDBRANCH   11   10
ENDBRANCH   12   11
ENDBRANCH   14   12
ENDBRANCH   15   14
ENDBRANCH   16   15
ENDBRANCH   17   16
ENDBRANCH   18   17
ENDBRANCH   19   18
ENDBRANCH   20   19
ENDBRANCH   21   20
ENDBRANCH   22   21
ENDBRANCH   24   22
ENDBRANCH   28   27
BRANCH   32   33
ATOM     33  C25 UNL A   1      59.176  20.471  16.870  1.00  0.00    +0.000 C 
ATOM     34  C26 UNL A   1      60.206  21.391  17.114  1.00  0.00    +0.000 C 
ATOM     35  F1  UNL A   1      60.239  22.558  16.454  1.00  0.00    +0.000 F 
ATOM     36  C27 UNL A   1      61.232  21.097  18.009  1.00  0.00    +0.000 C 
ATOM     37  F2  UNL A   1      62.233  21.970  18.188  1.00  0.00    +0.000 F 
ATOM     38  C28 UNL A   1      61.228  19.896  18.701  1.00  0.00    +0.000 C 
ATOM     39  F3  UNL A   1      62.215  19.615  19.564  1.00  0.00    +0.000 F 
ATOM     40  C29 UNL A   1      60.207  18.981  18.494  1.00  0.00    +0.000 C 
ATOM     41  F4  UNL A   1      60.196  17.824  19.170  1.00  0.00    +0.000 F 
ATOM     42  C30 UNL A   1      59.195  19.261  17.579  1.00  0.00    +0.000 C 
ATOM     43  F5  UNL A   1      58.231  18.348  17.386  1.00  0.00    +0.000 F 
ENDBRANCH   32   33
BRANCH   49   50
ATOM     50  C36 UNL A   1      52.440  23.034  17.053  1.00  0.00    +0.000 C 
ATOM     51  C37 UNL A   1      52.266  24.416  17.216  1.00  0.00    +0.000 C 
ATOM     52  F6  UNL A   1      52.999  25.278  16.494  1.00  0.00    +0.000 F 
ATOM     53  C38 UNL A   1      51.360  24.918  18.146  1.00  0.00    +0.000 C 
ATOM     54  F7  UNL A   1      51.240  26.242  18.313  1.00  0.00    +0.000 F 
ATOM     55  C39 UNL A   1      50.593  24.051  18.909  1.00  0.00    +0.000 C 
ATOM     56  F8  UNL A   1      49.718  24.535  19.801  1.00  0.00    +0.000 F 
ATOM     57  C40 UNL A   1      50.740  22.680  18.755  1.00  0.00    +0.000 C 
ATOM     58  F9  UNL A   1      49.992  21.841  19.485  1.00  0.00    +0.000 F 
ATOM     59  C41 UNL A   1      51.662  22.175  17.844  1.00  0.00    +0.000 C 
ATOM     60  F10 UNL A   1      51.789  20.845  17.723  1.00  0.00    +0.000 F 
ENDBRANCH   49   50
BRANCH   64   65
ATOM     65  C45 UNL A   1      51.837  21.701  10.239  1.00  0.00    +0.000 C 
ATOM     66  C46 UNL A   1      51.064  20.582   9.901  1.00  0.00    +0.000 C 
ATOM     67  F11 UNL A   1      51.361  19.383  10.424  1.00  0.00    +0.000 F 
ATOM     68  C47 UNL A   1      50.003  20.686   9.004  1.00  0.00    +0.000 C 
ATOM     69  F12 UNL A   1      49.298  19.595   8.676  1.00  0.00    +0.000 F 
ATOM     70  C48 UNL A   1      49.680  21.914   8.448  1.00  0.00    +0.000 C 
ATOM     71  F13 UNL A   1      48.652  22.016   7.595  1.00  0.00    +0.000 F 
ATOM     72  C49 UNL A   1      50.427  23.037   8.774  1.00  0.00    +0.000 C 
ATOM     73  F14 UNL A   1      50.111  24.228   8.248  1.00  0.00    +0.000 F 
ATOM     74  C50 UNL A   1      51.504  22.930   9.651  1.00  0.00    +0.000 C 
ATOM     75  F15 UNL A   1      52.212  24.031   9.947  1.00  0.00    +0.000 F 
ENDBRANCH   64   65
TORSDOF 23
ENDMDL
MODEL 8
REMARK VINA RESULT:     -10.0     38.011     44.887
ROOT
ATOM    129  H31 UNL A   1      18.322  58.947   1.900  1.00  0.00    +0.000 H 
ATOM    130  H32 UNL A   1      20.311  60.437   1.284  1.00  0.00    +0.000 H 
ATOM    131  H33 UNL A   1      22.804  54.163  -6.160  1.00  0.00    +0.000 H 
ATOM    132  H34 UNL A   1      20.585  52.921  -5.856  1.00  0.00    +0.000 H 
ATOM     28  C21 UNL A   1      19.056  53.842  -3.636  1.00  0.00    +0.000 C 
ATOM     29  C22 UNL A   1      20.332  54.423  -4.176  1.00  0.00    +0.000 C 
ATOM     30  N5  UNL A   1      21.010  55.461  -3.756  1.00  0.00    +0.000 N 
ATOM     31  C23 UNL A   1      22.135  55.530  -4.568  1.00  0.00    +0.000 C 
ATOM     32  C24 UNL A   1      23.122  56.458  -4.565  1.00  0.00    +0.000 C 
ATOM     44  C31 UNL A   1      23.163  57.595  -3.684  1.00  0.00    +0.000 C 
ATOM     45  C32 UNL A   1      24.066  58.645  -3.671  1.00  0.00    +0.000 C 
ATOM     46  C33 UNL A   1      23.740  59.490  -2.605  1.00  0.00    +0.000 C 
ATOM     47  C34 UNL A   1      22.608  58.991  -1.980  1.00  0.00    +0.000 C 
ATOM     48  N6  UNL A   1      22.263  57.831  -2.655  1.00  0.00    +0.000 N 
ATOM     49  C35 UNL A   1      21.893  59.532  -0.852  1.00  0.00    +0.000 C 
ATOM     61  C42 UNL A   1      20.762  59.002  -0.324  1.00  0.00    +0.000 C 
ATOM     62  N7  UNL A   1      20.069  57.864  -0.711  1.00  0.00    +0.000 N 
ATOM     63  C43 UNL A   1      19.056  57.761   0.113  1.00  0.00    +0.000 C 
ATOM     64  C44 UNL A   1      17.970  56.722   0.152  1.00  0.00    +0.000 C 
ATOM     76  C51 UNL A   1      17.936  55.767  -0.796  1.00  0.00    +0.000 C 
ATOM     77  C52 UNL A   1      16.936  54.708  -0.891  1.00  0.00    +0.000 C 
ATOM     78  C53 UNL A   1      17.245  53.906  -1.921  1.00  0.00    +0.000 C 
ATOM     79  C54 UNL A   1      18.451  54.412  -2.577  1.00  0.00    +0.000 C 
ATOM     80  N8  UNL A   1      18.780  55.531  -1.853  1.00  0.00    +0.000 N 
ATOM     81  C55 UNL A   1      18.999  58.819   1.131  1.00  0.00    +0.000 C 
ATOM     82  C56 UNL A   1      20.044  59.565   0.801  1.00  0.00    +0.000 C 
ATOM     83  C57 UNL A   1      22.068  54.405  -5.477  1.00  0.00    +0.000 C 
ATOM     84  C58 UNL A   1      20.941  53.726  -5.319  1.00  0.00    +0.000 C 
ATOM    123  H25 UNL A   1      24.846  58.780  -4.334  1.00  0.00    +0.000 H 
ATOM    124  H26 UNL A   1      24.255  60.341  -2.330  1.00  0.00    +0.000 H 
ATOM    125  H27 UNL A   1      21.493  57.258  -2.436  1.00  0.00    +0.000 H 
ATOM    126  H28 UNL A   1      16.122  54.594  -0.266  1.00  0.00    +0.000 H 
ATOM    127  H29 UNL A   1      16.717  53.065  -2.206  1.00  0.00    +0.000 H 
ATOM    128  H30 UNL A   1      19.547  56.108  -2.071  1.00  0.00    +0.000 H 
ENDROOT
BRANCH   28   27
ATOM    122  H24 UNL A   1      17.384  53.505  -5.744  1.00  0.00    +0.000 H 
ATOM    133  H35 UNL A   1      19.515  51.326  -2.836  1.00  0.00    +0.000 H 
ATOM    134  H36 UNL A   1      18.633  49.260  -3.745  1.00  0.00    +0.000 H 
ATOM     85  C59 UNL A   1      18.855  51.353  -3.629  1.00  0.00    +0.000 C 
ATOM     86  C60 UNL A   1      18.321  50.168  -4.125  1.00  0.00    +0.000 C 
ATOM     24  C17 UNL A   1      17.359  50.209  -5.140  1.00  0.00    +0.000 C 
ATOM     25  C18 UNL A   1      17.028  51.426  -5.743  1.00  0.00    +0.000 C 
ATOM     26  C19 UNL A   1      17.610  52.609  -5.285  1.00  0.00    +0.000 C 
ATOM     27  C20 UNL A   1      18.503  52.585  -4.200  1.00  0.00    +0.000 C 
ATOM    121  H23 UNL A   1      16.354  51.450  -6.524  1.00  0.00    +0.000 H 
BRANCH   24   22
ATOM     22  C16 UNL A   1      16.694  48.976  -5.612  1.00  0.00    +0.000 C 
ATOM     23  O3  UNL A   1      16.251  48.925  -6.756  1.00  0.00    +0.000 O 
BRANCH   22   21
ATOM     21  N4  UNL A   1      16.560  47.898  -4.774  1.00  0.00    +0.000 N 
ATOM    120  H22 UNL A   1      17.305  47.254  -4.795  1.00  0.00    +0.000 H 
BRANCH   21   20
ATOM     20  C15 UNL A   1      15.478  47.565  -3.859  1.00  0.00    +0.000 C 
ATOM    118  H20 UNL A   1      14.562  47.948  -4.255  1.00  0.00    +0.000 H 
ATOM    119  H21 UNL A   1      15.446  46.500  -3.763  1.00  0.00    +0.000 H 
BRANCH   20   19
ATOM     19  C14 UNL A   1      15.699  48.155  -2.468  1.00  0.00    +0.000 C 
ATOM    116  H18 UNL A   1      15.222  47.514  -1.756  1.00  0.00    +0.000 H 
ATOM    117  H19 UNL A   1      16.757  48.222  -2.333  1.00  0.00    +0.000 H 
BRANCH   19   18
ATOM     18  C13 UNL A   1      15.148  49.571  -2.278  1.00  0.00    +0.000 C 
ATOM    115  H17 UNL A   1      14.185  49.455  -1.824  1.00  0.00    +0.000 H 
ATOM    114  H16 UNL A   1      15.114  50.045  -3.237  1.00  0.00    +0.000 H 
BRANCH   18   17
ATOM     17  C12 UNL A   1      15.957  50.469  -1.334  1.00  0.00    +0.000 C 
ATOM    113  H15 UNL A   1      15.256  50.867  -0.629  1.00  0.00    +0.000 H 
ATOM    112  H14 UNL A   1      16.441  51.219  -1.923  1.00  0.00    +0.000 H 
BRANCH   17   16
ATOM    110  H12 UNL A   1      16.554  49.280   0.331  1.00  0.00    +0.000 H 
ATOM    111  H13 UNL A   1      17.501  49.038  -1.154  1.00  0.00    +0.000 H 
ATOM     16  C11 UNL A   1      17.030  49.747  -0.507  1.00  0.00    +0.000 C 
BRANCH   16   15
ATOM    108  H10 UNL A   1      19.072  50.188  -0.079  1.00  0.00    +0.000 H 
ATOM    109  H11 UNL A   1      18.105  51.579  -0.561  1.00  0.00    +0.000 H 
ATOM     15  C10 UNL A   1      18.125  50.678   0.016  1.00  0.00    +0.000 C 
BRANCH   15   14
ATOM    107  H9  UNL A   1      17.530  51.914   1.576  1.00  0.00    +0.000 H 
ATOM     14  N3  UNL A   1      17.907  51.021   1.408  1.00  0.00    +0.000 N 
BRANCH   14   12
ATOM     12  C9  UNL A   1      18.160  50.261   2.517  1.00  0.00    +0.000 C 
ATOM     13  O2  UNL A   1      19.113  49.479   2.486  1.00  0.00    +0.000 O 
BRANCH   12   11
ATOM    105  H7  UNL A   1      17.600  51.123   4.389  1.00  0.00    +0.000 H 
ATOM    106  H8  UNL A   1      16.250  50.579   3.392  1.00  0.00    +0.000 H 
ATOM     11  C8  UNL A   1      17.237  50.355   3.738  1.00  0.00    +0.000 C 
BRANCH   11   10
ATOM     10  N2  UNL A   1      17.186  49.102   4.472  1.00  0.00    +0.000 N 
ATOM    104  H6  UNL A   1      17.675  48.337   4.089  1.00  0.00    +0.000 H 
BRANCH   10    9
ATOM      7  C6  UNL A   1      15.915  49.299   7.724  1.00  0.00    +0.000 C 
ATOM      8  N1  UNL A   1      16.764  49.642   6.686  1.00  0.00    +0.000 N 
ATOM      9  C7  UNL A   1      16.529  48.895   5.632  1.00  0.00    +0.000 C 
ATOM     87  S1  UNL A   1      15.303  47.703   5.869  1.00  0.00    +0.000 S 
ATOM     88  C61 UNL A   1      14.961  48.338   7.421  1.00  0.00    +0.000 C 
BRANCH    7    6
ATOM     97  C69 UNL A   1      16.943  49.546   9.964  1.00  0.00    +0.000 C 
ATOM     98  C70 UNL A   1      17.086  50.246  11.169  1.00  0.00    +0.000 C 
ATOM      3  C2  UNL A   1      16.275  51.352  11.434  1.00  0.00    +0.000 C 
ATOM      4  C3  UNL A   1      15.293  51.726  10.520  1.00  0.00    +0.000 C 
ATOM      5  C4  UNL A   1      15.157  51.038   9.314  1.00  0.00    +0.000 C 
ATOM    102  H4  UNL A   1      14.663  52.515  10.734  1.00  0.00    +0.000 H 
ATOM      6  C5  UNL A   1      15.998  49.957   9.019  1.00  0.00    +0.000 C 
ATOM    103  H5  UNL A   1      14.434  51.326   8.636  1.00  0.00    +0.000 H 
ATOM    142  H44 UNL A   1      17.537  48.723   9.774  1.00  0.00    +0.000 H 
ATOM    143  H45 UNL A   1      17.789  49.944  11.862  1.00  0.00    +0.000 H 
BRANCH    3    2
ATOM      2  O1  UNL A   1      16.330  52.099  12.578  1.00  0.00    +0.000 O 
BRANCH    2    1
ATOM      1  C1  UNL A   1      15.062  52.379  13.164  1.00  0.00    +0.000 C 
ATOM     99  H1  UNL A   1      14.334  51.692  12.784  1.00  0.00    +0.000 H 
ATOM    100  H2  UNL A   1      14.769  53.379  12.919  1.00  0.00    +0.000 H 
ATOM    101  H3  UNL A   1      15.130  52.277  14.226  1.00  0.00    +0.000 H 
ENDBRANCH    2    1
ENDBRANCH    3    2
ENDBRANCH    7    6
BRANCH   88   89
ATOM    135  H37 UNL A   1      12.388  49.179   7.286  1.00  0.00    +0.000 H 
ATOM    136  H38 UNL A   1      10.485  48.322   8.515  1.00  0.00    +0.000 H 
ATOM    140  H42 UNL A   1      12.970  45.596  10.516  1.00  0.00    +0.000 H 
ATOM    141  H43 UNL A   1      14.880  46.463   9.305  1.00  0.00    +0.000 H 
ATOM     89  C62 UNL A   1      13.793  47.878   8.176  1.00  0.00    +0.000 C 
ATOM     90  C63 UNL A   1      12.518  48.414   7.966  1.00  0.00    +0.000 C 
ATOM     91  C64 UNL A   1      11.419  47.916   8.674  1.00  0.00    +0.000 C 
ATOM     92  C65 UNL A   1      11.571  46.876   9.594  1.00  0.00    +0.000 C 
ATOM     95  C67 UNL A   1      12.841  46.353   9.826  1.00  0.00    +0.000 C 
ATOM     96  C68 UNL A   1      13.942  46.853   9.124  1.00  0.00    +0.000 C 
BRANCH   92   93
ATOM     93  O4  UNL A   1      10.416  46.464  10.199  1.00  0.00    +0.000 O 
BRANCH   93   94
ATOM    137  H39 UNL A   1       8.831  47.678   9.749  1.00  0.00    +0.000 H 
ATOM    138  H40 UNL A   1       8.482  45.967   9.755  1.00  0.00    +0.000 H 
ATOM    139  H41 UNL A   1       9.392  46.667   8.439  1.00  0.00    +0.000 H 
ATOM     94  C66 UNL A   1       9.205  46.709   9.492  1.00  0.00    +0.000 C 
ENDBRANCH   93   94
ENDBRANCH   92   93
ENDBRANCH   88   89
ENDBRANCH   10    9
ENDBRANCH   11   10
ENDBRANCH   12   11
ENDBRANCH   14   12
ENDBRANCH   15   14
ENDBRANCH   16   15
ENDBRANCH   17   16
ENDBRANCH   18   17
ENDBRANCH   19   18
ENDBRANCH   20   19
ENDBRANCH   21   20
ENDBRANCH   22   21
ENDBRANCH   24   22
ENDBRANCH   28   27
BRANCH   32   33
ATOM     33  C25 UNL A   1      24.244  56.278  -5.545  1.00  0.00    +0.000 C 
ATOM     34  C26 UNL A   1      24.156  56.750  -6.863  1.00  0.00    +0.000 C 
ATOM     35  F1  UNL A   1      23.035  57.348  -7.292  1.00  0.00    +0.000 F 
ATOM     36  C27 UNL A   1      25.206  56.571  -7.760  1.00  0.00    +0.000 C 
ATOM     37  F2  UNL A   1      25.080  56.984  -9.029  1.00  0.00    +0.000 F 
ATOM     38  C28 UNL A   1      26.375  55.949  -7.348  1.00  0.00    +0.000 C 
ATOM     39  F3  UNL A   1      27.386  55.780  -8.211  1.00  0.00    +0.000 F 
ATOM     40  C29 UNL A   1      26.494  55.496  -6.043  1.00  0.00    +0.000 C 
ATOM     41  F4  UNL A   1      27.627  54.905  -5.639  1.00  0.00    +0.000 F 
ATOM     42  C30 UNL A   1      25.435  55.649  -5.151  1.00  0.00    +0.000 C 
ATOM     43  F5  UNL A   1      25.572  55.184  -3.901  1.00  0.00    +0.000 F 
ENDBRANCH   32   33
BRANCH   49   50
ATOM     50  C36 UNL A   1      22.423  60.783  -0.220  1.00  0.00    +0.000 C 
ATOM     51  C37 UNL A   1      22.045  62.052  -0.681  1.00  0.00    +0.000 C 
ATOM     52  F6  UNL A   1      21.232  62.169  -1.743  1.00  0.00    +0.000 F 
ATOM     53  C38 UNL A   1      22.528  63.208  -0.074  1.00  0.00    +0.000 C 
ATOM     54  F7  UNL A   1      22.184  64.409  -0.557  1.00  0.00    +0.000 F 
ATOM     55  C39 UNL A   1      23.372  63.118   1.022  1.00  0.00    +0.000 C 
ATOM     56  F8  UNL A   1      23.832  64.231   1.610  1.00  0.00    +0.000 F 
ATOM     57  C40 UNL A   1      23.749  61.872   1.504  1.00  0.00    +0.000 C 
ATOM     58  F9  UNL A   1      24.558  61.784   2.568  1.00  0.00    +0.000 F 
ATOM     59  C41 UNL A   1      23.289  60.715   0.883  1.00  0.00    +0.000 C 
ATOM     60  F10 UNL A   1      23.677  59.525   1.364  1.00  0.00    +0.000 F 
ENDBRANCH   49   50
BRANCH   64   65
ATOM     65  C45 UNL A   1      16.924  56.745   1.202  1.00  0.00    +0.000 C 
ATOM     66  C46 UNL A   1      15.750  57.493   1.033  1.00  0.00    +0.000 C 
ATOM     67  F11 UNL A   1      15.586  58.238  -0.069  1.00  0.00    +0.000 F 
ATOM     68  C47 UNL A   1      14.755  57.498   2.008  1.00  0.00    +0.000 C 
ATOM     69  F12 UNL A   1      13.656  58.244   1.836  1.00  0.00    +0.000 F 
ATOM     70  C48 UNL A   1      14.904  56.738   3.159  1.00  0.00    +0.000 C 
ATOM     71  F13 UNL A   1      13.942  56.734   4.090  1.00  0.00    +0.000 F 
ATOM     72  C49 UNL A   1      16.054  55.985   3.344  1.00  0.00    +0.000 C 
ATOM     73  F14 UNL A   1      16.197  55.240   4.448  1.00  0.00    +0.000 F 
ATOM     74  C50 UNL A   1      17.061  55.997   2.381  1.00  0.00    +0.000 C 
ATOM     75  F15 UNL A   1      18.164  55.262   2.586  1.00  0.00    +0.000 F 
ENDBRANCH   64   65
TORSDOF 23
ENDMDL
MODEL 9
REMARK VINA RESULT:      -9.9     33.395     39.808
ROOT
ATOM    129  H31 UNL A   1      11.907   7.095  29.652  1.00  0.00    +0.000 H 
ATOM    130  H32 UNL A   1      10.990   9.405  29.034  1.00  0.00    +0.000 H 
ATOM    131  H33 UNL A   1       3.973   5.152  23.232  1.00  0.00    +0.000 H 
ATOM    132  H34 UNL A   1       4.576   2.853  24.188  1.00  0.00    +0.000 H 
ATOM     28  C21 UNL A   1       6.823   2.899  25.938  1.00  0.00    +0.000 C 
ATOM     29  C22 UNL A   1       6.126   4.071  25.309  1.00  0.00    +0.000 C 
ATOM     30  N5  UNL A   1       6.390   5.348  25.423  1.00  0.00    +0.000 N 
ATOM     31  C23 UNL A   1       5.483   5.996  24.594  1.00  0.00    +0.000 C 
ATOM     32  C24 UNL A   1       5.317   7.327  24.402  1.00  0.00    +0.000 C 
ATOM     44  C31 UNL A   1       6.083   8.345  25.073  1.00  0.00    +0.000 C 
ATOM     45  C32 UNL A   1       5.922   9.720  25.023  1.00  0.00    +0.000 C 
ATOM     46  C33 UNL A   1       6.930  10.306  25.796  1.00  0.00    +0.000 C 
ATOM     47  C34 UNL A   1       7.691   9.297  26.364  1.00  0.00    +0.000 C 
ATOM     48  N6  UNL A   1       7.158   8.099  25.915  1.00  0.00    +0.000 N 
ATOM     49  C35 UNL A   1       8.821   9.415  27.250  1.00  0.00    +0.000 C 
ATOM     61  C42 UNL A   1       9.489   8.370  27.798  1.00  0.00    +0.000 C 
ATOM     62  N7  UNL A   1       9.268   7.010  27.633  1.00  0.00    +0.000 N 
ATOM     63  C43 UNL A   1      10.181   6.406  28.353  1.00  0.00    +0.000 C 
ATOM     64  C44 UNL A   1      10.407   4.934  28.552  1.00  0.00    +0.000 C 
ATOM     76  C51 UNL A   1       9.558   4.053  27.991  1.00  0.00    +0.000 C 
ATOM     77  C52 UNL A   1       9.645   2.601  28.112  1.00  0.00    +0.000 C 
ATOM     78  C53 UNL A   1       8.671   2.041  27.378  1.00  0.00    +0.000 C 
ATOM     79  C54 UNL A   1       7.872   3.099  26.758  1.00  0.00    +0.000 C 
ATOM     80  N8  UNL A   1       8.459   4.261  27.194  1.00  0.00    +0.000 N 
ATOM     81  C55 UNL A   1      11.098   7.319  29.049  1.00  0.00    +0.000 C 
ATOM     82  C56 UNL A   1      10.613   8.503  28.702  1.00  0.00    +0.000 C 
ATOM     83  C57 UNL A   1       4.690   4.969  23.952  1.00  0.00    +0.000 C 
ATOM     84  C58 UNL A   1       5.005   3.765  24.407  1.00  0.00    +0.000 C 
ATOM    123  H25 UNL A   1       5.187  10.224  24.503  1.00  0.00    +0.000 H 
ATOM    124  H26 UNL A   1       7.080  11.319  25.922  1.00  0.00    +0.000 H 
ATOM    125  H27 UNL A   1       7.492   7.206  26.157  1.00  0.00    +0.000 H 
ATOM    126  H28 UNL A   1      10.345   2.087  28.671  1.00  0.00    +0.000 H 
ATOM    127  H29 UNL A   1       8.511   1.027  27.269  1.00  0.00    +0.000 H 
ATOM    128  H30 UNL A   1       8.125   5.156  26.956  1.00  0.00    +0.000 H 
ENDROOT
BRANCH   28   27
ATOM    122  H24 UNL A   1       5.008   1.287  27.146  1.00  0.00    +0.000 H 
ATOM    133  H35 UNL A   1       7.703   1.384  23.910  1.00  0.00    +0.000 H 
ATOM    134  H36 UNL A   1       7.064  -0.877  23.317  1.00  0.00    +0.000 H 
ATOM     85  C59 UNL A   1       7.015   0.876  24.487  1.00  0.00    +0.000 C 
ATOM     86  C60 UNL A   1       6.677  -0.436  24.167  1.00  0.00    +0.000 C 
ATOM     24  C17 UNL A   1       5.814  -1.156  24.998  1.00  0.00    +0.000 C 
ATOM     25  C18 UNL A   1       5.191  -0.523  26.078  1.00  0.00    +0.000 C 
ATOM     26  C19 UNL A   1       5.484   0.812  26.364  1.00  0.00    +0.000 C 
ATOM     27  C20 UNL A   1       6.425   1.511  25.590  1.00  0.00    +0.000 C 
ATOM    121  H23 UNL A   1       4.517  -1.041  26.663  1.00  0.00    +0.000 H 
BRANCH   24   22
ATOM     22  C16 UNL A   1       5.522  -2.583  24.744  1.00  0.00    +0.000 C 
ATOM     23  O3  UNL A   1       5.237  -2.952  23.609  1.00  0.00    +0.000 O 
BRANCH   22   21
ATOM     21  N4  UNL A   1       5.556  -3.490  25.774  1.00  0.00    +0.000 N 
ATOM    120  H22 UNL A   1       4.691  -3.903  25.998  1.00  0.00    +0.000 H 
BRANCH   21   20
ATOM     20  C15 UNL A   1       6.682  -3.930  26.584  1.00  0.00    +0.000 C 
ATOM    118  H20 UNL A   1       6.944  -3.146  27.264  1.00  0.00    +0.000 H 
ATOM    119  H21 UNL A   1       6.384  -4.814  27.107  1.00  0.00    +0.000 H 
BRANCH   20   19
ATOM     19  C14 UNL A   1       7.902  -4.275  25.735  1.00  0.00    +0.000 C 
ATOM    116  H18 UNL A   1       8.165  -5.293  25.931  1.00  0.00    +0.000 H 
ATOM    117  H19 UNL A   1       7.622  -4.099  24.719  1.00  0.00    +0.000 H 
BRANCH   19   18
ATOM     18  C13 UNL A   1       9.135  -3.406  26.001  1.00  0.00    +0.000 C 
ATOM    115  H17 UNL A   1       9.522  -3.140  25.039  1.00  0.00    +0.000 H 
ATOM    114  H16 UNL A   1       9.819  -3.975  26.596  1.00  0.00    +0.000 H 
BRANCH   18   17
ATOM     17  C12 UNL A   1       8.861  -2.084  26.729  1.00  0.00    +0.000 C 
ATOM    113  H15 UNL A   1       7.924  -2.209  27.230  1.00  0.00    +0.000 H 
ATOM    112  H14 UNL A   1       8.854  -1.300  26.001  1.00  0.00    +0.000 H 
BRANCH   17   16
ATOM    110  H12 UNL A   1       9.352  -1.287  28.644  1.00  0.00    +0.000 H 
ATOM    111  H13 UNL A   1      10.393  -2.615  28.084  1.00  0.00    +0.000 H 
ATOM     16  C11 UNL A   1       9.880  -1.716  27.817  1.00  0.00    +0.000 C 
BRANCH   16   15
ATOM    108  H10 UNL A   1      10.512   0.266  27.348  1.00  0.00    +0.000 H 
ATOM    109  H11 UNL A   1      11.771  -0.768  28.017  1.00  0.00    +0.000 H 
ATOM     15  C10 UNL A   1      10.938  -0.715  27.347  1.00  0.00    +0.000 C 
BRANCH   15   14
ATOM    107  H9  UNL A   1      10.771  -0.840  25.281  1.00  0.00    +0.000 H 
ATOM     14  N3  UNL A   1      11.404  -1.028  26.011  1.00  0.00    +0.000 N 
BRANCH   14   12
ATOM     12  C9  UNL A   1      12.611  -1.551  25.635  1.00  0.00    +0.000 C 
ATOM     13  O2  UNL A   1      13.161  -2.355  26.390  1.00  0.00    +0.000 O 
BRANCH   12   11
ATOM    105  H7  UNL A   1      14.301  -1.387  24.338  1.00  0.00    +0.000 H 
ATOM    106  H8  UNL A   1      12.750  -1.546  23.514  1.00  0.00    +0.000 H 
ATOM     11  C8  UNL A   1      13.272  -1.092  24.329  1.00  0.00    +0.000 C 
BRANCH   11   10
ATOM     10  N2  UNL A   1      13.199   0.350  24.167  1.00  0.00    +0.000 N 
ATOM    104  H6  UNL A   1      13.820   0.894  24.703  1.00  0.00    +0.000 H 
BRANCH   10    9
ATOM      7  C6  UNL A   1      11.638   1.879  21.436  1.00  0.00    +0.000 C 
ATOM      8  N1  UNL A   1      12.690   1.278  22.104  1.00  0.00    +0.000 N 
ATOM      9  C7  UNL A   1      12.355   1.008  23.345  1.00  0.00    +0.000 C 
ATOM     87  S1  UNL A   1      10.763   1.521  23.775  1.00  0.00    +0.000 S 
ATOM     88  C61 UNL A   1      10.456   1.984  22.156  1.00  0.00    +0.000 C 
BRANCH    7    6
ATOM     97  C69 UNL A   1      11.955   1.375  19.031  1.00  0.00    +0.000 C 
ATOM     98  C70 UNL A   1      11.979   1.787  17.693  1.00  0.00    +0.000 C 
ATOM      3  C2  UNL A   1      11.828   3.140  17.376  1.00  0.00    +0.000 C 
ATOM      4  C3  UNL A   1      11.702   4.080  18.396  1.00  0.00    +0.000 C 
ATOM      5  C4  UNL A   1      11.665   3.671  19.728  1.00  0.00    +0.000 C 
ATOM    102  H4  UNL A   1      11.636   5.085  18.165  1.00  0.00    +0.000 H 
ATOM      6  C5  UNL A   1      11.768   2.311  20.053  1.00  0.00    +0.000 C 
ATOM    103  H5  UNL A   1      11.561   4.371  20.479  1.00  0.00    +0.000 H 
ATOM    142  H44 UNL A   1      12.076   0.377  19.264  1.00  0.00    +0.000 H 
ATOM    143  H45 UNL A   1      12.110   1.093  16.940  1.00  0.00    +0.000 H 
BRANCH    3    2
ATOM      2  O1  UNL A   1      11.842   3.646  16.106  1.00  0.00    +0.000 O 
BRANCH    2    1
ATOM      1  C1  UNL A   1      11.969   5.063  16.035  1.00  0.00    +0.000 C 
ATOM     99  H1  UNL A   1      12.295   5.343  15.055  1.00  0.00    +0.000 H 
ATOM    100  H2  UNL A   1      12.687   5.394  16.757  1.00  0.00    +0.000 H 
ATOM    101  H3  UNL A   1      11.022   5.516  16.241  1.00  0.00    +0.000 H 
ENDBRANCH    2    1
ENDBRANCH    3    2
ENDBRANCH    7    6
BRANCH   88   89
ATOM    135  H37 UNL A   1       8.624   0.549  20.767  1.00  0.00    +0.000 H 
ATOM    136  H38 UNL A   1       6.375   1.215  20.158  1.00  0.00    +0.000 H 
ATOM    140  H42 UNL A   1       6.968   4.959  21.958  1.00  0.00    +0.000 H 
ATOM    141  H43 UNL A   1       9.224   4.306  22.551  1.00  0.00    +0.000 H 
ATOM     89  C62 UNL A   1       9.107   2.364  21.731  1.00  0.00    +0.000 C 
ATOM     90  C63 UNL A   1       8.277   1.485  21.029  1.00  0.00    +0.000 C 
ATOM     91  C64 UNL A   1       6.977   1.870  20.680  1.00  0.00    +0.000 C 
ATOM     92  C65 UNL A   1       6.485   3.129  21.031  1.00  0.00    +0.000 C 
ATOM     95  C67 UNL A   1       7.314   4.019  21.709  1.00  0.00    +0.000 C 
ATOM     96  C68 UNL A   1       8.614   3.639  22.053  1.00  0.00    +0.000 C 
BRANCH   92   93
ATOM     93  O4  UNL A   1       5.193   3.371  20.654  1.00  0.00    +0.000 O 
BRANCH   93   94
ATOM    137  H39 UNL A   1       4.538   2.067  22.090  1.00  0.00    +0.000 H 
ATOM    138  H40 UNL A   1       4.044   1.689  20.458  1.00  0.00    +0.000 H 
ATOM    139  H41 UNL A   1       3.290   3.012  21.314  1.00  0.00    +0.000 H 
ATOM     94  C66 UNL A   1       4.205   2.479  21.160  1.00  0.00    +0.000 C 
ENDBRANCH   93   94
ENDBRANCH   92   93
ENDBRANCH   88   89
ENDBRANCH   10    9
ENDBRANCH   11   10
ENDBRANCH   12   11
ENDBRANCH   14   12
ENDBRANCH   15   14
ENDBRANCH   16   15
ENDBRANCH   17   16
ENDBRANCH   18   17
ENDBRANCH   19   18
ENDBRANCH   20   19
ENDBRANCH   21   20
ENDBRANCH   22   21
ENDBRANCH   24   22
ENDBRANCH   28   27
BRANCH   32   33
ATOM     33  C25 UNL A   1       4.266   7.760  23.421  1.00  0.00    +0.000 C 
ATOM     34  C26 UNL A   1       4.519   7.807  22.043  1.00  0.00    +0.000 C 
ATOM     35  F1  UNL A   1       5.734   7.498  21.567  1.00  0.00    +0.000 F 
ATOM     36  C27 UNL A   1       3.532   8.214  21.148  1.00  0.00    +0.000 C 
ATOM     37  F2  UNL A   1       3.811   8.301  19.840  1.00  0.00    +0.000 F 
ATOM     38  C28 UNL A   1       2.268   8.547  21.610  1.00  0.00    +0.000 C 
ATOM     39  F3  UNL A   1       1.319   8.937  20.747  1.00  0.00    +0.000 F 
ATOM     40  C29 UNL A   1       1.989   8.484  22.966  1.00  0.00    +0.000 C 
ATOM     41  F4  UNL A   1       0.764   8.795  23.414  1.00  0.00    +0.000 F 
ATOM     42  C30 UNL A   1       2.981   8.104  23.866  1.00  0.00    +0.000 C 
ATOM     43  F5  UNL A   1       2.687   8.071  25.175  1.00  0.00    +0.000 F 
ENDBRANCH   32   33
BRANCH   49   50
ATOM     50  C36 UNL A   1       9.288  10.792  27.612  1.00  0.00    +0.000 C 
ATOM     51  C37 UNL A   1      10.392  11.380  26.976  1.00  0.00    +0.000 C 
ATOM     52  F6  UNL A   1      11.088  10.690  26.058  1.00  0.00    +0.000 F 
ATOM     53  C38 UNL A   1      10.805  12.668  27.305  1.00  0.00    +0.000 C 
ATOM     54  F7  UNL A   1      11.886  13.194  26.712  1.00  0.00    +0.000 F 
ATOM     55  C39 UNL A   1      10.108  13.402  28.252  1.00  0.00    +0.000 C 
ATOM     56  F8  UNL A   1      10.503  14.644  28.564  1.00  0.00    +0.000 F 
ATOM     57  C40 UNL A   1       9.006  12.845  28.884  1.00  0.00    +0.000 C 
ATOM     58  F9  UNL A   1       8.325  13.557  29.793  1.00  0.00    +0.000 F 
ATOM     59  C41 UNL A   1       8.605  11.549  28.576  1.00  0.00    +0.000 C 
ATOM     60  F10 UNL A   1       7.542  11.033  29.210  1.00  0.00    +0.000 F 
ENDBRANCH   49   50
BRANCH   64   65
ATOM     65  C45 UNL A   1      11.535   4.435  29.376  1.00  0.00    +0.000 C 
ATOM     66  C46 UNL A   1      12.681   3.897  28.776  1.00  0.00    +0.000 C 
ATOM     67  F11 UNL A   1      12.746   3.783  27.441  1.00  0.00    +0.000 F 
ATOM     68  C47 UNL A   1      13.753   3.449  29.546  1.00  0.00    +0.000 C 
ATOM     69  F12 UNL A   1      14.825   2.911  28.949  1.00  0.00    +0.000 F 
ATOM     70  C48 UNL A   1      13.708   3.553  30.928  1.00  0.00    +0.000 C 
ATOM     71  F13 UNL A   1      14.742   3.133  31.667  1.00  0.00    +0.000 F 
ATOM     72  C49 UNL A   1      12.586   4.089  31.543  1.00  0.00    +0.000 C 
ATOM     73  F14 UNL A   1      12.543   4.203  32.877  1.00  0.00    +0.000 F 
ATOM     74  C50 UNL A   1      11.504   4.515  30.776  1.00  0.00    +0.000 C 
ATOM     75  F15 UNL A   1      10.430   5.028  31.396  1.00  0.00    +0.000 F 
ENDBRANCH   64   65
TORSDOF 23
ENDMDL
MODEL 10
REMARK VINA RESULT:      -9.9     37.890     43.775
ROOT
ATOM    129  H31 UNL A   1      13.699  46.727   2.478  1.00  0.00    +0.000 H 
ATOM    130  H32 UNL A   1      15.376  46.978   0.559  1.00  0.00    +0.000 H 
ATOM    131  H33 UNL A   1      16.405  56.757   2.632  1.00  0.00    +0.000 H 
ATOM    132  H34 UNL A   1      15.101  56.431   4.812  1.00  0.00    +0.000 H 
ATOM     28  C21 UNL A   1      14.046  53.805   5.131  1.00  0.00    +0.000 C 
ATOM     29  C22 UNL A   1      14.959  54.302   4.046  1.00  0.00    +0.000 C 
ATOM     30  N5  UNL A   1      15.463  53.653   3.027  1.00  0.00    +0.000 N 
ATOM     31  C23 UNL A   1      16.190  54.590   2.305  1.00  0.00    +0.000 C 
ATOM     32  C24 UNL A   1      16.938  54.401   1.191  1.00  0.00    +0.000 C 
ATOM     44  C31 UNL A   1      17.128  53.127   0.548  1.00  0.00    +0.000 C 
ATOM     45  C32 UNL A   1      17.948  52.815  -0.524  1.00  0.00    +0.000 C 
ATOM     46  C33 UNL A   1      17.765  51.464  -0.835  1.00  0.00    +0.000 C 
ATOM     47  C34 UNL A   1      16.865  50.923   0.069  1.00  0.00    +0.000 C 
ATOM     48  N6  UNL A   1      16.486  51.953   0.914  1.00  0.00    +0.000 N 
ATOM     49  C35 UNL A   1      16.387  49.566   0.158  1.00  0.00    +0.000 C 
ATOM     61  C42 UNL A   1      15.533  49.105   1.105  1.00  0.00    +0.000 C 
ATOM     62  N7  UNL A   1      14.934  49.795   2.149  1.00  0.00    +0.000 N 
ATOM     63  C43 UNL A   1      14.185  48.921   2.776  1.00  0.00    +0.000 C 
ATOM     64  C44 UNL A   1      13.320  49.115   3.989  1.00  0.00    +0.000 C 
ATOM     76  C51 UNL A   1      13.306  50.311   4.606  1.00  0.00    +0.000 C 
ATOM     77  C52 UNL A   1      12.528  50.637   5.798  1.00  0.00    +0.000 C 
ATOM     78  C53 UNL A   1      12.714  51.932   6.101  1.00  0.00    +0.000 C 
ATOM     79  C54 UNL A   1      13.648  52.519   5.140  1.00  0.00    +0.000 C 
ATOM     80  N8  UNL A   1      13.963  51.478   4.301  1.00  0.00    +0.000 N 
ATOM     81  C55 UNL A   1      14.213  47.575   2.189  1.00  0.00    +0.000 C 
ATOM     82  C56 UNL A   1      15.073  47.734   1.192  1.00  0.00    +0.000 C 
ATOM     83  C57 UNL A   1      16.026  55.861   2.979  1.00  0.00    +0.000 C 
ATOM     84  C58 UNL A   1      15.327  55.725   4.096  1.00  0.00    +0.000 C 
ATOM    123  H25 UNL A   1      18.583  53.468  -1.009  1.00  0.00    +0.000 H 
ATOM    124  H26 UNL A   1      18.223  50.956  -1.608  1.00  0.00    +0.000 H 
ATOM    125  H27 UNL A   1      15.853  51.866   1.664  1.00  0.00    +0.000 H 
ATOM    126  H28 UNL A   1      11.930  49.979   6.322  1.00  0.00    +0.000 H 
ATOM    127  H29 UNL A   1      12.269  52.433   6.886  1.00  0.00    +0.000 H 
ATOM    128  H30 UNL A   1      14.597  51.561   3.553  1.00  0.00    +0.000 H 
ENDROOT
BRANCH   28   27
ATOM    122  H24 UNL A   1      11.594  54.954   5.252  1.00  0.00    +0.000 H 
ATOM    133  H35 UNL A   1      15.248  54.739   7.335  1.00  0.00    +0.000 H 
ATOM    134  H36 UNL A   1      14.377  56.260   9.010  1.00  0.00    +0.000 H 
ATOM     85  C59 UNL A   1      14.298  55.127   7.233  1.00  0.00    +0.000 C 
ATOM     86  C60 UNL A   1      13.813  56.029   8.176  1.00  0.00    +0.000 C 
ATOM     24  C17 UNL A   1      12.561  56.624   7.992  1.00  0.00    +0.000 C 
ATOM     25  C18 UNL A   1      11.743  56.220   6.933  1.00  0.00    +0.000 C 
ATOM     26  C19 UNL A   1      12.205  55.270   6.021  1.00  0.00    +0.000 C 
ATOM     27  C20 UNL A   1      13.501  54.742   6.145  1.00  0.00    +0.000 C 
ATOM    121  H23 UNL A   1      10.799  56.624   6.825  1.00  0.00    +0.000 H 
BRANCH   24   22
ATOM     22  C16 UNL A   1      12.066  57.666   8.917  1.00  0.00    +0.000 C 
ATOM     23  O3  UNL A   1      12.616  58.762   8.947  1.00  0.00    +0.000 O 
BRANCH   22   21
ATOM     21  N4  UNL A   1      11.006  57.404   9.750  1.00  0.00    +0.000 N 
ATOM    120  H22 UNL A   1      10.174  57.885   9.533  1.00  0.00    +0.000 H 
BRANCH   21   20
ATOM     20  C15 UNL A   1      10.931  56.523  10.905  1.00  0.00    +0.000 C 
ATOM    118  H20 UNL A   1      11.855  56.578  11.441  1.00  0.00    +0.000 H 
ATOM    119  H21 UNL A   1      10.110  56.845  11.510  1.00  0.00    +0.000 H 
BRANCH   20   19
ATOM     19  C14 UNL A   1      10.679  55.071  10.506  1.00  0.00    +0.000 C 
ATOM    116  H18 UNL A   1       9.877  54.696  11.108  1.00  0.00    +0.000 H 
ATOM    117  H19 UNL A   1      10.453  55.080   9.461  1.00  0.00    +0.000 H 
BRANCH   19   18
ATOM     18  C13 UNL A   1      11.881  54.140  10.681  1.00  0.00    +0.000 C 
ATOM    115  H17 UNL A   1      11.687  53.569  11.566  1.00  0.00    +0.000 H 
ATOM    114  H16 UNL A   1      12.761  54.745  10.746  1.00  0.00    +0.000 H 
BRANCH   18   17
ATOM     17  C12 UNL A   1      12.090  53.119   9.555  1.00  0.00    +0.000 C 
ATOM    113  H15 UNL A   1      12.930  53.467   8.991  1.00  0.00    +0.000 H 
ATOM    112  H14 UNL A   1      11.186  53.064   8.985  1.00  0.00    +0.000 H 
BRANCH   17   16
ATOM    110  H12 UNL A   1      11.789  51.431  10.821  1.00  0.00    +0.000 H 
ATOM    111  H13 UNL A   1      12.338  51.056   9.173  1.00  0.00    +0.000 H 
ATOM     16  C11 UNL A   1      12.446  51.700  10.019  1.00  0.00    +0.000 C 
BRANCH   16   15
ATOM    108  H10 UNL A   1      14.549  51.926   9.750  1.00  0.00    +0.000 H 
ATOM    109  H11 UNL A   1      13.994  52.133  11.409  1.00  0.00    +0.000 H 
ATOM     15  C10 UNL A   1      13.888  51.563  10.510  1.00  0.00    +0.000 C 
BRANCH   15   14
ATOM    107  H9  UNL A   1      15.102  49.877  10.495  1.00  0.00    +0.000 H 
ATOM     14  N3  UNL A   1      14.218  50.181  10.802  1.00  0.00    +0.000 N 
BRANCH   14   12
ATOM     12  C9  UNL A   1      13.456  49.247  11.449  1.00  0.00    +0.000 C 
ATOM     13  O2  UNL A   1      12.719  49.624  12.362  1.00  0.00    +0.000 O 
BRANCH   12   11
ATOM    105  H7  UNL A   1      14.607  47.487  11.073  1.00  0.00    +0.000 H 
ATOM    106  H8  UNL A   1      13.019  47.194  11.782  1.00  0.00    +0.000 H 
ATOM     11  C8  UNL A   1      13.573  47.766  11.069  1.00  0.00    +0.000 C 
BRANCH   11   10
ATOM     10  N2  UNL A   1      13.022  47.504   9.751  1.00  0.00    +0.000 N 
ATOM    104  H6  UNL A   1      13.632  47.130   9.074  1.00  0.00    +0.000 H 
BRANCH   10    9
ATOM      7  C6  UNL A   1      10.091  48.712   8.273  1.00  0.00    +0.000 C 
ATOM      8  N1  UNL A   1      11.438  48.737   8.591  1.00  0.00    +0.000 N 
ATOM      9  C7  UNL A   1      11.746  47.727   9.372  1.00  0.00    +0.000 C 
ATOM     87  S1  UNL A   1      10.404  46.728   9.800  1.00  0.00    +0.000 S 
ATOM     88  C61 UNL A   1       9.387  47.614   8.745  1.00  0.00    +0.000 C 
BRANCH    7    6
ATOM     97  C69 UNL A   1       9.080  49.466   6.140  1.00  0.00    +0.000 C 
ATOM     98  C70 UNL A   1       8.412  50.438   5.386  1.00  0.00    +0.000 C 
ATOM      3  C2  UNL A   1       8.161  51.698   5.934  1.00  0.00    +0.000 C 
ATOM      4  C3  UNL A   1       8.621  52.000   7.214  1.00  0.00    +0.000 C 
ATOM      5  C4  UNL A   1       9.276  51.030   7.972  1.00  0.00    +0.000 C 
ATOM    102  H4  UNL A   1       8.477  52.946   7.604  1.00  0.00    +0.000 H 
ATOM      6  C5  UNL A   1       9.490  49.748   7.448  1.00  0.00    +0.000 C 
ATOM    103  H5  UNL A   1       9.606  51.256   8.924  1.00  0.00    +0.000 H 
ATOM    142  H44 UNL A   1       9.273  48.539   5.730  1.00  0.00    +0.000 H 
ATOM    143  H45 UNL A   1       8.104  50.225   4.424  1.00  0.00    +0.000 H 
BRANCH    3    2
ATOM      2  O1  UNL A   1       7.524  52.717   5.283  1.00  0.00    +0.000 O 
BRANCH    2    1
ATOM      1  C1  UNL A   1       8.143  53.991   5.425  1.00  0.00    +0.000 C 
ATOM     99  H1  UNL A   1       8.752  53.996   6.305  1.00  0.00    +0.000 H 
ATOM    100  H2  UNL A   1       7.390  54.747   5.509  1.00  0.00    +0.000 H 
ATOM    101  H3  UNL A   1       8.752  54.189   4.568  1.00  0.00    +0.000 H 
ENDBRANCH    2    1
ENDBRANCH    3    2
ENDBRANCH    7    6
BRANCH   88   89
ATOM    135  H37 UNL A   1       7.012  48.854   9.159  1.00  0.00    +0.000 H 
ATOM    136  H38 UNL A   1       4.802  48.051   8.576  1.00  0.00    +0.000 H 
ATOM    140  H42 UNL A   1       6.459  44.497   7.081  1.00  0.00    +0.000 H 
ATOM    141  H43 UNL A   1       8.669  45.286   7.680  1.00  0.00    +0.000 H 
ATOM     89  C62 UNL A   1       8.031  47.146   8.448  1.00  0.00    +0.000 C 
ATOM     90  C63 UNL A   1       6.903  47.930   8.712  1.00  0.00    +0.000 C 
ATOM     91  C64 UNL A   1       5.627  47.466   8.373  1.00  0.00    +0.000 C 
ATOM     92  C65 UNL A   1       5.457  46.223   7.760  1.00  0.00    +0.000 C 
ATOM     95  C67 UNL A   1       6.573  45.426   7.516  1.00  0.00    +0.000 C 
ATOM     96  C68 UNL A   1       7.848  45.885   7.860  1.00  0.00    +0.000 C 
BRANCH   92   93
ATOM     93  O4  UNL A   1       4.164  45.899   7.456  1.00  0.00    +0.000 O 
BRANCH   93   94
ATOM    137  H39 UNL A   1       2.520  46.850   6.692  1.00  0.00    +0.000 H 
ATOM    138  H40 UNL A   1       3.579  46.122   5.508  1.00  0.00    +0.000 H 
ATOM    139  H41 UNL A   1       4.055  47.595   6.317  1.00  0.00    +0.000 H 
ATOM     94  C66 UNL A   1       3.541  46.663   6.429  1.00  0.00    +0.000 C 
ENDBRANCH   93   94
ENDBRANCH   92   93
ENDBRANCH   88   89
ENDBRANCH   10    9
ENDBRANCH   11   10
ENDBRANCH   12   11
ENDBRANCH   14   12
ENDBRANCH   15   14
ENDBRANCH   16   15
ENDBRANCH   17   16
ENDBRANCH   18   17
ENDBRANCH   19   18
ENDBRANCH   20   19
ENDBRANCH   21   20
ENDBRANCH   22   21
ENDBRANCH   24   22
ENDBRANCH   28   27
BRANCH   32   33
ATOM     33  C25 UNL A   1      17.607  55.605   0.595  1.00  0.00    +0.000 C 
ATOM     34  C26 UNL A   1      16.979  56.389  -0.385  1.00  0.00    +0.000 C 
ATOM     35  F1  UNL A   1      15.764  56.052  -0.842  1.00  0.00    +0.000 F 
ATOM     36  C27 UNL A   1      17.617  57.501  -0.929  1.00  0.00    +0.000 C 
ATOM     37  F2  UNL A   1      17.019  58.205  -1.900  1.00  0.00    +0.000 F 
ATOM     38  C28 UNL A   1      18.876  57.869  -0.482  1.00  0.00    +0.000 C 
ATOM     39  F3  UNL A   1      19.488  58.941  -1.005  1.00  0.00    +0.000 F 
ATOM     40  C29 UNL A   1      19.506  57.123   0.503  1.00  0.00    +0.000 C 
ATOM     41  F4  UNL A   1      20.719  57.484   0.944  1.00  0.00    +0.000 F 
ATOM     42  C30 UNL A   1      18.882  55.995   1.029  1.00  0.00    +0.000 C 
ATOM     43  F5  UNL A   1      19.524  55.282   1.967  1.00  0.00    +0.000 F 
ENDBRANCH   32   33
BRANCH   49   50
ATOM     50  C36 UNL A   1      16.879  48.581  -0.859  1.00  0.00    +0.000 C 
ATOM     51  C37 UNL A   1      16.169  48.341  -2.046  1.00  0.00    +0.000 C 
ATOM     52  F6  UNL A   1      14.998  48.957  -2.268  1.00  0.00    +0.000 F 
ATOM     53  C38 UNL A   1      16.646  47.439  -2.993  1.00  0.00    +0.000 C 
ATOM     54  F7  UNL A   1      15.931  47.195  -4.100  1.00  0.00    +0.000 F 
ATOM     55  C39 UNL A   1      17.850  46.784  -2.787  1.00  0.00    +0.000 C 
ATOM     56  F8  UNL A   1      18.310  45.921  -3.703  1.00  0.00    +0.000 F 
ATOM     57  C40 UNL A   1      18.575  47.017  -1.628  1.00  0.00    +0.000 C 
ATOM     58  F9  UNL A   1      19.744  46.392  -1.432  1.00  0.00    +0.000 F 
ATOM     59  C41 UNL A   1      18.089  47.899  -0.666  1.00  0.00    +0.000 C 
ATOM     60  F10 UNL A   1      18.806  48.097   0.450  1.00  0.00    +0.000 F 
ENDBRANCH   49   50
BRANCH   64   65
ATOM     65  C45 UNL A   1      12.498  48.006   4.531  1.00  0.00    +0.000 C 
ATOM     66  C46 UNL A   1      12.949  47.238   5.612  1.00  0.00    +0.000 C 
ATOM     67  F11 UNL A   1      14.160  47.472   6.139  1.00  0.00    +0.000 F 
ATOM     68  C47 UNL A   1      12.170  46.209   6.138  1.00  0.00    +0.000 C 
ATOM     69  F12 UNL A   1      12.636  45.471   7.154  1.00  0.00    +0.000 F 
ATOM     70  C48 UNL A   1      10.916  45.946   5.608  1.00  0.00    +0.000 C 
ATOM     71  F13 UNL A   1      10.162  44.965   6.121  1.00  0.00    +0.000 F 
ATOM     72  C49 UNL A   1      10.446  46.699   4.541  1.00  0.00    +0.000 C 
ATOM     73  F14 UNL A   1       9.230  46.456   4.034  1.00  0.00    +0.000 F 
ATOM     74  C50 UNL A   1      11.234  47.711   3.999  1.00  0.00    +0.000 C 
ATOM     75  F15 UNL A   1      10.757  48.422   2.966  1.00  0.00    +0.000 F 
ENDBRANCH   64   65
TORSDOF 23
ENDMDL
