MODEL 1
REMARK VINA RESULT:      -8.6      0.000      0.000
ROOT
ATOM    136  H38 UNL A   1      18.497  53.198  -1.032  1.00  0.00    +0.000 H 
ATOM    137  H39 UNL A   1      18.031  50.706  -1.642  1.00  0.00    +0.000 H 
ATOM    138  H40 UNL A   1      15.717  51.694   1.646  1.00  0.00    +0.000 H 
ATOM    139  H41 UNL A   1      11.621  49.967   6.225  1.00  0.00    +0.000 H 
ATOM    140  H42 UNL A   1      12.055  52.403   6.800  1.00  0.00    +0.000 H 
ATOM    141  H43 UNL A   1      14.367  51.448   3.479  1.00  0.00    +0.000 H 
ATOM    142  H44 UNL A   1      13.285  46.665   2.369  1.00  0.00    +0.000 H 
ATOM    143  H45 UNL A   1      15.024  46.842   0.499  1.00  0.00    +0.000 H 
ATOM    144  H46 UNL A   1      16.523  56.532   2.680  1.00  0.00    +0.000 H 
ATOM    145  H47 UNL A   1      15.152  56.257   4.826  1.00  0.00    +0.000 H 
ATOM     38  C32 UNL A   1      13.924  53.698   5.079  1.00  0.00    +0.000 C 
ATOM     39  C33 UNL A   1      14.886  54.154   4.018  1.00  0.00    +0.000 C 
ATOM     40  N3  UNL A   1      15.367  53.492   2.996  1.00  0.00    +0.000 N 
ATOM     41  C34 UNL A   1      16.170  54.392   2.307  1.00  0.00    +0.000 C 
ATOM     42  C35 UNL A   1      16.929  54.175   1.206  1.00  0.00    +0.000 C 
ATOM     54  C42 UNL A   1      17.048  52.904   0.540  1.00  0.00    +0.000 C 
ATOM     55  C43 UNL A   1      17.842  52.568  -0.543  1.00  0.00    +0.000 C 
ATOM     56  C44 UNL A   1      17.602  51.227  -0.863  1.00  0.00    +0.000 C 
ATOM     57  C45 UNL A   1      16.689  50.718   0.047  1.00  0.00    +0.000 C 
ATOM     58  N4  UNL A   1      16.354  51.759   0.898  1.00  0.00    +0.000 N 
ATOM     59  C46 UNL A   1      16.161  49.380   0.135  1.00  0.00    +0.000 C 
ATOM     71  C53 UNL A   1      15.266  48.956   1.061  1.00  0.00    +0.000 C 
ATOM     72  N5  UNL A   1      14.679  49.669   2.096  1.00  0.00    +0.000 N 
ATOM     73  C54 UNL A   1      13.880  48.827   2.704  1.00  0.00    +0.000 C 
ATOM     74  C55 UNL A   1      13.011  49.047   3.912  1.00  0.00    +0.000 C 
ATOM     86  C62 UNL A   1      13.028  50.245   4.527  1.00  0.00    +0.000 C 
ATOM     87  C63 UNL A   1      12.251  50.601   5.710  1.00  0.00    +0.000 C 
ATOM     88  C64 UNL A   1      12.488  51.886   6.019  1.00  0.00    +0.000 C 
ATOM     89  C65 UNL A   1      13.458  52.434   5.071  1.00  0.00    +0.000 C 
ATOM     90  N6  UNL A   1      13.730  51.387   4.227  1.00  0.00    +0.000 N 
ATOM     91  C66 UNL A   1      13.851  47.486   2.103  1.00  0.00    +0.000 C 
ATOM     92  C67 UNL A   1      14.741  47.608   1.128  1.00  0.00    +0.000 C 
ATOM     93  C68 UNL A   1      16.078  55.658   3.000  1.00  0.00    +0.000 C 
ATOM     94  C69 UNL A   1      15.347  55.549   4.100  1.00  0.00    +0.000 C 
ENDROOT
BRANCH   38   37
ATOM     34  C28 UNL A   1      12.547  56.487   8.031  1.00  0.00    +0.000 C 
ATOM     35  C29 UNL A   1      11.821  56.319   6.846  1.00  0.00    +0.000 C 
ATOM     36  C30 UNL A   1      12.253  55.395   5.891  1.00  0.00    +0.000 C 
ATOM     37  C31 UNL A   1      13.428  54.656   6.099  1.00  0.00    +0.000 C 
ATOM    134  H36 UNL A   1      10.969  56.876   6.679  1.00  0.00    +0.000 H 
ATOM    135  H37 UNL A   1      11.705  55.256   5.028  1.00  0.00    +0.000 H 
ATOM    146  H48 UNL A   1      15.008  54.290   7.456  1.00  0.00    +0.000 H 
ATOM    147  H49 UNL A   1      14.163  55.765   9.183  1.00  0.00    +0.000 H 
ATOM     95  C70 UNL A   1      14.138  54.821   7.299  1.00  0.00    +0.000 C 
ATOM     96  C71 UNL A   1      13.674  55.699   8.277  1.00  0.00    +0.000 C 
BRANCH   34   32
ATOM     33  O3  UNL A   1      12.181  58.660   8.826  1.00  0.00    +0.000 O 
ATOM     32  C27 UNL A   1      12.057  57.463   9.033  1.00  0.00    +0.000 C 
BRANCH   32   31
ATOM    133  H35 UNL A   1      11.766  57.455  11.017  1.00  0.00    +0.000 H 
ATOM     31  N2  UNL A   1      11.453  57.025  10.189  1.00  0.00    +0.000 N 
BRANCH   31   30
ATOM    131  H33 UNL A   1       9.712  56.370  11.083  1.00  0.00    +0.000 H 
ATOM    132  H34 UNL A   1       9.953  55.857   9.412  1.00  0.00    +0.000 H 
ATOM     30  C26 UNL A   1      10.419  56.019  10.361  1.00  0.00    +0.000 C 
BRANCH   30   29
ATOM    129  H31 UNL A   1      10.322  54.277  11.566  1.00  0.00    +0.000 H 
ATOM    130  H32 UNL A   1      11.098  54.075   9.968  1.00  0.00    +0.000 H 
ATOM     29  C25 UNL A   1      10.993  54.686  10.840  1.00  0.00    +0.000 C 
BRANCH   29   28
ATOM     28  C24 UNL A   1      12.385  54.776  11.475  1.00  0.00    +0.000 C 
ATOM    127  H29 UNL A   1      13.090  54.369  10.782  1.00  0.00    +0.000 H 
ATOM    128  H30 UNL A   1      12.539  55.813  11.693  1.00  0.00    +0.000 H 
BRANCH   28   27
ATOM     27  C23 UNL A   1      12.556  54.038  12.809  1.00  0.00    +0.000 C 
ATOM    125  H27 UNL A   1      13.579  53.735  12.891  1.00  0.00    +0.000 H 
ATOM    126  H28 UNL A   1      12.253  54.726  13.571  1.00  0.00    +0.000 H 
BRANCH   27   26
ATOM     26  C22 UNL A   1      11.678  52.795  12.982  1.00  0.00    +0.000 C 
ATOM    123  H25 UNL A   1      11.423  52.707  14.018  1.00  0.00    +0.000 H 
ATOM    124  H26 UNL A   1      10.821  52.934  12.357  1.00  0.00    +0.000 H 
BRANCH   26   25
ATOM     25  C21 UNL A   1      12.343  51.490  12.537  1.00  0.00    +0.000 C 
ATOM    122  H24 UNL A   1      12.850  51.070  13.379  1.00  0.00    +0.000 H 
ATOM    121  H23 UNL A   1      13.028  51.704  11.743  1.00  0.00    +0.000 H 
BRANCH   25   24
ATOM    120  H22 UNL A   1      10.952  50.762  11.209  1.00  0.00    +0.000 H 
ATOM     24  N1  UNL A   1      11.371  50.526  12.068  1.00  0.00    +0.000 N 
BRANCH   24   22
ATOM     22  C20 UNL A   1      10.930  49.352  12.598  1.00  0.00    +0.000 C 
ATOM     23  O2  UNL A   1      10.390  49.434  13.709  1.00  0.00    +0.000 O 
BRANCH   22   20
ATOM    116  H18 UNL A   1      10.199  47.892  11.304  1.00  0.00    +0.000 H 
ATOM     20  C18 UNL A   1      11.075  47.983  11.910  1.00  0.00    +0.000 C 
BRANCH   20   19
ATOM      7  C6  UNL A   1      12.042  47.990   9.520  1.00  0.00    +0.000 C 
ATOM      8  C7  UNL A   1      13.164  48.044   8.666  1.00  0.00    +0.000 C 
ATOM      9  C8  UNL A   1      14.470  47.943   9.160  1.00  0.00    +0.000 C 
ATOM    104  H6  UNL A   1      13.019  48.161   7.651  1.00  0.00    +0.000 H 
ATOM     17  C15 UNL A   1      14.656  47.838  10.535  1.00  0.00    +0.000 C 
ATOM     18  C16 UNL A   1      13.559  47.818  11.394  1.00  0.00    +0.000 C 
ATOM     19  C17 UNL A   1      12.240  47.931  10.922  1.00  0.00    +0.000 C 
ATOM    115  H17 UNL A   1      13.720  47.718  12.408  1.00  0.00    +0.000 H 
ATOM    114  H16 UNL A   1      15.610  47.774  10.921  1.00  0.00    +0.000 H 
BRANCH    7    6
ATOM     97  C72 UNL A   1      10.082  48.700   8.089  1.00  0.00    +0.000 C 
ATOM     98  C73 UNL A   1       8.805  48.430   7.574  1.00  0.00    +0.000 C 
ATOM      3  C2  UNL A   1       8.150  47.218   7.844  1.00  0.00    +0.000 C 
ATOM      4  C3  UNL A   1       8.803  46.279   8.641  1.00  0.00    +0.000 C 
ATOM      5  C4  UNL A   1      10.069  46.551   9.163  1.00  0.00    +0.000 C 
ATOM    102  H4  UNL A   1       8.347  45.377   8.849  1.00  0.00    +0.000 H 
ATOM      6  C5  UNL A   1      10.727  47.763   8.899  1.00  0.00    +0.000 C 
ATOM    103  H5  UNL A   1      10.531  45.845   9.755  1.00  0.00    +0.000 H 
ATOM    148  H50 UNL A   1      10.548  49.594   7.866  1.00  0.00    +0.000 H 
ATOM    149  H51 UNL A   1       8.337  49.138   6.987  1.00  0.00    +0.000 H 
BRANCH    3    2
ATOM      2  S1  UNL A   1       6.513  46.988   7.161  1.00  0.00    +0.000 S 
BRANCH    2    1
ATOM      1  C1  UNL A   1       6.201  45.218   7.414  1.00  0.00    +0.000 C 
ATOM     99  H1  UNL A   1       7.043  44.655   7.072  1.00  0.00    +0.000 H 
ATOM    100  H2  UNL A   1       5.331  44.927   6.865  1.00  0.00    +0.000 H 
ATOM    101  H3  UNL A   1       6.045  45.028   8.456  1.00  0.00    +0.000 H 
ENDBRANCH    2    1
ENDBRANCH    3    2
ENDBRANCH    7    6
BRANCH    9   10
ATOM    105  H7  UNL A   1      15.292  47.402   7.303  1.00  0.00    +0.000 H 
ATOM     10  C9  UNL A   1      15.648  47.804   8.228  1.00  0.00    +0.000 C 
ATOM    106  H8  UNL A   1      16.350  47.169   8.726  1.00  0.00    +0.000 H 
BRANCH   10   11
ATOM     11  C10 UNL A   1      16.394  49.111   7.923  1.00  0.00    +0.000 C 
ATOM    108  H10 UNL A   1      14.756  49.831   6.722  1.00  0.00    +0.000 H 
ATOM     12  C11 UNL A   1      15.598  50.236   7.244  1.00  0.00    +0.000 C 
ATOM    107  H9  UNL A   1      17.155  48.745   7.268  1.00  0.00    +0.000 H 
ATOM     15  C14 UNL A   1      16.872  49.793   9.186  1.00  0.00    +0.000 C 
ATOM    109  H11 UNL A   1      16.197  50.759   6.528  1.00  0.00    +0.000 H 
ATOM     13  C12 UNL A   1      15.133  51.163   8.362  1.00  0.00    +0.000 C 
ATOM     14  C13 UNL A   1      16.267  51.158   9.376  1.00  0.00    +0.000 C 
ATOM     16  O1  UNL A   1      17.685  49.300   9.959  1.00  0.00    +0.000 O 
ATOM    110  H12 UNL A   1      14.231  50.794   8.805  1.00  0.00    +0.000 H 
ATOM    111  H13 UNL A   1      14.918  52.148   8.004  1.00  0.00    +0.000 H 
ATOM    112  H14 UNL A   1      15.895  51.281  10.372  1.00  0.00    +0.000 H 
ATOM    113  H15 UNL A   1      16.966  51.956   9.236  1.00  0.00    +0.000 H 
ENDBRANCH   10   11
ENDBRANCH    9   10
ENDBRANCH   20   19
BRANCH   20   21
ATOM    117  H19 UNL A   1      10.703  47.093  13.819  1.00  0.00    +0.000 H 
ATOM     21  C19 UNL A   1      10.940  46.767  12.827  1.00  0.00    +0.000 C 
ATOM    118  H20 UNL A   1      11.861  46.225  12.840  1.00  0.00    +0.000 H 
ATOM    119  H21 UNL A   1      10.158  46.132  12.464  1.00  0.00    +0.000 H 
ENDBRANCH   20   21
ENDBRANCH   22   20
ENDBRANCH   24   22
ENDBRANCH   25   24
ENDBRANCH   26   25
ENDBRANCH   27   26
ENDBRANCH   28   27
ENDBRANCH   29   28
ENDBRANCH   30   29
ENDBRANCH   31   30
ENDBRANCH   32   31
ENDBRANCH   34   32
ENDBRANCH   38   37
BRANCH   42   43
ATOM     43  C36 UNL A   1      17.699  55.339   0.654  1.00  0.00    +0.000 C 
ATOM     44  C37 UNL A   1      17.168  56.159  -0.353  1.00  0.00    +0.000 C 
ATOM     45  F1  UNL A   1      15.967  55.885  -0.883  1.00  0.00    +0.000 F 
ATOM     46  C38 UNL A   1      17.888  57.244  -0.847  1.00  0.00    +0.000 C 
ATOM     47  F2  UNL A   1      17.380  57.986  -1.840  1.00  0.00    +0.000 F 
ATOM     48  C39 UNL A   1      19.134  57.550  -0.321  1.00  0.00    +0.000 C 
ATOM     49  F3  UNL A   1      19.823  58.598  -0.793  1.00  0.00    +0.000 F 
ATOM     50  C40 UNL A   1      19.669  56.764   0.689  1.00  0.00    +0.000 C 
ATOM     51  F4  UNL A   1      20.869  57.065   1.205  1.00  0.00    +0.000 F 
ATOM     52  C41 UNL A   1      18.964  55.662   1.165  1.00  0.00    +0.000 C 
ATOM     53  F5  UNL A   1      19.514  54.913   2.133  1.00  0.00    +0.000 F 
ENDBRANCH   42   43
BRANCH   59   60
ATOM     65  C50 UNL A   1      17.617  46.516  -2.735  1.00  0.00    +0.000 C 
ATOM     66  F8  UNL A   1      18.073  45.625  -3.625  1.00  0.00    +0.000 F 
ATOM     67  C51 UNL A   1      18.392  46.863  -1.638  1.00  0.00    +0.000 C 
ATOM     68  F9  UNL A   1      19.606  46.319  -1.479  1.00  0.00    +0.000 F 
ATOM     69  C52 UNL A   1      17.911  47.773  -0.701  1.00  0.00    +0.000 C 
ATOM     70  F10 UNL A   1      18.677  48.080   0.355  1.00  0.00    +0.000 F 
ATOM     60  C47 UNL A   1      16.650  48.369  -0.858  1.00  0.00    +0.000 C 
ATOM     61  C48 UNL A   1      15.889  48.018  -1.983  1.00  0.00    +0.000 C 
ATOM     62  F6  UNL A   1      14.672  48.551  -2.168  1.00  0.00    +0.000 F 
ATOM     63  C49 UNL A   1      16.365  47.088  -2.904  1.00  0.00    +0.000 C 
ATOM     64  F7  UNL A   1      15.603  46.736  -3.949  1.00  0.00    +0.000 F 
ENDBRANCH   59   60
BRANCH   74   75
ATOM     75  C56 UNL A   1      12.162  47.954   4.448  1.00  0.00    +0.000 C 
ATOM     76  C57 UNL A   1      12.686  47.015   5.348  1.00  0.00    +0.000 C 
ATOM     77  F11 UNL A   1      13.974  47.087   5.714  1.00  0.00    +0.000 F 
ATOM     78  C58 UNL A   1      11.899  45.977   5.844  1.00  0.00    +0.000 C 
ATOM     79  F12 UNL A   1      12.436  45.069   6.670  1.00  0.00    +0.000 F 
ATOM     80  C59 UNL A   1      10.567  45.874   5.471  1.00  0.00    +0.000 C 
ATOM     81  F13 UNL A   1       9.810  44.880   5.951  1.00  0.00    +0.000 F 
ATOM     82  C60 UNL A   1      10.023  46.802   4.595  1.00  0.00    +0.000 C 
ATOM     83  F14 UNL A   1       8.734  46.714   4.242  1.00  0.00    +0.000 F 
ATOM     84  C61 UNL A   1      10.815  47.825   4.079  1.00  0.00    +0.000 C 
ATOM     85  F15 UNL A   1      10.266  48.703   3.226  1.00  0.00    +0.000 F 
ENDBRANCH   74   75
TORSDOF 22
ENDMDL
MODEL 2
REMARK VINA RESULT:      -8.4      2.938      7.588
ROOT
ATOM    136  H38 UNL A   1      15.432  57.050   3.254  1.00  0.00    +0.000 H 
ATOM    137  H39 UNL A   1      17.120  56.915   1.270  1.00  0.00    +0.000 H 
ATOM    138  H40 UNL A   1      15.508  53.148   1.866  1.00  0.00    +0.000 H 
ATOM    139  H41 UNL A   1      15.313  46.939   0.401  1.00  0.00    +0.000 H 
ATOM    140  H42 UNL A   1      13.648  47.080   2.314  1.00  0.00    +0.000 H 
ATOM    141  H43 UNL A   1      15.227  50.880   1.719  1.00  0.00    +0.000 H 
ATOM    142  H44 UNL A   1      18.370  50.477  -2.184  1.00  0.00    +0.000 H 
ATOM    143  H45 UNL A   1      18.919  52.952  -1.831  1.00  0.00    +0.000 H 
ATOM    144  H46 UNL A   1      12.155  53.493   5.576  1.00  0.00    +0.000 H 
ATOM    145  H47 UNL A   1      11.932  50.941   5.553  1.00  0.00    +0.000 H 
ATOM     38  C32 UNL A   1      13.377  49.685   3.442  1.00  0.00    +0.000 C 
ATOM     39  C33 UNL A   1      13.384  51.140   3.822  1.00  0.00    +0.000 C 
ATOM     40  N3  UNL A   1      14.042  52.134   3.281  1.00  0.00    +0.000 N 
ATOM     41  C34 UNL A   1      13.652  53.269   3.978  1.00  0.00    +0.000 C 
ATOM     42  C35 UNL A   1      14.090  54.543   3.831  1.00  0.00    +0.000 C 
ATOM     54  C42 UNL A   1      15.097  54.951   2.886  1.00  0.00    +0.000 C 
ATOM     55  C43 UNL A   1      15.654  56.205   2.705  1.00  0.00    +0.000 C 
ATOM     56  C44 UNL A   1      16.570  56.129   1.649  1.00  0.00    +0.000 C 
ATOM     57  C45 UNL A   1      16.611  54.819   1.200  1.00  0.00    +0.000 C 
ATOM     58  N4  UNL A   1      15.699  54.108   1.964  1.00  0.00    +0.000 N 
ATOM     59  C46 UNL A   1      17.423  54.256   0.152  1.00  0.00    +0.000 C 
ATOM     71  C53 UNL A   1      17.408  52.956  -0.230  1.00  0.00    +0.000 C 
ATOM     72  N5  UNL A   1      16.651  51.907   0.274  1.00  0.00    +0.000 N 
ATOM     73  C54 UNL A   1      16.984  50.853  -0.430  1.00  0.00    +0.000 C 
ATOM     74  C55 UNL A   1      16.498  49.436  -0.303  1.00  0.00    +0.000 C 
ATOM     86  C62 UNL A   1      15.620  49.125   0.669  1.00  0.00    +0.000 C 
ATOM     87  C63 UNL A   1      15.070  47.797   0.922  1.00  0.00    +0.000 C 
ATOM     88  C64 UNL A   1      14.197  47.870   1.939  1.00  0.00    +0.000 C 
ATOM     89  C65 UNL A   1      14.149  49.247   2.430  1.00  0.00    +0.000 C 
ATOM     90  N6  UNL A   1      15.033  49.920   1.624  1.00  0.00    +0.000 N 
ATOM     91  C66 UNL A   1      17.975  51.121  -1.481  1.00  0.00    +0.000 C 
ATOM     92  C67 UNL A   1      18.227  52.409  -1.292  1.00  0.00    +0.000 C 
ATOM     93  C68 UNL A   1      12.668  52.850   4.952  1.00  0.00    +0.000 C 
ATOM     94  C69 UNL A   1      12.513  51.534   4.939  1.00  0.00    +0.000 C 
ENDROOT
BRANCH   38   37
ATOM     34  C28 UNL A   1      10.774  46.964   5.495  1.00  0.00    +0.000 C 
ATOM     35  C29 UNL A   1      10.262  47.777   4.478  1.00  0.00    +0.000 C 
ATOM     36  C30 UNL A   1      11.110  48.649   3.790  1.00  0.00    +0.000 C 
ATOM     37  C31 UNL A   1      12.468  48.737   4.135  1.00  0.00    +0.000 C 
ATOM    134  H36 UNL A   1       9.260  47.732   4.236  1.00  0.00    +0.000 H 
ATOM    135  H37 UNL A   1      10.736  49.232   3.026  1.00  0.00    +0.000 H 
ATOM    146  H48 UNL A   1      13.968  47.969   5.413  1.00  0.00    +0.000 H 
ATOM    147  H49 UNL A   1      12.531  46.337   6.484  1.00  0.00    +0.000 H 
ATOM     95  C70 UNL A   1      12.974  47.904   5.146  1.00  0.00    +0.000 C 
ATOM     96  C71 UNL A   1      12.140  46.992   5.790  1.00  0.00    +0.000 C 
BRANCH   34   32
ATOM     33  O3  UNL A   1       8.836  45.659   5.643  1.00  0.00    +0.000 O 
ATOM     32  C27 UNL A   1       9.854  46.038   6.197  1.00  0.00    +0.000 C 
BRANCH   32   31
ATOM    133  H35 UNL A   1      10.729  44.801   7.511  1.00  0.00    +0.000 H 
ATOM     31  N2  UNL A   1      10.152  45.596   7.466  1.00  0.00    +0.000 N 
BRANCH   31   30
ATOM    131  H33 UNL A   1       9.032  46.926   8.579  1.00  0.00    +0.000 H 
ATOM    132  H34 UNL A   1       9.290  45.342   9.313  1.00  0.00    +0.000 H 
ATOM     30  C26 UNL A   1       9.733  46.136   8.749  1.00  0.00    +0.000 C 
BRANCH   30   29
ATOM    129  H31 UNL A   1      11.082  47.696   9.241  1.00  0.00    +0.000 H 
ATOM    130  H32 UNL A   1      10.642  46.597  10.581  1.00  0.00    +0.000 H 
ATOM     29  C25 UNL A   1      10.912  46.685   9.549  1.00  0.00    +0.000 C 
BRANCH   29   28
ATOM     28  C24 UNL A   1      12.224  45.910   9.379  1.00  0.00    +0.000 C 
ATOM    127  H29 UNL A   1      12.584  45.656  10.353  1.00  0.00    +0.000 H 
ATOM    128  H30 UNL A   1      11.984  45.062   8.771  1.00  0.00    +0.000 H 
BRANCH   28   27
ATOM     27  C23 UNL A   1      13.344  46.651   8.640  1.00  0.00    +0.000 C 
ATOM    125  H27 UNL A   1      13.876  45.939   8.044  1.00  0.00    +0.000 H 
ATOM    126  H28 UNL A   1      12.866  47.417   8.065  1.00  0.00    +0.000 H 
BRANCH   27   26
ATOM     26  C22 UNL A   1      14.356  47.365   9.542  1.00  0.00    +0.000 C 
ATOM    123  H25 UNL A   1      14.080  48.397   9.603  1.00  0.00    +0.000 H 
ATOM    124  H26 UNL A   1      14.325  46.872  10.490  1.00  0.00    +0.000 H 
BRANCH   26   25
ATOM     25  C21 UNL A   1      15.804  47.282   9.048  1.00  0.00    +0.000 C 
ATOM    122  H24 UNL A   1      15.847  46.558   8.263  1.00  0.00    +0.000 H 
ATOM    121  H23 UNL A   1      16.433  47.000   9.866  1.00  0.00    +0.000 H 
BRANCH   25   24
ATOM    120  H22 UNL A   1      17.065  48.904   8.966  1.00  0.00    +0.000 H 
ATOM     24  N1  UNL A   1      16.263  48.548   8.520  1.00  0.00    +0.000 N 
BRANCH   24   22
ATOM     22  C20 UNL A   1      15.788  49.339   7.518  1.00  0.00    +0.000 C 
ATOM     23  O2  UNL A   1      16.020  48.945   6.368  1.00  0.00    +0.000 O 
BRANCH   22   20
ATOM    116  H18 UNL A   1      14.052  50.473   7.313  1.00  0.00    +0.000 H 
ATOM     20  C18 UNL A   1      15.016  50.651   7.742  1.00  0.00    +0.000 C 
BRANCH   20   19
ATOM      7  C6  UNL A   1      13.425  50.954   9.748  1.00  0.00    +0.000 C 
ATOM      8  C7  UNL A   1      13.244  51.119  11.138  1.00  0.00    +0.000 C 
ATOM      9  C8  UNL A   1      14.322  51.363  11.997  1.00  0.00    +0.000 C 
ATOM    104  H6  UNL A   1      12.291  51.058  11.532  1.00  0.00    +0.000 H 
ATOM     17  C15 UNL A   1      15.606  51.390  11.462  1.00  0.00    +0.000 C 
ATOM     18  C16 UNL A   1      15.804  51.195  10.097  1.00  0.00    +0.000 C 
ATOM     19  C17 UNL A   1      14.739  50.936   9.218  1.00  0.00    +0.000 C 
ATOM    115  H17 UNL A   1      16.763  51.241   9.719  1.00  0.00    +0.000 H 
ATOM    114  H16 UNL A   1      16.416  51.556  12.079  1.00  0.00    +0.000 H 
BRANCH    7    6
ATOM     97  C72 UNL A   1      11.549  52.234   8.636  1.00  0.00    +0.000 C 
ATOM     98  C73 UNL A   1      10.385  52.228   7.851  1.00  0.00    +0.000 C 
ATOM      3  C2  UNL A   1       9.885  51.039   7.297  1.00  0.00    +0.000 C 
ATOM      4  C3  UNL A   1      10.575  49.853   7.544  1.00  0.00    +0.000 C 
ATOM      5  C4  UNL A   1      11.726  49.857   8.333  1.00  0.00    +0.000 C 
ATOM    102  H4  UNL A   1      10.232  48.967   7.142  1.00  0.00    +0.000 H 
ATOM      6  C5  UNL A   1      12.230  51.042   8.894  1.00  0.00    +0.000 C 
ATOM    103  H5  UNL A   1      12.219  48.968   8.509  1.00  0.00    +0.000 H 
ATOM    148  H50 UNL A   1      11.904  53.122   9.022  1.00  0.00    +0.000 H 
ATOM    149  H51 UNL A   1       9.887  53.115   7.680  1.00  0.00    +0.000 H 
BRANCH    3    2
ATOM      2  S1  UNL A   1       8.380  51.140   6.335  1.00  0.00    +0.000 S 
BRANCH    2    1
ATOM      1  C1  UNL A   1       8.514  52.756   5.519  1.00  0.00    +0.000 C 
ATOM     99  H1  UNL A   1       9.533  52.935   5.249  1.00  0.00    +0.000 H 
ATOM    100  H2  UNL A   1       8.182  53.522   6.187  1.00  0.00    +0.000 H 
ATOM    101  H3  UNL A   1       7.905  52.762   4.638  1.00  0.00    +0.000 H 
ENDBRANCH    2    1
ENDBRANCH    3    2
ENDBRANCH    7    6
BRANCH    9   10
ATOM    105  H7  UNL A   1      14.998  51.515  13.982  1.00  0.00    +0.000 H 
ATOM     10  C9  UNL A   1      14.099  51.732  13.442  1.00  0.00    +0.000 C 
ATOM    106  H8  UNL A   1      13.257  51.159  13.770  1.00  0.00    +0.000 H 
BRANCH   10   11
ATOM     11  C10 UNL A   1      13.740  53.204  13.690  1.00  0.00    +0.000 C 
ATOM    108  H10 UNL A   1      14.649  53.797  11.829  1.00  0.00    +0.000 H 
ATOM     12  C11 UNL A   1      13.931  54.183  12.522  1.00  0.00    +0.000 C 
ATOM    107  H9  UNL A   1      14.418  53.433  14.484  1.00  0.00    +0.000 H 
ATOM     15  C14 UNL A   1      12.269  53.379  13.999  1.00  0.00    +0.000 C 
ATOM    109  H11 UNL A   1      14.294  55.131  12.863  1.00  0.00    +0.000 H 
ATOM     13  C12 UNL A   1      12.568  54.318  11.852  1.00  0.00    +0.000 C 
ATOM     14  C13 UNL A   1      11.561  54.242  12.989  1.00  0.00    +0.000 C 
ATOM     16  O1  UNL A   1      11.718  52.894  14.980  1.00  0.00    +0.000 O 
ATOM    110  H12 UNL A   1      12.411  53.521  11.156  1.00  0.00    +0.000 H 
ATOM    111  H13 UNL A   1      12.481  55.230  11.298  1.00  0.00    +0.000 H 
ATOM    112  H14 UNL A   1      10.647  53.788  12.666  1.00  0.00    +0.000 H 
ATOM    113  H15 UNL A   1      11.278  55.200  13.372  1.00  0.00    +0.000 H 
ENDBRANCH   10   11
ENDBRANCH    9   10
ENDBRANCH   20   19
BRANCH   20   21
ATOM    117  H19 UNL A   1      15.771  51.522   5.941  1.00  0.00    +0.000 H 
ATOM     21  C19 UNL A   1      15.499  51.848   6.923  1.00  0.00    +0.000 C 
ATOM    118  H20 UNL A   1      16.348  52.289   7.401  1.00  0.00    +0.000 H 
ATOM    119  H21 UNL A   1      14.713  52.572   6.854  1.00  0.00    +0.000 H 
ENDBRANCH   20   21
ENDBRANCH   22   20
ENDBRANCH   24   22
ENDBRANCH   25   24
ENDBRANCH   26   25
ENDBRANCH   27   26
ENDBRANCH   28   27
ENDBRANCH   29   28
ENDBRANCH   30   29
ENDBRANCH   31   30
ENDBRANCH   32   31
ENDBRANCH   34   32
ENDBRANCH   38   37
BRANCH   42   43
ATOM     43  C36 UNL A   1      13.486  55.591   4.719  1.00  0.00    +0.000 C 
ATOM     44  C37 UNL A   1      12.371  56.340   4.316  1.00  0.00    +0.000 C 
ATOM     45  F1  UNL A   1      11.847  56.167   3.094  1.00  0.00    +0.000 F 
ATOM     46  C38 UNL A   1      11.812  57.301   5.156  1.00  0.00    +0.000 C 
ATOM     47  F2  UNL A   1      10.775  58.037   4.732  1.00  0.00    +0.000 F 
ATOM     48  C39 UNL A   1      12.335  57.506   6.424  1.00  0.00    +0.000 C 
ATOM     49  F3  UNL A   1      11.792  58.426   7.233  1.00  0.00    +0.000 F 
ATOM     50  C40 UNL A   1      13.425  56.762   6.850  1.00  0.00    +0.000 C 
ATOM     51  F4  UNL A   1      13.924  56.951   8.079  1.00  0.00    +0.000 F 
ATOM     52  C41 UNL A   1      14.003  55.821   6.003  1.00  0.00    +0.000 C 
ATOM     53  F5  UNL A   1      15.065  55.126   6.438  1.00  0.00    +0.000 F 
ENDBRANCH   42   43
BRANCH   59   60
ATOM     65  C50 UNL A   1      20.169  56.832  -1.941  1.00  0.00    +0.000 C 
ATOM     66  F8  UNL A   1      21.020  57.633  -2.596  1.00  0.00    +0.000 F 
ATOM     67  C51 UNL A   1      18.994  56.419  -2.552  1.00  0.00    +0.000 C 
ATOM     68  F9  UNL A   1      18.719  56.808  -3.804  1.00  0.00    +0.000 F 
ATOM     69  C52 UNL A   1      18.099  55.604  -1.865  1.00  0.00    +0.000 C 
ATOM     70  F10 UNL A   1      16.965  55.231  -2.477  1.00  0.00    +0.000 F 
ATOM     60  C47 UNL A   1      18.376  55.168  -0.560  1.00  0.00    +0.000 C 
ATOM     61  C48 UNL A   1      19.577  55.583   0.032  1.00  0.00    +0.000 C 
ATOM     62  F6  UNL A   1      19.878  55.205   1.284  1.00  0.00    +0.000 F 
ATOM     63  C49 UNL A   1      20.458  56.419  -0.649  1.00  0.00    +0.000 C 
ATOM     64  F7  UNL A   1      21.580  56.837  -0.048  1.00  0.00    +0.000 F 
ENDBRANCH   59   60
BRANCH   74   75
ATOM     75  C56 UNL A   1      16.998  48.375  -1.213  1.00  0.00    +0.000 C 
ATOM     76  C57 UNL A   1      18.141  47.630  -0.888  1.00  0.00    +0.000 C 
ATOM     77  F11 UNL A   1      18.807  47.891   0.247  1.00  0.00    +0.000 F 
ATOM     78  C58 UNL A   1      18.625  46.644  -1.745  1.00  0.00    +0.000 C 
ATOM     79  F12 UNL A   1      19.742  45.976  -1.429  1.00  0.00    +0.000 F 
ATOM     80  C59 UNL A   1      17.959  46.364  -2.929  1.00  0.00    +0.000 C 
ATOM     81  F13 UNL A   1      18.422  45.413  -3.750  1.00  0.00    +0.000 F 
ATOM     82  C60 UNL A   1      16.817  47.077  -3.263  1.00  0.00    +0.000 C 
ATOM     83  F14 UNL A   1      16.165  46.801  -4.400  1.00  0.00    +0.000 F 
ATOM     84  C61 UNL A   1      16.347  48.080  -2.420  1.00  0.00    +0.000 C 
ATOM     85  F15 UNL A   1      15.246  48.760  -2.772  1.00  0.00    +0.000 F 
ENDBRANCH   74   75
TORSDOF 22
ENDMDL
MODEL 3
REMARK VINA RESULT:      -8.4     39.981     45.109
ROOT
ATOM    136  H38 UNL A   1      36.812  33.269  34.513  1.00  0.00    +0.000 H 
ATOM    137  H39 UNL A   1      35.904  33.069  32.076  1.00  0.00    +0.000 H 
ATOM    138  H40 UNL A   1      39.194  30.583  32.446  1.00  0.00    +0.000 H 
ATOM    139  H41 UNL A   1      43.390  26.560  29.811  1.00  0.00    +0.000 H 
ATOM    140  H42 UNL A   1      44.255  26.735  32.193  1.00  0.00    +0.000 H 
ATOM    141  H43 UNL A   1      40.935  29.216  31.859  1.00  0.00    +0.000 H 
ATOM    142  H44 UNL A   1      39.247  28.643  27.158  1.00  0.00    +0.000 H 
ATOM    143  H45 UNL A   1      37.476  30.405  27.718  1.00  0.00    +0.000 H 
ATOM    144  H46 UNL A   1      40.804  30.878  37.185  1.00  0.00    +0.000 H 
ATOM    145  H47 UNL A   1      42.851  29.484  36.530  1.00  0.00    +0.000 H 
ATOM     38  C32 UNL A   1      42.764  28.511  33.853  1.00  0.00    +0.000 C 
ATOM     39  C33 UNL A   1      41.799  29.450  34.520  1.00  0.00    +0.000 C 
ATOM     40  N3  UNL A   1      40.727  30.021  34.032  1.00  0.00    +0.000 N 
ATOM     41  C34 UNL A   1      40.176  30.748  35.079  1.00  0.00    +0.000 C 
ATOM     42  C35 UNL A   1      39.086  31.554  35.066  1.00  0.00    +0.000 C 
ATOM     54  C42 UNL A   1      38.284  31.816  33.900  1.00  0.00    +0.000 C 
ATOM     55  C43 UNL A   1      37.201  32.667  33.770  1.00  0.00    +0.000 C 
ATOM     56  C44 UNL A   1      36.721  32.569  32.459  1.00  0.00    +0.000 C 
ATOM     57  C45 UNL A   1      37.532  31.688  31.762  1.00  0.00    +0.000 C 
ATOM     58  N4  UNL A   1      38.483  31.229  32.659  1.00  0.00    +0.000 N 
ATOM     59  C46 UNL A   1      37.447  31.293  30.379  1.00  0.00    +0.000 C 
ATOM     71  C53 UNL A   1      38.284  30.421  29.766  1.00  0.00    +0.000 C 
ATOM     72  N5  UNL A   1      39.372  29.739  30.293  1.00  0.00    +0.000 N 
ATOM     73  C54 UNL A   1      39.849  29.012  29.313  1.00  0.00    +0.000 C 
ATOM     74  C55 UNL A   1      41.040  28.094  29.306  1.00  0.00    +0.000 C 
ATOM     86  C62 UNL A   1      41.788  27.977  30.419  1.00  0.00    +0.000 C 
ATOM     87  C63 UNL A   1      42.974  27.138  30.558  1.00  0.00    +0.000 C 
ATOM     88  C64 UNL A   1      43.437  27.238  31.815  1.00  0.00    +0.000 C 
ATOM     89  C65 UNL A   1      42.594  28.173  32.561  1.00  0.00    +0.000 C 
ATOM     90  N6  UNL A   1      41.648  28.570  31.650  1.00  0.00    +0.000 N 
ATOM     91  C66 UNL A   1      39.098  29.132  28.055  1.00  0.00    +0.000 C 
ATOM     92  C67 UNL A   1      38.178  30.031  28.375  1.00  0.00    +0.000 C 
ATOM     93  C68 UNL A   1      41.005  30.513  36.240  1.00  0.00    +0.000 C 
ATOM     94  C69 UNL A   1      42.058  29.768  35.934  1.00  0.00    +0.000 C 
ENDROOT
BRANCH   38   37
ATOM     34  C28 UNL A   1      45.966  26.788  36.129  1.00  0.00    +0.000 C 
ATOM     35  C29 UNL A   1      44.710  26.170  36.123  1.00  0.00    +0.000 C 
ATOM     36  C30 UNL A   1      43.670  26.714  35.365  1.00  0.00    +0.000 C 
ATOM     37  C31 UNL A   1      43.868  27.895  34.633  1.00  0.00    +0.000 C 
ATOM    134  H36 UNL A   1      44.553  25.314  36.677  1.00  0.00    +0.000 H 
ATOM    135  H37 UNL A   1      42.751  26.245  35.344  1.00  0.00    +0.000 H 
ATOM    146  H48 UNL A   1      45.289  29.371  34.107  1.00  0.00    +0.000 H 
ATOM    147  H49 UNL A   1      47.134  28.329  35.282  1.00  0.00    +0.000 H 
ATOM     95  C70 UNL A   1      45.136  28.497  34.633  1.00  0.00    +0.000 C 
ATOM     96  C71 UNL A   1      46.189  27.920  35.341  1.00  0.00    +0.000 C 
BRANCH   34   32
ATOM     33  O3  UNL A   1      47.888  26.895  37.461  1.00  0.00    +0.000 O 
ATOM     32  C27 UNL A   1      47.055  26.180  36.929  1.00  0.00    +0.000 C 
BRANCH   32   31
ATOM    133  H35 UNL A   1      46.393  24.414  37.610  1.00  0.00    +0.000 H 
ATOM     31  N2  UNL A   1      47.121  24.814  37.084  1.00  0.00    +0.000 N 
BRANCH   31   30
ATOM    131  H33 UNL A   1      49.087  24.225  36.862  1.00  0.00    +0.000 H 
ATOM    132  H34 UNL A   1      47.909  22.919  37.004  1.00  0.00    +0.000 H 
ATOM     30  C26 UNL A   1      48.114  23.880  36.581  1.00  0.00    +0.000 C 
BRANCH   30   29
ATOM    129  H31 UNL A   1      48.433  24.655  34.633  1.00  0.00    +0.000 H 
ATOM    130  H32 UNL A   1      48.642  22.888  34.811  1.00  0.00    +0.000 H 
ATOM     29  C25 UNL A   1      48.057  23.749  35.060  1.00  0.00    +0.000 C 
BRANCH   29   28
ATOM     28  C24 UNL A   1      46.656  23.499  34.488  1.00  0.00    +0.000 C 
ATOM    127  H29 UNL A   1      46.624  22.493  34.125  1.00  0.00    +0.000 H 
ATOM    128  H30 UNL A   1      45.975  23.693  35.290  1.00  0.00    +0.000 H 
BRANCH   28   27
ATOM     27  C23 UNL A   1      46.230  24.427  33.343  1.00  0.00    +0.000 C 
ATOM    125  H27 UNL A   1      46.023  23.822  32.485  1.00  0.00    +0.000 H 
ATOM    126  H28 UNL A   1      45.378  24.967  33.700  1.00  0.00    +0.000 H 
BRANCH   27   26
ATOM     26  C22 UNL A   1      47.265  25.482  32.941  1.00  0.00    +0.000 C 
ATOM    123  H25 UNL A   1      47.364  26.178  33.748  1.00  0.00    +0.000 H 
ATOM    124  H26 UNL A   1      48.174  24.958  32.734  1.00  0.00    +0.000 H 
BRANCH   26   25
ATOM     25  C21 UNL A   1      46.906  26.262  31.673  1.00  0.00    +0.000 C 
ATOM    122  H24 UNL A   1      45.841  26.269  31.577  1.00  0.00    +0.000 H 
ATOM    121  H23 UNL A   1      47.365  25.786  30.832  1.00  0.00    +0.000 H 
BRANCH   25   24
ATOM    120  H22 UNL A   1      47.030  28.130  32.523  1.00  0.00    +0.000 H 
ATOM     24  N1  UNL A   1      47.362  27.633  31.740  1.00  0.00    +0.000 N 
BRANCH   24   22
ATOM     22  C20 UNL A   1      48.165  28.363  30.919  1.00  0.00    +0.000 C 
ATOM     23  O2  UNL A   1      49.081  27.738  30.369  1.00  0.00    +0.000 O 
BRANCH   22   20
ATOM    116  H18 UNL A   1      48.216  29.992  29.620  1.00  0.00    +0.000 H 
ATOM     20  C18 UNL A   1      47.998  29.871  30.660  1.00  0.00    +0.000 C 
BRANCH   20   19
ATOM      7  C6  UNL A   1      45.558  30.053  29.847  1.00  0.00    +0.000 C 
ATOM      8  C7  UNL A   1      44.221  30.430  30.098  1.00  0.00    +0.000 C 
ATOM      9  C8  UNL A   1      43.867  31.174  31.230  1.00  0.00    +0.000 C 
ATOM    104  H6  UNL A   1      43.486  30.151  29.430  1.00  0.00    +0.000 H 
ATOM     17  C15 UNL A   1      44.857  31.499  32.151  1.00  0.00    +0.000 C 
ATOM     18  C16 UNL A   1      46.176  31.104  31.934  1.00  0.00    +0.000 C 
ATOM     19  C17 UNL A   1      46.553  30.346  30.812  1.00  0.00    +0.000 C 
ATOM    115  H17 UNL A   1      46.898  31.376  32.619  1.00  0.00    +0.000 H 
ATOM    114  H16 UNL A   1      44.615  32.036  32.997  1.00  0.00    +0.000 H 
BRANCH    7    6
ATOM     97  C72 UNL A   1      46.211  30.431  27.435  1.00  0.00    +0.000 C 
ATOM     98  C73 UNL A   1      46.462  29.906  26.157  1.00  0.00    +0.000 C 
ATOM      3  C2  UNL A   1      46.408  28.525  25.911  1.00  0.00    +0.000 C 
ATOM      4  C3  UNL A   1      46.097  27.678  26.974  1.00  0.00    +0.000 C 
ATOM      5  C4  UNL A   1      45.837  28.199  28.242  1.00  0.00    +0.000 C 
ATOM    102  H4  UNL A   1      46.058  26.657  26.822  1.00  0.00    +0.000 H 
ATOM      6  C5  UNL A   1      45.886  29.581  28.493  1.00  0.00    +0.000 C 
ATOM    103  H5  UNL A   1      45.603  27.555  29.013  1.00  0.00    +0.000 H 
ATOM    148  H50 UNL A   1      46.269  31.449  27.593  1.00  0.00    +0.000 H 
ATOM    149  H51 UNL A   1      46.690  30.549  25.382  1.00  0.00    +0.000 H 
BRANCH    3    2
ATOM      2  S1  UNL A   1      46.718  27.966  24.241  1.00  0.00    +0.000 S 
BRANCH    2    1
ATOM      1  C1  UNL A   1      47.734  26.481  24.480  1.00  0.00    +0.000 C 
ATOM     99  H1  UNL A   1      48.514  26.461  23.749  1.00  0.00    +0.000 H 
ATOM    100  H2  UNL A   1      47.123  25.609  24.373  1.00  0.00    +0.000 H 
ATOM    101  H3  UNL A   1      48.164  26.497  25.461  1.00  0.00    +0.000 H 
ENDBRANCH    2    1
ENDBRANCH    3    2
ENDBRANCH    7    6
BRANCH    9   10
ATOM    105  H7  UNL A   1      42.044  31.311  32.268  1.00  0.00    +0.000 H 
ATOM     10  C9  UNL A   1      42.476  31.738  31.388  1.00  0.00    +0.000 C 
ATOM    106  H8  UNL A   1      41.950  31.489  30.491  1.00  0.00    +0.000 H 
BRANCH   10   11
ATOM     11  C10 UNL A   1      42.406  33.267  31.516  1.00  0.00    +0.000 C 
ATOM    108  H10 UNL A   1      41.705  33.459  29.487  1.00  0.00    +0.000 H 
ATOM     12  C11 UNL A   1      41.703  34.037  30.388  1.00  0.00    +0.000 C 
ATOM    107  H9  UNL A   1      43.448  33.502  31.535  1.00  0.00    +0.000 H 
ATOM     15  C14 UNL A   1      41.603  33.693  32.725  1.00  0.00    +0.000 C 
ATOM    109  H11 UNL A   1      42.202  34.960  30.177  1.00  0.00    +0.000 H 
ATOM     13  C12 UNL A   1      40.272  34.274  30.862  1.00  0.00    +0.000 C 
ATOM     14  C13 UNL A   1      40.387  34.501  32.361  1.00  0.00    +0.000 C 
ATOM     16  O1  UNL A   1      41.923  33.433  33.879  1.00  0.00    +0.000 O 
ATOM    110  H12 UNL A   1      39.662  33.420  30.656  1.00  0.00    +0.000 H 
ATOM    111  H13 UNL A   1      39.816  35.104  30.363  1.00  0.00    +0.000 H 
ATOM    112  H14 UNL A   1      39.518  34.144  32.874  1.00  0.00    +0.000 H 
ATOM    113  H15 UNL A   1      40.466  35.534  32.630  1.00  0.00    +0.000 H 
ENDBRANCH   10   11
ENDBRANCH    9   10
ENDBRANCH   20   19
BRANCH   20   21
ATOM    117  H19 UNL A   1      49.574  30.225  32.062  1.00  0.00    +0.000 H 
ATOM     21  C19 UNL A   1      49.055  30.771  31.301  1.00  0.00    +0.000 C 
ATOM    118  H20 UNL A   1      48.580  31.625  31.736  1.00  0.00    +0.000 H 
ATOM    119  H21 UNL A   1      49.750  31.092  30.554  1.00  0.00    +0.000 H 
ENDBRANCH   20   21
ENDBRANCH   22   20
ENDBRANCH   24   22
ENDBRANCH   25   24
ENDBRANCH   26   25
ENDBRANCH   27   26
ENDBRANCH   28   27
ENDBRANCH   29   28
ENDBRANCH   30   29
ENDBRANCH   31   30
ENDBRANCH   32   31
ENDBRANCH   34   32
ENDBRANCH   38   37
BRANCH   42   43
ATOM     43  C36 UNL A   1      38.700  32.218  36.355  1.00  0.00    +0.000 C 
ATOM     44  C37 UNL A   1      39.076  33.539  36.641  1.00  0.00    +0.000 C 
ATOM     45  F1  UNL A   1      39.840  34.225  35.780  1.00  0.00    +0.000 F 
ATOM     46  C38 UNL A   1      38.699  34.148  37.837  1.00  0.00    +0.000 C 
ATOM     47  F2  UNL A   1      39.108  35.395  38.109  1.00  0.00    +0.000 F 
ATOM     48  C39 UNL A   1      37.912  33.461  38.749  1.00  0.00    +0.000 C 
ATOM     49  F3  UNL A   1      37.546  34.050  39.896  1.00  0.00    +0.000 F 
ATOM     50  C40 UNL A   1      37.513  32.162  38.477  1.00  0.00    +0.000 C 
ATOM     51  F4  UNL A   1      36.744  31.501  39.354  1.00  0.00    +0.000 F 
ATOM     52  C41 UNL A   1      37.911  31.540  37.297  1.00  0.00    +0.000 C 
ATOM     53  F5  UNL A   1      37.520  30.278  37.068  1.00  0.00    +0.000 F 
ENDBRANCH   42   43
BRANCH   59   60
ATOM     65  C50 UNL A   1      34.318  33.093  28.028  1.00  0.00    +0.000 C 
ATOM     66  F8  UNL A   1      33.347  33.657  27.297  1.00  0.00    +0.000 F 
ATOM     67  C51 UNL A   1      35.372  33.864  28.495  1.00  0.00    +0.000 C 
ATOM     68  F9  UNL A   1      35.410  35.176  28.229  1.00  0.00    +0.000 F 
ATOM     69  C52 UNL A   1      36.393  33.276  29.237  1.00  0.00    +0.000 C 
ATOM     70  F10 UNL A   1      37.406  34.043  29.664  1.00  0.00    +0.000 F 
ATOM     60  C47 UNL A   1      36.364  31.906  29.543  1.00  0.00    +0.000 C 
ATOM     61  C48 UNL A   1      35.280  31.149  29.076  1.00  0.00    +0.000 C 
ATOM     62  F6  UNL A   1      35.216  29.833  29.331  1.00  0.00    +0.000 F 
ATOM     63  C49 UNL A   1      34.274  31.737  28.313  1.00  0.00    +0.000 C 
ATOM     64  F7  UNL A   1      33.270  30.985  27.841  1.00  0.00    +0.000 F 
ENDBRANCH   59   60
BRANCH   74   75
ATOM     75  C56 UNL A   1      41.416  27.344  28.081  1.00  0.00    +0.000 C 
ATOM     76  C57 UNL A   1      42.255  27.920  27.116  1.00  0.00    +0.000 C 
ATOM     77  F11 UNL A   1      42.707  29.172  27.286  1.00  0.00    +0.000 F 
ATOM     78  C58 UNL A   1      42.599  27.229  25.957  1.00  0.00    +0.000 C 
ATOM     79  F12 UNL A   1      43.369  27.817  25.032  1.00  0.00    +0.000 F 
ATOM     80  C59 UNL A   1      42.134  25.938  25.753  1.00  0.00    +0.000 C 
ATOM     81  F13 UNL A   1      42.469  25.271  24.641  1.00  0.00    +0.000 F 
ATOM     82  C60 UNL A   1      41.317  25.342  26.702  1.00  0.00    +0.000 C 
ATOM     83  F14 UNL A   1      40.877  24.090  26.515  1.00  0.00    +0.000 F 
ATOM     84  C61 UNL A   1      40.951  26.042  27.850  1.00  0.00    +0.000 C 
ATOM     85  F15 UNL A   1      40.152  25.445  28.746  1.00  0.00    +0.000 F 
ENDBRANCH   74   75
TORSDOF 22
ENDMDL
MODEL 4
REMARK VINA RESULT:      -8.3     39.833     44.960
ROOT
ATOM    136  H38 UNL A   1      37.740  29.212  28.164  1.00  0.00    +0.000 H 
ATOM    137  H39 UNL A   1      36.424  31.367  28.811  1.00  0.00    +0.000 H 
ATOM    138  H40 UNL A   1      39.600  30.945  31.433  1.00  0.00    +0.000 H 
ATOM    139  H41 UNL A   1      42.798  32.935  36.586  1.00  0.00    +0.000 H 
ATOM    140  H42 UNL A   1      44.096  30.850  35.934  1.00  0.00    +0.000 H 
ATOM    141  H43 UNL A   1      40.932  31.265  33.268  1.00  0.00    +0.000 H 
ATOM    142  H44 UNL A   1      38.563  35.500  34.581  1.00  0.00    +0.000 H 
ATOM    143  H45 UNL A   1      36.886  34.986  32.716  1.00  0.00    +0.000 H 
ATOM    144  H46 UNL A   1      42.192  26.884  30.049  1.00  0.00    +0.000 H 
ATOM    145  H47 UNL A   1      43.602  27.113  32.175  1.00  0.00    +0.000 H 
ATOM     38  C32 UNL A   1      43.038  29.470  33.675  1.00  0.00    +0.000 C 
ATOM     39  C33 UNL A   1      42.321  28.964  32.454  1.00  0.00    +0.000 C 
ATOM     40  N3  UNL A   1      41.297  29.480  31.821  1.00  0.00    +0.000 N 
ATOM     41  C34 UNL A   1      41.064  28.646  30.736  1.00  0.00    +0.000 C 
ATOM     42  C35 UNL A   1      40.081  28.723  29.806  1.00  0.00    +0.000 C 
ATOM     54  C42 UNL A   1      39.052  29.729  29.796  1.00  0.00    +0.000 C 
ATOM     55  C43 UNL A   1      37.975  29.855  28.936  1.00  0.00    +0.000 C 
ATOM     56  C44 UNL A   1      37.261  31.004  29.292  1.00  0.00    +0.000 C 
ATOM     57  C45 UNL A   1      37.870  31.571  30.400  1.00  0.00    +0.000 C 
ATOM     58  N4  UNL A   1      38.970  30.782  30.695  1.00  0.00    +0.000 N 
ATOM     59  C46 UNL A   1      37.478  32.746  31.135  1.00  0.00    +0.000 C 
ATOM     71  C53 UNL A   1      38.129  33.240  32.216  1.00  0.00    +0.000 C 
ATOM     72  N5  UNL A   1      39.267  32.755  32.846  1.00  0.00    +0.000 N 
ATOM     73  C54 UNL A   1      39.512  33.582  33.832  1.00  0.00    +0.000 C 
ATOM     74  C55 UNL A   1      40.606  33.532  34.863  1.00  0.00    +0.000 C 
ATOM     86  C62 UNL A   1      41.476  32.505  34.851  1.00  0.00    +0.000 C 
ATOM     87  C63 UNL A   1      42.578  32.316  35.790  1.00  0.00    +0.000 C 
ATOM     88  C64 UNL A   1      43.257  31.209  35.451  1.00  0.00    +0.000 C 
ATOM     89  C65 UNL A   1      42.619  30.594  34.287  1.00  0.00    +0.000 C 
ATOM     90  N6  UNL A   1      41.565  31.426  34.006  1.00  0.00    +0.000 N 
ATOM     91  C66 UNL A   1      38.567  34.705  33.924  1.00  0.00    +0.000 C 
ATOM     92  C67 UNL A   1      37.724  34.428  32.939  1.00  0.00    +0.000 C 
ATOM     93  C68 UNL A   1      42.078  27.614  30.770  1.00  0.00    +0.000 C 
ATOM     94  C69 UNL A   1      42.841  27.729  31.847  1.00  0.00    +0.000 C 
ENDROOT
BRANCH   38   37
ATOM     34  C28 UNL A   1      46.516  27.404  35.098  1.00  0.00    +0.000 C 
ATOM     35  C29 UNL A   1      46.657  28.434  34.161  1.00  0.00    +0.000 C 
ATOM     36  C30 UNL A   1      45.530  29.125  33.711  1.00  0.00    +0.000 C 
ATOM     37  C31 UNL A   1      44.252  28.773  34.171  1.00  0.00    +0.000 C 
ATOM    134  H36 UNL A   1      47.593  28.682  33.804  1.00  0.00    +0.000 H 
ATOM    135  H37 UNL A   1      45.638  29.899  33.037  1.00  0.00    +0.000 H 
ATOM    146  H48 UNL A   1      43.187  27.477  35.459  1.00  0.00    +0.000 H 
ATOM    147  H49 UNL A   1      45.159  26.398  36.364  1.00  0.00    +0.000 H 
ATOM     95  C70 UNL A   1      44.123  27.750  35.123  1.00  0.00    +0.000 C 
ATOM     96  C71 UNL A   1      45.254  27.102  35.616  1.00  0.00    +0.000 C 
BRANCH   34   32
ATOM     33  O3  UNL A   1      48.678  27.339  35.995  1.00  0.00    +0.000 O 
ATOM     32  C27 UNL A   1      47.731  26.698  35.569  1.00  0.00    +0.000 C 
BRANCH   32   31
ATOM    133  H35 UNL A   1      48.116  24.934  34.697  1.00  0.00    +0.000 H 
ATOM     31  N2  UNL A   1      47.789  25.324  35.539  1.00  0.00    +0.000 N 
BRANCH   31   30
ATOM    131  H33 UNL A   1      48.259  24.271  37.250  1.00  0.00    +0.000 H 
ATOM    132  H34 UNL A   1      46.563  24.728  37.076  1.00  0.00    +0.000 H 
ATOM     30  C26 UNL A   1      47.436  24.366  36.573  1.00  0.00    +0.000 C 
BRANCH   30   29
ATOM    129  H31 UNL A   1      47.750  22.826  35.150  1.00  0.00    +0.000 H 
ATOM    130  H32 UNL A   1      47.263  22.288  36.784  1.00  0.00    +0.000 H 
ATOM     29  C25 UNL A   1      47.111  22.991  35.992  1.00  0.00    +0.000 C 
BRANCH   29   28
ATOM     28  C24 UNL A   1      45.660  22.814  35.530  1.00  0.00    +0.000 C 
ATOM    127  H29 UNL A   1      45.330  21.847  35.846  1.00  0.00    +0.000 H 
ATOM    128  H30 UNL A   1      45.114  23.623  35.970  1.00  0.00    +0.000 H 
BRANCH   28   27
ATOM     27  C23 UNL A   1      45.425  22.923  34.019  1.00  0.00    +0.000 C 
ATOM    125  H27 UNL A   1      46.379  23.003  33.540  1.00  0.00    +0.000 H 
ATOM    126  H28 UNL A   1      44.879  22.046  33.738  1.00  0.00    +0.000 H 
BRANCH   27   26
ATOM     26  C22 UNL A   1      44.571  24.116  33.578  1.00  0.00    +0.000 C 
ATOM    123  H25 UNL A   1      43.541  23.836  33.654  1.00  0.00    +0.000 H 
ATOM    124  H26 UNL A   1      44.827  24.932  34.220  1.00  0.00    +0.000 H 
BRANCH   26   25
ATOM     25  C21 UNL A   1      44.839  24.582  32.143  1.00  0.00    +0.000 C 
ATOM    122  H24 UNL A   1      43.909  24.894  31.716  1.00  0.00    +0.000 H 
ATOM    121  H23 UNL A   1      45.265  23.772  31.590  1.00  0.00    +0.000 H 
BRANCH   25   24
ATOM    120  H22 UNL A   1      45.586  26.380  32.805  1.00  0.00    +0.000 H 
ATOM     24  N1  UNL A   1      45.751  25.705  32.107  1.00  0.00    +0.000 N 
BRANCH   24   22
ATOM     22  C20 UNL A   1      46.794  25.999  31.284  1.00  0.00    +0.000 C 
ATOM     23  O2  UNL A   1      47.912  26.006  31.816  1.00  0.00    +0.000 O 
BRANCH   22   20
ATOM    116  H18 UNL A   1      45.997  25.561  29.409  1.00  0.00    +0.000 H 
ATOM     20  C18 UNL A   1      46.652  26.319  29.785  1.00  0.00    +0.000 C 
BRANCH   20   19
ATOM      7  C6  UNL A   1      44.779  27.706  28.683  1.00  0.00    +0.000 C 
ATOM      8  C7  UNL A   1      44.084  28.929  28.566  1.00  0.00    +0.000 C 
ATOM      9  C8  UNL A   1      44.547  30.099  29.178  1.00  0.00    +0.000 C 
ATOM    104  H6  UNL A   1      43.213  28.962  28.014  1.00  0.00    +0.000 H 
ATOM     17  C15 UNL A   1      45.694  30.032  29.963  1.00  0.00    +0.000 C 
ATOM     18  C16 UNL A   1      46.371  28.824  30.117  1.00  0.00    +0.000 C 
ATOM     19  C17 UNL A   1      45.918  27.634  29.522  1.00  0.00    +0.000 C 
ATOM    115  H17 UNL A   1      47.232  28.802  30.685  1.00  0.00    +0.000 H 
ATOM    114  H16 UNL A   1      46.045  30.880  30.433  1.00  0.00    +0.000 H 
BRANCH    7    6
ATOM     97  C72 UNL A   1      43.713  25.483  28.121  1.00  0.00    +0.000 C 
ATOM     98  C73 UNL A   1      43.452  24.475  27.180  1.00  0.00    +0.000 C 
ATOM      3  C2  UNL A   1      43.875  24.594  25.847  1.00  0.00    +0.000 C 
ATOM      4  C3  UNL A   1      44.567  25.746  25.474  1.00  0.00    +0.000 C 
ATOM      5  C4  UNL A   1      44.836  26.744  26.411  1.00  0.00    +0.000 C 
ATOM    102  H4  UNL A   1      44.883  25.861  24.498  1.00  0.00    +0.000 H 
ATOM      6  C5  UNL A   1      44.418  26.629  27.748  1.00  0.00    +0.000 C 
ATOM    103  H5  UNL A   1      45.354  27.585  26.116  1.00  0.00    +0.000 H 
ATOM    148  H50 UNL A   1      43.381  25.378  29.092  1.00  0.00    +0.000 H 
ATOM    149  H51 UNL A   1      42.940  23.629  27.474  1.00  0.00    +0.000 H 
BRANCH    3    2
ATOM      2  S1  UNL A   1      43.514  23.239  24.736  1.00  0.00    +0.000 S 
BRANCH    2    1
ATOM      1  C1  UNL A   1      43.789  21.770  25.767  1.00  0.00    +0.000 C 
ATOM     99  H1  UNL A   1      44.820  21.492  25.724  1.00  0.00    +0.000 H 
ATOM    100  H2  UNL A   1      43.186  20.963  25.407  1.00  0.00    +0.000 H 
ATOM    101  H3  UNL A   1      43.521  21.990  26.780  1.00  0.00    +0.000 H 
ENDBRANCH    2    1
ENDBRANCH    3    2
ENDBRANCH    7    6
BRANCH    9   10
ATOM    105  H7  UNL A   1      43.601  31.865  29.816  1.00  0.00    +0.000 H 
ATOM     10  C9  UNL A   1      43.911  31.436  28.887  1.00  0.00    +0.000 C 
ATOM    106  H8  UNL A   1      43.101  31.241  28.216  1.00  0.00    +0.000 H 
BRANCH   10   11
ATOM     11  C10 UNL A   1      44.822  32.448  28.176  1.00  0.00    +0.000 C 
ATOM    108  H10 UNL A   1      45.231  31.049  26.589  1.00  0.00    +0.000 H 
ATOM     12  C11 UNL A   1      45.279  32.107  26.750  1.00  0.00    +0.000 C 
ATOM    107  H9  UNL A   1      45.656  32.452  28.845  1.00  0.00    +0.000 H 
ATOM     15  C14 UNL A   1      44.129  33.777  27.966  1.00  0.00    +0.000 C 
ATOM    109  H11 UNL A   1      46.291  32.410  26.582  1.00  0.00    +0.000 H 
ATOM     13  C12 UNL A   1      44.318  32.829  25.811  1.00  0.00    +0.000 C 
ATOM     14  C13 UNL A   1      43.992  34.138  26.512  1.00  0.00    +0.000 C 
ATOM     16  O1  UNL A   1      43.745  34.495  28.882  1.00  0.00    +0.000 O 
ATOM    110  H12 UNL A   1      43.431  32.249  25.663  1.00  0.00    +0.000 H 
ATOM    111  H13 UNL A   1      44.746  32.986  24.843  1.00  0.00    +0.000 H 
ATOM    112  H14 UNL A   1      42.997  34.460  26.286  1.00  0.00    +0.000 H 
ATOM    113  H15 UNL A   1      44.624  34.949  26.214  1.00  0.00    +0.000 H 
ENDBRANCH   10   11
ENDBRANCH    9   10
ENDBRANCH   20   19
BRANCH   20   21
ATOM    117  H19 UNL A   1      47.765  25.224  28.323  1.00  0.00    +0.000 H 
ATOM     21  C19 UNL A   1      47.905  26.088  28.940  1.00  0.00    +0.000 C 
ATOM    118  H20 UNL A   1      48.746  25.935  29.582  1.00  0.00    +0.000 H 
ATOM    119  H21 UNL A   1      48.080  26.944  28.321  1.00  0.00    +0.000 H 
ENDBRANCH   20   21
ENDBRANCH   22   20
ENDBRANCH   24   22
ENDBRANCH   25   24
ENDBRANCH   26   25
ENDBRANCH   27   26
ENDBRANCH   28   27
ENDBRANCH   29   28
ENDBRANCH   30   29
ENDBRANCH   31   30
ENDBRANCH   32   31
ENDBRANCH   34   32
ENDBRANCH   38   37
BRANCH   42   43
ATOM     43  C36 UNL A   1      40.068  27.686  28.723  1.00  0.00    +0.000 C 
ATOM     44  C37 UNL A   1      40.736  27.887  27.506  1.00  0.00    +0.000 C 
ATOM     45  F1  UNL A   1      41.366  29.046  27.265  1.00  0.00    +0.000 F 
ATOM     46  C38 UNL A   1      40.727  26.909  26.513  1.00  0.00    +0.000 C 
ATOM     47  F2  UNL A   1      41.334  27.141  25.341  1.00  0.00    +0.000 F 
ATOM     48  C39 UNL A   1      40.081  25.702  26.732  1.00  0.00    +0.000 C 
ATOM     49  F3  UNL A   1      40.078  24.760  25.779  1.00  0.00    +0.000 F 
ATOM     50  C40 UNL A   1      39.431  25.475  27.936  1.00  0.00    +0.000 C 
ATOM     51  F4  UNL A   1      38.815  24.304  28.152  1.00  0.00    +0.000 F 
ATOM     52  C41 UNL A   1      39.414  26.460  28.919  1.00  0.00    +0.000 C 
ATOM     53  F5  UNL A   1      38.766  26.215  30.067  1.00  0.00    +0.000 F 
ENDBRANCH   42   43
BRANCH   59   60
ATOM     65  C50 UNL A   1      33.968  34.884  29.846  1.00  0.00    +0.000 C 
ATOM     66  F8  UNL A   1      32.878  35.550  29.441  1.00  0.00    +0.000 F 
ATOM     67  C51 UNL A   1      35.062  34.763  29.002  1.00  0.00    +0.000 C 
ATOM     68  F9  UNL A   1      35.034  35.328  27.787  1.00  0.00    +0.000 F 
ATOM     69  C52 UNL A   1      36.186  34.054  29.413  1.00  0.00    +0.000 C 
ATOM     70  F10 UNL A   1      37.224  33.943  28.571  1.00  0.00    +0.000 F 
ATOM     60  C47 UNL A   1      36.244  33.471  30.688  1.00  0.00    +0.000 C 
ATOM     61  C48 UNL A   1      35.134  33.620  31.533  1.00  0.00    +0.000 C 
ATOM     62  F6  UNL A   1      35.137  33.066  32.755  1.00  0.00    +0.000 F 
ATOM     63  C49 UNL A   1      34.001  34.308  31.107  1.00  0.00    +0.000 C 
ATOM     64  F7  UNL A   1      32.936  34.402  31.915  1.00  0.00    +0.000 F 
ENDBRANCH   59   60
BRANCH   74   75
ATOM     75  C56 UNL A   1      40.718  34.583  35.906  1.00  0.00    +0.000 C 
ATOM     76  C57 UNL A   1      41.702  35.578  35.819  1.00  0.00    +0.000 C 
ATOM     77  F11 UNL A   1      42.571  35.571  34.797  1.00  0.00    +0.000 F 
ATOM     78  C58 UNL A   1      41.823  36.558  36.802  1.00  0.00    +0.000 C 
ATOM     79  F12 UNL A   1      42.798  37.472  36.717  1.00  0.00    +0.000 F 
ATOM     80  C59 UNL A   1      40.945  36.578  37.875  1.00  0.00    +0.000 C 
ATOM     81  F13 UNL A   1      41.058  37.523  38.818  1.00  0.00    +0.000 F 
ATOM     82  C60 UNL A   1      39.952  35.614  37.972  1.00  0.00    +0.000 C 
ATOM     83  F14 UNL A   1      39.094  35.638  39.001  1.00  0.00    +0.000 F 
ATOM     84  C61 UNL A   1      39.847  34.619  37.004  1.00  0.00    +0.000 C 
ATOM     85  F15 UNL A   1      38.884  33.693  37.128  1.00  0.00    +0.000 F 
ENDBRANCH   74   75
TORSDOF 22
ENDMDL
MODEL 5
REMARK VINA RESULT:      -8.2      2.885      7.778
ROOT
ATOM    136  H38 UNL A   1      18.093  50.861  -2.428  1.00  0.00    +0.000 H 
ATOM    137  H39 UNL A   1      18.559  53.421  -2.263  1.00  0.00    +0.000 H 
ATOM    138  H40 UNL A   1      16.378  52.278   1.065  1.00  0.00    +0.000 H 
ATOM    139  H41 UNL A   1      13.310  53.823   6.445  1.00  0.00    +0.000 H 
ATOM    140  H42 UNL A   1      12.882  51.323   6.295  1.00  0.00    +0.000 H 
ATOM    141  H43 UNL A   1      15.099  52.437   2.958  1.00  0.00    +0.000 H 
ATOM    142  H44 UNL A   1      16.000  57.356   3.475  1.00  0.00    +0.000 H 
ATOM    143  H45 UNL A   1      17.174  57.247   1.203  1.00  0.00    +0.000 H 
ATOM    144  H46 UNL A   1      15.647  47.327   0.784  1.00  0.00    +0.000 H 
ATOM    145  H47 UNL A   1      14.080  47.488   2.804  1.00  0.00    +0.000 H 
ATOM     38  C32 UNL A   1      13.991  50.081   3.980  1.00  0.00    +0.000 C 
ATOM     39  C33 UNL A   1      14.703  49.667   2.723  1.00  0.00    +0.000 C 
ATOM     40  N3  UNL A   1      15.425  50.389   1.903  1.00  0.00    +0.000 N 
ATOM     41  C34 UNL A   1      15.890  49.510   0.935  1.00  0.00    +0.000 C 
ATOM     42  C35 UNL A   1      16.638  49.780  -0.162  1.00  0.00    +0.000 C 
ATOM     54  C42 UNL A   1      17.086  51.096  -0.535  1.00  0.00    +0.000 C 
ATOM     55  C43 UNL A   1      17.793  51.482  -1.660  1.00  0.00    +0.000 C 
ATOM     56  C44 UNL A   1      18.032  52.858  -1.578  1.00  0.00    +0.000 C 
ATOM     57  C45 UNL A   1      17.438  53.336  -0.421  1.00  0.00    +0.000 C 
ATOM     58  N4  UNL A   1      16.867  52.244   0.212  1.00  0.00    +0.000 N 
ATOM     59  C46 UNL A   1      17.395  54.689   0.073  1.00  0.00    +0.000 C 
ATOM     71  C53 UNL A   1      16.790  55.079   1.220  1.00  0.00    +0.000 C 
ATOM     72  N5  UNL A   1      16.097  54.312   2.146  1.00  0.00    +0.000 N 
ATOM     73  C54 UNL A   1      15.712  55.141   3.085  1.00  0.00    +0.000 C 
ATOM     74  C55 UNL A   1      14.902  54.864   4.321  1.00  0.00    +0.000 C 
ATOM     86  C62 UNL A   1      14.448  53.617   4.546  1.00  0.00    +0.000 C 
ATOM     87  C63 UNL A   1      13.644  53.201   5.691  1.00  0.00    +0.000 C 
ATOM     88  C64 UNL A   1      13.410  51.882   5.607  1.00  0.00    +0.000 C 
ATOM     89  C65 UNL A   1      14.024  51.366   4.383  1.00  0.00    +0.000 C 
ATOM     90  N6  UNL A   1      14.609  52.467   3.812  1.00  0.00    +0.000 N 
ATOM     91  C66 UNL A   1      16.142  56.530   2.872  1.00  0.00    +0.000 C 
ATOM     92  C67 UNL A   1      16.763  56.445   1.704  1.00  0.00    +0.000 C 
ATOM     93  C68 UNL A   1      15.407  48.193   1.291  1.00  0.00    +0.000 C 
ATOM     94  C69 UNL A   1      14.616  48.246   2.353  1.00  0.00    +0.000 C 
ENDROOT
BRANCH   38   37
ATOM     34  C28 UNL A   1      12.042  47.173   6.458  1.00  0.00    +0.000 C 
ATOM     35  C29 UNL A   1      11.305  47.863   5.490  1.00  0.00    +0.000 C 
ATOM     36  C30 UNL A   1      11.939  48.796   4.665  1.00  0.00    +0.000 C 
ATOM     37  C31 UNL A   1      13.307  49.066   4.821  1.00  0.00    +0.000 C 
ATOM    134  H36 UNL A   1      10.294  47.684   5.386  1.00  0.00    +0.000 H 
ATOM    135  H37 UNL A   1      11.398  49.287   3.937  1.00  0.00    +0.000 H 
ATOM    146  H48 UNL A   1      15.045  48.555   5.914  1.00  0.00    +0.000 H 
ATOM    147  H49 UNL A   1      13.978  46.818   7.224  1.00  0.00    +0.000 H 
ATOM     95  C70 UNL A   1      14.041  48.356   5.784  1.00  0.00    +0.000 C 
ATOM     96  C71 UNL A   1      13.420  47.383   6.566  1.00  0.00    +0.000 C 
BRANCH   34   32
ATOM     33  O3  UNL A   1      11.676  45.005   7.264  1.00  0.00    +0.000 O 
ATOM     32  C27 UNL A   1      11.347  46.180   7.309  1.00  0.00    +0.000 C 
BRANCH   32   31
ATOM    133  H35 UNL A   1       9.459  46.175   7.987  1.00  0.00    +0.000 H 
ATOM     31  N2  UNL A   1      10.340  46.579   8.158  1.00  0.00    +0.000 N 
BRANCH   31   30
ATOM    131  H33 UNL A   1       9.407  47.621   9.676  1.00  0.00    +0.000 H 
ATOM    132  H34 UNL A   1      11.067  47.116  10.003  1.00  0.00    +0.000 H 
ATOM     30  C26 UNL A   1      10.392  47.511   9.272  1.00  0.00    +0.000 C 
BRANCH   30   29
ATOM    129  H31 UNL A   1      11.739  49.136   9.469  1.00  0.00    +0.000 H 
ATOM    130  H32 UNL A   1      11.165  48.798   7.809  1.00  0.00    +0.000 H 
ATOM     29  C25 UNL A   1      10.907  48.884   8.844  1.00  0.00    +0.000 C 
BRANCH   29   28
ATOM     28  C24 UNL A   1       9.878  50.016   8.941  1.00  0.00    +0.000 C 
ATOM    127  H29 UNL A   1       9.171  49.886   8.149  1.00  0.00    +0.000 H 
ATOM    128  H30 UNL A   1       9.452  49.940   9.920  1.00  0.00    +0.000 H 
BRANCH   28   27
ATOM     27  C23 UNL A   1      10.443  51.439   8.840  1.00  0.00    +0.000 C 
ATOM    125  H27 UNL A   1      11.499  51.389   9.002  1.00  0.00    +0.000 H 
ATOM    126  H28 UNL A   1      10.176  51.796   7.867  1.00  0.00    +0.000 H 
BRANCH   27   26
ATOM     26  C22 UNL A   1       9.857  52.443   9.837  1.00  0.00    +0.000 C 
ATOM    123  H25 UNL A   1       8.799  52.289   9.885  1.00  0.00    +0.000 H 
ATOM    124  H26 UNL A   1      10.343  52.265  10.774  1.00  0.00    +0.000 H 
BRANCH   26   25
ATOM     25  C21 UNL A   1      10.115  53.909   9.477  1.00  0.00    +0.000 C 
ATOM    122  H24 UNL A   1       9.248  54.475   9.743  1.00  0.00    +0.000 H 
ATOM    121  H23 UNL A   1      10.312  53.977   8.427  1.00  0.00    +0.000 H 
BRANCH   25   24
ATOM    120  H22 UNL A   1      11.893  54.930   9.636  1.00  0.00    +0.000 H 
ATOM     24  N1  UNL A   1      11.246  54.447  10.200  1.00  0.00    +0.000 N 
BRANCH   24   22
ATOM     22  C20 UNL A   1      11.581  54.408  11.520  1.00  0.00    +0.000 C 
ATOM     23  O2  UNL A   1      10.876  55.091  12.273  1.00  0.00    +0.000 O 
BRANCH   22   20
ATOM    116  H18 UNL A   1      12.294  52.879  12.743  1.00  0.00    +0.000 H 
ATOM     20  C18 UNL A   1      12.754  53.592  12.092  1.00  0.00    +0.000 C 
BRANCH   20   19
ATOM      7  C6  UNL A   1      13.350  51.338  10.991  1.00  0.00    +0.000 C 
ATOM      8  C7  UNL A   1      13.948  50.628   9.927  1.00  0.00    +0.000 C 
ATOM      9  C8  UNL A   1      14.736  51.271   8.965  1.00  0.00    +0.000 C 
ATOM    104  H6  UNL A   1      13.800  49.609   9.856  1.00  0.00    +0.000 H 
ATOM     17  C15 UNL A   1      14.886  52.652   9.041  1.00  0.00    +0.000 C 
ATOM     18  C16 UNL A   1      14.273  53.371  10.066  1.00  0.00    +0.000 C 
ATOM     19  C17 UNL A   1      13.467  52.749  11.034  1.00  0.00    +0.000 C 
ATOM    115  H17 UNL A   1      14.416  54.392  10.114  1.00  0.00    +0.000 H 
ATOM    114  H16 UNL A   1      15.453  53.147   8.335  1.00  0.00    +0.000 H 
BRANCH    7    6
ATOM     97  C72 UNL A   1      11.581  49.938  12.132  1.00  0.00    +0.000 C 
ATOM     98  C73 UNL A   1      11.139  49.250  13.272  1.00  0.00    +0.000 C 
ATOM      3  C2  UNL A   1      11.939  49.149  14.420  1.00  0.00    +0.000 C 
ATOM      4  C3  UNL A   1      13.196  49.752  14.404  1.00  0.00    +0.000 C 
ATOM      5  C4  UNL A   1      13.632  50.446  13.275  1.00  0.00    +0.000 C 
ATOM    102  H4  UNL A   1      13.808  49.687  15.233  1.00  0.00    +0.000 H 
ATOM      6  C5  UNL A   1      12.834  50.554  12.124  1.00  0.00    +0.000 C 
ATOM    103  H5  UNL A   1      14.563  50.891  13.285  1.00  0.00    +0.000 H 
ATOM    148  H50 UNL A   1      10.979  49.988  11.295  1.00  0.00    +0.000 H 
ATOM    149  H51 UNL A   1      10.205  48.810  13.266  1.00  0.00    +0.000 H 
BRANCH    3    2
ATOM      2  S1  UNL A   1      11.267  48.272  15.828  1.00  0.00    +0.000 S 
BRANCH    2    1
ATOM      1  C1  UNL A   1      12.049  46.638  15.713  1.00  0.00    +0.000 C 
ATOM     99  H1  UNL A   1      11.390  45.962  15.209  1.00  0.00    +0.000 H 
ATOM    100  H2  UNL A   1      12.252  46.270  16.696  1.00  0.00    +0.000 H 
ATOM    101  H3  UNL A   1      12.965  46.718  15.165  1.00  0.00    +0.000 H 
ENDBRANCH    2    1
ENDBRANCH    3    2
ENDBRANCH    7    6
BRANCH    9   10
ATOM    105  H7  UNL A   1      15.791  51.141   7.152  1.00  0.00    +0.000 H 
ATOM     10  C9  UNL A   1      15.528  50.482   7.952  1.00  0.00    +0.000 C 
ATOM    106  H8  UNL A   1      14.899  49.671   7.648  1.00  0.00    +0.000 H 
BRANCH   10   11
ATOM     11  C10 UNL A   1      16.819  49.845   8.488  1.00  0.00    +0.000 C 
ATOM    108  H10 UNL A   1      17.750  51.776   8.698  1.00  0.00    +0.000 H 
ATOM     12  C11 UNL A   1      17.874  50.786   9.086  1.00  0.00    +0.000 C 
ATOM    107  H9  UNL A   1      17.188  49.389   7.595  1.00  0.00    +0.000 H 
ATOM     15  C14 UNL A   1      16.546  48.914   9.649  1.00  0.00    +0.000 C 
ATOM    109  H11 UNL A   1      18.866  50.468   8.838  1.00  0.00    +0.000 H 
ATOM     13  C12 UNL A   1      17.649  50.777  10.594  1.00  0.00    +0.000 C 
ATOM     14  C13 UNL A   1      17.223  49.353  10.919  1.00  0.00    +0.000 C 
ATOM     16  O1  UNL A   1      15.869  47.896   9.560  1.00  0.00    +0.000 O 
ATOM    110  H12 UNL A   1      16.881  51.471  10.864  1.00  0.00    +0.000 H 
ATOM    111  H13 UNL A   1      18.527  51.067  11.134  1.00  0.00    +0.000 H 
ATOM    112  H14 UNL A   1      16.544  49.333  11.746  1.00  0.00    +0.000 H 
ATOM    113  H15 UNL A   1      18.037  48.721  11.209  1.00  0.00    +0.000 H 
ENDBRANCH   10   11
ENDBRANCH    9   10
ENDBRANCH   20   19
BRANCH   20   21
ATOM    117  H19 UNL A   1      13.152  54.517  13.978  1.00  0.00    +0.000 H 
ATOM     21  C19 UNL A   1      13.670  54.343  13.058  1.00  0.00    +0.000 C 
ATOM    118  H20 UNL A   1      13.954  55.279  12.625  1.00  0.00    +0.000 H 
ATOM    119  H21 UNL A   1      14.546  53.757  13.246  1.00  0.00    +0.000 H 
ENDBRANCH   20   21
ENDBRANCH   22   20
ENDBRANCH   24   22
ENDBRANCH   25   24
ENDBRANCH   26   25
ENDBRANCH   27   26
ENDBRANCH   28   27
ENDBRANCH   29   28
ENDBRANCH   30   29
ENDBRANCH   31   30
ENDBRANCH   32   31
ENDBRANCH   34   32
ENDBRANCH   38   37
BRANCH   42   43
ATOM     43  C36 UNL A   1      17.015  48.627  -1.046  1.00  0.00    +0.000 C 
ATOM     44  C37 UNL A   1      16.322  48.357  -2.236  1.00  0.00    +0.000 C 
ATOM     45  F1  UNL A   1      15.264  49.103  -2.585  1.00  0.00    +0.000 F 
ATOM     46  C38 UNL A   1      16.691  47.291  -3.054  1.00  0.00    +0.000 C 
ATOM     47  F2  UNL A   1      15.986  47.025  -4.162  1.00  0.00    +0.000 F 
ATOM     48  C39 UNL A   1      17.778  46.499  -2.716  1.00  0.00    +0.000 C 
ATOM     49  F3  UNL A   1      18.135  45.478  -3.507  1.00  0.00    +0.000 F 
ATOM     50  C40 UNL A   1      18.489  46.761  -1.555  1.00  0.00    +0.000 C 
ATOM     51  F4  UNL A   1      19.547  46.003  -1.233  1.00  0.00    +0.000 F 
ATOM     52  C41 UNL A   1      18.106  47.808  -0.721  1.00  0.00    +0.000 C 
ATOM     53  F5  UNL A   1      18.806  48.028   0.403  1.00  0.00    +0.000 F 
ENDBRANCH   42   43
BRANCH   59   60
ATOM     65  C50 UNL A   1      19.287  57.787  -2.247  1.00  0.00    +0.000 C 
ATOM     66  F8  UNL A   1      19.879  58.750  -2.966  1.00  0.00    +0.000 F 
ATOM     67  C51 UNL A   1      19.999  57.117  -1.263  1.00  0.00    +0.000 C 
ATOM     68  F9  UNL A   1      21.275  57.446  -1.020  1.00  0.00    +0.000 F 
ATOM     69  C52 UNL A   1      19.391  56.102  -0.529  1.00  0.00    +0.000 C 
ATOM     70  F10 UNL A   1      20.108  55.463   0.407  1.00  0.00    +0.000 F 
ATOM     60  C47 UNL A   1      18.050  55.755  -0.754  1.00  0.00    +0.000 C 
ATOM     61  C48 UNL A   1      17.343  56.456  -1.741  1.00  0.00    +0.000 C 
ATOM     62  F6  UNL A   1      16.063  56.149  -2.002  1.00  0.00    +0.000 F 
ATOM     63  C49 UNL A   1      17.962  57.454  -2.490  1.00  0.00    +0.000 C 
ATOM     64  F7  UNL A   1      17.280  58.082  -3.457  1.00  0.00    +0.000 F 
ENDBRANCH   59   60
BRANCH   74   75
ATOM     75  C56 UNL A   1      14.575  55.953   5.276  1.00  0.00    +0.000 C 
ATOM     76  C57 UNL A   1      15.553  56.467   6.141  1.00  0.00    +0.000 C 
ATOM     77  F11 UNL A   1      16.793  55.956   6.126  1.00  0.00    +0.000 F 
ATOM     78  C58 UNL A   1      15.249  57.478   7.050  1.00  0.00    +0.000 C 
ATOM     79  F12 UNL A   1      16.190  57.922   7.893  1.00  0.00    +0.000 F 
ATOM     80  C59 UNL A   1      13.970  58.014   7.093  1.00  0.00    +0.000 C 
ATOM     81  F13 UNL A   1      13.680  58.989   7.963  1.00  0.00    +0.000 F 
ATOM     82  C60 UNL A   1      12.992  57.533   6.235  1.00  0.00    +0.000 C 
ATOM     83  F14 UNL A   1      11.760  58.057   6.265  1.00  0.00    +0.000 F 
ATOM     84  C61 UNL A   1      13.288  56.505   5.343  1.00  0.00    +0.000 C 
ATOM     85  F15 UNL A   1      12.320  56.052   4.532  1.00  0.00    +0.000 F 
ENDBRANCH   74   75
TORSDOF 22
ENDMDL
MODEL 6
REMARK VINA RESULT:      -8.2     29.699     34.286
ROOT
ATOM    136  H38 UNL A   1      25.237  21.643   2.844  1.00  0.00    +0.000 H 
ATOM    137  H39 UNL A   1      23.702  23.497   1.843  1.00  0.00    +0.000 H 
ATOM    138  H40 UNL A   1      21.420  20.091   2.420  1.00  0.00    +0.000 H 
ATOM    139  H41 UNL A   1      15.865  17.007   1.815  1.00  0.00    +0.000 H 
ATOM    140  H42 UNL A   1      17.357  15.212   2.817  1.00  0.00    +0.000 H 
ATOM    141  H43 UNL A   1      19.665  18.628   2.277  1.00  0.00    +0.000 H 
ATOM    142  H44 UNL A   1      16.553  22.125   0.445  1.00  0.00    +0.000 H 
ATOM    143  H45 UNL A   1      18.583  23.678   0.317  1.00  0.00    +0.000 H 
ATOM    144  H46 UNL A   1      24.372  16.611   4.495  1.00  0.00    +0.000 H 
ATOM    145  H47 UNL A   1      22.486  14.902   4.204  1.00  0.00    +0.000 H 
ATOM     38  C32 UNL A   1      20.053  16.033   3.245  1.00  0.00    +0.000 C 
ATOM     39  C33 UNL A   1      21.381  16.717   3.412  1.00  0.00    +0.000 C 
ATOM     40  N3  UNL A   1      21.711  17.959   3.158  1.00  0.00    +0.000 N 
ATOM     41  C34 UNL A   1      23.042  18.081   3.536  1.00  0.00    +0.000 C 
ATOM     42  C35 UNL A   1      23.856  19.158   3.425  1.00  0.00    +0.000 C 
ATOM     54  C42 UNL A   1      23.461  20.418   2.852  1.00  0.00    +0.000 C 
ATOM     55  C43 UNL A   1      24.231  21.547   2.636  1.00  0.00    +0.000 C 
ATOM     56  C44 UNL A   1      23.410  22.539   2.086  1.00  0.00    +0.000 C 
ATOM     57  C45 UNL A   1      22.139  22.012   1.923  1.00  0.00    +0.000 C 
ATOM     58  N4  UNL A   1      22.183  20.713   2.402  1.00  0.00    +0.000 N 
ATOM     59  C46 UNL A   1      20.969  22.646   1.371  1.00  0.00    +0.000 C 
ATOM     71  C53 UNL A   1      19.754  22.061   1.243  1.00  0.00    +0.000 C 
ATOM     72  N5  UNL A   1      19.365  20.774   1.589  1.00  0.00    +0.000 N 
ATOM     73  C54 UNL A   1      18.094  20.688   1.282  1.00  0.00    +0.000 C 
ATOM     74  C55 UNL A   1      17.163  19.515   1.416  1.00  0.00    +0.000 C 
ATOM     86  C62 UNL A   1      17.640  18.345   1.880  1.00  0.00    +0.000 C 
ATOM     87  C63 UNL A   1      16.863  17.122   2.054  1.00  0.00    +0.000 C 
ATOM     88  C64 UNL A   1      17.654  16.170   2.575  1.00  0.00    +0.000 C 
ATOM     89  C65 UNL A   1      19.003  16.710   2.744  1.00  0.00    +0.000 C 
ATOM     90  N6  UNL A   1      18.903  18.003   2.297  1.00  0.00    +0.000 N 
ATOM     91  C66 UNL A   1      17.525  21.925   0.729  1.00  0.00    +0.000 C 
ATOM     92  C67 UNL A   1      18.587  22.718   0.691  1.00  0.00    +0.000 C 
ATOM     93  C68 UNL A   1      23.447  16.802   4.077  1.00  0.00    +0.000 C 
ATOM     94  C69 UNL A   1      22.477  15.906   3.966  1.00  0.00    +0.000 C 
ENDROOT
BRANCH   38   37
ATOM     34  C28 UNL A   1      19.481  11.995   4.573  1.00  0.00    +0.000 C 
ATOM     35  C29 UNL A   1      19.861  12.241   3.249  1.00  0.00    +0.000 C 
ATOM     36  C30 UNL A   1      20.070  13.553   2.817  1.00  0.00    +0.000 C 
ATOM     37  C31 UNL A   1      19.874  14.629   3.696  1.00  0.00    +0.000 C 
ATOM    134  H36 UNL A   1      19.986  11.454   2.593  1.00  0.00    +0.000 H 
ATOM    135  H37 UNL A   1      20.372  13.732   1.846  1.00  0.00    +0.000 H 
ATOM    146  H48 UNL A   1      19.352  15.155   5.677  1.00  0.00    +0.000 H 
ATOM    147  H49 UNL A   1      19.157  12.872   6.467  1.00  0.00    +0.000 H 
ATOM     95  C70 UNL A   1      19.509  14.370   5.027  1.00  0.00    +0.000 C 
ATOM     96  C71 UNL A   1      19.359  13.058   5.472  1.00  0.00    +0.000 C 
BRANCH   34   32
ATOM     33  O3  UNL A   1      18.658  10.358   6.030  1.00  0.00    +0.000 O 
ATOM     32  C27 UNL A   1      19.281  10.593   5.007  1.00  0.00    +0.000 C 
BRANCH   32   31
ATOM    133  H35 UNL A   1      19.118   9.046   3.742  1.00  0.00    +0.000 H 
ATOM     31  N2  UNL A   1      19.784   9.556   4.256  1.00  0.00    +0.000 N 
BRANCH   31   30
ATOM    131  H33 UNL A   1      21.156   8.093   3.770  1.00  0.00    +0.000 H 
ATOM    132  H34 UNL A   1      21.647   9.750   3.412  1.00  0.00    +0.000 H 
ATOM     30  C26 UNL A   1      21.158   9.106   4.114  1.00  0.00    +0.000 C 
BRANCH   30   29
ATOM    129  H31 UNL A   1      21.239   9.481   6.199  1.00  0.00    +0.000 H 
ATOM    130  H32 UNL A   1      22.335   8.204   5.596  1.00  0.00    +0.000 H 
ATOM     29  C25 UNL A   1      21.923   9.178   5.434  1.00  0.00    +0.000 C 
BRANCH   29   28
ATOM     28  C24 UNL A   1      23.106  10.154   5.440  1.00  0.00    +0.000 C 
ATOM    127  H29 UNL A   1      23.883   9.724   6.035  1.00  0.00    +0.000 H 
ATOM    128  H30 UNL A   1      23.373  10.293   4.413  1.00  0.00    +0.000 H 
BRANCH   28   27
ATOM     27  C23 UNL A   1      22.810  11.555   5.990  1.00  0.00    +0.000 C 
ATOM    125  H27 UNL A   1      23.556  12.223   5.613  1.00  0.00    +0.000 H 
ATOM    126  H28 UNL A   1      21.819  11.798   5.669  1.00  0.00    +0.000 H 
BRANCH   27   26
ATOM     26  C22 UNL A   1      22.802  11.665   7.517  1.00  0.00    +0.000 C 
ATOM    123  H25 UNL A   1      22.475  10.729   7.919  1.00  0.00    +0.000 H 
ATOM    124  H26 UNL A   1      23.799  11.917   7.813  1.00  0.00    +0.000 H 
BRANCH   26   25
ATOM     25  C21 UNL A   1      21.889  12.768   8.061  1.00  0.00    +0.000 C 
ATOM    122  H24 UNL A   1      21.188  12.319   8.733  1.00  0.00    +0.000 H 
ATOM    121  H23 UNL A   1      21.389  13.239   7.241  1.00  0.00    +0.000 H 
BRANCH   25   24
ATOM    120  H22 UNL A   1      22.156  14.144   9.566  1.00  0.00    +0.000 H 
ATOM     24  N1  UNL A   1      22.635  13.770   8.792  1.00  0.00    +0.000 N 
BRANCH   24   22
ATOM     22  C20 UNL A   1      23.880  14.290   8.604  1.00  0.00    +0.000 C 
ATOM     23  O2  UNL A   1      24.772  13.817   9.319  1.00  0.00    +0.000 O 
BRANCH   22   20
ATOM    116  H18 UNL A   1      23.287  15.588   7.086  1.00  0.00    +0.000 H 
ATOM     20  C18 UNL A   1      24.211  15.399   7.591  1.00  0.00    +0.000 C 
BRANCH   20   19
ATOM      7  C6  UNL A   1      23.596  17.722   8.527  1.00  0.00    +0.000 C 
ATOM      8  C7  UNL A   1      23.972  18.881   9.238  1.00  0.00    +0.000 C 
ATOM      9  C8  UNL A   1      25.303  19.123   9.599  1.00  0.00    +0.000 C 
ATOM    104  H6  UNL A   1      23.248  19.569   9.498  1.00  0.00    +0.000 H 
ATOM     17  C15 UNL A   1      26.262  18.164   9.288  1.00  0.00    +0.000 C 
ATOM     18  C16 UNL A   1      25.900  16.999   8.617  1.00  0.00    +0.000 C 
ATOM     19  C17 UNL A   1      24.569  16.728   8.256  1.00  0.00    +0.000 C 
ATOM    115  H17 UNL A   1      26.632  16.312   8.377  1.00  0.00    +0.000 H 
ATOM    114  H16 UNL A   1      27.246  18.318   9.556  1.00  0.00    +0.000 H 
BRANCH    7    6
ATOM     97  C72 UNL A   1      21.879  18.588   6.885  1.00  0.00    +0.000 C 
ATOM     98  C73 UNL A   1      20.572  18.551   6.376  1.00  0.00    +0.000 C 
ATOM      3  C2  UNL A   1      19.626  17.633   6.858  1.00  0.00    +0.000 C 
ATOM      4  C3  UNL A   1      20.017  16.750   7.864  1.00  0.00    +0.000 C 
ATOM      5  C4  UNL A   1      21.313  16.794   8.379  1.00  0.00    +0.000 C 
ATOM    102  H4  UNL A   1      19.343  16.060   8.231  1.00  0.00    +0.000 H 
ATOM      6  C5  UNL A   1      22.263  17.712   7.902  1.00  0.00    +0.000 C 
ATOM    103  H5  UNL A   1      21.580  16.136   9.127  1.00  0.00    +0.000 H 
ATOM    148  H50 UNL A   1      22.560  19.264   6.505  1.00  0.00    +0.000 H 
ATOM    149  H51 UNL A   1      20.300  19.213   5.632  1.00  0.00    +0.000 H 
BRANCH    3    2
ATOM      2  S1  UNL A   1      17.981  17.690   6.159  1.00  0.00    +0.000 S 
BRANCH    2    1
ATOM      1  C1  UNL A   1      17.242  19.149   6.947  1.00  0.00    +0.000 C 
ATOM     99  H1  UNL A   1      17.821  20.016   6.705  1.00  0.00    +0.000 H 
ATOM    100  H2  UNL A   1      17.230  19.013   8.008  1.00  0.00    +0.000 H 
ATOM    101  H3  UNL A   1      16.241  19.278   6.592  1.00  0.00    +0.000 H 
ENDBRANCH    2    1
ENDBRANCH    3    2
ENDBRANCH    7    6
BRANCH    9   10
ATOM    105  H7  UNL A   1      25.078  21.205   9.785  1.00  0.00    +0.000 H 
ATOM     10  C9  UNL A   1      25.724  20.450  10.181  1.00  0.00    +0.000 C 
ATOM    106  H8  UNL A   1      26.750  20.582   9.909  1.00  0.00    +0.000 H 
BRANCH   10   11
ATOM     11  C10 UNL A   1      25.671  20.534  11.713  1.00  0.00    +0.000 C 
ATOM    108  H10 UNL A   1      23.521  20.669  11.687  1.00  0.00    +0.000 H 
ATOM     12  C11 UNL A   1      24.294  20.406  12.380  1.00  0.00    +0.000 C 
ATOM    107  H9  UNL A   1      26.068  21.515  11.862  1.00  0.00    +0.000 H 
ATOM     15  C14 UNL A   1      26.434  19.401  12.365  1.00  0.00    +0.000 C 
ATOM    109  H11 UNL A   1      24.206  21.062  13.221  1.00  0.00    +0.000 H 
ATOM     13  C12 UNL A   1      24.156  18.945  12.797  1.00  0.00    +0.000 C 
ATOM     14  C13 UNL A   1      25.556  18.522  13.215  1.00  0.00    +0.000 C 
ATOM     16  O1  UNL A   1      27.641  19.232  12.237  1.00  0.00    +0.000 O 
ATOM    110  H12 UNL A   1      23.812  18.351  11.976  1.00  0.00    +0.000 H 
ATOM    111  H13 UNL A   1      23.445  18.818  13.586  1.00  0.00    +0.000 H 
ATOM    112  H14 UNL A   1      25.726  17.487  13.003  1.00  0.00    +0.000 H 
ATOM    113  H15 UNL A   1      25.737  18.627  14.264  1.00  0.00    +0.000 H 
ENDBRANCH   10   11
ENDBRANCH    9   10
ENDBRANCH   20   19
BRANCH   20   21
ATOM    117  H19 UNL A   1      24.782  15.460   5.531  1.00  0.00    +0.000 H 
ATOM     21  C19 UNL A   1      25.115  14.984   6.430  1.00  0.00    +0.000 C 
ATOM    118  H20 UNL A   1      25.074  13.922   6.308  1.00  0.00    +0.000 H 
ATOM    119  H21 UNL A   1      26.122  15.280   6.639  1.00  0.00    +0.000 H 
ENDBRANCH   20   21
ENDBRANCH   22   20
ENDBRANCH   24   22
ENDBRANCH   25   24
ENDBRANCH   26   25
ENDBRANCH   27   26
ENDBRANCH   28   27
ENDBRANCH   29   28
ENDBRANCH   30   29
ENDBRANCH   31   30
ENDBRANCH   32   31
ENDBRANCH   34   32
ENDBRANCH   38   37
BRANCH   42   43
ATOM     43  C36 UNL A   1      25.263  19.018   3.928  1.00  0.00    +0.000 C 
ATOM     44  C37 UNL A   1      26.283  18.492   3.121  1.00  0.00    +0.000 C 
ATOM     45  F1  UNL A   1      26.006  18.052   1.885  1.00  0.00    +0.000 F 
ATOM     46  C38 UNL A   1      27.588  18.381   3.596  1.00  0.00    +0.000 C 
ATOM     47  F2  UNL A   1      28.535  17.834   2.823  1.00  0.00    +0.000 F 
ATOM     48  C39 UNL A   1      27.903  18.824   4.872  1.00  0.00    +0.000 C 
ATOM     49  F3  UNL A   1      29.160  18.722   5.325  1.00  0.00    +0.000 F 
ATOM     50  C40 UNL A   1      26.915  19.366   5.679  1.00  0.00    +0.000 C 
ATOM     51  F4  UNL A   1      27.222  19.805   6.908  1.00  0.00    +0.000 F 
ATOM     52  C41 UNL A   1      25.604  19.453   5.218  1.00  0.00    +0.000 C 
ATOM     53  F5  UNL A   1      24.668  19.969   6.027  1.00  0.00    +0.000 F 
ENDBRANCH   42   43
BRANCH   59   60
ATOM     65  C50 UNL A   1      21.423  26.683  -0.064  1.00  0.00    +0.000 C 
ATOM     66  F8  UNL A   1      21.565  27.937  -0.514  1.00  0.00    +0.000 F 
ATOM     67  C51 UNL A   1      21.479  25.616  -0.949  1.00  0.00    +0.000 C 
ATOM     68  F9  UNL A   1      21.693  25.840  -2.252  1.00  0.00    +0.000 F 
ATOM     69  C52 UNL A   1      21.312  24.314  -0.485  1.00  0.00    +0.000 C 
ATOM     70  F10 UNL A   1      21.358  23.304  -1.366  1.00  0.00    +0.000 F 
ATOM     60  C47 UNL A   1      21.106  24.056   0.878  1.00  0.00    +0.000 C 
ATOM     61  C48 UNL A   1      21.070  25.147   1.759  1.00  0.00    +0.000 C 
ATOM     62  F6  UNL A   1      20.861  24.950   3.069  1.00  0.00    +0.000 F 
ATOM     63  C49 UNL A   1      21.213  26.449   1.287  1.00  0.00    +0.000 C 
ATOM     64  F7  UNL A   1      21.132  27.480   2.140  1.00  0.00    +0.000 F 
ENDBRANCH   59   60
BRANCH   74   75
ATOM     75  C56 UNL A   1      15.737  19.625   1.015  1.00  0.00    +0.000 C 
ATOM     76  C57 UNL A   1      15.352  19.441  -0.321  1.00  0.00    +0.000 C 
ATOM     77  F11 UNL A   1      16.281  19.187  -1.255  1.00  0.00    +0.000 F 
ATOM     78  C58 UNL A   1      14.019  19.557  -0.708  1.00  0.00    +0.000 C 
ATOM     79  F12 UNL A   1      13.684  19.418  -1.997  1.00  0.00    +0.000 F 
ATOM     80  C59 UNL A   1      13.042  19.832   0.238  1.00  0.00    +0.000 C 
ATOM     81  F13 UNL A   1      11.760  19.939  -0.133  1.00  0.00    +0.000 F 
ATOM     82  C60 UNL A   1      13.398  20.000   1.568  1.00  0.00    +0.000 C 
ATOM     83  F14 UNL A   1      12.455  20.253   2.486  1.00  0.00    +0.000 F 
ATOM     84  C61 UNL A   1      14.734  19.909   1.952  1.00  0.00    +0.000 C 
ATOM     85  F15 UNL A   1      15.051  20.087   3.243  1.00  0.00    +0.000 F 
ENDBRANCH   74   75
TORSDOF 22
ENDMDL
MODEL 7
REMARK VINA RESULT:      -8.1     44.005     50.169
ROOT
ATOM    136  H38 UNL A   1      11.810   8.204  15.432  1.00  0.00    +0.000 H 
ATOM    137  H39 UNL A   1      10.462  10.194  16.446  1.00  0.00    +0.000 H 
ATOM    138  H40 UNL A   1      10.263   7.009  19.084  1.00  0.00    +0.000 H 
ATOM    139  H41 UNL A   1       8.002   4.447  24.474  1.00  0.00    +0.000 H 
ATOM    140  H42 UNL A   1       9.339   2.521  23.497  1.00  0.00    +0.000 H 
ATOM    141  H43 UNL A   1       9.581   5.712  20.844  1.00  0.00    +0.000 H 
ATOM    142  H44 UNL A   1       7.032   9.483  22.978  1.00  0.00    +0.000 H 
ATOM    143  H45 UNL A   1       7.536  10.845  20.870  1.00  0.00    +0.000 H 
ATOM    144  H46 UNL A   1      13.000   3.269  17.171  1.00  0.00    +0.000 H 
ATOM    145  H47 UNL A   1      12.132   1.740  19.033  1.00  0.00    +0.000 H 
ATOM     38  C32 UNL A   1      10.547   3.091  20.978  1.00  0.00    +0.000 C 
ATOM     39  C33 UNL A   1      11.107   3.651  19.701  1.00  0.00    +0.000 C 
ATOM     40  N3  UNL A   1      10.994   4.857  19.205  1.00  0.00    +0.000 N 
ATOM     41  C34 UNL A   1      11.741   4.856  18.035  1.00  0.00    +0.000 C 
ATOM     42  C35 UNL A   1      11.899   5.855  17.132  1.00  0.00    +0.000 C 
ATOM     54  C42 UNL A   1      11.273   7.147  17.234  1.00  0.00    +0.000 C 
ATOM     55  C43 UNL A   1      11.318   8.202  16.339  1.00  0.00    +0.000 C 
ATOM     56  C44 UNL A   1      10.584   9.265  16.877  1.00  0.00    +0.000 C 
ATOM     57  C45 UNL A   1      10.048   8.857  18.088  1.00  0.00    +0.000 C 
ATOM     58  N4  UNL A   1      10.483   7.558  18.297  1.00  0.00    +0.000 N 
ATOM     59  C46 UNL A   1       9.201   9.596  18.989  1.00  0.00    +0.000 C 
ATOM     71  C53 UNL A   1       8.714   9.125  20.162  1.00  0.00    +0.000 C 
ATOM     72  N5  UNL A   1       8.897   7.879  20.745  1.00  0.00    +0.000 N 
ATOM     73  C54 UNL A   1       8.236   7.910  21.875  1.00  0.00    +0.000 C 
ATOM     74  C55 UNL A   1       8.064   6.826  22.904  1.00  0.00    +0.000 C 
ATOM     86  C62 UNL A   1       8.612   5.617  22.685  1.00  0.00    +0.000 C 
ATOM     87  C63 UNL A   1       8.520   4.469  23.582  1.00  0.00    +0.000 C 
ATOM     88  C64 UNL A   1       9.219   3.448  23.061  1.00  0.00    +0.000 C 
ATOM     89  C65 UNL A   1       9.784   3.862  21.776  1.00  0.00    +0.000 C 
ATOM     90  N6  UNL A   1       9.364   5.160  21.629  1.00  0.00    +0.000 N 
ATOM     91  C66 UNL A   1       7.577   9.195  22.151  1.00  0.00    +0.000 C 
ATOM     92  C67 UNL A   1       7.869   9.887  21.059  1.00  0.00    +0.000 C 
ATOM     93  C68 UNL A   1      12.339   3.545  17.915  1.00  0.00    +0.000 C 
ATOM     94  C69 UNL A   1      11.929   2.742  18.886  1.00  0.00    +0.000 C 
ENDROOT
BRANCH   38   37
ATOM     34  C28 UNL A   1      11.520  -0.920  22.143  1.00  0.00    +0.000 C 
ATOM     35  C29 UNL A   1      12.349   0.136  22.538  1.00  0.00    +0.000 C 
ATOM     36  C30 UNL A   1      12.025   1.447  22.180  1.00  0.00    +0.000 C 
ATOM     37  C31 UNL A   1      10.887   1.709  21.401  1.00  0.00    +0.000 C 
ATOM    134  H36 UNL A   1      13.199  -0.054  23.092  1.00  0.00    +0.000 H 
ATOM    135  H37 UNL A   1      12.625   2.227  22.491  1.00  0.00    +0.000 H 
ATOM    146  H48 UNL A   1       9.221   0.825  20.444  1.00  0.00    +0.000 H 
ATOM    147  H49 UNL A   1       9.694  -1.425  21.211  1.00  0.00    +0.000 H 
ATOM     95  C70 UNL A   1      10.053   0.644  21.025  1.00  0.00    +0.000 C 
ATOM     96  C71 UNL A   1      10.346  -0.657  21.434  1.00  0.00    +0.000 C 
BRANCH   34   32
ATOM     33  O3  UNL A   1      12.683  -2.475  23.453  1.00  0.00    +0.000 O 
ATOM     32  C27 UNL A   1      11.881  -2.299  22.550  1.00  0.00    +0.000 C 
BRANCH   32   31
ATOM    133  H35 UNL A   1      11.534  -3.483  20.969  1.00  0.00    +0.000 H 
ATOM     31  N2  UNL A   1      11.306  -3.379  21.921  1.00  0.00    +0.000 N 
BRANCH   31   30
ATOM    131  H33 UNL A   1      10.493  -5.275  21.868  1.00  0.00    +0.000 H 
ATOM    132  H34 UNL A   1      10.695  -4.574  23.476  1.00  0.00    +0.000 H 
ATOM     30  C26 UNL A   1      10.411  -4.387  22.461  1.00  0.00    +0.000 C 
BRANCH   30   29
ATOM    129  H31 UNL A   1       8.814  -3.283  21.608  1.00  0.00    +0.000 H 
ATOM    130  H32 UNL A   1       8.358  -4.809  22.421  1.00  0.00    +0.000 H 
ATOM     29  C25 UNL A   1       8.956  -3.922  22.455  1.00  0.00    +0.000 C 
BRANCH   29   28
ATOM     28  C24 UNL A   1       8.520  -3.156  23.709  1.00  0.00    +0.000 C 
ATOM    127  H29 UNL A   1       8.883  -2.153  23.624  1.00  0.00    +0.000 H 
ATOM    128  H30 UNL A   1       7.452  -3.229  23.738  1.00  0.00    +0.000 H 
BRANCH   28   27
ATOM     27  C23 UNL A   1       9.016  -3.726  25.043  1.00  0.00    +0.000 C 
ATOM    125  H27 UNL A   1       8.178  -3.801  25.704  1.00  0.00    +0.000 H 
ATOM    126  H28 UNL A   1       9.466  -4.670  24.815  1.00  0.00    +0.000 H 
BRANCH   27   26
ATOM     26  C22 UNL A   1      10.098  -2.896  25.742  1.00  0.00    +0.000 C 
ATOM    123  H25 UNL A   1      10.904  -3.550  26.005  1.00  0.00    +0.000 H 
ATOM    124  H26 UNL A   1      10.393  -2.132  25.054  1.00  0.00    +0.000 H 
BRANCH   26   25
ATOM     25  C21 UNL A   1       9.620  -2.186  27.013  1.00  0.00    +0.000 C 
ATOM    122  H24 UNL A   1       9.240  -2.926  27.685  1.00  0.00    +0.000 H 
ATOM    121  H23 UNL A   1       8.862  -1.479  26.750  1.00  0.00    +0.000 H 
BRANCH   25   24
ATOM    120  H22 UNL A   1      10.444  -1.062  28.524  1.00  0.00    +0.000 H 
ATOM     24  N1  UNL A   1      10.701  -1.489  27.675  1.00  0.00    +0.000 N 
BRANCH   24   22
ATOM     22  C20 UNL A   1      12.009  -1.314  27.338  1.00  0.00    +0.000 C 
ATOM     23  O2  UNL A   1      12.806  -2.110  27.851  1.00  0.00    +0.000 O 
BRANCH   22   20
ATOM    116  H18 UNL A   1      11.817  -0.199  25.588  1.00  0.00    +0.000 H 
ATOM     20  C18 UNL A   1      12.520  -0.211  26.394  1.00  0.00    +0.000 C 
BRANCH   20   19
ATOM      7  C6  UNL A   1      11.198   1.855  27.189  1.00  0.00    +0.000 C 
ATOM      8  C7  UNL A   1      11.178   3.098  27.857  1.00  0.00    +0.000 C 
ATOM      9  C8  UNL A   1      12.356   3.737  28.259  1.00  0.00    +0.000 C 
ATOM    104  H6  UNL A   1      10.270   3.548  28.054  1.00  0.00    +0.000 H 
ATOM     17  C15 UNL A   1      13.571   3.096  28.035  1.00  0.00    +0.000 C 
ATOM     18  C16 UNL A   1      13.605   1.852  27.408  1.00  0.00    +0.000 C 
ATOM     19  C17 UNL A   1      12.434   1.186  27.008  1.00  0.00    +0.000 C 
ATOM    115  H17 UNL A   1      14.518   1.406  27.233  1.00  0.00    +0.000 H 
ATOM    114  H16 UNL A   1      14.451   3.544  28.335  1.00  0.00    +0.000 H 
BRANCH    7    6
ATOM     97  C72 UNL A   1       8.705   1.439  27.118  1.00  0.00    +0.000 C 
ATOM     98  C73 UNL A   1       7.581   0.968  26.422  1.00  0.00    +0.000 C 
ATOM      3  C2  UNL A   1       7.684   0.489  25.107  1.00  0.00    +0.000 C 
ATOM      4  C3  UNL A   1       8.940   0.493  24.500  1.00  0.00    +0.000 C 
ATOM      5  C4  UNL A   1      10.060   0.951  25.194  1.00  0.00    +0.000 C 
ATOM    102  H4  UNL A   1       9.041   0.153  23.530  1.00  0.00    +0.000 H 
ATOM      6  C5  UNL A   1       9.963   1.428  26.512  1.00  0.00    +0.000 C 
ATOM    103  H5  UNL A   1      10.980   0.940  24.729  1.00  0.00    +0.000 H 
ATOM    148  H50 UNL A   1       8.601   1.797  28.080  1.00  0.00    +0.000 H 
ATOM    149  H51 UNL A   1       6.660   0.971  26.888  1.00  0.00    +0.000 H 
BRANCH    3    2
ATOM      2  S1  UNL A   1       6.194  -0.114  24.323  1.00  0.00    +0.000 S 
BRANCH    2    1
ATOM      1  C1  UNL A   1       5.022  -0.250  25.702  1.00  0.00    +0.000 C 
ATOM     99  H1  UNL A   1       4.361   0.591  25.693  1.00  0.00    +0.000 H 
ATOM    100  H2  UNL A   1       5.560  -0.270  26.627  1.00  0.00    +0.000 H 
ATOM    101  H3  UNL A   1       4.454  -1.152  25.601  1.00  0.00    +0.000 H 
ENDBRANCH    2    1
ENDBRANCH    3    2
ENDBRANCH    7    6
BRANCH    9   10
ATOM    105  H7  UNL A   1      11.922   5.781  28.036  1.00  0.00    +0.000 H 
ATOM     10  C9  UNL A   1      12.336   5.148  28.792  1.00  0.00    +0.000 C 
ATOM    106  H8  UNL A   1      13.349   5.388  29.041  1.00  0.00    +0.000 H 
BRANCH   10   11
ATOM     11  C10 UNL A   1      11.520   5.346  30.078  1.00  0.00    +0.000 C 
ATOM    108  H10 UNL A   1      11.864   3.305  30.676  1.00  0.00    +0.000 H 
ATOM     12  C11 UNL A   1      11.585   4.232  31.133  1.00  0.00    +0.000 C 
ATOM    107  H9  UNL A   1      10.536   5.415  29.668  1.00  0.00    +0.000 H 
ATOM     15  C14 UNL A   1      11.999   6.544  30.868  1.00  0.00    +0.000 C 
ATOM    109  H11 UNL A   1      10.634   4.083  31.602  1.00  0.00    +0.000 H 
ATOM     13  C12 UNL A   1      12.642   4.663  32.144  1.00  0.00    +0.000 C 
ATOM     14  C13 UNL A   1      12.504   6.175  32.237  1.00  0.00    +0.000 C 
ATOM     16  O1  UNL A   1      11.955   7.696  30.451  1.00  0.00    +0.000 O 
ATOM    110  H12 UNL A   1      13.620   4.394  31.803  1.00  0.00    +0.000 H 
ATOM    111  H13 UNL A   1      12.508   4.188  33.093  1.00  0.00    +0.000 H 
ATOM    112  H14 UNL A   1      13.448   6.637  32.438  1.00  0.00    +0.000 H 
ATOM    113  H15 UNL A   1      11.860   6.496  33.029  1.00  0.00    +0.000 H 
ENDBRANCH   10   11
ENDBRANCH    9   10
ENDBRANCH   20   19
BRANCH   20   21
ATOM    117  H19 UNL A   1      14.623   0.037  26.094  1.00  0.00    +0.000 H 
ATOM     21  C19 UNL A   1      13.823  -0.525  25.658  1.00  0.00    +0.000 C 
ATOM    118  H20 UNL A   1      13.722  -0.261  24.627  1.00  0.00    +0.000 H 
ATOM    119  H21 UNL A   1      14.035  -1.571  25.740  1.00  0.00    +0.000 H 
ENDBRANCH   20   21
ENDBRANCH   22   20
ENDBRANCH   24   22
ENDBRANCH   25   24
ENDBRANCH   26   25
ENDBRANCH   27   26
ENDBRANCH   28   27
ENDBRANCH   29   28
ENDBRANCH   30   29
ENDBRANCH   31   30
ENDBRANCH   32   31
ENDBRANCH   34   32
ENDBRANCH   38   37
BRANCH   42   43
ATOM     43  C36 UNL A   1      12.781   5.586  15.948  1.00  0.00    +0.000 C 
ATOM     44  C37 UNL A   1      14.169   5.775  16.009  1.00  0.00    +0.000 C 
ATOM     45  F1  UNL A   1      14.737   6.253  17.125  1.00  0.00    +0.000 F 
ATOM     46  C38 UNL A   1      14.977   5.510  14.905  1.00  0.00    +0.000 C 
ATOM     47  F2  UNL A   1      16.296   5.741  14.972  1.00  0.00    +0.000 F 
ATOM     48  C39 UNL A   1      14.417   5.018  13.735  1.00  0.00    +0.000 C 
ATOM     49  F3  UNL A   1      15.197   4.758  12.677  1.00  0.00    +0.000 F 
ATOM     50  C40 UNL A   1      13.050   4.805  13.660  1.00  0.00    +0.000 C 
ATOM     51  F4  UNL A   1      12.509   4.321  12.533  1.00  0.00    +0.000 F 
ATOM     52  C41 UNL A   1      12.236   5.096  14.751  1.00  0.00    +0.000 C 
ATOM     53  F5  UNL A   1      10.914   4.893  14.643  1.00  0.00    +0.000 F 
ENDBRANCH   42   43
BRANCH   59   60
ATOM     65  C50 UNL A   1       8.068  13.612  17.918  1.00  0.00    +0.000 C 
ATOM     66  F8  UNL A   1       7.720  14.863  17.587  1.00  0.00    +0.000 F 
ATOM     67  C51 UNL A   1       9.222  13.384  18.653  1.00  0.00    +0.000 C 
ATOM     68  F9  UNL A   1       9.979  14.417  19.047  1.00  0.00    +0.000 F 
ATOM     69  C52 UNL A   1       9.597  12.084  18.980  1.00  0.00    +0.000 C 
ATOM     70  F10 UNL A   1      10.724  11.893  19.680  1.00  0.00    +0.000 F 
ATOM     60  C47 UNL A   1       8.809  10.989  18.594  1.00  0.00    +0.000 C 
ATOM     61  C48 UNL A   1       7.637  11.242  17.866  1.00  0.00    +0.000 C 
ATOM     62  F6  UNL A   1       6.860  10.226  17.462  1.00  0.00    +0.000 F 
ATOM     63  C49 UNL A   1       7.280  12.543  17.520  1.00  0.00    +0.000 C 
ATOM     64  F7  UNL A   1       6.178  12.759  16.788  1.00  0.00    +0.000 F 
ENDBRANCH   59   60
BRANCH   74   75
ATOM     75  C56 UNL A   1       7.273   7.067  24.138  1.00  0.00    +0.000 C 
ATOM     76  C57 UNL A   1       5.955   6.600  24.247  1.00  0.00    +0.000 C 
ATOM     77  F11 UNL A   1       5.389   5.950  23.220  1.00  0.00    +0.000 F 
ATOM     78  C58 UNL A   1       5.202   6.835  25.395  1.00  0.00    +0.000 C 
ATOM     79  F12 UNL A   1       3.932   6.414  25.458  1.00  0.00    +0.000 F 
ATOM     80  C59 UNL A   1       5.762   7.516  26.467  1.00  0.00    +0.000 C 
ATOM     81  F13 UNL A   1       5.039   7.737  27.572  1.00  0.00    +0.000 F 
ATOM     82  C60 UNL A   1       7.069   7.971  26.387  1.00  0.00    +0.000 C 
ATOM     83  F14 UNL A   1       7.617   8.618  27.425  1.00  0.00    +0.000 F 
ATOM     84  C61 UNL A   1       7.815   7.759  25.230  1.00  0.00    +0.000 C 
ATOM     85  F15 UNL A   1       9.073   8.219  25.176  1.00  0.00    +0.000 F 
ENDBRANCH   74   75
TORSDOF 22
ENDMDL
MODEL 8
REMARK VINA RESULT:      -8.1     64.979     70.762
ROOT
ATOM    136  H38 UNL A   1      30.427 -16.291  34.285  1.00  0.00    +0.000 H 
ATOM    137  H39 UNL A   1      29.275 -15.794  36.571  1.00  0.00    +0.000 H 
ATOM    138  H40 UNL A   1      27.143 -13.865  33.592  1.00  0.00    +0.000 H 
ATOM    139  H41 UNL A   1      22.406  -9.959  31.847  1.00  0.00    +0.000 H 
ATOM    140  H42 UNL A   1      23.514 -10.470  29.619  1.00  0.00    +0.000 H 
ATOM    141  H43 UNL A   1      25.656 -12.443  32.587  1.00  0.00    +0.000 H 
ATOM    142  H44 UNL A   1      23.262 -11.472  36.899  1.00  0.00    +0.000 H 
ATOM    143  H45 UNL A   1      25.099 -12.814  38.071  1.00  0.00    +0.000 H 
ATOM    144  H46 UNL A   1      29.297 -14.983  29.206  1.00  0.00    +0.000 H 
ATOM    145  H47 UNL A   1      27.759 -13.281  28.066  1.00  0.00    +0.000 H 
ATOM     38  C32 UNL A   1      25.802 -12.161  29.808  1.00  0.00    +0.000 C 
ATOM     39  C33 UNL A   1      26.929 -13.088  30.168  1.00  0.00    +0.000 C 
ATOM     40  N3  UNL A   1      27.258 -13.577  31.338  1.00  0.00    +0.000 N 
ATOM     41  C34 UNL A   1      28.341 -14.414  31.105  1.00  0.00    +0.000 C 
ATOM     42  C35 UNL A   1      29.075 -15.115  32.004  1.00  0.00    +0.000 C 
ATOM     54  C42 UNL A   1      28.851 -15.095  33.426  1.00  0.00    +0.000 C 
ATOM     55  C43 UNL A   1      29.580 -15.719  34.423  1.00  0.00    +0.000 C 
ATOM     56  C44 UNL A   1      28.969 -15.441  35.652  1.00  0.00    +0.000 C 
ATOM     57  C45 UNL A   1      27.884 -14.610  35.421  1.00  0.00    +0.000 C 
ATOM     58  N4  UNL A   1      27.820 -14.411  34.052  1.00  0.00    +0.000 N 
ATOM     59  C46 UNL A   1      26.972 -14.040  36.380  1.00  0.00    +0.000 C 
ATOM     71  C53 UNL A   1      25.929 -13.231  36.075  1.00  0.00    +0.000 C 
ATOM     72  N5  UNL A   1      25.513 -12.775  34.832  1.00  0.00    +0.000 N 
ATOM     73  C54 UNL A   1      24.456 -12.033  35.056  1.00  0.00    +0.000 C 
ATOM     74  C55 UNL A   1      23.612 -11.264  34.078  1.00  0.00    +0.000 C 
ATOM     86  C62 UNL A   1      23.947 -11.267  32.774  1.00  0.00    +0.000 C 
ATOM     87  C63 UNL A   1      23.233 -10.562  31.713  1.00  0.00    +0.000 C 
ATOM     88  C64 UNL A   1      23.824 -10.824  30.537  1.00  0.00    +0.000 C 
ATOM     89  C65 UNL A   1      24.979 -11.694  30.766  1.00  0.00    +0.000 C 
ATOM     90  N6  UNL A   1      24.980 -11.897  32.123  1.00  0.00    +0.000 N 
ATOM     91  C66 UNL A   1      24.066 -11.956  36.471  1.00  0.00    +0.000 C 
ATOM     92  C67 UNL A   1      25.017 -12.673  37.053  1.00  0.00    +0.000 C 
ATOM     93  C68 UNL A   1      28.587 -14.403  29.680  1.00  0.00    +0.000 C 
ATOM     94  C69 UNL A   1      27.782 -13.550  29.063  1.00  0.00    +0.000 C 
ENDROOT
BRANCH   38   37
ATOM     34  C28 UNL A   1      25.125 -11.130  25.701  1.00  0.00    +0.000 C 
ATOM     35  C29 UNL A   1      24.682 -12.365  26.186  1.00  0.00    +0.000 C 
ATOM     36  C30 UNL A   1      24.880 -12.697  27.529  1.00  0.00    +0.000 C 
ATOM     37  C31 UNL A   1      25.548 -11.810  28.388  1.00  0.00    +0.000 C 
ATOM    134  H36 UNL A   1      24.210 -13.029  25.553  1.00  0.00    +0.000 H 
ATOM    135  H37 UNL A   1      24.533 -13.598  27.891  1.00  0.00    +0.000 H 
ATOM    146  H48 UNL A   1      26.474  -9.913  28.515  1.00  0.00    +0.000 H 
ATOM    147  H49 UNL A   1      25.977  -9.272  26.231  1.00  0.00    +0.000 H 
ATOM     95  C70 UNL A   1      25.973 -10.567  27.894  1.00  0.00    +0.000 C 
ATOM     96  C71 UNL A   1      25.722 -10.212  26.569  1.00  0.00    +0.000 C 
BRANCH   34   32
ATOM     33  O3  UNL A   1      23.818 -10.323  23.933  1.00  0.00    +0.000 O 
ATOM     32  C27 UNL A   1      24.889 -10.798  24.276  1.00  0.00    +0.000 C 
BRANCH   32   31
ATOM    133  H35 UNL A   1      25.564 -11.340  22.467  1.00  0.00    +0.000 H 
ATOM     31  N2  UNL A   1      25.875 -11.013  23.341  1.00  0.00    +0.000 N 
BRANCH   31   30
ATOM    131  H33 UNL A   1      27.679 -11.470  24.235  1.00  0.00    +0.000 H 
ATOM    132  H34 UNL A   1      27.757 -11.067  22.519  1.00  0.00    +0.000 H 
ATOM     30  C26 UNL A   1      27.311 -10.827  23.462  1.00  0.00    +0.000 C 
BRANCH   30   29
ATOM    129  H31 UNL A   1      26.773  -8.807  23.812  1.00  0.00    +0.000 H 
ATOM    130  H32 UNL A   1      28.166  -9.415  24.754  1.00  0.00    +0.000 H 
ATOM     29  C25 UNL A   1      27.675  -9.384  23.804  1.00  0.00    +0.000 C 
BRANCH   29   28
ATOM     28  C24 UNL A   1      28.656  -8.719  22.832  1.00  0.00    +0.000 C 
ATOM    127  H29 UNL A   1      28.305  -8.896  21.838  1.00  0.00    +0.000 H 
ATOM    128  H30 UNL A   1      28.681  -7.684  23.105  1.00  0.00    +0.000 H 
BRANCH   28   27
ATOM     27  C23 UNL A   1      30.108  -9.208  22.914  1.00  0.00    +0.000 C 
ATOM    125  H27 UNL A   1      30.104 -10.188  23.344  1.00  0.00    +0.000 H 
ATOM    126  H28 UNL A   1      30.487  -9.182  21.914  1.00  0.00    +0.000 H 
BRANCH   27   26
ATOM     26  C22 UNL A   1      31.044  -8.328  23.748  1.00  0.00    +0.000 C 
ATOM    123  H25 UNL A   1      31.160  -7.392  23.244  1.00  0.00    +0.000 H 
ATOM    124  H26 UNL A   1      30.592  -8.226  24.712  1.00  0.00    +0.000 H 
BRANCH   26   25
ATOM     25  C21 UNL A   1      32.435  -8.930  23.973  1.00  0.00    +0.000 C 
ATOM    122  H24 UNL A   1      32.946  -8.327  24.693  1.00  0.00    +0.000 H 
ATOM    121  H23 UNL A   1      32.960  -8.945  23.041  1.00  0.00    +0.000 H 
BRANCH   25   24
ATOM    120  H22 UNL A   1      31.516 -10.745  24.274  1.00  0.00    +0.000 H 
ATOM     24  N1  UNL A   1      32.357 -10.279  24.488  1.00  0.00    +0.000 N 
BRANCH   24   22
ATOM     22  C20 UNL A   1      33.234 -11.024  25.216  1.00  0.00    +0.000 C 
ATOM     23  O2  UNL A   1      33.485 -12.149  24.767  1.00  0.00    +0.000 O 
BRANCH   22   20
ATOM    116  H18 UNL A   1      34.423  -9.662  26.253  1.00  0.00    +0.000 H 
ATOM     20  C18 UNL A   1      33.894 -10.552  26.524  1.00  0.00    +0.000 C 
BRANCH   20   19
ATOM      7  C6  UNL A   1      32.125 -11.020  28.340  1.00  0.00    +0.000 C 
ATOM      8  C7  UNL A   1      31.283 -10.539  29.366  1.00  0.00    +0.000 C 
ATOM      9  C8  UNL A   1      31.098  -9.169  29.584  1.00  0.00    +0.000 C 
ATOM    104  H6  UNL A   1      30.792 -11.216  29.972  1.00  0.00    +0.000 H 
ATOM     17  C15 UNL A   1      31.807  -8.268  28.796  1.00  0.00    +0.000 C 
ATOM     18  C16 UNL A   1      32.668  -8.728  27.802  1.00  0.00    +0.000 C 
ATOM     19  C17 UNL A   1      32.880 -10.098  27.574  1.00  0.00    +0.000 C 
ATOM    115  H17 UNL A   1      33.166  -8.041  27.216  1.00  0.00    +0.000 H 
ATOM    114  H16 UNL A   1      31.694  -7.254  28.948  1.00  0.00    +0.000 H 
BRANCH    7    6
ATOM     97  C72 UNL A   1      32.877 -13.433  28.399  1.00  0.00    +0.000 C 
ATOM     98  C73 UNL A   1      32.720 -14.756  27.957  1.00  0.00    +0.000 C 
ATOM      3  C2  UNL A   1      31.676 -15.117  27.091  1.00  0.00    +0.000 C 
ATOM      4  C3  UNL A   1      30.791 -14.124  26.673  1.00  0.00    +0.000 C 
ATOM      5  C4  UNL A   1      30.954 -12.806  27.103  1.00  0.00    +0.000 C 
ATOM    102  H4  UNL A   1      30.011 -14.364  26.042  1.00  0.00    +0.000 H 
ATOM      6  C5  UNL A   1      31.998 -12.438  27.968  1.00  0.00    +0.000 C 
ATOM    103  H5  UNL A   1      30.292 -12.085  26.778  1.00  0.00    +0.000 H 
ATOM    148  H50 UNL A   1      33.645 -13.195  29.046  1.00  0.00    +0.000 H 
ATOM    149  H51 UNL A   1      33.385 -15.478  28.276  1.00  0.00    +0.000 H 
BRANCH    3    2
ATOM      2  S1  UNL A   1      31.583 -16.826  26.568  1.00  0.00    +0.000 S 
BRANCH    2    1
ATOM      1  C1  UNL A   1      33.320 -17.353  26.556  1.00  0.00    +0.000 C 
ATOM     99  H1  UNL A   1      33.920 -16.616  27.046  1.00  0.00    +0.000 H 
ATOM    100  H2  UNL A   1      33.651 -17.467  25.545  1.00  0.00    +0.000 H 
ATOM    101  H3  UNL A   1      33.412 -18.288  27.069  1.00  0.00    +0.000 H 
ENDBRANCH    2    1
ENDBRANCH    3    2
ENDBRANCH    7    6
BRANCH    9   10
ATOM    105  H7  UNL A   1      29.914  -7.621  30.371  1.00  0.00    +0.000 H 
ATOM     10  C9  UNL A   1      30.051  -8.667  30.547  1.00  0.00    +0.000 C 
ATOM    106  H8  UNL A   1      30.417  -8.890  31.528  1.00  0.00    +0.000 H 
BRANCH   10   11
ATOM     11  C10 UNL A   1      28.682  -9.353  30.435  1.00  0.00    +0.000 C 
ATOM    108  H10 UNL A   1      28.946 -10.317  32.343  1.00  0.00    +0.000 H 
ATOM     12  C11 UNL A   1      28.141 -10.058  31.687  1.00  0.00    +0.000 C 
ATOM    107  H9  UNL A   1      28.891 -10.066  29.666  1.00  0.00    +0.000 H 
ATOM     15  C14 UNL A   1      27.578  -8.361  30.141  1.00  0.00    +0.000 C 
ATOM    109  H11 UNL A   1      27.631 -10.965  31.435  1.00  0.00    +0.000 H 
ATOM     13  C12 UNL A   1      27.204  -9.064  32.365  1.00  0.00    +0.000 C 
ATOM     14  C13 UNL A   1      26.535  -8.313  31.224  1.00  0.00    +0.000 C 
ATOM     16  O1  UNL A   1      27.525  -7.687  29.119  1.00  0.00    +0.000 O 
ATOM    110  H12 UNL A   1      27.757  -8.390  32.986  1.00  0.00    +0.000 H 
ATOM    111  H13 UNL A   1      26.493  -9.550  32.999  1.00  0.00    +0.000 H 
ATOM    112  H14 UNL A   1      26.313  -7.304  31.503  1.00  0.00    +0.000 H 
ATOM    113  H15 UNL A   1      25.596  -8.736  30.930  1.00  0.00    +0.000 H 
ENDBRANCH   10   11
ENDBRANCH    9   10
ENDBRANCH   20   19
BRANCH   20   21
ATOM    117  H19 UNL A   1      34.660 -12.058  27.835  1.00  0.00    +0.000 H 
ATOM     21  C19 UNL A   1      35.028 -11.434  27.047  1.00  0.00    +0.000 C 
ATOM    118  H20 UNL A   1      35.818 -10.817  27.419  1.00  0.00    +0.000 H 
ATOM    119  H21 UNL A   1      35.399 -12.045  26.250  1.00  0.00    +0.000 H 
ENDBRANCH   20   21
ENDBRANCH   22   20
ENDBRANCH   24   22
ENDBRANCH   25   24
ENDBRANCH   26   25
ENDBRANCH   27   26
ENDBRANCH   28   27
ENDBRANCH   29   28
ENDBRANCH   30   29
ENDBRANCH   31   30
ENDBRANCH   32   31
ENDBRANCH   34   32
ENDBRANCH   38   37
BRANCH   42   43
ATOM     43  C36 UNL A   1      30.196 -15.960  31.475  1.00  0.00    +0.000 C 
ATOM     44  C37 UNL A   1      29.961 -17.221  30.908  1.00  0.00    +0.000 C 
ATOM     45  F1  UNL A   1      28.718 -17.724  30.873  1.00  0.00    +0.000 F 
ATOM     46  C38 UNL A   1      31.010 -17.990  30.409  1.00  0.00    +0.000 C 
ATOM     47  F2  UNL A   1      30.767 -19.211  29.913  1.00  0.00    +0.000 F 
ATOM     48  C39 UNL A   1      32.307 -17.497  30.435  1.00  0.00    +0.000 C 
ATOM     49  F3  UNL A   1      33.314 -18.235  29.949  1.00  0.00    +0.000 F 
ATOM     50  C40 UNL A   1      32.559 -16.244  30.973  1.00  0.00    +0.000 C 
ATOM     51  F4  UNL A   1      33.810 -15.764  30.989  1.00  0.00    +0.000 F 
ATOM     52  C41 UNL A   1      31.517 -15.486  31.498  1.00  0.00    +0.000 C 
ATOM     53  F5  UNL A   1      31.794 -14.283  32.024  1.00  0.00    +0.000 F 
ENDBRANCH   42   43
BRANCH   59   60
ATOM     65  C50 UNL A   1      27.693 -14.938  40.531  1.00  0.00    +0.000 C 
ATOM     66  F8  UNL A   1      27.920 -15.214  41.822  1.00  0.00    +0.000 F 
ATOM     67  C51 UNL A   1      28.471 -13.996  39.874  1.00  0.00    +0.000 C 
ATOM     68  F9  UNL A   1      29.463 -13.375  40.528  1.00  0.00    +0.000 F 
ATOM     69  C52 UNL A   1      28.223 -13.693  38.539  1.00  0.00    +0.000 C 
ATOM     70  F10 UNL A   1      28.984 -12.769  37.933  1.00  0.00    +0.000 F 
ATOM     60  C47 UNL A   1      27.202 -14.345  37.830  1.00  0.00    +0.000 C 
ATOM     61  C48 UNL A   1      26.438 -15.306  38.507  1.00  0.00    +0.000 C 
ATOM     62  F6  UNL A   1      25.441 -15.944  37.876  1.00  0.00    +0.000 F 
ATOM     63  C49 UNL A   1      26.674 -15.588  39.851  1.00  0.00    +0.000 C 
ATOM     64  F7  UNL A   1      25.904 -16.479  40.490  1.00  0.00    +0.000 F 
ENDBRANCH   59   60
BRANCH   74   75
ATOM     75  C56 UNL A   1      22.437 -10.482  34.537  1.00  0.00    +0.000 C 
ATOM     76  C57 UNL A   1      22.598  -9.198  35.077  1.00  0.00    +0.000 C 
ATOM     77  F11 UNL A   1      23.827  -8.676  35.205  1.00  0.00    +0.000 F 
ATOM     78  C58 UNL A   1      21.502  -8.463  35.525  1.00  0.00    +0.000 C 
ATOM     79  F12 UNL A   1      21.687  -7.256  36.074  1.00  0.00    +0.000 F 
ATOM     80  C59 UNL A   1      20.222  -8.986  35.414  1.00  0.00    +0.000 C 
ATOM     81  F13 UNL A   1      19.168  -8.278  35.839  1.00  0.00    +0.000 F 
ATOM     82  C60 UNL A   1      20.038 -10.248  34.866  1.00  0.00    +0.000 C 
ATOM     83  F14 UNL A   1      18.802 -10.751  34.747  1.00  0.00    +0.000 F 
ATOM     84  C61 UNL A   1      21.135 -10.993  34.443  1.00  0.00    +0.000 C 
ATOM     85  F15 UNL A   1      20.929 -12.214  33.927  1.00  0.00    +0.000 F 
ENDBRANCH   74   75
TORSDOF 22
ENDMDL
MODEL 9
REMARK VINA RESULT:      -8.1     44.325     47.711
ROOT
ATOM    136  H38 UNL A   1      24.589  42.752  48.595  1.00  0.00    +0.000 H 
ATOM    137  H39 UNL A   1      22.673  43.960  49.888  1.00  0.00    +0.000 H 
ATOM    138  H40 UNL A   1      21.448  40.093  49.063  1.00  0.00    +0.000 H 
ATOM    139  H41 UNL A   1      16.928  35.589  49.215  1.00  0.00    +0.000 H 
ATOM    140  H42 UNL A   1      18.807  34.406  47.981  1.00  0.00    +0.000 H 
ATOM    141  H43 UNL A   1      20.075  38.275  48.823  1.00  0.00    +0.000 H 
ATOM    142  H44 UNL A   1      16.331  40.430  51.394  1.00  0.00    +0.000 H 
ATOM    143  H45 UNL A   1      17.741  42.567  51.403  1.00  0.00    +0.000 H 
ATOM    144  H46 UNL A   1      25.221  37.763  46.724  1.00  0.00    +0.000 H 
ATOM    145  H47 UNL A   1      23.667  35.773  46.293  1.00  0.00    +0.000 H 
ATOM     38  C32 UNL A   1      21.121  36.015  47.549  1.00  0.00    +0.000 C 
ATOM     39  C33 UNL A   1      22.218  37.041  47.493  1.00  0.00    +0.000 C 
ATOM     40  N3  UNL A   1      22.249  38.250  47.995  1.00  0.00    +0.000 N 
ATOM     41  C34 UNL A   1      23.511  38.749  47.700  1.00  0.00    +0.000 C 
ATOM     42  C35 UNL A   1      24.015  39.979  47.962  1.00  0.00    +0.000 C 
ATOM     54  C42 UNL A   1      23.283  41.035  48.611  1.00  0.00    +0.000 C 
ATOM     55  C43 UNL A   1      23.684  42.335  48.864  1.00  0.00    +0.000 C 
ATOM     56  C44 UNL A   1      22.650  42.988  49.546  1.00  0.00    +0.000 C 
ATOM     57  C45 UNL A   1      21.591  42.105  49.682  1.00  0.00    +0.000 C 
ATOM     58  N4  UNL A   1      21.995  40.909  49.109  1.00  0.00    +0.000 N 
ATOM     59  C46 UNL A   1      20.305  42.333  50.289  1.00  0.00    +0.000 C 
ATOM     71  C53 UNL A   1      19.315  41.414  50.383  1.00  0.00    +0.000 C 
ATOM     72  N5  UNL A   1      19.298  40.100  49.935  1.00  0.00    +0.000 N 
ATOM     73  C54 UNL A   1      18.126  39.620  50.270  1.00  0.00    +0.000 C 
ATOM     74  C55 UNL A   1      17.551  38.255  50.012  1.00  0.00    +0.000 C 
ATOM     86  C62 UNL A   1      18.273  37.356  49.318  1.00  0.00    +0.000 C 
ATOM     87  C63 UNL A   1      17.844  36.002  48.981  1.00  0.00    +0.000 C 
ATOM     88  C64 UNL A   1      18.834  35.380  48.321  1.00  0.00    +0.000 C 
ATOM     89  C65 UNL A   1      19.957  36.305  48.162  1.00  0.00    +0.000 C 
ATOM     90  N6  UNL A   1      19.531  37.456  48.775  1.00  0.00    +0.000 N 
ATOM     91  C66 UNL A   1      17.273  40.572  50.995  1.00  0.00    +0.000 C 
ATOM     92  C67 UNL A   1      18.030  41.660  51.005  1.00  0.00    +0.000 C 
ATOM     93  C68 UNL A   1      24.232  37.699  47.014  1.00  0.00    +0.000 C 
ATOM     94  C69 UNL A   1      23.457  36.645  46.804  1.00  0.00    +0.000 C 
ENDROOT
BRANCH   38   37
ATOM     34  C28 UNL A   1      21.780  32.113  45.896  1.00  0.00    +0.000 C 
ATOM     35  C29 UNL A   1      22.053  32.347  47.249  1.00  0.00    +0.000 C 
ATOM     36  C30 UNL A   1      21.819  33.611  47.798  1.00  0.00    +0.000 C 
ATOM     37  C31 UNL A   1      21.339  34.656  46.994  1.00  0.00    +0.000 C 
ATOM    134  H36 UNL A   1      22.426  31.588  47.839  1.00  0.00    +0.000 H 
ATOM    135  H37 UNL A   1      21.999  33.775  48.800  1.00  0.00    +0.000 H 
ATOM    146  H48 UNL A   1      20.710  35.170  45.041  1.00  0.00    +0.000 H 
ATOM    147  H49 UNL A   1      20.954  32.936  44.135  1.00  0.00    +0.000 H 
ATOM     95  C70 UNL A   1      21.053  34.405  45.642  1.00  0.00    +0.000 C 
ATOM     96  C71 UNL A   1      21.230  33.129  45.110  1.00  0.00    +0.000 C 
BRANCH   34   32
ATOM     33  O3  UNL A   1      21.170  29.895  45.460  1.00  0.00    +0.000 O 
ATOM     32  C27 UNL A   1      22.023  30.760  45.344  1.00  0.00    +0.000 C 
BRANCH   32   31
ATOM    133  H35 UNL A   1      23.367  31.004  43.876  1.00  0.00    +0.000 H 
ATOM     31  N2  UNL A   1      23.202  30.480  44.692  1.00  0.00    +0.000 N 
BRANCH   31   30
ATOM    131  H33 UNL A   1      23.835  28.532  44.948  1.00  0.00    +0.000 H 
ATOM    132  H34 UNL A   1      25.058  29.663  44.364  1.00  0.00    +0.000 H 
ATOM     30  C26 UNL A   1      24.237  29.520  45.036  1.00  0.00    +0.000 C 
BRANCH   30   29
ATOM    129  H31 UNL A   1      23.934  30.056  47.065  1.00  0.00    +0.000 H 
ATOM    130  H32 UNL A   1      25.146  28.775  46.772  1.00  0.00    +0.000 H 
ATOM     29  C25 UNL A   1      24.751  29.719  46.461  1.00  0.00    +0.000 C 
BRANCH   29   28
ATOM     28  C24 UNL A   1      25.894  30.732  46.597  1.00  0.00    +0.000 C 
ATOM    127  H29 UNL A   1      26.380  30.555  47.532  1.00  0.00    +0.000 H 
ATOM    128  H30 UNL A   1      26.523  30.577  45.745  1.00  0.00    +0.000 H 
BRANCH   28   27
ATOM     27  C23 UNL A   1      25.483  32.209  46.551  1.00  0.00    +0.000 C 
ATOM    125  H27 UNL A   1      24.427  32.265  46.715  1.00  0.00    +0.000 H 
ATOM    126  H28 UNL A   1      26.059  32.702  47.306  1.00  0.00    +0.000 H 
BRANCH   27   26
ATOM     26  C22 UNL A   1      25.797  32.930  45.236  1.00  0.00    +0.000 C 
ATOM    123  H25 UNL A   1      26.829  33.212  45.247  1.00  0.00    +0.000 H 
ATOM    124  H26 UNL A   1      25.563  32.247  44.447  1.00  0.00    +0.000 H 
BRANCH   26   25
ATOM     25  C21 UNL A   1      24.957  34.188  44.995  1.00  0.00    +0.000 C 
ATOM    122  H24 UNL A   1      24.454  34.432  45.907  1.00  0.00    +0.000 H 
ATOM    121  H23 UNL A   1      24.257  33.992  44.210  1.00  0.00    +0.000 H 
BRANCH   25   24
ATOM    120  H22 UNL A   1      25.335  35.954  44.011  1.00  0.00    +0.000 H 
ATOM     24  N1  UNL A   1      25.779  35.317  44.617  1.00  0.00    +0.000 N 
BRANCH   24   22
ATOM     22  C20 UNL A   1      27.055  35.659  44.945  1.00  0.00    +0.000 C 
ATOM     23  O2  UNL A   1      27.867  35.662  44.010  1.00  0.00    +0.000 O 
BRANCH   22   20
ATOM    116  H18 UNL A   1      26.623  36.314  46.875  1.00  0.00    +0.000 H 
ATOM     20  C18 UNL A   1      27.517  36.019  46.368  1.00  0.00    +0.000 C 
BRANCH   20   19
ATOM      7  C6  UNL A   1      27.411  34.374  48.350  1.00  0.00    +0.000 C 
ATOM      8  C7  UNL A   1      27.867  33.190  48.970  1.00  0.00    +0.000 C 
ATOM      9  C8  UNL A   1      28.978  32.488  48.488  1.00  0.00    +0.000 C 
ATOM    104  H6  UNL A   1      27.368  32.833  49.800  1.00  0.00    +0.000 H 
ATOM     17  C15 UNL A   1      29.610  32.950  47.337  1.00  0.00    +0.000 C 
ATOM     18  C16 UNL A   1      29.150  34.098  46.695  1.00  0.00    +0.000 C 
ATOM     19  C17 UNL A   1      28.029  34.811  47.153  1.00  0.00    +0.000 C 
ATOM    115  H17 UNL A   1      29.648  34.434  45.856  1.00  0.00    +0.000 H 
ATOM    114  H16 UNL A   1      30.423  32.441  46.959  1.00  0.00    +0.000 H 
BRANCH    7    6
ATOM     97  C72 UNL A   1      26.816  36.441  49.678  1.00  0.00    +0.000 C 
ATOM     98  C73 UNL A   1      25.875  37.162  50.430  1.00  0.00    +0.000 C 
ATOM      3  C2  UNL A   1      24.568  36.684  50.615  1.00  0.00    +0.000 C 
ATOM      4  C3  UNL A   1      24.222  35.467  50.031  1.00  0.00    +0.000 C 
ATOM      5  C4  UNL A   1      25.160  34.744  49.292  1.00  0.00    +0.000 C 
ATOM    102  H4  UNL A   1      23.265  35.097  50.145  1.00  0.00    +0.000 H 
ATOM      6  C5  UNL A   1      26.470  35.215  49.106  1.00  0.00    +0.000 C 
ATOM    103  H5  UNL A   1      24.885  33.843  48.873  1.00  0.00    +0.000 H 
ATOM    148  H50 UNL A   1      27.767  36.819  49.546  1.00  0.00    +0.000 H 
ATOM    149  H51 UNL A   1      26.150  38.061  50.856  1.00  0.00    +0.000 H 
BRANCH    3    2
ATOM      2  S1  UNL A   1      23.457  37.669  51.613  1.00  0.00    +0.000 S 
BRANCH    2    1
ATOM      1  C1  UNL A   1      21.877  36.787  51.470  1.00  0.00    +0.000 C 
ATOM     99  H1  UNL A   1      22.044  35.736  51.574  1.00  0.00    +0.000 H 
ATOM    100  H2  UNL A   1      21.443  36.986  50.513  1.00  0.00    +0.000 H 
ATOM    101  H3  UNL A   1      21.212  37.121  52.240  1.00  0.00    +0.000 H 
ENDBRANCH    2    1
ENDBRANCH    3    2
ENDBRANCH    7    6
BRANCH    9   10
ATOM    105  H7  UNL A   1      30.231  31.751  50.006  1.00  0.00    +0.000 H 
ATOM     10  C9  UNL A   1      29.574  31.342  49.267  1.00  0.00    +0.000 C 
ATOM    106  H8  UNL A   1      30.071  30.722  48.551  1.00  0.00    +0.000 H 
BRANCH   10   11
ATOM     11  C10 UNL A   1      28.555  30.441  49.980  1.00  0.00    +0.000 C 
ATOM    108  H10 UNL A   1      27.860  29.646  48.103  1.00  0.00    +0.000 H 
ATOM     12  C11 UNL A   1      27.848  29.371  49.137  1.00  0.00    +0.000 C 
ATOM    107  H9  UNL A   1      27.855  31.177  50.314  1.00  0.00    +0.000 H 
ATOM     15  C14 UNL A   1      29.205  29.602  51.058  1.00  0.00    +0.000 C 
ATOM    109  H11 UNL A   1      26.823  29.261  49.427  1.00  0.00    +0.000 H 
ATOM     13  C12 UNL A   1      28.626  28.077  49.350  1.00  0.00    +0.000 C 
ATOM     14  C13 UNL A   1      29.080  28.125  50.801  1.00  0.00    +0.000 C 
ATOM     16  O1  UNL A   1      29.752  30.073  52.049  1.00  0.00    +0.000 O 
ATOM    110  H12 UNL A   1      29.470  28.034  48.693  1.00  0.00    +0.000 H 
ATOM    111  H13 UNL A   1      28.032  27.211  49.142  1.00  0.00    +0.000 H 
ATOM    112  H14 UNL A   1      30.020  27.629  50.928  1.00  0.00    +0.000 H 
ATOM    113  H15 UNL A   1      28.409  27.631  51.473  1.00  0.00    +0.000 H 
ENDBRANCH   10   11
ENDBRANCH    9   10
ENDBRANCH   20   19
BRANCH   20   21
ATOM    117  H19 UNL A   1      29.176  37.237  45.786  1.00  0.00    +0.000 H 
ATOM     21  C19 UNL A   1      28.367  37.285  46.485  1.00  0.00    +0.000 C 
ATOM    118  H20 UNL A   1      28.757  37.361  47.478  1.00  0.00    +0.000 H 
ATOM    119  H21 UNL A   1      27.761  38.141  46.273  1.00  0.00    +0.000 H 
ENDBRANCH   20   21
ENDBRANCH   22   20
ENDBRANCH   24   22
ENDBRANCH   25   24
ENDBRANCH   26   25
ENDBRANCH   27   26
ENDBRANCH   28   27
ENDBRANCH   29   28
ENDBRANCH   30   29
ENDBRANCH   31   30
ENDBRANCH   32   31
ENDBRANCH   34   32
ENDBRANCH   38   37
BRANCH   42   43
ATOM     43  C36 UNL A   1      25.428  40.254  47.538  1.00  0.00    +0.000 C 
ATOM     44  C37 UNL A   1      25.767  40.440  46.190  1.00  0.00    +0.000 C 
ATOM     45  F1  UNL A   1      24.832  40.324  45.236  1.00  0.00    +0.000 F 
ATOM     46  C38 UNL A   1      27.082  40.708  45.811  1.00  0.00    +0.000 C 
ATOM     47  F2  UNL A   1      27.390  40.836  44.514  1.00  0.00    +0.000 F 
ATOM     48  C39 UNL A   1      28.072  40.829  46.775  1.00  0.00    +0.000 C 
ATOM     49  F3  UNL A   1      29.334  41.093  46.410  1.00  0.00    +0.000 F 
ATOM     50  C40 UNL A   1      27.754  40.669  48.115  1.00  0.00    +0.000 C 
ATOM     51  F4  UNL A   1      28.708  40.797  49.048  1.00  0.00    +0.000 F 
ATOM     52  C41 UNL A   1      26.448  40.374  48.495  1.00  0.00    +0.000 C 
ATOM     53  F5  UNL A   1      26.175  40.211  49.798  1.00  0.00    +0.000 F 
ENDBRANCH   42   43
BRANCH   59   60
ATOM     65  C50 UNL A   1      19.464  46.229  51.924  1.00  0.00    +0.000 C 
ATOM     66  F8  UNL A   1      19.205  47.440  52.436  1.00  0.00    +0.000 F 
ATOM     67  C51 UNL A   1      20.020  45.241  52.723  1.00  0.00    +0.000 C 
ATOM     68  F9  UNL A   1      20.280  45.493  54.013  1.00  0.00    +0.000 F 
ATOM     69  C52 UNL A   1      20.310  43.990  52.187  1.00  0.00    +0.000 C 
ATOM     70  F10 UNL A   1      20.858  43.058  52.981  1.00  0.00    +0.000 F 
ATOM     60  C47 UNL A   1      20.028  43.699  50.844  1.00  0.00    +0.000 C 
ATOM     61  C48 UNL A   1      19.450  44.706  50.057  1.00  0.00    +0.000 C 
ATOM     62  F6  UNL A   1      19.177  44.479  48.764  1.00  0.00    +0.000 F 
ATOM     63  C49 UNL A   1      19.185  45.965  50.591  1.00  0.00    +0.000 C 
ATOM     64  F7  UNL A   1      18.672  46.926  49.811  1.00  0.00    +0.000 F 
ENDBRANCH   59   60
BRANCH   74   75
ATOM     75  C56 UNL A   1      16.189  37.901  50.487  1.00  0.00    +0.000 C 
ATOM     76  C57 UNL A   1      15.944  37.658  51.846  1.00  0.00    +0.000 C 
ATOM     77  F11 UNL A   1      16.953  37.721  52.728  1.00  0.00    +0.000 F 
ATOM     78  C58 UNL A   1      14.673  37.309  52.297  1.00  0.00    +0.000 C 
ATOM     79  F12 UNL A   1      14.475  37.042  53.594  1.00  0.00    +0.000 F 
ATOM     80  C59 UNL A   1      13.617  37.226  51.402  1.00  0.00    +0.000 C 
ATOM     81  F13 UNL A   1      12.394  36.896  51.835  1.00  0.00    +0.000 F 
ATOM     82  C60 UNL A   1      13.832  37.479  50.055  1.00  0.00    +0.000 C 
ATOM     83  F14 UNL A   1      12.812  37.411  49.190  1.00  0.00    +0.000 F 
ATOM     84  C61 UNL A   1      15.108  37.802  49.600  1.00  0.00    +0.000 C 
ATOM     85  F15 UNL A   1      15.291  38.032  48.291  1.00  0.00    +0.000 F 
ENDBRANCH   74   75
TORSDOF 22
ENDMDL
MODEL 10
REMARK VINA RESULT:      -8.1     43.326     47.307
ROOT
ATOM    136  H38 UNL A   1      18.573  33.883  47.175  1.00  0.00    +0.000 H 
ATOM    137  H39 UNL A   1      18.087  35.716  48.965  1.00  0.00    +0.000 H 
ATOM    138  H40 UNL A   1      22.034  36.078  47.770  1.00  0.00    +0.000 H 
ATOM    139  H41 UNL A   1      27.742  38.872  48.365  1.00  0.00    +0.000 H 
ATOM    140  H42 UNL A   1      28.204  37.104  46.601  1.00  0.00    +0.000 H 
ATOM    141  H43 UNL A   1      24.228  36.737  47.760  1.00  0.00    +0.000 H 
ATOM    142  H44 UNL A   1      23.423  40.387  51.121  1.00  0.00    +0.000 H 
ATOM    143  H45 UNL A   1      21.049  39.463  51.363  1.00  0.00    +0.000 H 
ATOM    144  H46 UNL A   1      22.874  32.644  44.216  1.00  0.00    +0.000 H 
ATOM    145  H47 UNL A   1      25.364  33.240  44.290  1.00  0.00    +0.000 H 
ATOM     38  C32 UNL A   1      25.960  35.459  45.975  1.00  0.00    +0.000 C 
ATOM     39  C33 UNL A   1      24.635  34.772  45.795  1.00  0.00    +0.000 C 
ATOM     40  N3  UNL A   1      23.484  35.032  46.361  1.00  0.00    +0.000 N 
ATOM     41  C34 UNL A   1      22.580  34.135  45.808  1.00  0.00    +0.000 C 
ATOM     42  C35 UNL A   1      21.268  33.968  46.103  1.00  0.00    +0.000 C 
ATOM     54  C42 UNL A   1      20.558  34.723  47.102  1.00  0.00    +0.000 C 
ATOM     55  C43 UNL A   1      19.246  34.584  47.520  1.00  0.00    +0.000 C 
ATOM     56  C44 UNL A   1      18.989  35.560  48.490  1.00  0.00    +0.000 C 
ATOM     57  C45 UNL A   1      20.154  36.279  48.705  1.00  0.00    +0.000 C 
ATOM     58  N4  UNL A   1      21.106  35.759  47.844  1.00  0.00    +0.000 N 
ATOM     59  C46 UNL A   1      20.382  37.361  49.629  1.00  0.00    +0.000 C 
ATOM     71  C53 UNL A   1      21.558  38.017  49.783  1.00  0.00    +0.000 C 
ATOM     72  N5  UNL A   1      22.763  37.813  49.127  1.00  0.00    +0.000 N 
ATOM     73  C54 UNL A   1      23.593  38.702  49.614  1.00  0.00    +0.000 C 
ATOM     74  C55 UNL A   1      25.045  38.924  49.289  1.00  0.00    +0.000 C 
ATOM     86  C62 UNL A   1      25.653  38.111  48.404  1.00  0.00    +0.000 C 
ATOM     87  C63 UNL A   1      27.053  38.196  47.999  1.00  0.00    +0.000 C 
ATOM     88  C64 UNL A   1      27.299  37.255  47.073  1.00  0.00    +0.000 C 
ATOM     89  C65 UNL A   1      26.079  36.481  46.843  1.00  0.00    +0.000 C 
ATOM     90  N6  UNL A   1      25.157  37.053  47.682  1.00  0.00    +0.000 N 
ATOM     91  C66 UNL A   1      22.996  39.592  50.619  1.00  0.00    +0.000 C 
ATOM     92  C67 UNL A   1      21.766  39.109  50.712  1.00  0.00    +0.000 C 
ATOM     93  C68 UNL A   1      23.304  33.353  44.831  1.00  0.00    +0.000 C 
ATOM     94  C69 UNL A   1      24.592  33.664  44.829  1.00  0.00    +0.000 C 
ENDROOT
BRANCH   38   37
ATOM     34  C28 UNL A   1      29.332  34.363  43.561  1.00  0.00    +0.000 C 
ATOM     35  C29 UNL A   1      29.317  34.033  44.921  1.00  0.00    +0.000 C 
ATOM     36  C30 UNL A   1      28.212  34.367  45.707  1.00  0.00    +0.000 C 
ATOM     37  C31 UNL A   1      27.127  35.060  45.147  1.00  0.00    +0.000 C 
ATOM    134  H36 UNL A   1      30.122  33.543  45.342  1.00  0.00    +0.000 H 
ATOM    135  H37 UNL A   1      28.193  34.103  46.704  1.00  0.00    +0.000 H 
ATOM    146  H48 UNL A   1      26.358  35.890  43.361  1.00  0.00    +0.000 H 
ATOM    147  H49 UNL A   1      28.199  35.157  41.966  1.00  0.00    +0.000 H 
ATOM     95  C70 UNL A   1      27.145  35.372  43.779  1.00  0.00    +0.000 C 
ATOM     96  C71 UNL A   1      28.222  34.985  42.983  1.00  0.00    +0.000 C 
BRANCH   34   32
ATOM     33  O3  UNL A   1      30.413  33.100  41.912  1.00  0.00    +0.000 O 
ATOM     32  C27 UNL A   1      30.512  33.983  42.749  1.00  0.00    +0.000 C 
BRANCH   32   31
ATOM    133  H35 UNL A   1      32.514  34.088  42.748  1.00  0.00    +0.000 H 
ATOM     31  N2  UNL A   1      31.713  34.630  42.926  1.00  0.00    +0.000 N 
BRANCH   31   30
ATOM    131  H33 UNL A   1      31.596  36.136  44.332  1.00  0.00    +0.000 H 
ATOM    132  H34 UNL A   1      33.023  36.169  43.293  1.00  0.00    +0.000 H 
ATOM     30  C26 UNL A   1      31.967  36.000  43.337  1.00  0.00    +0.000 C 
BRANCH   30   29
ATOM    129  H31 UNL A   1      31.998  37.318  41.676  1.00  0.00    +0.000 H 
ATOM    130  H32 UNL A   1      30.435  36.512  42.000  1.00  0.00    +0.000 H 
ATOM     29  C25 UNL A   1      31.287  37.010  42.415  1.00  0.00    +0.000 C 
BRANCH   29   28
ATOM     28  C24 UNL A   1      30.755  38.266  43.115  1.00  0.00    +0.000 C 
ATOM    127  H29 UNL A   1      31.594  38.866  43.395  1.00  0.00    +0.000 H 
ATOM    128  H30 UNL A   1      30.100  38.737  42.411  1.00  0.00    +0.000 H 
BRANCH   28   27
ATOM     27  C23 UNL A   1      29.910  38.019  44.371  1.00  0.00    +0.000 C 
ATOM    125  H27 UNL A   1      28.916  37.774  44.060  1.00  0.00    +0.000 H 
ATOM    126  H28 UNL A   1      30.396  37.231  44.907  1.00  0.00    +0.000 H 
BRANCH   27   26
ATOM     26  C22 UNL A   1      29.826  39.203  45.340  1.00  0.00    +0.000 C 
ATOM    123  H25 UNL A   1      29.652  38.819  46.324  1.00  0.00    +0.000 H 
ATOM    124  H26 UNL A   1      30.752  39.733  45.261  1.00  0.00    +0.000 H 
BRANCH   26   25
ATOM     25  C21 UNL A   1      28.714  40.205  45.011  1.00  0.00    +0.000 C 
ATOM    122  H24 UNL A   1      27.933  40.083  45.731  1.00  0.00    +0.000 H 
ATOM    121  H23 UNL A   1      28.358  40.013  44.020  1.00  0.00    +0.000 H 
BRANCH   25   24
ATOM    120  H22 UNL A   1      29.469  41.944  44.217  1.00  0.00    +0.000 H 
ATOM     24  N1  UNL A   1      29.186  41.570  45.082  1.00  0.00    +0.000 N 
BRANCH   24   22
ATOM     22  C20 UNL A   1      29.310  42.433  46.128  1.00  0.00    +0.000 C 
ATOM     23  O2  UNL A   1      28.421  43.289  46.226  1.00  0.00    +0.000 O 
BRANCH   22   20
ATOM    116  H18 UNL A   1      30.799  41.384  47.141  1.00  0.00    +0.000 H 
ATOM     20  C18 UNL A   1      30.463  42.399  47.147  1.00  0.00    +0.000 C 
BRANCH   20   19
ATOM      7  C6  UNL A   1      32.814  42.608  46.110  1.00  0.00    +0.000 C 
ATOM      8  C7  UNL A   1      33.857  43.426  45.625  1.00  0.00    +0.000 C 
ATOM      9  C8  UNL A   1      33.845  44.815  45.799  1.00  0.00    +0.000 C 
ATOM    104  H6  UNL A   1      34.650  42.989  45.128  1.00  0.00    +0.000 H 
ATOM     17  C15 UNL A   1      32.747  45.398  46.423  1.00  0.00    +0.000 C 
ATOM     18  C16 UNL A   1      31.694  44.607  46.877  1.00  0.00    +0.000 C 
ATOM     19  C17 UNL A   1      31.678  43.213  46.701  1.00  0.00    +0.000 C 
ATOM    115  H17 UNL A   1      30.900  45.060  47.357  1.00  0.00    +0.000 H 
ATOM    114  H16 UNL A   1      32.713  46.421  46.551  1.00  0.00    +0.000 H 
BRANCH    7    6
ATOM     97  C72 UNL A   1      33.115  40.445  47.383  1.00  0.00    +0.000 C 
ATOM     98  C73 UNL A   1      33.413  39.073  47.375  1.00  0.00    +0.000 C 
ATOM      3  C2  UNL A   1      33.655  38.385  46.176  1.00  0.00    +0.000 C 
ATOM      4  C3  UNL A   1      33.593  39.100  44.981  1.00  0.00    +0.000 C 
ATOM      5  C4  UNL A   1      33.307  40.466  44.988  1.00  0.00    +0.000 C 
ATOM    102  H4  UNL A   1      33.759  38.616  44.084  1.00  0.00    +0.000 H 
ATOM      6  C5  UNL A   1      33.067  41.161  46.185  1.00  0.00    +0.000 C 
ATOM    103  H5  UNL A   1      33.271  40.977  44.093  1.00  0.00    +0.000 H 
ATOM    148  H50 UNL A   1      32.929  40.926  48.277  1.00  0.00    +0.000 H 
ATOM    149  H51 UNL A   1      33.456  38.561  48.270  1.00  0.00    +0.000 H 
BRANCH    3    2
ATOM      2  S1  UNL A   1      34.053  36.644  46.282  1.00  0.00    +0.000 S 
BRANCH    2    1
ATOM      1  C1  UNL A   1      35.854  36.614  46.058  1.00  0.00    +0.000 C 
ATOM     99  H1  UNL A   1      36.112  37.146  45.167  1.00  0.00    +0.000 H 
ATOM    100  H2  UNL A   1      36.187  35.600  45.977  1.00  0.00    +0.000 H 
ATOM    101  H3  UNL A   1      36.326  37.078  46.900  1.00  0.00    +0.000 H 
ENDBRANCH    2    1
ENDBRANCH    3    2
ENDBRANCH    7    6
BRANCH    9   10
ATOM    105  H7  UNL A   1      35.925  45.114  45.748  1.00  0.00    +0.000 H 
ATOM     10  C9  UNL A   1      35.050  45.655  45.455  1.00  0.00    +0.000 C 
ATOM    106  H8  UNL A   1      34.927  46.581  45.976  1.00  0.00    +0.000 H 
BRANCH   10   11
ATOM     11  C10 UNL A   1      35.189  46.014  43.968  1.00  0.00    +0.000 C 
ATOM    108  H10 UNL A   1      35.178  48.121  44.420  1.00  0.00    +0.000 H 
ATOM     12  C11 UNL A   1      35.491  47.479  43.622  1.00  0.00    +0.000 C 
ATOM    107  H9  UNL A   1      34.217  45.741  43.617  1.00  0.00    +0.000 H 
ATOM     15  C14 UNL A   1      36.356  45.300  43.323  1.00  0.00    +0.000 C 
ATOM    109  H11 UNL A   1      34.968  47.788  42.740  1.00  0.00    +0.000 H 
ATOM     13  C12 UNL A   1      37.002  47.569  43.432  1.00  0.00    +0.000 C 
ATOM     14  C13 UNL A   1      37.397  46.247  42.792  1.00  0.00    +0.000 C 
ATOM     16  O1  UNL A   1      36.434  44.081  43.219  1.00  0.00    +0.000 O 
ATOM    110  H12 UNL A   1      37.492  47.693  44.375  1.00  0.00    +0.000 H 
ATOM    111  H13 UNL A   1      37.282  48.408  42.829  1.00  0.00    +0.000 H 
ATOM    112  H14 UNL A   1      38.380  45.950  43.094  1.00  0.00    +0.000 H 
ATOM    113  H15 UNL A   1      37.432  46.286  41.723  1.00  0.00    +0.000 H 
ENDBRANCH   10   11
ENDBRANCH    9   10
ENDBRANCH   20   19
BRANCH   20   21
ATOM    117  H19 UNL A   1      29.271  43.303  48.676  1.00  0.00    +0.000 H 
ATOM     21  C19 UNL A   1      30.056  42.578  48.610  1.00  0.00    +0.000 C 
ATOM    118  H20 UNL A   1      30.899  42.911  49.177  1.00  0.00    +0.000 H 
ATOM    119  H21 UNL A   1      29.711  41.642  49.000  1.00  0.00    +0.000 H 
ENDBRANCH   20   21
ENDBRANCH   22   20
ENDBRANCH   24   22
ENDBRANCH   25   24
ENDBRANCH   26   25
ENDBRANCH   27   26
ENDBRANCH   28   27
ENDBRANCH   29   28
ENDBRANCH   30   29
ENDBRANCH   31   30
ENDBRANCH   32   31
ENDBRANCH   34   32
ENDBRANCH   38   37
BRANCH   42   43
ATOM     43  C36 UNL A   1      20.512  32.921  45.338  1.00  0.00    +0.000 C 
ATOM     44  C37 UNL A   1      20.577  31.565  45.691  1.00  0.00    +0.000 C 
ATOM     45  F1  UNL A   1      21.364  31.167  46.701  1.00  0.00    +0.000 F 
ATOM     46  C38 UNL A   1      19.860  30.605  44.980  1.00  0.00    +0.000 C 
ATOM     47  F2  UNL A   1      19.973  29.310  45.306  1.00  0.00    +0.000 F 
ATOM     48  C39 UNL A   1      19.041  30.986  43.928  1.00  0.00    +0.000 C 
ATOM     49  F3  UNL A   1      18.348  30.062  43.249  1.00  0.00    +0.000 F 
ATOM     50  C40 UNL A   1      18.947  32.324  43.575  1.00  0.00    +0.000 C 
ATOM     51  F4  UNL A   1      18.147  32.694  42.565  1.00  0.00    +0.000 F 
ATOM     52  C41 UNL A   1      19.684  33.282  44.265  1.00  0.00    +0.000 C 
ATOM     53  F5  UNL A   1      19.582  34.567  43.892  1.00  0.00    +0.000 F 
ENDBRANCH   42   43
BRANCH   59   60
ATOM     65  C50 UNL A   1      17.081  38.515  52.145  1.00  0.00    +0.000 C 
ATOM     66  F8  UNL A   1      16.056  38.872  52.931  1.00  0.00    +0.000 F 
ATOM     67  C51 UNL A   1      18.020  37.601  52.600  1.00  0.00    +0.000 C 
ATOM     68  F9  UNL A   1      17.892  37.061  53.819  1.00  0.00    +0.000 F 
ATOM     69  C52 UNL A   1      19.097  37.246  51.792  1.00  0.00    +0.000 C 
ATOM     70  F10 UNL A   1      19.996  36.369  52.263  1.00  0.00    +0.000 F 
ATOM     60  C47 UNL A   1      19.241  37.784  50.504  1.00  0.00    +0.000 C 
ATOM     61  C48 UNL A   1      18.271  38.693  50.057  1.00  0.00    +0.000 C 
ATOM     62  F6  UNL A   1      18.375  39.246  48.839  1.00  0.00    +0.000 F 
ATOM     63  C49 UNL A   1      17.209  39.065  50.878  1.00  0.00    +0.000 C 
ATOM     64  F7  UNL A   1      16.318  39.968  50.447  1.00  0.00    +0.000 F 
ENDBRANCH   59   60
BRANCH   74   75
ATOM     75  C56 UNL A   1      25.817  40.003  49.953  1.00  0.00    +0.000 C 
ATOM     76  C57 UNL A   1      25.955  41.262  49.349  1.00  0.00    +0.000 C 
ATOM     77  F11 UNL A   1      25.404  41.490  48.148  1.00  0.00    +0.000 F 
ATOM     78  C58 UNL A   1      26.691  42.275  49.959  1.00  0.00    +0.000 C 
ATOM     79  F12 UNL A   1      26.841  43.455  49.343  1.00  0.00    +0.000 F 
ATOM     80  C59 UNL A   1      27.280  42.059  51.196  1.00  0.00    +0.000 C 
ATOM     81  F13 UNL A   1      27.983  43.035  51.785  1.00  0.00    +0.000 F 
ATOM     82  C60 UNL A   1      27.142  40.828  51.820  1.00  0.00    +0.000 C 
ATOM     83  F14 UNL A   1      27.699  40.619  53.020  1.00  0.00    +0.000 F 
ATOM     84  C61 UNL A   1      26.428  39.805  51.199  1.00  0.00    +0.000 C 
ATOM     85  F15 UNL A   1      26.319  38.621  51.820  1.00  0.00    +0.000 F 
ENDBRANCH   74   75
TORSDOF 22
ENDMDL
