MODEL 1
REMARK VINA RESULT:      -7.7      0.000      0.000
ROOT
ATOM    132  H27 UNL A   1      46.755  27.927  24.805  1.00  0.00    +0.000 H 
ATOM    133  H28 UNL A   1      44.890  26.055  25.156  1.00  0.00    +0.000 H 
ATOM    134  H29 UNL A   1      43.854  29.484  27.192  1.00  0.00    +0.000 H 
ATOM    135  H30 UNL A   1      42.655  22.582  30.670  1.00  0.00    +0.000 H 
ATOM    136  H31 UNL A   1      44.425  23.937  31.852  1.00  0.00    +0.000 H 
ATOM    137  H32 UNL A   1      44.567  24.958  27.825  1.00  0.00    +0.000 H 
ATOM    138  H33 UNL A   1      43.359  23.178  24.993  1.00  0.00    +0.000 H 
ATOM    139  H34 UNL A   1      42.860  25.563  24.095  1.00  0.00    +0.000 H 
ATOM    140  H35 UNL A   1      48.655  27.248  26.765  1.00  0.00    +0.000 H 
ATOM    141  H36 UNL A   1      47.637  25.002  27.541  1.00  0.00    +0.000 H 
ATOM     27  C20 UNL A   1      46.236  25.493  30.157  1.00  0.00    +0.000 C 
ATOM     28  C21 UNL A   1      46.651  26.397  29.040  1.00  0.00    +0.000 C 
ATOM     29  N4  UNL A   1      46.655  27.688  29.244  1.00  0.00    +0.000 N 
ATOM     30  C22 UNL A   1      47.268  28.257  28.154  1.00  0.00    +0.000 C 
ATOM     31  C23 UNL A   1      46.570  29.279  27.578  1.00  0.00    +0.000 C 
ATOM     43  C30 UNL A   1      45.730  28.793  26.517  1.00  0.00    +0.000 C 
ATOM     44  C31 UNL A   1      45.972  27.917  25.477  1.00  0.00    +0.000 C 
ATOM     45  C32 UNL A   1      44.897  27.008  25.550  1.00  0.00    +0.000 C 
ATOM     46  C33 UNL A   1      43.850  27.605  26.240  1.00  0.00    +0.000 C 
ATOM     47  N5  UNL A   1      44.369  28.775  26.742  1.00  0.00    +0.000 N 
ATOM     48  C34 UNL A   1      42.539  27.178  26.645  1.00  0.00    +0.000 C 
ATOM     60  C41 UNL A   1      42.088  26.016  26.114  1.00  0.00    +0.000 C 
ATOM     61  N6  UNL A   1      41.568  25.130  27.001  1.00  0.00    +0.000 N 
ATOM     62  C42 UNL A   1      42.285  24.069  26.783  1.00  0.00    +0.000 C 
ATOM     63  C43 UNL A   1      42.405  23.011  27.787  1.00  0.00    +0.000 C 
ATOM     75  C50 UNL A   1      43.284  23.504  28.759  1.00  0.00    +0.000 C 
ATOM     76  C51 UNL A   1      43.299  23.233  30.195  1.00  0.00    +0.000 C 
ATOM     77  C52 UNL A   1      44.274  23.949  30.831  1.00  0.00    +0.000 C 
ATOM     78  C53 UNL A   1      45.085  24.742  29.892  1.00  0.00    +0.000 C 
ATOM     79  N7  UNL A   1      44.355  24.492  28.666  1.00  0.00    +0.000 N 
ATOM     80  C54 UNL A   1      42.892  23.969  25.462  1.00  0.00    +0.000 C 
ATOM     81  C55 UNL A   1      42.660  25.215  25.046  1.00  0.00    +0.000 C 
ATOM     82  C56 UNL A   1      47.923  27.138  27.483  1.00  0.00    +0.000 C 
ATOM     83  C57 UNL A   1      47.465  25.952  27.907  1.00  0.00    +0.000 C 
ENDROOT
BRANCH   27   26
ATOM    130  H25 UNL A   1      47.072  25.699  34.763  1.00  0.00    +0.000 H 
ATOM    131  H26 UNL A   1      45.785  26.133  32.773  1.00  0.00    +0.000 H 
ATOM    142  H37 UNL A   1      49.191  25.732  30.374  1.00  0.00    +0.000 H 
ATOM    143  H38 UNL A   1      50.533  25.597  32.425  1.00  0.00    +0.000 H 
ATOM     84  C58 UNL A   1      48.709  25.760  31.286  1.00  0.00    +0.000 C 
ATOM     85  C59 UNL A   1      49.507  25.656  32.507  1.00  0.00    +0.000 C 
ATOM     23  C16 UNL A   1      48.928  25.634  33.790  1.00  0.00    +0.000 C 
ATOM     24  C17 UNL A   1      47.552  25.752  33.850  1.00  0.00    +0.000 C 
ATOM     25  C18 UNL A   1      46.793  25.943  32.661  1.00  0.00    +0.000 C 
ATOM     26  C19 UNL A   1      47.308  25.897  31.310  1.00  0.00    +0.000 C 
BRANCH   23   21
ATOM     21  C15 UNL A   1      49.668  25.328  35.070  1.00  0.00    +0.000 C 
ATOM     22  O4  UNL A   1      50.106  24.197  35.270  1.00  0.00    +0.000 O 
BRANCH   21   20
ATOM    129  H24 UNL A   1      49.117  27.013  36.064  1.00  0.00    +0.000 H 
ATOM     20  N3  UNL A   1      49.774  26.281  36.071  1.00  0.00    +0.000 N 
BRANCH   20   19
ATOM     19  C14 UNL A   1      50.761  26.295  37.122  1.00  0.00    +0.000 C 
ATOM    127  H22 UNL A   1      51.429  25.474  36.957  1.00  0.00    +0.000 H 
ATOM    128  H23 UNL A   1      51.232  27.255  37.069  1.00  0.00    +0.000 H 
BRANCH   19   18
ATOM     18  C13 UNL A   1      50.212  26.176  38.552  1.00  0.00    +0.000 C 
ATOM    125  H20 UNL A   1      51.004  25.811  39.170  1.00  0.00    +0.000 H 
ATOM    126  H21 UNL A   1      49.858  27.158  38.789  1.00  0.00    +0.000 H 
BRANCH   18   17
ATOM     17  C12 UNL A   1      48.995  25.261  38.776  1.00  0.00    +0.000 C 
ATOM    123  H18 UNL A   1      48.263  25.824  39.315  1.00  0.00    +0.000 H 
ATOM    124  H19 UNL A   1      48.694  24.953  37.797  1.00  0.00    +0.000 H 
BRANCH   17   16
ATOM    121  H16 UNL A   1      50.144  24.078  40.109  1.00  0.00    +0.000 H 
ATOM    122  H17 UNL A   1      48.367  23.814  40.149  1.00  0.00    +0.000 H 
ATOM     16  C11 UNL A   1      49.240  23.960  39.548  1.00  0.00    +0.000 C 
BRANCH   16   15
ATOM    119  H14 UNL A   1      48.760  21.930  39.141  1.00  0.00    +0.000 H 
ATOM     15  C10 UNL A   1      49.376  22.687  38.704  1.00  0.00    +0.000 C 
ATOM    120  H15 UNL A   1      49.080  22.953  37.711  1.00  0.00    +0.000 H 
BRANCH   15   14
ATOM    118  H13 UNL A   1      50.978  21.498  39.434  1.00  0.00    +0.000 H 
ATOM    117  H12 UNL A   1      51.489  22.954  38.590  1.00  0.00    +0.000 H 
ATOM     14  C9  UNL A   1      50.797  22.138  38.596  1.00  0.00    +0.000 C 
BRANCH   14   13
ATOM    116  H11 UNL A   1      51.772  21.564  36.851  1.00  0.00    +0.000 H 
ATOM     13  N2  UNL A   1      50.968  21.366  37.385  1.00  0.00    +0.000 N 
BRANCH   13   11
ATOM     11  C8  UNL A   1      50.140  20.394  36.897  1.00  0.00    +0.000 C 
ATOM     12  O3  UNL A   1      50.027  19.371  37.579  1.00  0.00    +0.000 O 
BRANCH   11    8
ATOM    112  H7  UNL A   1      49.278  21.647  35.431  1.00  0.00    +0.000 H 
ATOM      8  C6  UNL A   1      49.310  20.592  35.605  1.00  0.00    +0.000 C 
BRANCH    8    7
ATOM    111  H6  UNL A   1      47.804  19.300  36.264  1.00  0.00    +0.000 H 
ATOM      7  N1  UNL A   1      47.923  20.133  35.752  1.00  0.00    +0.000 N 
BRANCH    7    5
ATOM      5  C5  UNL A   1      46.776  20.699  35.280  1.00  0.00    +0.000 C 
ATOM      6  O1  UNL A   1      46.727  20.957  34.075  1.00  0.00    +0.000 O 
BRANCH    5    4
ATOM      4  C4  UNL A   1      45.640  21.068  36.218  1.00  0.00    +0.000 C 
ATOM    109  H4  UNL A   1      44.762  20.540  35.907  1.00  0.00    +0.000 H 
ATOM    110  H5  UNL A   1      45.952  20.799  37.205  1.00  0.00    +0.000 H 
BRANCH    4    3
ATOM      2  C2  UNL A   1      44.402  23.230  35.472  1.00  0.00    +0.000 C 
ATOM      3  C3  UNL A   1      45.326  22.532  36.243  1.00  0.00    +0.000 C 
ATOM     98  N8  UNL A   1      44.424  24.566  35.871  1.00  0.00    +0.000 N 
ATOM    144  H39 UNL A   1      46.763  23.292  37.704  1.00  0.00    +0.000 H 
ATOM     86  C60 UNL A   1      45.979  23.488  37.062  1.00  0.00    +0.000 C 
ATOM     87  C61 UNL A   1      45.395  24.724  36.861  1.00  0.00    +0.000 C 
BRANCH    2    1
ATOM      1  C1  UNL A   1      43.605  22.710  34.316  1.00  0.00    +0.000 C 
ATOM    106  H1  UNL A   1      44.267  22.292  33.586  1.00  0.00    +0.000 H 
ATOM    107  H2  UNL A   1      43.050  23.512  33.876  1.00  0.00    +0.000 H 
ATOM    108  H3  UNL A   1      42.930  21.956  34.660  1.00  0.00    +0.000 H 
ENDBRANCH    2    1
BRANCH   87   88
ATOM     97  C68 UNL A   1      45.131  26.074  38.931  1.00  0.00    +0.000 C 
ATOM    145  H40 UNL A   1      46.699  26.956  36.104  1.00  0.00    +0.000 H 
ATOM    146  H41 UNL A   1      47.093  28.980  37.388  1.00  0.00    +0.000 H 
ATOM    150  H45 UNL A   1      44.975  27.322  40.630  1.00  0.00    +0.000 H 
ATOM    151  H46 UNL A   1      44.589  25.299  39.344  1.00  0.00    +0.000 H 
ATOM     88  C62 UNL A   1      45.640  25.950  37.632  1.00  0.00    +0.000 C 
ATOM     89  C63 UNL A   1      46.344  27.027  37.071  1.00  0.00    +0.000 C 
ATOM     90  C64 UNL A   1      46.570  28.195  37.805  1.00  0.00    +0.000 C 
ATOM     91  C65 UNL A   1      46.080  28.287  39.109  1.00  0.00    +0.000 C 
ATOM     96  C67 UNL A   1      45.350  27.238  39.672  1.00  0.00    +0.000 C 
BRANCH   91   92
ATOM     92  S1  UNL A   1      46.337  29.787  40.026  1.00  0.00    +0.000 S 
ATOM     94  O5  UNL A   1      45.967  30.884  39.169  1.00  0.00    +0.000 O 
ATOM     95  O6  UNL A   1      45.711  29.613  41.334  1.00  0.00    +0.000 O 
BRANCH   92   93
ATOM    149  H44 UNL A   1      48.475  30.777  39.938  1.00  0.00    +0.000 H 
ATOM    147  H42 UNL A   1      48.557  29.040  39.763  1.00  0.00    +0.000 H 
ATOM    148  H43 UNL A   1      48.294  29.748  41.338  1.00  0.00    +0.000 H 
ATOM     93  C66 UNL A   1      48.090  29.844  40.292  1.00  0.00    +0.000 C 
ENDBRANCH   92   93
ENDBRANCH   91   92
ENDBRANCH   87   88
BRANCH   98   99
ATOM     99  C69 UNL A   1      43.629  25.615  35.337  1.00  0.00    +0.000 C 
ATOM    100  C70 UNL A   1      42.494  26.049  36.038  1.00  0.00    +0.000 C 
ATOM    101  C71 UNL A   1      41.685  27.050  35.499  1.00  0.00    +0.000 C 
ATOM    102  C72 UNL A   1      41.998  27.603  34.258  1.00  0.00    +0.000 C 
ATOM    103  C73 UNL A   1      43.120  27.154  33.566  1.00  0.00    +0.000 C 
ATOM    104  F16 UNL A   1      43.403  27.673  32.364  1.00  0.00    +0.000 F 
ATOM    105  C74 UNL A   1      43.943  26.164  34.091  1.00  0.00    +0.000 C 
ATOM    152  H47 UNL A   1      42.260  25.630  36.951  1.00  0.00    +0.000 H 
ATOM    153  H48 UNL A   1      40.857  27.380  36.018  1.00  0.00    +0.000 H 
ATOM    154  H49 UNL A   1      41.402  28.342  33.854  1.00  0.00    +0.000 H 
ATOM    155  H50 UNL A   1      44.772  25.840  33.569  1.00  0.00    +0.000 H 
ENDBRANCH   98   99
ENDBRANCH    4    3
ENDBRANCH    5    4
ENDBRANCH    7    5
ENDBRANCH    8    7
BRANCH    8    9
ATOM      9  C7  UNL A   1      49.981  19.935  34.390  1.00  0.00    +0.000 C 
ATOM    114  H9  UNL A   1      50.674  19.210  34.763  1.00  0.00    +0.000 H 
ATOM    113  H8  UNL A   1      49.222  19.488  33.783  1.00  0.00    +0.000 H 
BRANCH    9   10
ATOM     10  O2  UNL A   1      50.718  20.853  33.592  1.00  0.00    +0.000 O 
ATOM    115  H10 UNL A   1      51.464  20.393  33.177  1.00  0.00    +0.000 H 
ENDBRANCH    9   10
ENDBRANCH    8    9
ENDBRANCH   11    8
ENDBRANCH   13   11
ENDBRANCH   14   13
ENDBRANCH   15   14
ENDBRANCH   16   15
ENDBRANCH   17   16
ENDBRANCH   18   17
ENDBRANCH   19   18
ENDBRANCH   20   19
ENDBRANCH   21   20
ENDBRANCH   23   21
ENDBRANCH   27   26
BRANCH   31   32
ATOM     33  C25 UNL A   1      46.819  31.587  28.488  1.00  0.00    +0.000 C 
ATOM     34  F1  UNL A   1      47.666  31.852  27.482  1.00  0.00    +0.000 F 
ATOM     35  C26 UNL A   1      46.595  32.562  29.460  1.00  0.00    +0.000 C 
ATOM     36  F2  UNL A   1      47.204  33.752  29.362  1.00  0.00    +0.000 F 
ATOM     37  C27 UNL A   1      45.747  32.308  30.528  1.00  0.00    +0.000 C 
ATOM     38  F3  UNL A   1      45.563  33.233  31.481  1.00  0.00    +0.000 F 
ATOM     39  C28 UNL A   1      45.061  31.109  30.589  1.00  0.00    +0.000 C 
ATOM     40  F4  UNL A   1      44.221  30.859  31.605  1.00  0.00    +0.000 F 
ATOM     41  C29 UNL A   1      45.229  30.163  29.583  1.00  0.00    +0.000 C 
ATOM     42  F5  UNL A   1      44.435  29.080  29.610  1.00  0.00    +0.000 F 
ATOM     32  C24 UNL A   1      46.165  30.353  28.545  1.00  0.00    +0.000 C 
ENDBRANCH   31   32
BRANCH   48   49
ATOM     49  C35 UNL A   1      41.675  27.822  27.710  1.00  0.00    +0.000 C 
ATOM     50  C36 UNL A   1      41.725  27.580  29.104  1.00  0.00    +0.000 C 
ATOM     51  F6  UNL A   1      42.720  26.877  29.664  1.00  0.00    +0.000 F 
ATOM     52  C37 UNL A   1      40.752  28.082  29.973  1.00  0.00    +0.000 C 
ATOM     53  F7  UNL A   1      40.790  27.774  31.278  1.00  0.00    +0.000 F 
ATOM     54  C38 UNL A   1      39.746  28.898  29.491  1.00  0.00    +0.000 C 
ATOM     55  F8  UNL A   1      38.817  29.392  30.323  1.00  0.00    +0.000 F 
ATOM     56  C39 UNL A   1      39.715  29.216  28.145  1.00  0.00    +0.000 C 
ATOM     57  F9  UNL A   1      38.776  30.048  27.674  1.00  0.00    +0.000 F 
ATOM     58  C40 UNL A   1      40.654  28.674  27.270  1.00  0.00    +0.000 C 
ATOM     59  F10 UNL A   1      40.569  28.996  25.971  1.00  0.00    +0.000 F 
ENDBRANCH   48   49
BRANCH   63   64
ATOM     65  C45 UNL A   1      40.024  22.178  27.081  1.00  0.00    +0.000 C 
ATOM     66  F11 UNL A   1      39.450  23.338  27.430  1.00  0.00    +0.000 F 
ATOM     67  C46 UNL A   1      39.214  21.347  26.285  1.00  0.00    +0.000 C 
ATOM     68  F12 UNL A   1      37.997  21.762  25.890  1.00  0.00    +0.000 F 
ATOM     69  C47 UNL A   1      39.697  20.140  25.841  1.00  0.00    +0.000 C 
ATOM     70  F13 UNL A   1      38.962  19.375  25.019  1.00  0.00    +0.000 F 
ATOM     71  C48 UNL A   1      40.971  19.758  26.234  1.00  0.00    +0.000 C 
ATOM     72  F14 UNL A   1      41.444  18.580  25.796  1.00  0.00    +0.000 F 
ATOM     73  C49 UNL A   1      41.803  20.609  27.011  1.00  0.00    +0.000 C 
ATOM     74  F15 UNL A   1      43.055  20.200  27.255  1.00  0.00    +0.000 F 
ATOM     64  C44 UNL A   1      41.391  21.880  27.435  1.00  0.00    +0.000 C 
ENDBRANCH   63   64
TORSDOF 26
ENDMDL
MODEL 2
REMARK VINA RESULT:      -7.5      3.313      5.320
ROOT
ATOM    132  H27 UNL A   1      47.371  27.369  24.528  1.00  0.00    +0.000 H 
ATOM    133  H28 UNL A   1      45.466  25.551  24.947  1.00  0.00    +0.000 H 
ATOM    134  H29 UNL A   1      44.345  29.173  26.560  1.00  0.00    +0.000 H 
ATOM    135  H30 UNL A   1      42.855  22.663  30.631  1.00  0.00    +0.000 H 
ATOM    136  H31 UNL A   1      44.565  24.121  31.779  1.00  0.00    +0.000 H 
ATOM    137  H32 UNL A   1      44.967  24.731  27.687  1.00  0.00    +0.000 H 
ATOM    138  H33 UNL A   1      43.916  22.680  24.978  1.00  0.00    +0.000 H 
ATOM    139  H34 UNL A   1      43.500  24.966  23.816  1.00  0.00    +0.000 H 
ATOM    140  H35 UNL A   1      49.138  26.881  26.661  1.00  0.00    +0.000 H 
ATOM    141  H36 UNL A   1      48.048  24.731  27.593  1.00  0.00    +0.000 H 
ATOM     27  C20 UNL A   1      46.494  25.489  30.054  1.00  0.00    +0.000 C 
ATOM     28  C21 UNL A   1      46.988  26.274  28.880  1.00  0.00    +0.000 C 
ATOM     29  N4  UNL A   1      46.993  27.579  28.953  1.00  0.00    +0.000 N 
ATOM     30  C22 UNL A   1      47.679  28.032  27.852  1.00  0.00    +0.000 C 
ATOM     31  C23 UNL A   1      47.030  28.994  27.134  1.00  0.00    +0.000 C 
ATOM     43  C30 UNL A   1      46.251  28.409  26.077  1.00  0.00    +0.000 C 
ATOM     44  C31 UNL A   1      46.547  27.431  25.147  1.00  0.00    +0.000 C 
ATOM     45  C32 UNL A   1      45.460  26.540  25.243  1.00  0.00    +0.000 C 
ATOM     46  C33 UNL A   1      44.379  27.208  25.803  1.00  0.00    +0.000 C 
ATOM     47  N5  UNL A   1      44.879  28.420  26.217  1.00  0.00    +0.000 N 
ATOM     48  C34 UNL A   1      43.040  26.831  26.166  1.00  0.00    +0.000 C 
ATOM     60  C41 UNL A   1      42.610  25.623  25.727  1.00  0.00    +0.000 C 
ATOM     61  N6  UNL A   1      42.026  24.834  26.664  1.00  0.00    +0.000 N 
ATOM     62  C42 UNL A   1      42.743  23.753  26.599  1.00  0.00    +0.000 C 
ATOM     63  C43 UNL A   1      42.789  22.800  27.710  1.00  0.00    +0.000 C 
ATOM     75  C50 UNL A   1      43.612  23.385  28.680  1.00  0.00    +0.000 C 
ATOM     76  C51 UNL A   1      43.535  23.259  30.134  1.00  0.00    +0.000 C 
ATOM     77  C52 UNL A   1      44.477  24.031  30.755  1.00  0.00    +0.000 C 
ATOM     78  C53 UNL A   1      45.353  24.721  29.794  1.00  0.00    +0.000 C 
ATOM     79  N7  UNL A   1      44.698  24.353  28.556  1.00  0.00    +0.000 N 
ATOM     80  C54 UNL A   1      43.430  23.517  25.335  1.00  0.00    +0.000 C 
ATOM     81  C55 UNL A   1      43.238  24.717  24.782  1.00  0.00    +0.000 C 
ATOM     82  C56 UNL A   1      48.362  26.848  27.339  1.00  0.00    +0.000 C 
ATOM     83  C57 UNL A   1      47.865  25.713  27.850  1.00  0.00    +0.000 C 
ENDROOT
BRANCH   27   26
ATOM    130  H25 UNL A   1      47.690  25.104  34.568  1.00  0.00    +0.000 H 
ATOM    131  H26 UNL A   1      46.135  25.452  32.761  1.00  0.00    +0.000 H 
ATOM    142  H37 UNL A   1      49.231  26.639  30.206  1.00  0.00    +0.000 H 
ATOM    143  H38 UNL A   1      50.751  26.576  32.133  1.00  0.00    +0.000 H 
ATOM     84  C58 UNL A   1      48.861  26.339  31.121  1.00  0.00    +0.000 C 
ATOM     85  C59 UNL A   1      49.771  26.279  32.264  1.00  0.00    +0.000 C 
ATOM     23  C16 UNL A   1      49.363  25.831  33.534  1.00  0.00    +0.000 C 
ATOM     24  C17 UNL A   1      48.033  25.479  33.669  1.00  0.00    +0.000 C 
ATOM     25  C18 UNL A   1      47.135  25.627  32.574  1.00  0.00    +0.000 C 
ATOM     26  C19 UNL A   1      47.497  26.002  31.226  1.00  0.00    +0.000 C 
BRANCH   23   21
ATOM     21  C15 UNL A   1      50.288  25.555  34.695  1.00  0.00    +0.000 C 
ATOM     22  O4  UNL A   1      51.145  26.379  35.005  1.00  0.00    +0.000 O 
BRANCH   21   20
ATOM    129  H24 UNL A   1      49.977  23.550  34.830  1.00  0.00    +0.000 H 
ATOM     20  N3  UNL A   1      50.252  24.336  35.355  1.00  0.00    +0.000 N 
BRANCH   20   19
ATOM     19  C14 UNL A   1      50.579  24.117  36.741  1.00  0.00    +0.000 C 
ATOM    127  H22 UNL A   1      50.653  23.061  36.900  1.00  0.00    +0.000 H 
ATOM    128  H23 UNL A   1      51.494  24.646  36.913  1.00  0.00    +0.000 H 
BRANCH   19   18
ATOM     18  C13 UNL A   1      49.574  24.678  37.760  1.00  0.00    +0.000 C 
ATOM    125  H20 UNL A   1      50.089  24.792  38.689  1.00  0.00    +0.000 H 
ATOM    126  H21 UNL A   1      49.217  25.585  37.317  1.00  0.00    +0.000 H 
BRANCH   18   17
ATOM     17  C12 UNL A   1      48.303  23.856  38.036  1.00  0.00    +0.000 C 
ATOM    123  H18 UNL A   1      48.446  23.343  38.964  1.00  0.00    +0.000 H 
ATOM    124  H19 UNL A   1      47.504  24.567  38.034  1.00  0.00    +0.000 H 
BRANCH   17   16
ATOM    121  H16 UNL A   1      48.740  22.698  36.314  1.00  0.00    +0.000 H 
ATOM    122  H17 UNL A   1      47.672  21.926  37.536  1.00  0.00    +0.000 H 
ATOM     16  C11 UNL A   1      47.914  22.810  36.984  1.00  0.00    +0.000 C 
BRANCH   16   15
ATOM    119  H14 UNL A   1      46.767  24.120  35.764  1.00  0.00    +0.000 H 
ATOM     15  C10 UNL A   1      46.669  23.125  36.146  1.00  0.00    +0.000 C 
ATOM    120  H15 UNL A   1      46.627  22.380  35.379  1.00  0.00    +0.000 H 
BRANCH   15   14
ATOM    118  H13 UNL A   1      45.541  22.656  37.884  1.00  0.00    +0.000 H 
ATOM    117  H12 UNL A   1      44.681  22.388  36.373  1.00  0.00    +0.000 H 
ATOM     14  C9  UNL A   1      45.346  23.038  36.904  1.00  0.00    +0.000 C 
BRANCH   14   13
ATOM    116  H11 UNL A   1      44.328  24.548  37.907  1.00  0.00    +0.000 H 
ATOM     13  N2  UNL A   1      44.730  24.340  37.032  1.00  0.00    +0.000 N 
BRANCH   13   11
ATOM     11  C8  UNL A   1      44.643  25.314  36.076  1.00  0.00    +0.000 C 
ATOM     12  O3  UNL A   1      45.506  26.196  36.107  1.00  0.00    +0.000 O 
BRANCH   11    8
ATOM    112  H7  UNL A   1      44.113  25.337  34.031  1.00  0.00    +0.000 H 
ATOM      8  C6  UNL A   1      43.577  25.273  34.955  1.00  0.00    +0.000 C 
BRANCH    8    7
ATOM    111  H6  UNL A   1      42.389  26.784  34.132  1.00  0.00    +0.000 H 
ATOM      7  N1  UNL A   1      42.662  26.421  35.006  1.00  0.00    +0.000 N 
BRANCH    7    5
ATOM      5  C5  UNL A   1      42.138  27.054  36.093  1.00  0.00    +0.000 C 
ATOM      6  O1  UNL A   1      41.342  26.418  36.789  1.00  0.00    +0.000 O 
BRANCH    5    4
ATOM      4  C4  UNL A   1      42.462  28.508  36.386  1.00  0.00    +0.000 C 
ATOM    109  H4  UNL A   1      42.105  28.742  37.367  1.00  0.00    +0.000 H 
ATOM    110  H5  UNL A   1      43.523  28.614  36.300  1.00  0.00    +0.000 H 
BRANCH    4    3
ATOM      2  C2  UNL A   1      42.447  30.107  34.335  1.00  0.00    +0.000 C 
ATOM      3  C3  UNL A   1      41.847  29.473  35.418  1.00  0.00    +0.000 C 
ATOM     98  N8  UNL A   1      41.478  30.881  33.695  1.00  0.00    +0.000 N 
ATOM    144  H39 UNL A   1      39.827  29.711  36.217  1.00  0.00    +0.000 H 
ATOM     86  C60 UNL A   1      40.513  29.946  35.483  1.00  0.00    +0.000 C 
ATOM     87  C61 UNL A   1      40.279  30.776  34.402  1.00  0.00    +0.000 C 
BRANCH    2    1
ATOM      1  C1  UNL A   1      43.897  30.098  33.964  1.00  0.00    +0.000 C 
ATOM    106  H1  UNL A   1      44.298  31.085  34.071  1.00  0.00    +0.000 H 
ATOM    107  H2  UNL A   1      44.003  29.779  32.948  1.00  0.00    +0.000 H 
ATOM    108  H3  UNL A   1      44.424  29.426  34.606  1.00  0.00    +0.000 H 
ENDBRANCH    2    1
BRANCH   87   88
ATOM     97  C68 UNL A   1      38.108  30.564  33.213  1.00  0.00    +0.000 C 
ATOM    145  H40 UNL A   1      39.286  33.240  34.851  1.00  0.00    +0.000 H 
ATOM    146  H41 UNL A   1      37.148  34.153  34.149  1.00  0.00    +0.000 H 
ATOM    150  H45 UNL A   1      36.233  30.513  32.237  1.00  0.00    +0.000 H 
ATOM    151  H46 UNL A   1      38.369  29.602  32.946  1.00  0.00    +0.000 H 
ATOM     88  C62 UNL A   1      38.987  31.334  33.984  1.00  0.00    +0.000 C 
ATOM     89  C63 UNL A   1      38.632  32.654  34.308  1.00  0.00    +0.000 C 
ATOM     90  C64 UNL A   1      37.405  33.185  33.902  1.00  0.00    +0.000 C 
ATOM     91  C65 UNL A   1      36.528  32.391  33.161  1.00  0.00    +0.000 C 
ATOM     96  C67 UNL A   1      36.879  31.087  32.802  1.00  0.00    +0.000 C 
BRANCH   91   92
ATOM     92  S1  UNL A   1      34.985  33.082  32.616  1.00  0.00    +0.000 S 
ATOM     94  O5  UNL A   1      34.590  32.371  31.427  1.00  0.00    +0.000 O 
ATOM     95  O6  UNL A   1      34.102  33.149  33.777  1.00  0.00    +0.000 O 
BRANCH   92   93
ATOM    149  H44 UNL A   1      35.054  35.416  32.940  1.00  0.00    +0.000 H 
ATOM    147  H42 UNL A   1      34.899  35.000  31.250  1.00  0.00    +0.000 H 
ATOM    148  H43 UNL A   1      36.444  34.844  32.049  1.00  0.00    +0.000 H 
ATOM     93  C66 UNL A   1      35.385  34.751  32.170  1.00  0.00    +0.000 C 
ENDBRANCH   92   93
ENDBRANCH   91   92
ENDBRANCH   87   88
BRANCH   98   99
ATOM     99  C69 UNL A   1      41.675  31.687  32.542  1.00  0.00    +0.000 C 
ATOM    100  C70 UNL A   1      41.357  31.172  31.276  1.00  0.00    +0.000 C 
ATOM    101  C71 UNL A   1      41.587  31.942  30.135  1.00  0.00    +0.000 C 
ATOM    102  C72 UNL A   1      42.146  33.213  30.257  1.00  0.00    +0.000 C 
ATOM    103  C73 UNL A   1      42.469  33.708  31.518  1.00  0.00    +0.000 C 
ATOM    104  F16 UNL A   1      43.025  34.921  31.626  1.00  0.00    +0.000 F 
ATOM    105  C74 UNL A   1      42.238  32.959  32.666  1.00  0.00    +0.000 C 
ATOM    152  H47 UNL A   1      40.955  30.226  31.190  1.00  0.00    +0.000 H 
ATOM    153  H48 UNL A   1      41.344  31.571  29.204  1.00  0.00    +0.000 H 
ATOM    154  H49 UNL A   1      42.319  33.786  29.416  1.00  0.00    +0.000 H 
ATOM    155  H50 UNL A   1      42.480  33.337  33.596  1.00  0.00    +0.000 H 
ENDBRANCH   98   99
ENDBRANCH    4    3
ENDBRANCH    5    4
ENDBRANCH    7    5
ENDBRANCH    8    7
BRANCH    8    9
ATOM      9  C7  UNL A   1      42.799  23.949  34.956  1.00  0.00    +0.000 C 
ATOM    114  H9  UNL A   1      42.909  23.516  35.928  1.00  0.00    +0.000 H 
ATOM    113  H8  UNL A   1      41.775  24.156  34.724  1.00  0.00    +0.000 H 
BRANCH    9   10
ATOM     10  O2  UNL A   1      43.295  23.006  34.014  1.00  0.00    +0.000 O 
ATOM    115  H10 UNL A   1      43.182  22.109  34.366  1.00  0.00    +0.000 H 
ENDBRANCH    9   10
ENDBRANCH    8    9
ENDBRANCH   11    8
ENDBRANCH   13   11
ENDBRANCH   14   13
ENDBRANCH   15   14
ENDBRANCH   16   15
ENDBRANCH   17   16
ENDBRANCH   18   17
ENDBRANCH   19   18
ENDBRANCH   20   19
ENDBRANCH   21   20
ENDBRANCH   23   21
ENDBRANCH   27   26
BRANCH   31   32
ATOM     33  C25 UNL A   1      47.194  31.401  27.763  1.00  0.00    +0.000 C 
ATOM     34  F1  UNL A   1      48.046  31.572  26.742  1.00  0.00    +0.000 F 
ATOM     35  C26 UNL A   1      46.926  32.478  28.609  1.00  0.00    +0.000 C 
ATOM     36  F2  UNL A   1      47.498  33.667  28.375  1.00  0.00    +0.000 F 
ATOM     37  C27 UNL A   1      46.072  32.325  29.692  1.00  0.00    +0.000 C 
ATOM     38  F3  UNL A   1      45.846  33.351  30.525  1.00  0.00    +0.000 F 
ATOM     39  C28 UNL A   1      45.423  31.121  29.889  1.00  0.00    +0.000 C 
ATOM     40  F4  UNL A   1      44.577  30.967  30.919  1.00  0.00    +0.000 F 
ATOM     41  C29 UNL A   1      45.634  30.068  29.006  1.00  0.00    +0.000 C 
ATOM     42  F5  UNL A   1      44.875  28.970  29.154  1.00  0.00    +0.000 F 
ATOM     32  C24 UNL A   1      46.578  30.162  27.961  1.00  0.00    +0.000 C 
ENDBRANCH   31   32
BRANCH   48   49
ATOM     49  C35 UNL A   1      42.120  27.583  27.105  1.00  0.00    +0.000 C 
ATOM     50  C36 UNL A   1      42.111  27.516  28.519  1.00  0.00    +0.000 C 
ATOM     51  F6  UNL A   1      43.091  26.909  29.204  1.00  0.00    +0.000 F 
ATOM     52  C37 UNL A   1      41.092  28.101  29.276  1.00  0.00    +0.000 C 
ATOM     53  F7  UNL A   1      41.076  27.958  30.610  1.00  0.00    +0.000 F 
ATOM     54  C38 UNL A   1      40.096  28.831  28.654  1.00  0.00    +0.000 C 
ATOM     55  F8  UNL A   1      39.124  29.404  29.378  1.00  0.00    +0.000 F 
ATOM     56  C39 UNL A   1      40.121  28.979  27.280  1.00  0.00    +0.000 C 
ATOM     57  F9  UNL A   1      39.191  29.727  26.669  1.00  0.00    +0.000 F 
ATOM     58  C40 UNL A   1      41.106  28.353  26.519  1.00  0.00    +0.000 C 
ATOM     59  F10 UNL A   1      41.075  28.510  25.188  1.00  0.00    +0.000 F 
ENDBRANCH   48   49
BRANCH   63   64
ATOM     65  C45 UNL A   1      40.381  21.903  27.204  1.00  0.00    +0.000 C 
ATOM     66  F11 UNL A   1      39.804  23.024  27.657  1.00  0.00    +0.000 F 
ATOM     67  C46 UNL A   1      39.526  21.072  26.456  1.00  0.00    +0.000 C 
ATOM     68  F12 UNL A   1      38.262  21.454  26.200  1.00  0.00    +0.000 F 
ATOM     69  C47 UNL A   1      40.005  19.904  25.915  1.00  0.00    +0.000 C 
ATOM     70  F13 UNL A   1      39.219  19.143  25.137  1.00  0.00    +0.000 F 
ATOM     71  C48 UNL A   1      41.325  19.557  26.165  1.00  0.00    +0.000 C 
ATOM     72  F14 UNL A   1      41.793  18.417  25.633  1.00  0.00    +0.000 F 
ATOM     73  C49 UNL A   1      42.199  20.409  26.893  1.00  0.00    +0.000 C 
ATOM     74  F15 UNL A   1      43.482  20.041  26.995  1.00  0.00    +0.000 F 
ATOM     64  C44 UNL A   1      41.785  21.645  27.410  1.00  0.00    +0.000 C 
ENDBRANCH   63   64
TORSDOF 26
ENDMDL
MODEL 3
REMARK VINA RESULT:      -7.4     19.390     26.376
ROOT
ATOM    132  H27 UNL A   1      47.740  55.024  15.803  1.00  0.00    +0.000 H 
ATOM    133  H28 UNL A   1      48.884  54.214  18.071  1.00  0.00    +0.000 H 
ATOM    134  H29 UNL A   1      50.313  52.008  14.898  1.00  0.00    +0.000 H 
ATOM    135  H30 UNL A   1      48.722  48.299  21.599  1.00  0.00    +0.000 H 
ATOM    136  H31 UNL A   1      47.165  47.597  19.741  1.00  0.00    +0.000 H 
ATOM    137  H32 UNL A   1      48.258  51.541  19.016  1.00  0.00    +0.000 H 
ATOM    138  H33 UNL A   1      49.561  53.979  21.254  1.00  0.00    +0.000 H 
ATOM    139  H34 UNL A   1      50.891  54.741  19.158  1.00  0.00    +0.000 H 
ATOM    140  H35 UNL A   1      45.321  53.587  15.810  1.00  0.00    +0.000 H 
ATOM    141  H36 UNL A   1      45.474  52.571  18.182  1.00  0.00    +0.000 H 
ATOM     27  C20 UNL A   1      46.301  49.694  17.889  1.00  0.00    +0.000 C 
ATOM     28  C21 UNL A   1      46.424  50.884  16.992  1.00  0.00    +0.000 C 
ATOM     29  N4  UNL A   1      46.727  50.696  15.735  1.00  0.00    +0.000 N 
ATOM     30  C22 UNL A   1      46.567  51.906  15.105  1.00  0.00    +0.000 C 
ATOM     31  C23 UNL A   1      47.632  52.299  14.349  1.00  0.00    +0.000 C 
ATOM     43  C30 UNL A   1      48.532  53.118  15.116  1.00  0.00    +0.000 C 
ATOM     44  C31 UNL A   1      48.310  54.180  15.971  1.00  0.00    +0.000 C 
ATOM     45  C32 UNL A   1      49.046  53.840  17.123  1.00  0.00    +0.000 C 
ATOM     46  C33 UNL A   1      50.024  52.918  16.776  1.00  0.00    +0.000 C 
ATOM     47  N5  UNL A   1      49.743  52.565  15.477  1.00  0.00    +0.000 N 
ATOM     48  C34 UNL A   1      51.035  52.200  17.504  1.00  0.00    +0.000 C 
ATOM     60  C41 UNL A   1      51.261  52.597  18.779  1.00  0.00    +0.000 C 
ATOM     61  N6  UNL A   1      51.295  51.604  19.704  1.00  0.00    +0.000 N 
ATOM     62  C42 UNL A   1      50.387  51.985  20.550  1.00  0.00    +0.000 C 
ATOM     63  C43 UNL A   1      49.749  51.034  21.463  1.00  0.00    +0.000 C 
ATOM     75  C50 UNL A   1      48.836  50.312  20.685  1.00  0.00    +0.000 C 
ATOM     76  C51 UNL A   1      48.411  48.922  20.837  1.00  0.00    +0.000 C 
ATOM     77  C52 UNL A   1      47.549  48.549  19.843  1.00  0.00    +0.000 C 
ATOM     78  C53 UNL A   1      47.231  49.663  18.935  1.00  0.00    +0.000 C 
ATOM     79  N7  UNL A   1      48.130  50.671  19.459  1.00  0.00    +0.000 N 
ATOM     80  C54 UNL A   1      50.103  53.414  20.582  1.00  0.00    +0.000 C 
ATOM     81  C55 UNL A   1      50.759  53.768  19.475  1.00  0.00    +0.000 C 
ATOM     82  C56 UNL A   1      45.806  52.710  16.057  1.00  0.00    +0.000 C 
ATOM     83  C57 UNL A   1      45.808  52.180  17.288  1.00  0.00    +0.000 C 
ENDROOT
BRANCH   27   26
ATOM    130  H25 UNL A   1      44.794  45.421  16.696  1.00  0.00    +0.000 H 
ATOM    131  H26 UNL A   1      46.432  47.182  16.825  1.00  0.00    +0.000 H 
ATOM    142  H37 UNL A   1      43.429  50.070  17.223  1.00  0.00    +0.000 H 
ATOM    143  H38 UNL A   1      41.775  48.309  16.783  1.00  0.00    +0.000 H 
ATOM     84  C58 UNL A   1      43.758  49.102  17.085  1.00  0.00    +0.000 C 
ATOM     85  C59 UNL A   1      42.772  48.049  16.846  1.00  0.00    +0.000 C 
ATOM     23  C16 UNL A   1      43.129  46.696  16.699  1.00  0.00    +0.000 C 
ATOM     24  C17 UNL A   1      44.479  46.403  16.756  1.00  0.00    +0.000 C 
ATOM     25  C18 UNL A   1      45.438  47.446  16.898  1.00  0.00    +0.000 C 
ATOM     26  C19 UNL A   1      45.142  48.842  17.133  1.00  0.00    +0.000 C 
BRANCH   23   21
ATOM     21  C15 UNL A   1      42.157  45.542  16.653  1.00  0.00    +0.000 C 
ATOM     22  O4  UNL A   1      41.203  45.575  15.879  1.00  0.00    +0.000 O 
BRANCH   21   20
ATOM    129  H24 UNL A   1      42.492  43.604  17.168  1.00  0.00    +0.000 H 
ATOM     20  N3  UNL A   1      42.267  44.486  17.544  1.00  0.00    +0.000 N 
BRANCH   20   19
ATOM     19  C14 UNL A   1      42.083  44.563  18.972  1.00  0.00    +0.000 C 
ATOM    127  H22 UNL A   1      42.759  45.300  19.352  1.00  0.00    +0.000 H 
ATOM    128  H23 UNL A   1      41.051  44.803  19.121  1.00  0.00    +0.000 H 
BRANCH   19   18
ATOM     18  C13 UNL A   1      42.325  43.256  19.745  1.00  0.00    +0.000 C 
ATOM    125  H20 UNL A   1      41.413  42.699  19.725  1.00  0.00    +0.000 H 
ATOM    126  H21 UNL A   1      43.156  42.797  19.249  1.00  0.00    +0.000 H 
BRANCH   18   17
ATOM     17  C12 UNL A   1      42.764  43.368  21.215  1.00  0.00    +0.000 C 
ATOM    123  H18 UNL A   1      43.527  42.635  21.380  1.00  0.00    +0.000 H 
ATOM    124  H19 UNL A   1      43.083  44.382  21.335  1.00  0.00    +0.000 H 
BRANCH   17   16
ATOM    121  H16 UNL A   1      41.132  44.072  22.370  1.00  0.00    +0.000 H 
ATOM    122  H17 UNL A   1      41.099  42.328  21.936  1.00  0.00    +0.000 H 
ATOM     16  C11 UNL A   1      41.681  43.158  22.279  1.00  0.00    +0.000 C 
BRANCH   16   15
ATOM    119  H14 UNL A   1      43.243  42.744  23.660  1.00  0.00    +0.000 H 
ATOM     15  C10 UNL A   1      42.173  42.765  23.677  1.00  0.00    +0.000 C 
ATOM    120  H15 UNL A   1      41.775  43.493  24.352  1.00  0.00    +0.000 H 
BRANCH   15   14
ATOM    118  H13 UNL A   1      42.042  40.651  23.505  1.00  0.00    +0.000 H 
ATOM    117  H12 UNL A   1      40.611  41.409  24.193  1.00  0.00    +0.000 H 
ATOM     14  C9  UNL A   1      41.681  41.407  24.172  1.00  0.00    +0.000 C 
BRANCH   14   13
ATOM    116  H11 UNL A   1      43.139  41.281  25.649  1.00  0.00    +0.000 H 
ATOM     13  N2  UNL A   1      42.178  41.123  25.500  1.00  0.00    +0.000 N 
BRANCH   13   11
ATOM     11  C8  UNL A   1      41.466  40.661  26.571  1.00  0.00    +0.000 C 
ATOM     12  O3  UNL A   1      40.294  41.038  26.659  1.00  0.00    +0.000 O 
BRANCH   11    8
ATOM    112  H7  UNL A   1      41.335  38.863  27.674  1.00  0.00    +0.000 H 
ATOM      8  C6  UNL A   1      42.060  39.645  27.577  1.00  0.00    +0.000 C 
BRANCH    8    7
ATOM    111  H6  UNL A   1      41.433  40.367  29.436  1.00  0.00    +0.000 H 
ATOM      7  N1  UNL A   1      42.255  40.224  28.913  1.00  0.00    +0.000 N 
BRANCH    7    5
ATOM      5  C5  UNL A   1      43.413  40.591  29.529  1.00  0.00    +0.000 C 
ATOM      6  O1  UNL A   1      43.939  39.767  30.281  1.00  0.00    +0.000 O 
BRANCH    5    4
ATOM      4  C4  UNL A   1      43.987  41.986  29.356  1.00  0.00    +0.000 C 
ATOM    109  H4  UNL A   1      43.177  42.663  29.176  1.00  0.00    +0.000 H 
ATOM    110  H5  UNL A   1      44.521  42.216  30.255  1.00  0.00    +0.000 H 
BRANCH    4    3
ATOM      2  C2  UNL A   1      46.254  41.595  28.144  1.00  0.00    +0.000 C 
ATOM      3  C3  UNL A   1      44.962  42.105  28.226  1.00  0.00    +0.000 C 
ATOM     98  N8  UNL A   1      46.769  41.917  26.888  1.00  0.00    +0.000 N 
ATOM    144  H39 UNL A   1      43.883  43.373  26.810  1.00  0.00    +0.000 H 
ATOM     86  C60 UNL A   1      44.729  42.824  27.027  1.00  0.00    +0.000 C 
ATOM     87  C61 UNL A   1      45.822  42.671  26.194  1.00  0.00    +0.000 C 
BRANCH    2    1
ATOM      1  C1  UNL A   1      47.041  40.934  29.232  1.00  0.00    +0.000 C 
ATOM    106  H1  UNL A   1      47.073  39.878  29.059  1.00  0.00    +0.000 H 
ATOM    107  H2  UNL A   1      46.576  41.126  30.177  1.00  0.00    +0.000 H 
ATOM    108  H3  UNL A   1      48.036  41.325  29.240  1.00  0.00    +0.000 H 
ENDBRANCH    2    1
BRANCH   87   88
ATOM     97  C68 UNL A   1      45.821  42.149  23.765  1.00  0.00    +0.000 C 
ATOM    145  H40 UNL A   1      46.283  45.137  25.211  1.00  0.00    +0.000 H 
ATOM    146  H41 UNL A   1      46.458  45.824  22.888  1.00  0.00    +0.000 H 
ATOM    150  H45 UNL A   1      45.845  41.837  21.674  1.00  0.00    +0.000 H 
ATOM    151  H46 UNL A   1      45.665  41.156  23.997  1.00  0.00    +0.000 H 
ATOM     88  C62 UNL A   1      45.926  43.095  24.792  1.00  0.00    +0.000 C 
ATOM     89  C63 UNL A   1      46.175  44.437  24.460  1.00  0.00    +0.000 C 
ATOM     90  C64 UNL A   1      46.281  44.836  23.124  1.00  0.00    +0.000 C 
ATOM     91  C65 UNL A   1      46.143  43.882  22.113  1.00  0.00    +0.000 C 
ATOM     96  C67 UNL A   1      45.927  42.538  22.427  1.00  0.00    +0.000 C 
BRANCH   91   92
ATOM     92  S1  UNL A   1      46.315  44.387  20.419  1.00  0.00    +0.000 S 
ATOM     94  O5  UNL A   1      46.181  43.208  19.602  1.00  0.00    +0.000 O 
ATOM     95  O6  UNL A   1      45.444  45.542  20.216  1.00  0.00    +0.000 O 
BRANCH   92   93
ATOM    149  H44 UNL A   1      48.285  45.390  21.239  1.00  0.00    +0.000 H 
ATOM    147  H42 UNL A   1      48.050  45.716  19.539  1.00  0.00    +0.000 H 
ATOM    148  H43 UNL A   1      48.632  44.153  20.055  1.00  0.00    +0.000 H 
ATOM     93  C66 UNL A   1      47.986  44.969  20.302  1.00  0.00    +0.000 C 
ENDBRANCH   92   93
ENDBRANCH   91   92
ENDBRANCH   87   88
BRANCH   98   99
ATOM     99  C69 UNL A   1      48.059  41.580  26.399  1.00  0.00    +0.000 C 
ATOM    100  C70 UNL A   1      49.078  42.544  26.413  1.00  0.00    +0.000 C 
ATOM    101  C71 UNL A   1      50.336  42.233  25.896  1.00  0.00    +0.000 C 
ATOM    102  C72 UNL A   1      50.570  40.971  25.352  1.00  0.00    +0.000 C 
ATOM    103  C73 UNL A   1      49.547  40.027  25.332  1.00  0.00    +0.000 C 
ATOM    104  F16 UNL A   1      49.772  38.824  24.788  1.00  0.00    +0.000 F 
ATOM    105  C74 UNL A   1      48.290  40.316  25.851  1.00  0.00    +0.000 C 
ATOM    152  H47 UNL A   1      48.897  43.480  26.807  1.00  0.00    +0.000 H 
ATOM    153  H48 UNL A   1      51.090  42.936  25.916  1.00  0.00    +0.000 H 
ATOM    154  H49 UNL A   1      51.498  40.737  24.966  1.00  0.00    +0.000 H 
ATOM    155  H50 UNL A   1      47.540  39.607  25.832  1.00  0.00    +0.000 H 
ENDBRANCH   98   99
ENDBRANCH    4    3
ENDBRANCH    5    4
ENDBRANCH    7    5
ENDBRANCH    8    7
BRANCH    8    9
ATOM      9  C7  UNL A   1      43.360  39.018  27.054  1.00  0.00    +0.000 C 
ATOM    114  H9  UNL A   1      43.651  39.568  26.184  1.00  0.00    +0.000 H 
ATOM    113  H8  UNL A   1      44.098  39.071  27.827  1.00  0.00    +0.000 H 
BRANCH    9   10
ATOM     10  O2  UNL A   1      43.210  37.658  26.664  1.00  0.00    +0.000 O 
ATOM    115  H10 UNL A   1      43.415  37.082  27.417  1.00  0.00    +0.000 H 
ENDBRANCH    9   10
ENDBRANCH    8    9
ENDBRANCH   11    8
ENDBRANCH   13   11
ENDBRANCH   14   13
ENDBRANCH   15   14
ENDBRANCH   16   15
ENDBRANCH   17   16
ENDBRANCH   18   17
ENDBRANCH   19   18
ENDBRANCH   20   19
ENDBRANCH   21   20
ENDBRANCH   23   21
ENDBRANCH   27   26
BRANCH   31   32
ATOM     33  C25 UNL A   1      47.734  51.444  12.010  1.00  0.00    +0.000 C 
ATOM     34  F1  UNL A   1      47.167  52.590  11.605  1.00  0.00    +0.000 F 
ATOM     35  C26 UNL A   1      47.983  50.443  11.069  1.00  0.00    +0.000 C 
ATOM     36  F2  UNL A   1      47.681  50.649   9.780  1.00  0.00    +0.000 F 
ATOM     37  C27 UNL A   1      48.541  49.235  11.462  1.00  0.00    +0.000 C 
ATOM     38  F3  UNL A   1      48.745  48.261  10.563  1.00  0.00    +0.000 F 
ATOM     39  C28 UNL A   1      48.923  49.050  12.777  1.00  0.00    +0.000 C 
ATOM     40  F4  UNL A   1      49.485  47.895  13.165  1.00  0.00    +0.000 F 
ATOM     41  C29 UNL A   1      48.741  50.073  13.701  1.00  0.00    +0.000 C 
ATOM     42  F5  UNL A   1      49.257  49.901  14.929  1.00  0.00    +0.000 F 
ATOM     32  C24 UNL A   1      48.079  51.269  13.353  1.00  0.00    +0.000 C 
ENDBRANCH   31   32
BRANCH   48   49
ATOM     49  C35 UNL A   1      51.767  50.959  17.035  1.00  0.00    +0.000 C 
ATOM     50  C36 UNL A   1      51.354  49.616  17.203  1.00  0.00    +0.000 C 
ATOM     51  F6  UNL A   1      50.124  49.304  17.635  1.00  0.00    +0.000 F 
ATOM     52  C37 UNL A   1      52.200  48.544  16.905  1.00  0.00    +0.000 C 
ATOM     53  F7  UNL A   1      51.803  47.285  17.144  1.00  0.00    +0.000 F 
ATOM     54  C38 UNL A   1      53.451  48.776  16.363  1.00  0.00    +0.000 C 
ATOM     55  F8  UNL A   1      54.260  47.750  16.065  1.00  0.00    +0.000 F 
ATOM     56  C39 UNL A   1      53.852  50.076  16.115  1.00  0.00    +0.000 C 
ATOM     57  F9  UNL A   1      55.040  50.313  15.541  1.00  0.00    +0.000 F 
ATOM     58  C40 UNL A   1      53.031  51.147  16.459  1.00  0.00    +0.000 C 
ATOM     59  F10 UNL A   1      53.474  52.390  16.217  1.00  0.00    +0.000 F 
ENDBRANCH   48   49
BRANCH   63   64
ATOM     65  C45 UNL A   1      51.761  50.517  23.058  1.00  0.00    +0.000 C 
ATOM     66  F11 UNL A   1      52.211  49.533  22.267  1.00  0.00    +0.000 F 
ATOM     67  C46 UNL A   1      52.683  50.948  24.030  1.00  0.00    +0.000 C 
ATOM     68  F12 UNL A   1      53.919  50.419  24.074  1.00  0.00    +0.000 F 
ATOM     69  C47 UNL A   1      52.349  51.968  24.887  1.00  0.00    +0.000 C 
ATOM     70  F13 UNL A   1      53.248  52.437  25.766  1.00  0.00    +0.000 F 
ATOM     71  C48 UNL A   1      51.080  52.519  24.791  1.00  0.00    +0.000 C 
ATOM     72  F14 UNL A   1      50.757  53.519  25.626  1.00  0.00    +0.000 F 
ATOM     73  C49 UNL A   1      50.159  52.108  23.789  1.00  0.00    +0.000 C 
ATOM     74  F15 UNL A   1      48.996  52.767  23.707  1.00  0.00    +0.000 F 
ATOM     64  C44 UNL A   1      50.467  51.119  22.844  1.00  0.00    +0.000 C 
ENDBRANCH   63   64
TORSDOF 26
ENDMDL
MODEL 4
REMARK VINA RESULT:      -7.3     42.915     46.382
ROOT
ATOM    132  H27 UNL A   1       4.881  51.934  16.253  1.00  0.00    +0.000 H 
ATOM    133  H28 UNL A   1       5.306  49.350  16.756  1.00  0.00    +0.000 H 
ATOM    134  H29 UNL A   1       7.376  51.676  19.455  1.00  0.00    +0.000 H 
ATOM    135  H30 UNL A   1      10.905  45.344  16.515  1.00  0.00    +0.000 H 
ATOM    136  H31 UNL A   1      12.016  47.479  15.757  1.00  0.00    +0.000 H 
ATOM    137  H32 UNL A   1       7.986  48.318  16.332  1.00  0.00    +0.000 H 
ATOM    138  H33 UNL A   1       5.204  46.104  16.439  1.00  0.00    +0.000 H 
ATOM    139  H34 UNL A   1       4.325  47.793  18.205  1.00  0.00    +0.000 H 
ATOM    140  H35 UNL A   1       6.767  52.465  14.235  1.00  0.00    +0.000 H 
ATOM    141  H36 UNL A   1       7.584  50.049  13.813  1.00  0.00    +0.000 H 
ATOM     27  C20 UNL A   1      10.251  49.740  15.167  1.00  0.00    +0.000 C 
ATOM     28  C21 UNL A   1       9.118  50.697  15.358  1.00  0.00    +0.000 C 
ATOM     29  N4  UNL A   1       9.320  51.778  16.064  1.00  0.00    +0.000 N 
ATOM     30  C22 UNL A   1       8.208  52.567  15.905  1.00  0.00    +0.000 C 
ATOM     31  C23 UNL A   1       7.658  53.018  17.069  1.00  0.00    +0.000 C 
ATOM     43  C30 UNL A   1       6.631  52.125  17.533  1.00  0.00    +0.000 C 
ATOM     44  C31 UNL A   1       5.583  51.507  16.878  1.00  0.00    +0.000 C 
ATOM     45  C32 UNL A   1       5.698  50.157  17.266  1.00  0.00    +0.000 C 
ATOM     46  C33 UNL A   1       6.427  50.089  18.446  1.00  0.00    +0.000 C 
ATOM     47  N5  UNL A   1       6.908  51.361  18.647  1.00  0.00    +0.000 N 
ATOM     48  C34 UNL A   1       6.883  49.016  19.287  1.00  0.00    +0.000 C 
ATOM     60  C41 UNL A   1       6.371  47.787  19.034  1.00  0.00    +0.000 C 
ATOM     61  N6  UNL A   1       7.278  46.781  18.948  1.00  0.00    +0.000 N 
ATOM     62  C42 UNL A   1       7.034  46.291  17.771  1.00  0.00    +0.000 C 
ATOM     63  C43 UNL A   1       8.034  45.499  17.052  1.00  0.00    +0.000 C 
ATOM     75  C50 UNL A   1       8.970  46.418  16.564  1.00  0.00    +0.000 C 
ATOM     76  C51 UNL A   1      10.405  46.232  16.355  1.00  0.00    +0.000 C 
ATOM     77  C52 UNL A   1      11.002  47.383  15.922  1.00  0.00    +0.000 C 
ATOM     78  C53 UNL A   1      10.032  48.471  15.717  1.00  0.00    +0.000 C 
ATOM     79  N7  UNL A   1       8.835  47.831  16.223  1.00  0.00    +0.000 N 
ATOM     80  C54 UNL A   1       5.691  46.515  17.251  1.00  0.00    +0.000 C 
ATOM     81  C55 UNL A   1       5.283  47.414  18.149  1.00  0.00    +0.000 C 
ATOM     82  C56 UNL A   1       7.513  51.983  14.760  1.00  0.00    +0.000 C 
ATOM     83  C57 UNL A   1       7.955  50.752  14.470  1.00  0.00    +0.000 C 
ENDROOT
BRANCH   27   26
ATOM    130  H25 UNL A   1      14.749  51.052  15.108  1.00  0.00    +0.000 H 
ATOM    131  H26 UNL A   1      12.626  50.641  16.170  1.00  0.00    +0.000 H 
ATOM    142  H37 UNL A   1      10.621  51.037  12.518  1.00  0.00    +0.000 H 
ATOM    143  H38 UNL A   1      12.742  51.754  11.512  1.00  0.00    +0.000 H 
ATOM     84  C58 UNL A   1      11.468  51.057  13.106  1.00  0.00    +0.000 C 
ATOM     85  C59 UNL A   1      12.736  51.462  12.501  1.00  0.00    +0.000 C 
ATOM     23  C16 UNL A   1      13.948  51.469  13.216  1.00  0.00    +0.000 C 
ATOM     24  C17 UNL A   1      13.883  51.105  14.548  1.00  0.00    +0.000 C 
ATOM     25  C18 UNL A   1      12.630  50.800  15.151  1.00  0.00    +0.000 C 
ATOM     26  C19 UNL A   1      11.362  50.695  14.463  1.00  0.00    +0.000 C 
BRANCH   23   21
ATOM     21  C15 UNL A   1      15.313  51.678  12.606  1.00  0.00    +0.000 C 
ATOM     22  O4  UNL A   1      16.071  52.524  13.076  1.00  0.00    +0.000 O 
BRANCH   21   20
ATOM    129  H24 UNL A   1      14.968  50.609  10.912  1.00  0.00    +0.000 H 
ATOM     20  N3  UNL A   1      15.689  50.999  11.458  1.00  0.00    +0.000 N 
BRANCH   20   19
ATOM     19  C14 UNL A   1      17.039  50.811  10.991  1.00  0.00    +0.000 C 
ATOM    127  H22 UNL A   1      17.235  51.550  10.242  1.00  0.00    +0.000 H 
ATOM    128  H23 UNL A   1      17.663  50.896  11.857  1.00  0.00    +0.000 H 
BRANCH   19   18
ATOM     18  C13 UNL A   1      17.349  49.432  10.386  1.00  0.00    +0.000 C 
ATOM    125  H20 UNL A   1      18.408  49.293  10.430  1.00  0.00    +0.000 H 
ATOM    126  H21 UNL A   1      16.770  48.744  10.969  1.00  0.00    +0.000 H 
BRANCH   18   17
ATOM     17  C12 UNL A   1      16.910  49.175   8.935  1.00  0.00    +0.000 C 
ATOM    123  H18 UNL A   1      16.321  50.012   8.623  1.00  0.00    +0.000 H 
ATOM    124  H19 UNL A   1      17.819  49.037   8.388  1.00  0.00    +0.000 H 
BRANCH   17   16
ATOM    121  H16 UNL A   1      16.719  47.064   8.867  1.00  0.00    +0.000 H 
ATOM    122  H17 UNL A   1      15.239  47.978   9.320  1.00  0.00    +0.000 H 
ATOM     16  C11 UNL A   1      16.089  47.907   8.673  1.00  0.00    +0.000 C 
BRANCH   16   15
ATOM    119  H14 UNL A   1      15.848  46.812   6.868  1.00  0.00    +0.000 H 
ATOM     15  C10 UNL A   1      15.517  47.751   7.259  1.00  0.00    +0.000 C 
ATOM    120  H15 UNL A   1      14.454  47.817   7.356  1.00  0.00    +0.000 H 
BRANCH   15   14
ATOM    118  H13 UNL A   1      16.834  49.293   6.627  1.00  0.00    +0.000 H 
ATOM    117  H12 UNL A   1      15.147  49.574   6.217  1.00  0.00    +0.000 H 
ATOM     14  C9  UNL A   1      15.928  48.845   6.276  1.00  0.00    +0.000 C 
BRANCH   14   13
ATOM    116  H11 UNL A   1      17.058  48.462   4.574  1.00  0.00    +0.000 H 
ATOM     13  N2  UNL A   1      16.166  48.300   4.958  1.00  0.00    +0.000 N 
BRANCH   13   11
ATOM     11  C8  UNL A   1      15.292  47.587   4.185  1.00  0.00    +0.000 C 
ATOM     12  O3  UNL A   1      15.381  46.358   4.243  1.00  0.00    +0.000 O 
BRANCH   11    8
ATOM    112  H7  UNL A   1      13.774  49.041   3.970  1.00  0.00    +0.000 H 
ATOM      8  C6  UNL A   1      14.186  48.273   3.348  1.00  0.00    +0.000 C 
BRANCH    8    7
ATOM    111  H6  UNL A   1      13.223  46.823   2.190  1.00  0.00    +0.000 H 
ATOM      7  N1  UNL A   1      13.090  47.357   3.007  1.00  0.00    +0.000 N 
BRANCH    7    5
ATOM      5  C5  UNL A   1      11.914  47.141   3.662  1.00  0.00    +0.000 C 
ATOM      6  O1  UNL A   1      10.910  47.707   3.223  1.00  0.00    +0.000 O 
BRANCH    5    4
ATOM      4  C4  UNL A   1      11.863  46.303   4.927  1.00  0.00    +0.000 C 
ATOM    109  H4  UNL A   1      10.966  45.719   4.908  1.00  0.00    +0.000 H 
ATOM    110  H5  UNL A   1      12.746  45.698   4.934  1.00  0.00    +0.000 H 
BRANCH    4    3
ATOM      2  C2  UNL A   1      11.813  46.654   7.503  1.00  0.00    +0.000 C 
ATOM      3  C3  UNL A   1      11.876  47.108   6.189  1.00  0.00    +0.000 C 
ATOM     98  N8  UNL A   1      11.900  47.760   8.349  1.00  0.00    +0.000 N 
ATOM    144  H39 UNL A   1      11.899  49.159   5.434  1.00  0.00    +0.000 H 
ATOM     86  C60 UNL A   1      11.913  48.524   6.247  1.00  0.00    +0.000 C 
ATOM     87  C61 UNL A   1      11.969  48.917   7.571  1.00  0.00    +0.000 C 
BRANCH    2    1
ATOM      1  C1  UNL A   1      11.560  45.255   7.970  1.00  0.00    +0.000 C 
ATOM    106  H1  UNL A   1      10.504  45.078   8.013  1.00  0.00    +0.000 H 
ATOM    107  H2  UNL A   1      11.983  45.122   8.944  1.00  0.00    +0.000 H 
ATOM    108  H3  UNL A   1      12.010  44.565   7.289  1.00  0.00    +0.000 H 
ENDBRANCH    2    1
BRANCH   87   88
ATOM     97  C68 UNL A   1      13.500  50.702   8.373  1.00  0.00    +0.000 C 
ATOM    145  H40 UNL A   1      10.160  50.834   8.128  1.00  0.00    +0.000 H 
ATOM    146  H41 UNL A   1      10.554  53.078   8.971  1.00  0.00    +0.000 H 
ATOM    150  H45 UNL A   1      14.693  52.300   9.076  1.00  0.00    +0.000 H 
ATOM    151  H46 UNL A   1      14.294  50.060   8.228  1.00  0.00    +0.000 H 
ATOM     88  C62 UNL A   1      12.199  50.276   8.078  1.00  0.00    +0.000 C 
ATOM     89  C63 UNL A   1      11.125  51.149   8.315  1.00  0.00    +0.000 C 
ATOM     90  C64 UNL A   1      11.347  52.440   8.804  1.00  0.00    +0.000 C 
ATOM     91  C65 UNL A   1      12.655  52.857   9.063  1.00  0.00    +0.000 C 
ATOM     96  C67 UNL A   1      13.731  51.990   8.863  1.00  0.00    +0.000 C 
BRANCH   91   92
ATOM     92  S1  UNL A   1      12.929  54.485   9.719  1.00  0.00    +0.000 S 
ATOM     94  O5  UNL A   1      14.298  54.545  10.163  1.00  0.00    +0.000 O 
ATOM     95  O6  UNL A   1      12.414  55.442   8.744  1.00  0.00    +0.000 O 
BRANCH   92   93
ATOM    149  H44 UNL A   1      11.925  55.549  11.568  1.00  0.00    +0.000 H 
ATOM    147  H42 UNL A   1      12.184  53.846  11.862  1.00  0.00    +0.000 H 
ATOM    148  H43 UNL A   1      10.862  54.366  10.845  1.00  0.00    +0.000 H 
ATOM     93  C66 UNL A   1      11.870  54.570  11.140  1.00  0.00    +0.000 C 
ENDBRANCH   92   93
ENDBRANCH   91   92
ENDBRANCH   87   88
BRANCH   98   99
ATOM     99  C69 UNL A   1      11.876  47.734   9.769  1.00  0.00    +0.000 C 
ATOM    100  C70 UNL A   1      13.084  47.683  10.480  1.00  0.00    +0.000 C 
ATOM    101  C71 UNL A   1      13.067  47.615  11.874  1.00  0.00    +0.000 C 
ATOM    102  C72 UNL A   1      11.850  47.581  12.553  1.00  0.00    +0.000 C 
ATOM    103  C73 UNL A   1      10.658  47.619  11.834  1.00  0.00    +0.000 C 
ATOM    104  F16 UNL A   1       9.492  47.565  12.491  1.00  0.00    +0.000 F 
ATOM    105  C74 UNL A   1      10.655  47.696  10.446  1.00  0.00    +0.000 C 
ATOM    152  H47 UNL A   1      13.983  47.697   9.974  1.00  0.00    +0.000 H 
ATOM    153  H48 UNL A   1      13.954  47.589  12.401  1.00  0.00    +0.000 H 
ATOM    154  H49 UNL A   1      11.832  47.529  13.583  1.00  0.00    +0.000 H 
ATOM    155  H50 UNL A   1       9.765  47.725   9.925  1.00  0.00    +0.000 H 
ENDBRANCH   98   99
ENDBRANCH    4    3
ENDBRANCH    5    4
ENDBRANCH    7    5
ENDBRANCH    8    7
BRANCH    8    9
ATOM      9  C7  UNL A   1      14.755  48.943   2.089  1.00  0.00    +0.000 C 
ATOM    114  H9  UNL A   1      13.981  48.941   1.350  1.00  0.00    +0.000 H 
ATOM    113  H8  UNL A   1      15.064  49.936   2.343  1.00  0.00    +0.000 H 
BRANCH    9   10
ATOM     10  O2  UNL A   1      15.868  48.249   1.539  1.00  0.00    +0.000 O 
ATOM    115  H10 UNL A   1      16.129  48.668   0.704  1.00  0.00    +0.000 H 
ENDBRANCH    9   10
ENDBRANCH    8    9
ENDBRANCH   11    8
ENDBRANCH   13   11
ENDBRANCH   14   13
ENDBRANCH   15   14
ENDBRANCH   16   15
ENDBRANCH   17   16
ENDBRANCH   18   17
ENDBRANCH   19   18
ENDBRANCH   20   19
ENDBRANCH   21   20
ENDBRANCH   23   21
ENDBRANCH   27   26
BRANCH   31   32
ATOM     33  C25 UNL A   1       8.462  55.070  18.235  1.00  0.00    +0.000 C 
ATOM     34  F1  UNL A   1       7.348  55.695  17.825  1.00  0.00    +0.000 F 
ATOM     35  C26 UNL A   1       9.428  55.796  18.933  1.00  0.00    +0.000 C 
ATOM     36  F2  UNL A   1       9.218  57.091  19.208  1.00  0.00    +0.000 F 
ATOM     37  C27 UNL A   1      10.604  55.186  19.345  1.00  0.00    +0.000 C 
ATOM     38  F3  UNL A   1      11.546  55.894  19.983  1.00  0.00    +0.000 F 
ATOM     39  C28 UNL A   1      10.787  53.833  19.128  1.00  0.00    +0.000 C 
ATOM     40  F4  UNL A   1      11.909  53.226  19.541  1.00  0.00    +0.000 F 
ATOM     41  C29 UNL A   1       9.795  53.093  18.495  1.00  0.00    +0.000 C 
ATOM     42  F5  UNL A   1       9.955  51.760  18.436  1.00  0.00    +0.000 F 
ATOM     32  C24 UNL A   1       8.639  53.709  17.972  1.00  0.00    +0.000 C 
ENDBRANCH   31   32
BRANCH   48   49
ATOM     49  C35 UNL A   1       7.980  49.097  20.328  1.00  0.00    +0.000 C 
ATOM     50  C36 UNL A   1       7.820  49.063  21.734  1.00  0.00    +0.000 C 
ATOM     51  F6  UNL A   1       6.651  48.739  22.305  1.00  0.00    +0.000 F 
ATOM     52  C37 UNL A   1       8.880  49.342  22.602  1.00  0.00    +0.000 C 
ATOM     53  F7  UNL A   1       8.677  49.371  23.928  1.00  0.00    +0.000 F 
ATOM     54  C38 UNL A   1      10.143  49.590  22.098  1.00  0.00    +0.000 C 
ATOM     55  F8  UNL A   1      11.165  49.846  22.927  1.00  0.00    +0.000 F 
ATOM     56  C39 UNL A   1      10.348  49.554  20.731  1.00  0.00    +0.000 C 
ATOM     57  F9  UNL A   1      11.578  49.740  20.232  1.00  0.00    +0.000 F 
ATOM     58  C40 UNL A   1       9.282  49.327  19.863  1.00  0.00    +0.000 C 
ATOM     59  F10 UNL A   1       9.528  49.322  18.544  1.00  0.00    +0.000 F 
ENDBRANCH   48   49
BRANCH   63   64
ATOM     65  C45 UNL A   1       7.797  43.393  18.592  1.00  0.00    +0.000 C 
ATOM     66  F11 UNL A   1       8.516  43.958  19.573  1.00  0.00    +0.000 F 
ATOM     67  C46 UNL A   1       7.078  42.250  18.985  1.00  0.00    +0.000 C 
ATOM     68  F12 UNL A   1       7.101  41.840  20.266  1.00  0.00    +0.000 F 
ATOM     69  C47 UNL A   1       6.283  41.594  18.076  1.00  0.00    +0.000 C 
ATOM     70  F13 UNL A   1       5.534  40.549  18.459  1.00  0.00    +0.000 F 
ATOM     71  C48 UNL A   1       6.250  42.065  16.772  1.00  0.00    +0.000 C 
ATOM     72  F14 UNL A   1       5.470  41.426  15.886  1.00  0.00    +0.000 F 
ATOM     73  C49 UNL A   1       6.951  43.238  16.381  1.00  0.00    +0.000 C 
ATOM     74  F15 UNL A   1       6.777  43.677  15.127  1.00  0.00    +0.000 F 
ATOM     64  C44 UNL A   1       7.723  43.988  17.280  1.00  0.00    +0.000 C 
ENDBRANCH   63   64
TORSDOF 26
ENDMDL
MODEL 5
REMARK VINA RESULT:      -7.2     38.710     44.309
ROOT
ATOM    132  H27 UNL A   1      25.119  -7.276  32.357  1.00  0.00    +0.000 H 
ATOM    133  H28 UNL A   1      26.965  -7.949  30.554  1.00  0.00    +0.000 H 
ATOM    134  H29 UNL A   1      23.768 -10.539  30.340  1.00  0.00    +0.000 H 
ATOM    135  H30 UNL A   1      30.992 -13.479  29.747  1.00  0.00    +0.000 H 
ATOM    136  H31 UNL A   1      29.836 -14.241  31.857  1.00  0.00    +0.000 H 
ATOM    137  H32 UNL A   1      28.356 -10.470  30.926  1.00  0.00    +0.000 H 
ATOM    138  H33 UNL A   1      29.758  -7.931  28.868  1.00  0.00    +0.000 H 
ATOM    139  H34 UNL A   1      27.271  -7.466  28.283  1.00  0.00    +0.000 H 
ATOM    140  H35 UNL A   1      26.076  -8.531  34.685  1.00  0.00    +0.000 H 
ATOM    141  H36 UNL A   1      28.367  -9.328  33.790  1.00  0.00    +0.000 H 
ATOM     27  C20 UNL A   1      28.145 -12.271  33.211  1.00  0.00    +0.000 C 
ATOM     28  C21 UNL A   1      27.129 -11.182  33.351  1.00  0.00    +0.000 C 
ATOM     29  N4  UNL A   1      25.871 -11.509  33.489  1.00  0.00    +0.000 N 
ATOM     30  C22 UNL A   1      25.196 -10.355  33.806  1.00  0.00    +0.000 C 
ATOM     31  C23 UNL A   1      24.095 -10.111  33.038  1.00  0.00    +0.000 C 
ATOM     43  C30 UNL A   1      24.429  -9.290  31.906  1.00  0.00    +0.000 C 
ATOM     44  C31 UNL A   1      25.185  -8.139  31.794  1.00  0.00    +0.000 C 
ATOM     45  C32 UNL A   1      26.064  -8.421  30.730  1.00  0.00    +0.000 C 
ATOM     46  C33 UNL A   1      25.523  -9.438  29.956  1.00  0.00    +0.000 C 
ATOM     47  N5  UNL A   1      24.435  -9.890  30.665  1.00  0.00    +0.000 N 
ATOM     48  C34 UNL A   1      25.956 -10.154  28.787  1.00  0.00    +0.000 C 
ATOM     60  C41 UNL A   1      27.035  -9.656  28.136  1.00  0.00    +0.000 C 
ATOM     61  N6  UNL A   1      28.003 -10.558  27.832  1.00  0.00    +0.000 N 
ATOM     62  C42 UNL A   1      29.051 -10.036  28.394  1.00  0.00    +0.000 C 
ATOM     63  C43 UNL A   1      30.223 -10.849  28.726  1.00  0.00    +0.000 C 
ATOM     75  C50 UNL A   1      29.871 -11.575  29.871  1.00  0.00    +0.000 C 
ATOM     76  C51 UNL A   1      30.309 -12.911  30.271  1.00  0.00    +0.000 C 
ATOM     77  C52 UNL A   1      29.699 -13.313  31.427  1.00  0.00    +0.000 C 
ATOM     78  C53 UNL A   1      28.826 -12.269  31.988  1.00  0.00    +0.000 C 
ATOM     79  N7  UNL A   1      28.911 -11.283  30.931  1.00  0.00    +0.000 N 
ATOM     80  C54 UNL A   1      29.014  -8.593  28.600  1.00  0.00    +0.000 C 
ATOM     81  C55 UNL A   1      27.721  -8.393  28.336  1.00  0.00    +0.000 C 
ATOM     82  C56 UNL A   1      26.248  -9.413  34.178  1.00  0.00    +0.000 C 
ATOM     83  C57 UNL A   1      27.462  -9.824  33.786  1.00  0.00    +0.000 C 
ENDROOT
BRANCH   27   26
ATOM    130  H25 UNL A   1      30.103 -15.048  36.438  1.00  0.00    +0.000 H 
ATOM    131  H26 UNL A   1      29.539 -14.408  34.184  1.00  0.00    +0.000 H 
ATOM    142  H37 UNL A   1      26.312 -12.117  35.546  1.00  0.00    +0.000 H 
ATOM    143  H38 UNL A   1      26.710 -13.021  37.794  1.00  0.00    +0.000 H 
ATOM     84  C58 UNL A   1      27.106 -12.760  35.690  1.00  0.00    +0.000 C 
ATOM     85  C59 UNL A   1      27.357 -13.280  37.033  1.00  0.00    +0.000 C 
ATOM     23  C16 UNL A   1      28.447 -14.120  37.329  1.00  0.00    +0.000 C 
ATOM     24  C17 UNL A   1      29.264 -14.469  36.270  1.00  0.00    +0.000 C 
ATOM     25  C18 UNL A   1      28.959 -14.031  34.950  1.00  0.00    +0.000 C 
ATOM     26  C19 UNL A   1      27.908 -13.107  34.585  1.00  0.00    +0.000 C 
BRANCH   23   21
ATOM     21  C15 UNL A   1      28.878 -14.526  38.717  1.00  0.00    +0.000 C 
ATOM     22  O4  UNL A   1      29.693 -13.840  39.331  1.00  0.00    +0.000 O 
BRANCH   21   20
ATOM    129  H24 UNL A   1      29.134 -16.336  39.605  1.00  0.00    +0.000 H 
ATOM     20  N3  UNL A   1      28.443 -15.718  39.274  1.00  0.00    +0.000 N 
BRANCH   20   19
ATOM     19  C14 UNL A   1      27.070 -16.134  39.413  1.00  0.00    +0.000 C 
ATOM    127  H22 UNL A   1      26.827 -16.129  40.455  1.00  0.00    +0.000 H 
ATOM    128  H23 UNL A   1      26.495 -15.445  38.830  1.00  0.00    +0.000 H 
BRANCH   19   18
ATOM     18  C13 UNL A   1      26.739 -17.530  38.859  1.00  0.00    +0.000 C 
ATOM    125  H20 UNL A   1      26.999 -17.533  37.822  1.00  0.00    +0.000 H 
ATOM    126  H21 UNL A   1      27.295 -18.205  39.476  1.00  0.00    +0.000 H 
BRANCH   18   17
ATOM     17  C12 UNL A   1      25.283 -18.014  38.969  1.00  0.00    +0.000 C 
ATOM    123  H18 UNL A   1      25.282 -19.072  38.813  1.00  0.00    +0.000 H 
ATOM    124  H19 UNL A   1      24.957 -17.703  39.939  1.00  0.00    +0.000 H 
BRANCH   17   16
ATOM    121  H16 UNL A   1      24.711 -16.512  37.585  1.00  0.00    +0.000 H 
ATOM    122  H17 UNL A   1      24.078 -18.164  37.266  1.00  0.00    +0.000 H 
ATOM     16  C11 UNL A   1      24.274 -17.401  37.991  1.00  0.00    +0.000 C 
BRANCH   16   15
ATOM    119  H14 UNL A   1      22.850 -15.961  38.636  1.00  0.00    +0.000 H 
ATOM     15  C10 UNL A   1      22.907 -17.027  38.575  1.00  0.00    +0.000 C 
ATOM    120  H15 UNL A   1      22.174 -17.454  37.923  1.00  0.00    +0.000 H 
BRANCH   15   14
ATOM    118  H13 UNL A   1      23.511 -18.081  40.318  1.00  0.00    +0.000 H 
ATOM    117  H12 UNL A   1      21.815 -18.291  39.901  1.00  0.00    +0.000 H 
ATOM     14  C9  UNL A   1      22.626 -17.595  39.965  1.00  0.00    +0.000 C 
BRANCH   14   13
ATOM    116  H11 UNL A   1      22.669 -16.612  41.797  1.00  0.00    +0.000 H 
ATOM     13  N2  UNL A   1      22.275 -16.547  40.897  1.00  0.00    +0.000 N 
BRANCH   13   11
ATOM     11  C8  UNL A   1      21.457 -15.475  40.670  1.00  0.00    +0.000 C 
ATOM     12  O3  UNL A   1      20.246 -15.707  40.610  1.00  0.00    +0.000 O 
BRANCH   11    8
ATOM    112  H7  UNL A   1      21.209 -13.391  40.914  1.00  0.00    +0.000 H 
ATOM      8  C6  UNL A   1      22.001 -14.029  40.582  1.00  0.00    +0.000 C 
BRANCH    8    7
ATOM    111  H6  UNL A   1      23.263 -13.787  38.933  1.00  0.00    +0.000 H 
ATOM      7  N1  UNL A   1      22.329 -13.633  39.206  1.00  0.00    +0.000 N 
BRANCH    7    5
ATOM      5  C5  UNL A   1      21.522 -13.084  38.255  1.00  0.00    +0.000 C 
ATOM      6  O1  UNL A   1      20.329 -12.948  38.535  1.00  0.00    +0.000 O 
BRANCH    5    4
ATOM      4  C4  UNL A   1      22.059 -12.731  36.879  1.00  0.00    +0.000 C 
ATOM    109  H4  UNL A   1      21.271 -12.276  36.316  1.00  0.00    +0.000 H 
ATOM    110  H5  UNL A   1      22.889 -12.072  37.029  1.00  0.00    +0.000 H 
BRANCH    4    3
ATOM      2  C2  UNL A   1      21.857 -14.997  35.620  1.00  0.00    +0.000 C 
ATOM      3  C3  UNL A   1      22.572 -13.908  36.108  1.00  0.00    +0.000 C 
ATOM     98  N8  UNL A   1      22.743 -15.822  34.926  1.00  0.00    +0.000 N 
ATOM    144  H39 UNL A   1      24.724 -13.528  36.053  1.00  0.00    +0.000 H 
ATOM     86  C60 UNL A   1      23.932 -14.128  35.774  1.00  0.00    +0.000 C 
ATOM     87  C61 UNL A   1      24.026 -15.280  35.016  1.00  0.00    +0.000 C 
BRANCH    2    1
ATOM      1  C1  UNL A   1      20.424 -15.336  35.884  1.00  0.00    +0.000 C 
ATOM    106  H1  UNL A   1      20.127 -16.148  35.253  1.00  0.00    +0.000 H 
ATOM    107  H2  UNL A   1      19.812 -14.483  35.679  1.00  0.00    +0.000 H 
ATOM    108  H3  UNL A   1      20.308 -15.619  36.909  1.00  0.00    +0.000 H 
ENDBRANCH    2    1
BRANCH   87   88
ATOM     97  C68 UNL A   1      26.109 -16.634  34.966  1.00  0.00    +0.000 C 
ATOM    145  H40 UNL A   1      24.864 -14.714  32.518  1.00  0.00    +0.000 H 
ATOM    146  H41 UNL A   1      26.838 -15.539  31.368  1.00  0.00    +0.000 H 
ATOM    150  H45 UNL A   1      27.902 -17.742  34.797  1.00  0.00    +0.000 H 
ATOM    151  H46 UNL A   1      25.924 -16.920  35.941  1.00  0.00    +0.000 H 
ATOM     88  C62 UNL A   1      25.216 -15.777  34.313  1.00  0.00    +0.000 C 
ATOM     89  C63 UNL A   1      25.501 -15.369  32.999  1.00  0.00    +0.000 C 
ATOM     90  C64 UNL A   1      26.638 -15.838  32.335  1.00  0.00    +0.000 C 
ATOM     91  C65 UNL A   1      27.500 -16.717  32.994  1.00  0.00    +0.000 C 
ATOM     96  C67 UNL A   1      27.249 -17.107  34.311  1.00  0.00    +0.000 C 
BRANCH   91   92
ATOM     92  S1  UNL A   1      28.963 -17.281  32.160  1.00  0.00    +0.000 S 
ATOM     94  O5  UNL A   1      30.084 -16.585  32.736  1.00  0.00    +0.000 O 
ATOM     95  O6  UNL A   1      28.918 -18.741  32.137  1.00  0.00    +0.000 O 
BRANCH   92   93
ATOM    149  H44 UNL A   1      28.113 -15.875  30.470  1.00  0.00    +0.000 H 
ATOM    147  H42 UNL A   1      28.320 -17.515  29.905  1.00  0.00    +0.000 H 
ATOM    148  H43 UNL A   1      29.708 -16.469  30.076  1.00  0.00    +0.000 H 
ATOM     93  C66 UNL A   1      28.755 -16.730  30.486  1.00  0.00    +0.000 C 
ENDBRANCH   92   93
ENDBRANCH   91   92
ENDBRANCH   87   88
BRANCH   98   99
ATOM     99  C69 UNL A   1      22.418 -17.040  34.271  1.00  0.00    +0.000 C 
ATOM    100  C70 UNL A   1      22.025 -17.018  32.925  1.00  0.00    +0.000 C 
ATOM    101  C71 UNL A   1      21.664 -18.205  32.287  1.00  0.00    +0.000 C 
ATOM    102  C72 UNL A   1      21.680 -19.406  32.995  1.00  0.00    +0.000 C 
ATOM    103  C73 UNL A   1      22.059 -19.412  34.335  1.00  0.00    +0.000 C 
ATOM    104  F16 UNL A   1      22.051 -20.566  35.015  1.00  0.00    +0.000 F 
ATOM    105  C74 UNL A   1      22.431 -18.241  34.984  1.00  0.00    +0.000 C 
ATOM    152  H47 UNL A   1      22.004 -16.125  32.408  1.00  0.00    +0.000 H 
ATOM    153  H48 UNL A   1      21.386 -18.194  31.294  1.00  0.00    +0.000 H 
ATOM    154  H49 UNL A   1      21.412 -20.286  32.528  1.00  0.00    +0.000 H 
ATOM    155  H50 UNL A   1      22.712 -18.259  35.978  1.00  0.00    +0.000 H 
ENDBRANCH   98   99
ENDBRANCH    4    3
ENDBRANCH    5    4
ENDBRANCH    7    5
ENDBRANCH    8    7
BRANCH    8    9
ATOM      9  C7  UNL A   1      23.200 -13.813  41.517  1.00  0.00    +0.000 C 
ATOM    114  H9  UNL A   1      23.186 -12.788  41.822  1.00  0.00    +0.000 H 
ATOM    113  H8  UNL A   1      23.107 -14.480  42.348  1.00  0.00    +0.000 H 
BRANCH    9   10
ATOM     10  O2  UNL A   1      24.453 -14.049  40.885  1.00  0.00    +0.000 O 
ATOM    115  H10 UNL A   1      24.423 -13.713  39.975  1.00  0.00    +0.000 H 
ENDBRANCH    9   10
ENDBRANCH    8    9
ENDBRANCH   11    8
ENDBRANCH   13   11
ENDBRANCH   14   13
ENDBRANCH   15   14
ENDBRANCH   16   15
ENDBRANCH   17   16
ENDBRANCH   18   17
ENDBRANCH   19   18
ENDBRANCH   20   19
ENDBRANCH   21   20
ENDBRANCH   23   21
ENDBRANCH   27   26
BRANCH   31   32
ATOM     33  C25 UNL A   1      23.441 -12.359  32.181  1.00  0.00    +0.000 C 
ATOM     34  F1  UNL A   1      24.651 -12.452  31.609  1.00  0.00    +0.000 F 
ATOM     35  C26 UNL A   1      22.512 -13.379  31.970  1.00  0.00    +0.000 C 
ATOM     36  F2  UNL A   1      22.848 -14.443  31.227  1.00  0.00    +0.000 F 
ATOM     37  C27 UNL A   1      21.243 -13.298  32.524  1.00  0.00    +0.000 C 
ATOM     38  F3  UNL A   1      20.340 -14.261  32.289  1.00  0.00    +0.000 F 
ATOM     39  C28 UNL A   1      20.922 -12.238  33.351  1.00  0.00    +0.000 C 
ATOM     40  F4  UNL A   1      19.705 -12.160  33.911  1.00  0.00    +0.000 F 
ATOM     41  C29 UNL A   1      21.870 -11.258  33.620  1.00  0.00    +0.000 C 
ATOM     42  F5  UNL A   1      21.561 -10.330  34.540  1.00  0.00    +0.000 F 
ATOM     32  C24 UNL A   1      23.130 -11.260  32.985  1.00  0.00    +0.000 C 
ENDBRANCH   31   32
BRANCH   48   49
ATOM     49  C35 UNL A   1      25.417 -11.482  28.297  1.00  0.00    +0.000 C 
ATOM     50  C36 UNL A   1      25.864 -12.771  28.674  1.00  0.00    +0.000 C 
ATOM     51  F6  UNL A   1      26.712 -12.954  29.696  1.00  0.00    +0.000 F 
ATOM     52  C37 UNL A   1      25.428 -13.923  28.013  1.00  0.00    +0.000 C 
ATOM     53  F7  UNL A   1      25.927 -15.123  28.348  1.00  0.00    +0.000 F 
ATOM     54  C38 UNL A   1      24.479 -13.832  27.011  1.00  0.00    +0.000 C 
ATOM     55  F8  UNL A   1      24.049 -14.936  26.384  1.00  0.00    +0.000 F 
ATOM     56  C39 UNL A   1      23.965 -12.593  26.674  1.00  0.00    +0.000 C 
ATOM     57  F9  UNL A   1      23.007 -12.496  25.741  1.00  0.00    +0.000 F 
ATOM     58  C40 UNL A   1      24.438 -11.439  27.295  1.00  0.00    +0.000 C 
ATOM     59  F10 UNL A   1      23.922 -10.260  26.918  1.00  0.00    +0.000 F 
ENDBRANCH   48   49
BRANCH   63   64
ATOM     65  C45 UNL A   1      32.406  -9.800  27.729  1.00  0.00    +0.000 C 
ATOM     66  F11 UNL A   1      32.396  -8.793  28.614  1.00  0.00    +0.000 F 
ATOM     67  C46 UNL A   1      33.623  -9.954  27.039  1.00  0.00    +0.000 C 
ATOM     68  F12 UNL A   1      34.672  -9.164  27.329  1.00  0.00    +0.000 F 
ATOM     69  C47 UNL A   1      33.767 -10.966  26.122  1.00  0.00    +0.000 C 
ATOM     70  F13 UNL A   1      34.947 -11.169  25.514  1.00  0.00    +0.000 F 
ATOM     71  C48 UNL A   1      32.678 -11.788  25.873  1.00  0.00    +0.000 C 
ATOM     72  F14 UNL A   1      32.822 -12.780  24.980  1.00  0.00    +0.000 F 
ATOM     73  C49 UNL A   1      31.459 -11.655  26.592  1.00  0.00    +0.000 C 
ATOM     74  F15 UNL A   1      30.499 -12.559  26.359  1.00  0.00    +0.000 F 
ATOM     64  C44 UNL A   1      31.275 -10.685  27.587  1.00  0.00    +0.000 C 
ENDBRANCH   63   64
TORSDOF 26
ENDMDL
MODEL 6
REMARK VINA RESULT:      -7.2     44.031     48.462
ROOT
ATOM    132  H27 UNL A   1      17.630  48.519   5.185  1.00  0.00    +0.000 H 
ATOM    133  H28 UNL A   1      17.567  48.509   2.520  1.00  0.00    +0.000 H 
ATOM    134  H29 UNL A   1      16.909  52.322   3.937  1.00  0.00    +0.000 H 
ATOM    135  H30 UNL A   1      12.620  49.800  -2.098  1.00  0.00    +0.000 H 
ATOM    136  H31 UNL A   1      11.218  50.158  -0.031  1.00  0.00    +0.000 H 
ATOM    137  H32 UNL A   1      15.029  49.077   1.230  1.00  0.00    +0.000 H 
ATOM    138  H33 UNL A   1      17.612  47.399  -0.548  1.00  0.00    +0.000 H 
ATOM    139  H34 UNL A   1      19.156  48.946   0.855  1.00  0.00    +0.000 H 
ATOM    140  H35 UNL A   1      15.008  47.741   5.845  1.00  0.00    +0.000 H 
ATOM    141  H36 UNL A   1      14.165  47.148   3.474  1.00  0.00    +0.000 H 
ATOM     27  C20 UNL A   1      12.438  49.421   2.527  1.00  0.00    +0.000 C 
ATOM     28  C21 UNL A   1      13.500  49.318   3.575  1.00  0.00    +0.000 C 
ATOM     29  N4  UNL A   1      13.614  50.281   4.451  1.00  0.00    +0.000 N 
ATOM     30  C22 UNL A   1      14.502  49.844   5.404  1.00  0.00    +0.000 C 
ATOM     31  C23 UNL A   1      15.514  50.716   5.682  1.00  0.00    +0.000 C 
ATOM     43  C30 UNL A   1      16.666  50.443   4.866  1.00  0.00    +0.000 C 
ATOM     44  C31 UNL A   1      17.310  49.264   4.546  1.00  0.00    +0.000 C 
ATOM     45  C32 UNL A   1      17.430  49.320   3.144  1.00  0.00    +0.000 C 
ATOM     46  C33 UNL A   1      17.332  50.644   2.736  1.00  0.00    +0.000 C 
ATOM     47  N5  UNL A   1      16.960  51.341   3.862  1.00  0.00    +0.000 N 
ATOM     48  C34 UNL A   1      17.352  51.310   1.462  1.00  0.00    +0.000 C 
ATOM     60  C41 UNL A   1      17.727  50.565   0.394  1.00  0.00    +0.000 C 
ATOM     61  N6  UNL A   1      16.915  50.646  -0.690  1.00  0.00    +0.000 N 
ATOM     62  C42 UNL A   1      16.601  49.402  -0.893  1.00  0.00    +0.000 C 
ATOM     63  C43 UNL A   1      15.408  49.031  -1.655  1.00  0.00    +0.000 C 
ATOM     75  C50 UNL A   1      14.323  49.248  -0.796  1.00  0.00    +0.000 C 
ATOM     76  C51 UNL A   1      12.961  49.657  -1.135  1.00  0.00    +0.000 C 
ATOM     77  C52 UNL A   1      12.196  49.828  -0.015  1.00  0.00    +0.000 C 
ATOM     78  C53 UNL A   1      12.927  49.488   1.216  1.00  0.00    +0.000 C 
ATOM     79  N7  UNL A   1      14.241  49.240   0.662  1.00  0.00    +0.000 N 
ATOM     80  C54 UNL A   1      17.544  48.415  -0.382  1.00  0.00    +0.000 C 
ATOM     81  C55 UNL A   1      18.293  49.228   0.365  1.00  0.00    +0.000 C 
ATOM     82  C56 UNL A   1      14.606  48.406   5.167  1.00  0.00    +0.000 C 
ATOM     83  C57 UNL A   1      14.118  48.051   3.971  1.00  0.00    +0.000 C 
ENDROOT
BRANCH   27   26
ATOM    130  H25 UNL A   1       9.402  47.124   5.259  1.00  0.00    +0.000 H 
ATOM    131  H26 UNL A   1      10.665  47.468   3.236  1.00  0.00    +0.000 H 
ATOM    142  H37 UNL A   1      11.052  51.552   4.067  1.00  0.00    +0.000 H 
ATOM    143  H38 UNL A   1       9.512  51.242   5.953  1.00  0.00    +0.000 H 
ATOM     84  C58 UNL A   1      10.699  50.604   4.269  1.00  0.00    +0.000 C 
ATOM     85  C59 UNL A   1       9.800  50.416   5.407  1.00  0.00    +0.000 C 
ATOM     23  C16 UNL A   1       9.312  49.151   5.785  1.00  0.00    +0.000 C 
ATOM     24  C17 UNL A   1       9.697  48.080   5.001  1.00  0.00    +0.000 C 
ATOM     25  C18 UNL A   1      10.499  48.286   3.843  1.00  0.00    +0.000 C 
ATOM     26  C19 UNL A   1      11.098  49.538   3.440  1.00  0.00    +0.000 C 
BRANCH   23   21
ATOM     21  C15 UNL A   1       8.551  48.860   7.056  1.00  0.00    +0.000 C 
ATOM     22  O4  UNL A   1       7.563  48.130   7.025  1.00  0.00    +0.000 O 
BRANCH   21   20
ATOM    129  H24 UNL A   1       9.654  49.112   8.746  1.00  0.00    +0.000 H 
ATOM     20  N3  UNL A   1       8.892  49.485   8.246  1.00  0.00    +0.000 N 
BRANCH   20   19
ATOM     19  C14 UNL A   1       8.233  50.633   8.815  1.00  0.00    +0.000 C 
ATOM    127  H22 UNL A   1       8.300  51.436   8.110  1.00  0.00    +0.000 H 
ATOM    128  H23 UNL A   1       7.230  50.322   9.024  1.00  0.00    +0.000 H 
BRANCH   19   18
ATOM     18  C13 UNL A   1       8.803  51.132  10.153  1.00  0.00    +0.000 C 
ATOM    125  H20 UNL A   1       8.083  51.798  10.579  1.00  0.00    +0.000 H 
ATOM    126  H21 UNL A   1       8.995  50.241  10.715  1.00  0.00    +0.000 H 
BRANCH   18   17
ATOM     17  C12 UNL A   1      10.152  51.871  10.123  1.00  0.00    +0.000 C 
ATOM    123  H18 UNL A   1      10.381  52.083   9.099  1.00  0.00    +0.000 H 
ATOM    124  H19 UNL A   1      10.012  52.733  10.740  1.00  0.00    +0.000 H 
BRANCH   17   16
ATOM    121  H16 UNL A   1      12.242  51.633  10.387  1.00  0.00    +0.000 H 
ATOM    122  H17 UNL A   1      11.212  51.171  11.784  1.00  0.00    +0.000 H 
ATOM     16  C11 UNL A   1      11.356  51.137  10.724  1.00  0.00    +0.000 C 
BRANCH   16   15
ATOM    119  H14 UNL A   1      10.607  49.354   9.844  1.00  0.00    +0.000 H 
ATOM     15  C10 UNL A   1      11.487  49.651  10.373  1.00  0.00    +0.000 C 
ATOM    120  H15 UNL A   1      12.382  49.557   9.793  1.00  0.00    +0.000 H 
BRANCH   15   14
ATOM    118  H13 UNL A   1      11.024  47.868  11.432  1.00  0.00    +0.000 H 
ATOM    117  H12 UNL A   1      11.381  49.246  12.464  1.00  0.00    +0.000 H 
ATOM     14  C9  UNL A   1      11.655  48.721  11.573  1.00  0.00    +0.000 C 
BRANCH   14   13
ATOM    116  H11 UNL A   1      13.377  48.192  12.610  1.00  0.00    +0.000 H 
ATOM     13  N2  UNL A   1      13.022  48.266  11.695  1.00  0.00    +0.000 N 
BRANCH   13   11
ATOM     11  C8  UNL A   1      13.877  47.927  10.683  1.00  0.00    +0.000 C 
ATOM     12  O3  UNL A   1      13.581  46.927  10.022  1.00  0.00    +0.000 O 
BRANCH   11    8
ATOM    112  H7  UNL A   1      15.948  48.331  10.782  1.00  0.00    +0.000 H 
ATOM      8  C6  UNL A   1      15.104  48.796  10.317  1.00  0.00    +0.000 C 
BRANCH    8    7
ATOM    111  H6  UNL A   1      14.158  50.625  10.679  1.00  0.00    +0.000 H 
ATOM      7  N1  UNL A   1      15.008  50.159  10.856  1.00  0.00    +0.000 N 
BRANCH    7    5
ATOM      5  C5  UNL A   1      15.929  50.869  11.567  1.00  0.00    +0.000 C 
ATOM      6  O1  UNL A   1      16.984  51.157  10.997  1.00  0.00    +0.000 O 
BRANCH    5    4
ATOM      4  C4  UNL A   1      15.693  51.221  13.025  1.00  0.00    +0.000 C 
ATOM    109  H4  UNL A   1      15.756  50.322  13.603  1.00  0.00    +0.000 H 
ATOM    110  H5  UNL A   1      16.442  51.935  13.297  1.00  0.00    +0.000 H 
BRANCH    4    3
ATOM      2  C2  UNL A   1      13.307  51.369  14.048  1.00  0.00    +0.000 C 
ATOM      3  C3  UNL A   1      14.364  51.859  13.288  1.00  0.00    +0.000 C 
ATOM     98  N8  UNL A   1      12.292  52.325  14.047  1.00  0.00    +0.000 N 
ATOM    144  H39 UNL A   1      14.475  53.681  12.085  1.00  0.00    +0.000 H 
ATOM     86  C60 UNL A   1      13.938  53.098  12.746  1.00  0.00    +0.000 C 
ATOM     87  C61 UNL A   1      12.685  53.398  13.246  1.00  0.00    +0.000 C 
BRANCH    2    1
ATOM      1  C1  UNL A   1      13.182  50.009  14.662  1.00  0.00    +0.000 C 
ATOM    106  H1  UNL A   1      14.035  49.418  14.397  1.00  0.00    +0.000 H 
ATOM    107  H2  UNL A   1      12.294  49.535  14.300  1.00  0.00    +0.000 H 
ATOM    108  H3  UNL A   1      13.129  50.102  15.725  1.00  0.00    +0.000 H 
ENDBRANCH    2    1
BRANCH   87   88
ATOM     97  C68 UNL A   1      11.370  54.985  11.859  1.00  0.00    +0.000 C 
ATOM    145  H40 UNL A   1      12.319  55.366  15.050  1.00  0.00    +0.000 H 
ATOM    146  H41 UNL A   1      11.112  57.455  14.776  1.00  0.00    +0.000 H 
ATOM    150  H45 UNL A   1      10.247  56.419  10.786  1.00  0.00    +0.000 H 
ATOM    151  H46 UNL A   1      11.449  54.329  11.067  1.00  0.00    +0.000 H 
ATOM     88  C62 UNL A   1      11.954  54.662  13.089  1.00  0.00    +0.000 C 
ATOM     89  C63 UNL A   1      11.867  55.582  14.148  1.00  0.00    +0.000 C 
ATOM     90  C64 UNL A   1      11.176  56.787  13.993  1.00  0.00    +0.000 C 
ATOM     91  C65 UNL A   1      10.574  57.077  12.767  1.00  0.00    +0.000 C 
ATOM     96  C67 UNL A   1      10.678  56.188  11.695  1.00  0.00    +0.000 C 
BRANCH   91   92
ATOM     92  S1  UNL A   1       9.729  58.626  12.563  1.00  0.00    +0.000 S 
ATOM     94  O5  UNL A   1      10.732  59.654  12.460  1.00  0.00    +0.000 O 
ATOM     95  O6  UNL A   1       8.730  58.445  11.513  1.00  0.00    +0.000 O 
BRANCH   92   93
ATOM    149  H44 UNL A   1       7.795  58.799  13.900  1.00  0.00    +0.000 H 
ATOM    147  H42 UNL A   1       9.091  59.803  14.502  1.00  0.00    +0.000 H 
ATOM    148  H43 UNL A   1       9.125  58.078  14.774  1.00  0.00    +0.000 H 
ATOM     93  C66 UNL A   1       8.847  58.849  14.086  1.00  0.00    +0.000 C 
ENDBRANCH   92   93
ENDBRANCH   91   92
ENDBRANCH   87   88
BRANCH   98   99
ATOM     99  C69 UNL A   1      11.038  52.218  14.707  1.00  0.00    +0.000 C 
ATOM    100  C70 UNL A   1      10.941  52.553  16.065  1.00  0.00    +0.000 C 
ATOM    101  C71 UNL A   1       9.722  52.412  16.730  1.00  0.00    +0.000 C 
ATOM    102  C72 UNL A   1       8.610  51.922  16.046  1.00  0.00    +0.000 C 
ATOM    103  C73 UNL A   1       8.723  51.581  14.701  1.00  0.00    +0.000 C 
ATOM    104  F16 UNL A   1       7.657  51.092  14.055  1.00  0.00    +0.000 F 
ATOM    105  C74 UNL A   1       9.927  51.725  14.019  1.00  0.00    +0.000 C 
ATOM    152  H47 UNL A   1      11.769  52.904  16.571  1.00  0.00    +0.000 H 
ATOM    153  H48 UNL A   1       9.644  52.668  17.726  1.00  0.00    +0.000 H 
ATOM    154  H49 UNL A   1       7.708  51.814  16.534  1.00  0.00    +0.000 H 
ATOM    155  H50 UNL A   1       9.997  51.470  13.021  1.00  0.00    +0.000 H 
ENDBRANCH   98   99
ENDBRANCH    4    3
ENDBRANCH    5    4
ENDBRANCH    7    5
ENDBRANCH    8    7
BRANCH    8    9
ATOM      9  C7  UNL A   1      15.355  48.820   8.803  1.00  0.00    +0.000 C 
ATOM    114  H9  UNL A   1      14.544  48.300   8.337  1.00  0.00    +0.000 H 
ATOM    113  H8  UNL A   1      15.412  49.839   8.484  1.00  0.00    +0.000 H 
BRANCH    9   10
ATOM     10  O2  UNL A   1      16.556  48.158   8.423  1.00  0.00    +0.000 O 
ATOM    115  H10 UNL A   1      16.878  47.623   9.166  1.00  0.00    +0.000 H 
ENDBRANCH    9   10
ENDBRANCH    8    9
ENDBRANCH   11    8
ENDBRANCH   13   11
ENDBRANCH   14   13
ENDBRANCH   15   14
ENDBRANCH   16   15
ENDBRANCH   17   16
ENDBRANCH   18   17
ENDBRANCH   19   18
ENDBRANCH   20   19
ENDBRANCH   21   20
ENDBRANCH   23   21
ENDBRANCH   27   26
BRANCH   31   32
ATOM     33  C25 UNL A   1      15.230  52.559   7.337  1.00  0.00    +0.000 C 
ATOM     34  F1  UNL A   1      15.967  51.846   8.202  1.00  0.00    +0.000 F 
ATOM     35  C26 UNL A   1      14.671  53.766   7.759  1.00  0.00    +0.000 C 
ATOM     36  F2  UNL A   1      14.899  54.207   9.003  1.00  0.00    +0.000 F 
ATOM     37  C27 UNL A   1      13.879  54.512   6.897  1.00  0.00    +0.000 C 
ATOM     38  F3  UNL A   1      13.313  55.652   7.316  1.00  0.00    +0.000 F 
ATOM     39  C28 UNL A   1      13.706  54.094   5.591  1.00  0.00    +0.000 C 
ATOM     40  F4  UNL A   1      12.962  54.818   4.741  1.00  0.00    +0.000 F 
ATOM     41  C29 UNL A   1      14.321  52.928   5.148  1.00  0.00    +0.000 C 
ATOM     42  F5  UNL A   1      14.242  52.642   3.839  1.00  0.00    +0.000 F 
ATOM     32  C24 UNL A   1      15.041  52.097   6.032  1.00  0.00    +0.000 C 
ENDBRANCH   31   32
BRANCH   48   49
ATOM     49  C35 UNL A   1      16.859  52.713   1.177  1.00  0.00    +0.000 C 
ATOM     50  C36 UNL A   1      17.654  53.864   0.961  1.00  0.00    +0.000 C 
ATOM     51  F6  UNL A   1      18.980  53.783   0.781  1.00  0.00    +0.000 F 
ATOM     52  C37 UNL A   1      17.094  55.144   0.901  1.00  0.00    +0.000 C 
ATOM     53  F7  UNL A   1      17.885  56.220   0.767  1.00  0.00    +0.000 F 
ATOM     54  C38 UNL A   1      15.724  55.307   0.979  1.00  0.00    +0.000 C 
ATOM     55  F8  UNL A   1      15.182  56.531   0.909  1.00  0.00    +0.000 F 
ATOM     56  C39 UNL A   1      14.915  54.194   1.112  1.00  0.00    +0.000 C 
ATOM     57  F9  UNL A   1      13.582  54.333   1.136  1.00  0.00    +0.000 F 
ATOM     58  C40 UNL A   1      15.474  52.923   1.225  1.00  0.00    +0.000 C 
ATOM     59  F10 UNL A   1      14.648  51.877   1.373  1.00  0.00    +0.000 F 
ENDBRANCH   48   49
BRANCH   63   64
ATOM     65  C45 UNL A   1      16.313  49.760  -4.002  1.00  0.00    +0.000 C 
ATOM     66  F11 UNL A   1      16.026  51.050  -3.777  1.00  0.00    +0.000 F 
ATOM     67  C46 UNL A   1      17.168  49.538  -5.097  1.00  0.00    +0.000 C 
ATOM     68  F12 UNL A   1      17.673  50.577  -5.785  1.00  0.00    +0.000 F 
ATOM     69  C47 UNL A   1      17.556  48.260  -5.416  1.00  0.00    +0.000 C 
ATOM     70  F13 UNL A   1      18.432  48.043  -6.411  1.00  0.00    +0.000 F 
ATOM     71  C48 UNL A   1      17.049  47.211  -4.663  1.00  0.00    +0.000 C 
ATOM     72  F14 UNL A   1      17.431  45.963  -4.973  1.00  0.00    +0.000 F 
ATOM     73  C49 UNL A   1      16.210  47.435  -3.537  1.00  0.00    +0.000 C 
ATOM     74  F15 UNL A   1      15.853  46.371  -2.807  1.00  0.00    +0.000 F 
ATOM     64  C44 UNL A   1      15.836  48.721  -3.122  1.00  0.00    +0.000 C 
ENDBRANCH   63   64
TORSDOF 26
ENDMDL
MODEL 7
REMARK VINA RESULT:      -7.1     32.363     37.963
ROOT
ATOM    132  H27 UNL A   1      22.617  19.958   3.800  1.00  0.00    +0.000 H 
ATOM    133  H28 UNL A   1      20.589  18.855   5.134  1.00  0.00    +0.000 H 
ATOM    134  H29 UNL A   1      24.117  18.255   7.176  1.00  0.00    +0.000 H 
ATOM    135  H30 UNL A   1      18.990  12.361   6.786  1.00  0.00    +0.000 H 
ATOM    136  H31 UNL A   1      21.113  11.848   5.522  1.00  0.00    +0.000 H 
ATOM    137  H32 UNL A   1      20.537  15.961   5.355  1.00  0.00    +0.000 H 
ATOM    138  H33 UNL A   1      17.566  17.854   5.845  1.00  0.00    +0.000 H 
ATOM    139  H34 UNL A   1      19.207  19.579   6.881  1.00  0.00    +0.000 H 
ATOM    140  H35 UNL A   1      23.266  17.951   1.939  1.00  0.00    +0.000 H 
ATOM    141  H36 UNL A   1      21.295  16.341   2.391  1.00  0.00    +0.000 H 
ATOM     27  C20 UNL A   1      22.340  14.068   4.060  1.00  0.00    +0.000 C 
ATOM     28  C21 UNL A   1      22.831  15.459   3.814  1.00  0.00    +0.000 C 
ATOM     29  N4  UNL A   1      24.053  15.766   4.162  1.00  0.00    +0.000 N 
ATOM     30  C22 UNL A   1      24.311  17.010   3.640  1.00  0.00    +0.000 C 
ATOM     31  C23 UNL A   1      24.812  17.910   4.536  1.00  0.00    +0.000 C 
ATOM     43  C30 UNL A   1      23.755  18.675   5.140  1.00  0.00    +0.000 C 
ATOM     44  C31 UNL A   1      22.651  19.308   4.602  1.00  0.00    +0.000 C 
ATOM     45  C32 UNL A   1      21.585  18.857   5.404  1.00  0.00    +0.000 C 
ATOM     46  C33 UNL A   1      22.091  18.414   6.618  1.00  0.00    +0.000 C 
ATOM     47  N5  UNL A   1      23.457  18.415   6.461  1.00  0.00    +0.000 N 
ATOM     48  C34 UNL A   1      21.513  17.833   7.800  1.00  0.00    +0.000 C 
ATOM     60  C41 UNL A   1      20.162  17.863   7.891  1.00  0.00    +0.000 C 
ATOM     61  N6  UNL A   1      19.571  16.688   8.226  1.00  0.00    +0.000 N 
ATOM     62  C42 UNL A   1      18.742  16.507   7.243  1.00  0.00    +0.000 C 
ATOM     63  C43 UNL A   1      18.215  15.178   6.926  1.00  0.00    +0.000 C 
ATOM     75  C50 UNL A   1      19.256  14.499   6.280  1.00  0.00    +0.000 C 
ATOM     76  C51 UNL A   1      19.561  13.070   6.300  1.00  0.00    +0.000 C 
ATOM     77  C52 UNL A   1      20.698  12.790   5.595  1.00  0.00    +0.000 C 
ATOM     78  C53 UNL A   1      21.265  13.987   4.953  1.00  0.00    +0.000 C 
ATOM     79  N7  UNL A   1      20.384  14.999   5.499  1.00  0.00    +0.000 N 
ATOM     80  C54 UNL A   1      18.318  17.708   6.535  1.00  0.00    +0.000 C 
ATOM     81  C55 UNL A   1      19.204  18.562   7.053  1.00  0.00    +0.000 C 
ATOM     82  C56 UNL A   1      23.242  17.222   2.668  1.00  0.00    +0.000 C 
ATOM     83  C57 UNL A   1      22.228  16.362   2.830  1.00  0.00    +0.000 C 
ENDROOT
BRANCH   27   26
ATOM    130  H25 UNL A   1      24.496   9.927   3.658  1.00  0.00    +0.000 H 
ATOM    131  H26 UNL A   1      23.782  11.891   4.858  1.00  0.00    +0.000 H 
ATOM    142  H37 UNL A   1      23.420  14.050   1.291  1.00  0.00    +0.000 H 
ATOM    143  H38 UNL A   1      24.437  12.147   0.119  1.00  0.00    +0.000 H 
ATOM     84  C58 UNL A   1      23.663  13.205   1.831  1.00  0.00    +0.000 C 
ATOM     85  C59 UNL A   1      24.247  12.064   1.129  1.00  0.00    +0.000 C 
ATOM     23  C16 UNL A   1      24.561  10.855   1.779  1.00  0.00    +0.000 C 
ATOM     24  C17 UNL A   1      24.323  10.804   3.139  1.00  0.00    +0.000 C 
ATOM     25  C18 UNL A   1      23.839  11.951   3.830  1.00  0.00    +0.000 C 
ATOM     26  C19 UNL A   1      23.422  13.194   3.219  1.00  0.00    +0.000 C 
BRANCH   23   21
ATOM     21  C15 UNL A   1      24.974   9.580   1.085  1.00  0.00    +0.000 C 
ATOM     22  O4  UNL A   1      26.131   9.440   0.696  1.00  0.00    +0.000 O 
BRANCH   21   20
ATOM    129  H24 UNL A   1      24.346   7.664   0.822  1.00  0.00    +0.000 H 
ATOM     20  N3  UNL A   1      24.040   8.599   0.790  1.00  0.00    +0.000 N 
BRANCH   20   19
ATOM     19  C14 UNL A   1      22.660   8.825   0.440  1.00  0.00    +0.000 C 
ATOM    127  H22 UNL A   1      22.577   9.820   0.054  1.00  0.00    +0.000 H 
ATOM    128  H23 UNL A   1      22.408   8.063  -0.267  1.00  0.00    +0.000 H 
BRANCH   19   18
ATOM     18  C13 UNL A   1      21.650   8.680   1.590  1.00  0.00    +0.000 C 
ATOM    125  H20 UNL A   1      21.011   7.856   1.352  1.00  0.00    +0.000 H 
ATOM    126  H21 UNL A   1      22.252   8.557   2.466  1.00  0.00    +0.000 H 
BRANCH   18   17
ATOM     17  C12 UNL A   1      20.748   9.886   1.904  1.00  0.00    +0.000 C 
ATOM    123  H18 UNL A   1      21.381  10.740   2.020  1.00  0.00    +0.000 H 
ATOM    124  H19 UNL A   1      20.062   9.943   1.085  1.00  0.00    +0.000 H 
BRANCH   17   16
ATOM    121  H16 UNL A   1      19.267  10.669   3.205  1.00  0.00    +0.000 H 
ATOM    122  H17 UNL A   1      19.311   8.880   3.044  1.00  0.00    +0.000 H 
ATOM     16  C11 UNL A   1      19.870   9.786   3.157  1.00  0.00    +0.000 C 
BRANCH   16   15
ATOM    119  H14 UNL A   1      21.630   9.405   4.285  1.00  0.00    +0.000 H 
ATOM     15  C10 UNL A   1      20.609   9.649   4.492  1.00  0.00    +0.000 C 
ATOM    120  H15 UNL A   1      20.493  10.585   4.998  1.00  0.00    +0.000 H 
BRANCH   15   14
ATOM    118  H13 UNL A   1      20.681   7.721   5.381  1.00  0.00    +0.000 H 
ATOM    117  H12 UNL A   1      19.053   8.336   5.125  1.00  0.00    +0.000 H 
ATOM     14  C9  UNL A   1      20.048   8.582   5.430  1.00  0.00    +0.000 C 
BRANCH   14   13
ATOM    116  H11 UNL A   1      19.292   9.674   7.030  1.00  0.00    +0.000 H 
ATOM     13  N2  UNL A   1      20.020   9.052   6.798  1.00  0.00    +0.000 N 
BRANCH   13   11
ATOM     11  C8  UNL A   1      20.888   8.731   7.804  1.00  0.00    +0.000 C 
ATOM     12  O3  UNL A   1      20.386   8.442   8.894  1.00  0.00    +0.000 O 
BRANCH   11    8
ATOM    112  H7  UNL A   1      22.563   8.704   6.517  1.00  0.00    +0.000 H 
ATOM      8  C6  UNL A   1      22.416   8.640   7.575  1.00  0.00    +0.000 C 
BRANCH    8    7
ATOM    111  H6  UNL A   1      23.609   7.403   8.765  1.00  0.00    +0.000 H 
ATOM      7  N1  UNL A   1      22.975   7.354   8.013  1.00  0.00    +0.000 N 
BRANCH    7    5
ATOM      5  C5  UNL A   1      22.738   6.103   7.526  1.00  0.00    +0.000 C 
ATOM      6  O1  UNL A   1      22.686   5.974   6.300  1.00  0.00    +0.000 O 
BRANCH    5    4
ATOM      4  C4  UNL A   1      22.470   4.936   8.459  1.00  0.00    +0.000 C 
ATOM    109  H4  UNL A   1      22.546   4.029   7.895  1.00  0.00    +0.000 H 
ATOM    110  H5  UNL A   1      23.194   4.993   9.244  1.00  0.00    +0.000 H 
BRANCH    4    3
ATOM      2  C2  UNL A   1      20.810   4.888  10.460  1.00  0.00    +0.000 C 
ATOM      3  C3  UNL A   1      21.120   4.975   9.107  1.00  0.00    +0.000 C 
ATOM     98  N8  UNL A   1      19.428   5.015  10.598  1.00  0.00    +0.000 N 
ATOM    144  H39 UNL A   1      19.778   5.083   7.385  1.00  0.00    +0.000 H 
ATOM     86  C60 UNL A   1      19.888   5.068   8.411  1.00  0.00    +0.000 C 
ATOM     87  C61 UNL A   1      18.859   5.134   9.330  1.00  0.00    +0.000 C 
BRANCH    2    1
ATOM      1  C1  UNL A   1      21.744   4.577  11.589  1.00  0.00    +0.000 C 
ATOM    106  H1  UNL A   1      22.298   3.690  11.359  1.00  0.00    +0.000 H 
ATOM    107  H2  UNL A   1      21.180   4.423  12.485  1.00  0.00    +0.000 H 
ATOM    108  H3  UNL A   1      22.419   5.394  11.728  1.00  0.00    +0.000 H 
ENDBRANCH    2    1
BRANCH   87   88
ATOM     97  C68 UNL A   1      17.008   6.739   8.914  1.00  0.00    +0.000 C 
ATOM    145  H40 UNL A   1      16.813   3.398   9.083  1.00  0.00    +0.000 H 
ATOM    146  H41 UNL A   1      14.477   3.878   8.623  1.00  0.00    +0.000 H 
ATOM    150  H45 UNL A   1      15.349   7.999   8.554  1.00  0.00    +0.000 H 
ATOM    151  H46 UNL A   1      17.684   7.513   9.007  1.00  0.00    +0.000 H 
ATOM     88  C62 UNL A   1      17.445   5.416   9.049  1.00  0.00    +0.000 C 
ATOM     89  C63 UNL A   1      16.506   4.376   8.956  1.00  0.00    +0.000 C 
ATOM     90  C64 UNL A   1      15.160   4.648   8.696  1.00  0.00    +0.000 C 
ATOM     91  C65 UNL A   1      14.749   5.973   8.534  1.00  0.00    +0.000 C 
ATOM     96  C67 UNL A   1      15.664   7.021   8.656  1.00  0.00    +0.000 C 
BRANCH   91   92
ATOM     92  S1  UNL A   1      13.032   6.317   8.241  1.00  0.00    +0.000 S 
ATOM     94  O5  UNL A   1      12.962   7.505   7.431  1.00  0.00    +0.000 O 
ATOM     95  O6  UNL A   1      12.405   5.072   7.802  1.00  0.00    +0.000 O 
BRANCH   92   93
ATOM    149  H44 UNL A   1      11.316   6.559   9.839  1.00  0.00    +0.000 H 
ATOM    147  H42 UNL A   1      12.612   7.701  10.101  1.00  0.00    +0.000 H 
ATOM    148  H43 UNL A   1      12.812   6.030  10.570  1.00  0.00    +0.000 H 
ATOM     93  C66 UNL A   1      12.377   6.689   9.847  1.00  0.00    +0.000 C 
ENDBRANCH   92   93
ENDBRANCH   91   92
ENDBRANCH   87   88
BRANCH   98   99
ATOM     99  C69 UNL A   1      18.700   4.984  11.818  1.00  0.00    +0.000 C 
ATOM    100  C70 UNL A   1      18.212   3.761  12.301  1.00  0.00    +0.000 C 
ATOM    101  C71 UNL A   1      17.461   3.728  13.477  1.00  0.00    +0.000 C 
ATOM    102  C72 UNL A   1      17.184   4.913  14.157  1.00  0.00    +0.000 C 
ATOM    103  C73 UNL A   1      17.663   6.122  13.660  1.00  0.00    +0.000 C 
ATOM    104  F16 UNL A   1      17.375   7.259  14.306  1.00  0.00    +0.000 F 
ATOM    105  C74 UNL A   1      18.421   6.173  12.496  1.00  0.00    +0.000 C 
ATOM    152  H47 UNL A   1      18.410   2.887  11.789  1.00  0.00    +0.000 H 
ATOM    153  H48 UNL A   1      17.111   2.829  13.841  1.00  0.00    +0.000 H 
ATOM    154  H49 UNL A   1      16.627   4.894  15.025  1.00  0.00    +0.000 H 
ATOM    155  H50 UNL A   1      18.772   7.076  12.138  1.00  0.00    +0.000 H 
ENDBRANCH   98   99
ENDBRANCH    4    3
ENDBRANCH    5    4
ENDBRANCH    7    5
ENDBRANCH    8    7
BRANCH    8    9
ATOM      9  C7  UNL A   1      23.161   9.814   8.225  1.00  0.00    +0.000 C 
ATOM    114  H9  UNL A   1      23.237   9.602   9.272  1.00  0.00    +0.000 H 
ATOM    113  H8  UNL A   1      24.122   9.904   7.764  1.00  0.00    +0.000 H 
BRANCH    9   10
ATOM     10  O2  UNL A   1      22.477  11.055   8.093  1.00  0.00    +0.000 O 
ATOM    115  H10 UNL A   1      22.175  11.350   8.966  1.00  0.00    +0.000 H 
ENDBRANCH    9   10
ENDBRANCH    8    9
ENDBRANCH   11    8
ENDBRANCH   13   11
ENDBRANCH   14   13
ENDBRANCH   15   14
ENDBRANCH   16   15
ENDBRANCH   17   16
ENDBRANCH   18   17
ENDBRANCH   19   18
ENDBRANCH   20   19
ENDBRANCH   21   20
ENDBRANCH   23   21
ENDBRANCH   27   26
BRANCH   31   32
ATOM     33  C25 UNL A   1      25.840  16.473   6.294  1.00  0.00    +0.000 C 
ATOM     34  F1  UNL A   1      24.639  15.905   6.481  1.00  0.00    +0.000 F 
ATOM     35  C26 UNL A   1      26.901  16.099   7.120  1.00  0.00    +0.000 C 
ATOM     36  F2  UNL A   1      26.716  15.165   8.062  1.00  0.00    +0.000 F 
ATOM     37  C27 UNL A   1      28.148  16.690   6.972  1.00  0.00    +0.000 C 
ATOM     38  F3  UNL A   1      29.156  16.356   7.790  1.00  0.00    +0.000 F 
ATOM     39  C28 UNL A   1      28.360  17.598   5.952  1.00  0.00    +0.000 C 
ATOM     40  F4  UNL A   1      29.566  18.160   5.783  1.00  0.00    +0.000 F 
ATOM     41  C29 UNL A   1      27.322  17.919   5.083  1.00  0.00    +0.000 C 
ATOM     42  F5  UNL A   1      27.614  18.693   4.025  1.00  0.00    +0.000 F 
ATOM     32  C24 UNL A   1      26.019  17.415   5.278  1.00  0.00    +0.000 C 
ENDBRANCH   31   32
BRANCH   48   49
ATOM     49  C35 UNL A   1      22.253  17.068   8.877  1.00  0.00    +0.000 C 
ATOM     50  C36 UNL A   1      22.705  15.728   8.808  1.00  0.00    +0.000 C 
ATOM     51  F6  UNL A   1      22.700  15.039   7.659  1.00  0.00    +0.000 F 
ATOM     52  C37 UNL A   1      23.202  15.062   9.932  1.00  0.00    +0.000 C 
ATOM     53  F7  UNL A   1      23.555  13.769   9.848  1.00  0.00    +0.000 F 
ATOM     54  C38 UNL A   1      23.333  15.730  11.135  1.00  0.00    +0.000 C 
ATOM     55  F8  UNL A   1      23.822  15.098  12.211  1.00  0.00    +0.000 F 
ATOM     56  C39 UNL A   1      22.973  17.063  11.213  1.00  0.00    +0.000 C 
ATOM     57  F9  UNL A   1      23.144  17.737  12.359  1.00  0.00    +0.000 F 
ATOM     58  C40 UNL A   1      22.428  17.714  10.109  1.00  0.00    +0.000 C 
ATOM     59  F10 UNL A   1      22.075  19.001  10.241  1.00  0.00    +0.000 F 
ENDBRANCH   48   49
BRANCH   63   64
ATOM     65  C45 UNL A   1      15.601  15.081   6.790  1.00  0.00    +0.000 C 
ATOM     66  F11 UNL A   1      15.585  15.647   5.575  1.00  0.00    +0.000 F 
ATOM     67  C46 UNL A   1      14.386  14.477   7.165  1.00  0.00    +0.000 C 
ATOM     68  F12 UNL A   1      13.350  14.451   6.310  1.00  0.00    +0.000 F 
ATOM     69  C47 UNL A   1      14.283  13.842   8.379  1.00  0.00    +0.000 C 
ATOM     70  F13 UNL A   1      13.154  13.198   8.714  1.00  0.00    +0.000 F 
ATOM     71  C48 UNL A   1      15.384  13.854   9.223  1.00  0.00    +0.000 C 
ATOM     72  F14 UNL A   1      15.282  13.229  10.407  1.00  0.00    +0.000 F 
ATOM     73  C49 UNL A   1      16.621  14.434   8.833  1.00  0.00    +0.000 C 
ATOM     74  F15 UNL A   1      17.658  14.307   9.670  1.00  0.00    +0.000 F 
ATOM     64  C44 UNL A   1      16.807  15.036   7.581  1.00  0.00    +0.000 C 
ENDBRANCH   63   64
TORSDOF 26
ENDMDL
MODEL 8
REMARK VINA RESULT:      -7.1     37.679     45.461
ROOT
ATOM    132  H27 UNL A   1      11.144  -5.135  24.729  1.00  0.00    +0.000 H 
ATOM    133  H28 UNL A   1      11.163  -2.810  26.032  1.00  0.00    +0.000 H 
ATOM    134  H29 UNL A   1       7.370  -3.622  24.642  1.00  0.00    +0.000 H 
ATOM    135  H30 UNL A   1      10.047   3.707  24.094  1.00  0.00    +0.000 H 
ATOM    136  H31 UNL A   1       9.730   2.648  21.825  1.00  0.00    +0.000 H 
ATOM    137  H32 UNL A   1      10.682  -0.397  24.490  1.00  0.00    +0.000 H 
ATOM    138  H33 UNL A   1      12.280  -0.213  27.662  1.00  0.00    +0.000 H 
ATOM    139  H34 UNL A   1      10.679  -2.177  28.235  1.00  0.00    +0.000 H 
ATOM    140  H35 UNL A   1      12.006  -4.383  22.158  1.00  0.00    +0.000 H 
ATOM    141  H36 UNL A   1      12.632  -1.925  22.656  1.00  0.00    +0.000 H 
ATOM     27  C20 UNL A   1      10.420  -0.188  21.592  1.00  0.00    +0.000 C 
ATOM     28  C21 UNL A   1      10.485  -1.633  21.975  1.00  0.00    +0.000 C 
ATOM     29  N4  UNL A   1       9.516  -2.426  21.601  1.00  0.00    +0.000 N 
ATOM     30  C22 UNL A   1       9.922  -3.707  21.891  1.00  0.00    +0.000 C 
ATOM     31  C23 UNL A   1       9.016  -4.444  22.596  1.00  0.00    +0.000 C 
ATOM     43  C30 UNL A   1       9.253  -4.334  24.010  1.00  0.00    +0.000 C 
ATOM     44  C31 UNL A   1      10.411  -4.409  24.759  1.00  0.00    +0.000 C 
ATOM     45  C32 UNL A   1      10.355  -3.261  25.575  1.00  0.00    +0.000 C 
ATOM     46  C33 UNL A   1       9.036  -2.836  25.663  1.00  0.00    +0.000 C 
ATOM     47  N5  UNL A   1       8.349  -3.601  24.750  1.00  0.00    +0.000 N 
ATOM     48  C34 UNL A   1       8.374  -1.737  26.310  1.00  0.00    +0.000 C 
ATOM     60  C41 UNL A   1       9.109  -1.022  27.197  1.00  0.00    +0.000 C 
ATOM     61  N6  UNL A   1       9.057   0.326  27.048  1.00  0.00    +0.000 N 
ATOM     62  C42 UNL A   1      10.311   0.636  26.915  1.00  0.00    +0.000 C 
ATOM     63  C43 UNL A   1      10.723   1.892  26.286  1.00  0.00    +0.000 C 
ATOM     75  C50 UNL A   1      10.539   1.709  24.910  1.00  0.00    +0.000 C 
ATOM     76  C51 UNL A   1      10.176   2.701  23.900  1.00  0.00    +0.000 C 
ATOM     77  C52 UNL A   1      10.027   2.130  22.667  1.00  0.00    +0.000 C 
ATOM     78  C53 UNL A   1      10.340   0.692  22.678  1.00  0.00    +0.000 C 
ATOM     79  N7  UNL A   1      10.547   0.496  24.098  1.00  0.00    +0.000 N 
ATOM     80  C54 UNL A   1      11.266  -0.302  27.493  1.00  0.00    +0.000 C 
ATOM     81  C55 UNL A   1      10.426  -1.310  27.734  1.00  0.00    +0.000 C 
ATOM     82  C56 UNL A   1      11.355  -3.583  22.139  1.00  0.00    +0.000 C 
ATOM     83  C57 UNL A   1      11.730  -2.312  22.338  1.00  0.00    +0.000 C 
ENDROOT
BRANCH   27   26
ATOM    130  H25 UNL A   1       8.526   1.579  17.687  1.00  0.00    +0.000 H 
ATOM    131  H26 UNL A   1       8.439   0.650  19.909  1.00  0.00    +0.000 H 
ATOM    142  H37 UNL A   1      12.186  -1.145  19.401  1.00  0.00    +0.000 H 
ATOM    143  H38 UNL A   1      12.121  -0.453  17.047  1.00  0.00    +0.000 H 
ATOM     84  C58 UNL A   1      11.379  -0.596  19.067  1.00  0.00    +0.000 C 
ATOM     85  C59 UNL A   1      11.352  -0.164  17.671  1.00  0.00    +0.000 C 
ATOM     23  C16 UNL A   1      10.316   0.631  17.144  1.00  0.00    +0.000 C 
ATOM     24  C17 UNL A   1       9.290   0.962  18.009  1.00  0.00    +0.000 C 
ATOM     25  C18 UNL A   1       9.281   0.461  19.342  1.00  0.00    +0.000 C 
ATOM     26  C19 UNL A   1      10.344  -0.290  19.971  1.00  0.00    +0.000 C 
BRANCH   23   21
ATOM     21  C15 UNL A   1      10.326   1.275  15.780  1.00  0.00    +0.000 C 
ATOM     22  O4  UNL A   1       9.846   0.681  14.817  1.00  0.00    +0.000 O 
BRANCH   21   20
ATOM    129  H24 UNL A   1      11.927   2.466  15.388  1.00  0.00    +0.000 H 
ATOM     20  N3  UNL A   1      10.960   2.491  15.574  1.00  0.00    +0.000 N 
BRANCH   20   19
ATOM     19  C14 UNL A   1      10.332   3.788  15.608  1.00  0.00    +0.000 C 
ATOM    127  H22 UNL A   1      10.935   4.461  15.035  1.00  0.00    +0.000 H 
ATOM    128  H23 UNL A   1       9.347   3.646  15.214  1.00  0.00    +0.000 H 
BRANCH   19   18
ATOM     18  C13 UNL A   1      10.140   4.398  17.006  1.00  0.00    +0.000 C 
ATOM    125  H20 UNL A   1      10.076   5.459  16.886  1.00  0.00    +0.000 H 
ATOM    126  H21 UNL A   1       9.261   3.924  17.391  1.00  0.00    +0.000 H 
BRANCH   18   17
ATOM     17  C12 UNL A   1      11.224   4.119  18.061  1.00  0.00    +0.000 C 
ATOM    123  H18 UNL A   1      11.038   3.146  18.465  1.00  0.00    +0.000 H 
ATOM    124  H19 UNL A   1      12.153   4.218  17.540  1.00  0.00    +0.000 H 
BRANCH   17   16
ATOM    121  H16 UNL A   1      10.840   4.644  20.079  1.00  0.00    +0.000 H 
ATOM    122  H17 UNL A   1      12.361   5.288  19.370  1.00  0.00    +0.000 H 
ATOM     16  C11 UNL A   1      11.316   5.100  19.235  1.00  0.00    +0.000 C 
BRANCH   16   15
ATOM    119  H14 UNL A   1      10.024   6.411  18.173  1.00  0.00    +0.000 H 
ATOM     15  C10 UNL A   1      10.674   6.475  19.020  1.00  0.00    +0.000 C 
ATOM    120  H15 UNL A   1      10.163   6.714  19.929  1.00  0.00    +0.000 H 
BRANCH   15   14
ATOM    118  H13 UNL A   1      11.339   8.162  17.913  1.00  0.00    +0.000 H 
ATOM    117  H12 UNL A   1      12.637   7.201  18.612  1.00  0.00    +0.000 H 
ATOM     14  C9  UNL A   1      11.662   7.613  18.773  1.00  0.00    +0.000 C 
BRANCH   14   13
ATOM    116  H11 UNL A   1      11.531   8.120  20.785  1.00  0.00    +0.000 H 
ATOM     13  N2  UNL A   1      11.713   8.515  19.902  1.00  0.00    +0.000 N 
BRANCH   13   11
ATOM     11  C8  UNL A   1      11.984   9.855  19.882  1.00  0.00    +0.000 C 
ATOM     12  O3  UNL A   1      11.539  10.494  18.925  1.00  0.00    +0.000 O 
BRANCH   11    8
ATOM    112  H7  UNL A   1      13.637  10.012  21.188  1.00  0.00    +0.000 H 
ATOM      8  C6  UNL A   1      12.731  10.561  21.040  1.00  0.00    +0.000 C 
BRANCH    8    7
ATOM    111  H6  UNL A   1      12.490  10.194  23.084  1.00  0.00    +0.000 H 
ATOM      7  N1  UNL A   1      11.982  10.513  22.303  1.00  0.00    +0.000 N 
BRANCH    7    5
ATOM      5  C5  UNL A   1      10.684  10.849  22.545  1.00  0.00    +0.000 C 
ATOM      6  O1  UNL A   1      10.154  11.652  21.774  1.00  0.00    +0.000 O 
BRANCH    5    4
ATOM      4  C4  UNL A   1       9.950  10.315  23.762  1.00  0.00    +0.000 C 
ATOM    109  H4  UNL A   1      10.673  10.078  24.515  1.00  0.00    +0.000 H 
ATOM    110  H5  UNL A   1       9.269  11.079  24.075  1.00  0.00    +0.000 H 
BRANCH    4    3
ATOM      2  C2  UNL A   1       8.392   8.329  24.388  1.00  0.00    +0.000 C 
ATOM      3  C3  UNL A   1       9.134   9.089  23.489  1.00  0.00    +0.000 C 
ATOM     98  N8  UNL A   1       7.763   7.308  23.676  1.00  0.00    +0.000 N 
ATOM    144  H39 UNL A   1       9.505   8.746  21.363  1.00  0.00    +0.000 H 
ATOM     86  C60 UNL A   1       9.017   8.458  22.225  1.00  0.00    +0.000 C 
ATOM     87  C61 UNL A   1       8.144   7.392  22.336  1.00  0.00    +0.000 C 
BRANCH    2    1
ATOM      1  C1  UNL A   1       8.356   8.462  25.878  1.00  0.00    +0.000 C 
ATOM    106  H1  UNL A   1       8.554   7.510  26.326  1.00  0.00    +0.000 H 
ATOM    107  H2  UNL A   1       7.389   8.805  26.182  1.00  0.00    +0.000 H 
ATOM    108  H3  UNL A   1       9.098   9.165  26.191  1.00  0.00    +0.000 H 
ENDBRANCH    2    1
BRANCH   87   88
ATOM     97  C68 UNL A   1       6.603   7.104  20.408  1.00  0.00    +0.000 C 
ATOM    145  H40 UNL A   1       8.754   4.857  21.656  1.00  0.00    +0.000 H 
ATOM    146  H41 UNL A   1       7.844   3.524  19.841  1.00  0.00    +0.000 H 
ATOM    150  H45 UNL A   1       5.339   6.732  18.755  1.00  0.00    +0.000 H 
ATOM    151  H46 UNL A   1       6.255   8.062  20.567  1.00  0.00    +0.000 H 
ATOM     88  C62 UNL A   1       7.601   6.581  21.239  1.00  0.00    +0.000 C 
ATOM     89  C63 UNL A   1       8.038   5.262  21.032  1.00  0.00    +0.000 C 
ATOM     90  C64 UNL A   1       7.515   4.490  19.991  1.00  0.00    +0.000 C 
ATOM     91  C65 UNL A   1       6.541   5.041  19.155  1.00  0.00    +0.000 C 
ATOM     96  C67 UNL A   1       6.073   6.339  19.366  1.00  0.00    +0.000 C 
BRANCH   91   92
ATOM     92  S1  UNL A   1       5.852   4.044  17.856  1.00  0.00    +0.000 S 
ATOM     94  O5  UNL A   1       6.433   2.731  17.966  1.00  0.00    +0.000 O 
ATOM     95  O6  UNL A   1       4.403   4.227  17.886  1.00  0.00    +0.000 O 
BRANCH   92   93
ATOM    149  H44 UNL A   1       6.648   5.833  16.544  1.00  0.00    +0.000 H 
ATOM    147  H42 UNL A   1       5.692   4.713  15.602  1.00  0.00    +0.000 H 
ATOM    148  H43 UNL A   1       7.333   4.306  16.042  1.00  0.00    +0.000 H 
ATOM     93  C66 UNL A   1       6.440   4.800  16.363  1.00  0.00    +0.000 C 
ENDBRANCH   92   93
ENDBRANCH   91   92
ENDBRANCH   87   88
BRANCH   98   99
ATOM     99  C69 UNL A   1       6.909   6.310  24.218  1.00  0.00    +0.000 C 
ATOM    100  C70 UNL A   1       5.548   6.591  24.404  1.00  0.00    +0.000 C 
ATOM    101  C71 UNL A   1       4.711   5.630  24.974  1.00  0.00    +0.000 C 
ATOM    102  C72 UNL A   1       5.236   4.401  25.372  1.00  0.00    +0.000 C 
ATOM    103  C73 UNL A   1       6.592   4.139  25.194  1.00  0.00    +0.000 C 
ATOM    104  F16 UNL A   1       7.094   2.965  25.597  1.00  0.00    +0.000 F 
ATOM    105  C74 UNL A   1       7.438   5.081  24.619  1.00  0.00    +0.000 C 
ATOM    152  H47 UNL A   1       5.166   7.506  24.119  1.00  0.00    +0.000 H 
ATOM    153  H48 UNL A   1       3.708   5.829  25.102  1.00  0.00    +0.000 H 
ATOM    154  H49 UNL A   1       4.622   3.688  25.796  1.00  0.00    +0.000 H 
ATOM    155  H50 UNL A   1       8.442   4.874  24.490  1.00  0.00    +0.000 H 
ENDBRANCH   98   99
ENDBRANCH    4    3
ENDBRANCH    5    4
ENDBRANCH    7    5
ENDBRANCH    8    7
BRANCH    8    9
ATOM      9  C7  UNL A   1      13.109  12.004  20.679  1.00  0.00    +0.000 C 
ATOM    114  H9  UNL A   1      12.318  12.399  20.076  1.00  0.00    +0.000 H 
ATOM    113  H8  UNL A   1      13.237  12.559  21.584  1.00  0.00    +0.000 H 
BRANCH    9   10
ATOM     10  O2  UNL A   1      14.308  12.096  19.918  1.00  0.00    +0.000 O 
ATOM    115  H10 UNL A   1      14.472  13.024  19.685  1.00  0.00    +0.000 H 
ENDBRANCH    9   10
ENDBRANCH    8    9
ENDBRANCH   11    8
ENDBRANCH   13   11
ENDBRANCH   14   13
ENDBRANCH   15   14
ENDBRANCH   16   15
ENDBRANCH   17   16
ENDBRANCH   18   17
ENDBRANCH   19   18
ENDBRANCH   20   19
ENDBRANCH   21   20
ENDBRANCH   23   21
ENDBRANCH   27   26
BRANCH   31   32
ATOM     33  C25 UNL A   1       7.213  -5.668  21.385  1.00  0.00    +0.000 C 
ATOM     34  F1  UNL A   1       7.931  -6.792  21.526  1.00  0.00    +0.000 F 
ATOM     35  C26 UNL A   1       6.024  -5.711  20.656  1.00  0.00    +0.000 C 
ATOM     36  F2  UNL A   1       5.604  -6.872  20.134  1.00  0.00    +0.000 F 
ATOM     37  C27 UNL A   1       5.273  -4.560  20.468  1.00  0.00    +0.000 C 
ATOM     38  F3  UNL A   1       4.151  -4.596  19.735  1.00  0.00    +0.000 F 
ATOM     39  C28 UNL A   1       5.666  -3.379  21.069  1.00  0.00    +0.000 C 
ATOM     40  F4  UNL A   1       4.937  -2.263  20.913  1.00  0.00    +0.000 F 
ATOM     41  C29 UNL A   1       6.813  -3.350  21.855  1.00  0.00    +0.000 C 
ATOM     42  F5  UNL A   1       7.073  -2.220  22.533  1.00  0.00    +0.000 F 
ATOM     32  C24 UNL A   1       7.650  -4.478  21.975  1.00  0.00    +0.000 C 
ENDBRANCH   31   32
BRANCH   48   49
ATOM     49  C35 UNL A   1       6.988  -1.214  25.994  1.00  0.00    +0.000 C 
ATOM     50  C36 UNL A   1       6.647  -0.251  25.014  1.00  0.00    +0.000 C 
ATOM     51  F6  UNL A   1       7.529   0.162  24.093  1.00  0.00    +0.000 F 
ATOM     52  C37 UNL A   1       5.365   0.302  24.942  1.00  0.00    +0.000 C 
ATOM     53  F7  UNL A   1       5.095   1.265  24.046  1.00  0.00    +0.000 F 
ATOM     54  C38 UNL A   1       4.368  -0.140  25.791  1.00  0.00    +0.000 C 
ATOM     55  F8  UNL A   1       3.134   0.378  25.717  1.00  0.00    +0.000 F 
ATOM     56  C39 UNL A   1       4.651  -1.136  26.709  1.00  0.00    +0.000 C 
ATOM     57  F9  UNL A   1       3.682  -1.611  27.503  1.00  0.00    +0.000 F 
ATOM     58  C40 UNL A   1       5.941  -1.651  26.817  1.00  0.00    +0.000 C 
ATOM     59  F10 UNL A   1       6.169  -2.601  27.737  1.00  0.00    +0.000 F 
ENDBRANCH   48   49
BRANCH   63   64
ATOM     65  C45 UNL A   1       9.962   3.531  28.182  1.00  0.00    +0.000 C 
ATOM     66  F11 UNL A   1       8.702   3.567  27.726  1.00  0.00    +0.000 F 
ATOM     67  C46 UNL A   1      10.123   4.043  29.484  1.00  0.00    +0.000 C 
ATOM     68  F12 UNL A   1       9.055   4.463  30.184  1.00  0.00    +0.000 F 
ATOM     69  C47 UNL A   1      11.364   4.039  30.073  1.00  0.00    +0.000 C 
ATOM     70  F13 UNL A   1      11.514   4.454  31.341  1.00  0.00    +0.000 F 
ATOM     71  C48 UNL A   1      12.439   3.562  29.338  1.00  0.00    +0.000 C 
ATOM     72  F14 UNL A   1      13.651   3.556  29.917  1.00  0.00    +0.000 F 
ATOM     73  C49 UNL A   1      12.274   3.016  28.036  1.00  0.00    +0.000 C 
ATOM     74  F15 UNL A   1      13.352   2.485  27.444  1.00  0.00    +0.000 F 
ATOM     64  C44 UNL A   1      11.023   2.931  27.410  1.00  0.00    +0.000 C 
ENDBRANCH   63   64
TORSDOF 26
ENDMDL
MODEL 9
REMARK VINA RESULT:      -7.1     37.059     42.024
ROOT
ATOM    132  H27 UNL A   1      12.768  13.023  23.404  1.00  0.00    +0.000 H 
ATOM    133  H28 UNL A   1      12.679  14.378  21.110  1.00  0.00    +0.000 H 
ATOM    134  H29 UNL A   1       8.911  13.048  22.114  1.00  0.00    +0.000 H 
ATOM    135  H30 UNL A   1      11.144  12.612  14.630  1.00  0.00    +0.000 H 
ATOM    136  H31 UNL A   1      10.840  10.327  15.657  1.00  0.00    +0.000 H 
ATOM    137  H32 UNL A   1      12.025  12.902  18.697  1.00  0.00    +0.000 H 
ATOM    138  H33 UNL A   1      13.678  16.044  18.488  1.00  0.00    +0.000 H 
ATOM    139  H34 UNL A   1      12.207  16.605  20.554  1.00  0.00    +0.000 H 
ATOM    140  H35 UNL A   1      13.529  10.454  22.547  1.00  0.00    +0.000 H 
ATOM    141  H36 UNL A   1      14.022  10.994  20.068  1.00  0.00    +0.000 H 
ATOM     27  C20 UNL A   1      11.689  10.016  18.442  1.00  0.00    +0.000 C 
ATOM     28  C21 UNL A   1      11.846  10.364  19.888  1.00  0.00    +0.000 C 
ATOM     29  N4  UNL A   1      10.918   9.992  20.729  1.00  0.00    +0.000 N 
ATOM     30  C22 UNL A   1      11.403  10.244  21.989  1.00  0.00    +0.000 C 
ATOM     31  C23 UNL A   1      10.558  10.951  22.794  1.00  0.00    +0.000 C 
ATOM     43  C30 UNL A   1      10.818  12.362  22.700  1.00  0.00    +0.000 C 
ATOM     44  C31 UNL A   1      11.995  13.085  22.722  1.00  0.00    +0.000 C 
ATOM     45  C32 UNL A   1      11.890  13.928  21.598  1.00  0.00    +0.000 C 
ATOM     46  C33 UNL A   1      10.551  14.052  21.253  1.00  0.00    +0.000 C 
ATOM     47  N5  UNL A   1       9.890  13.137  22.038  1.00  0.00    +0.000 N 
ATOM     48  C34 UNL A   1       9.839  14.737  20.209  1.00  0.00    +0.000 C 
ATOM     60  C41 UNL A   1      10.550  15.625  19.472  1.00  0.00    +0.000 C 
ATOM     61  N6  UNL A   1      10.417  15.508  18.126  1.00  0.00    +0.000 N 
ATOM     62  C42 UNL A   1      11.647  15.357  17.740  1.00  0.00    +0.000 C 
ATOM     63  C43 UNL A   1      11.972  14.749  16.448  1.00  0.00    +0.000 C 
ATOM     75  C50 UNL A   1      11.769  13.373  16.613  1.00  0.00    +0.000 C 
ATOM     76  C51 UNL A   1      11.327  12.393  15.622  1.00  0.00    +0.000 C 
ATOM     77  C52 UNL A   1      11.185  11.151  16.174  1.00  0.00    +0.000 C 
ATOM     78  C53 UNL A   1      11.581  11.122  17.591  1.00  0.00    +0.000 C 
ATOM     79  N7  UNL A   1      11.830  12.533  17.805  1.00  0.00    +0.000 N 
ATOM     80  C54 UNL A   1      12.667  15.894  18.632  1.00  0.00    +0.000 C 
ATOM     81  C55 UNL A   1      11.893  16.129  19.693  1.00  0.00    +0.000 C 
ATOM     82  C56 UNL A   1      12.832  10.466  21.786  1.00  0.00    +0.000 C 
ATOM     83  C57 UNL A   1      13.136  10.686  20.500  1.00  0.00    +0.000 C 
ENDROOT
BRANCH   27   26
ATOM    130  H25 UNL A   1       9.852   6.166  16.501  1.00  0.00    +0.000 H 
ATOM    131  H26 UNL A   1       9.740   8.375  17.458  1.00  0.00    +0.000 H 
ATOM    142  H37 UNL A   1      13.362   7.784  19.469  1.00  0.00    +0.000 H 
ATOM    143  H38 UNL A   1      13.307   5.442  18.737  1.00  0.00    +0.000 H 
ATOM     84  C58 UNL A   1      12.586   7.471  18.867  1.00  0.00    +0.000 C 
ATOM     85  C59 UNL A   1      12.565   6.081  18.411  1.00  0.00    +0.000 C 
ATOM     23  C16 UNL A   1      11.573   5.583  17.547  1.00  0.00    +0.000 C 
ATOM     24  C17 UNL A   1      10.581   6.468  17.168  1.00  0.00    +0.000 C 
ATOM     25  C18 UNL A   1      10.560   7.793  17.688  1.00  0.00    +0.000 C 
ATOM     26  C19 UNL A   1      11.584   8.395  18.513  1.00  0.00    +0.000 C 
BRANCH   23   21
ATOM     21  C15 UNL A   1      11.602   4.228  16.882  1.00  0.00    +0.000 C 
ATOM     22  O4  UNL A   1      12.022   4.118  15.733  1.00  0.00    +0.000 O 
BRANCH   21   20
ATOM    129  H24 UNL A   1      11.411   2.235  17.239  1.00  0.00    +0.000 H 
ATOM     20  N3  UNL A   1      11.069   3.116  17.516  1.00  0.00    +0.000 N 
BRANCH   20   19
ATOM     19  C14 UNL A   1      10.058   3.133  18.543  1.00  0.00    +0.000 C 
ATOM    127  H22 UNL A   1       9.392   3.946  18.336  1.00  0.00    +0.000 H 
ATOM    128  H23 UNL A   1       9.591   2.171  18.511  1.00  0.00    +0.000 H 
BRANCH   19   18
ATOM     18  C13 UNL A   1      10.573   3.301  19.982  1.00  0.00    +0.000 C 
ATOM    125  H20 UNL A   1      10.641   4.350  20.177  1.00  0.00    +0.000 H 
ATOM    126  H21 UNL A   1       9.871   2.764  20.586  1.00  0.00    +0.000 H 
BRANCH   18   17
ATOM     17  C12 UNL A   1      11.937   2.679  20.327  1.00  0.00    +0.000 C 
ATOM    123  H18 UNL A   1      12.541   2.714  19.445  1.00  0.00    +0.000 H 
ATOM    124  H19 UNL A   1      12.308   3.257  21.148  1.00  0.00    +0.000 H 
BRANCH   17   16
ATOM    121  H16 UNL A   1      10.971   0.812  20.604  1.00  0.00    +0.000 H 
ATOM    122  H17 UNL A   1      12.745   0.750  20.326  1.00  0.00    +0.000 H 
ATOM     16  C11 UNL A   1      11.931   1.230  20.827  1.00  0.00    +0.000 C 
BRANCH   16   15
ATOM    119  H14 UNL A   1      12.196  -0.021  22.525  1.00  0.00    +0.000 H 
ATOM     15  C10 UNL A   1      12.193   1.030  22.324  1.00  0.00    +0.000 C 
ATOM    120  H15 UNL A   1      13.131   1.502  22.531  1.00  0.00    +0.000 H 
BRANCH   15   14
ATOM    118  H13 UNL A   1      10.371   2.072  22.651  1.00  0.00    +0.000 H 
ATOM    117  H12 UNL A   1      11.646   2.473  23.795  1.00  0.00    +0.000 H 
ATOM     14  C9  UNL A   1      11.170   1.685  23.249  1.00  0.00    +0.000 C 
BRANCH   14   13
ATOM    116  H11 UNL A   1      10.173  -0.057  23.792  1.00  0.00    +0.000 H 
ATOM     13  N2  UNL A   1      10.622   0.728  24.184  1.00  0.00    +0.000 N 
BRANCH   13   11
ATOM     11  C8  UNL A   1      10.656   0.788  25.549  1.00  0.00    +0.000 C 
ATOM     12  O3  UNL A   1       9.875   0.049  26.154  1.00  0.00    +0.000 O 
BRANCH   11    8
ATOM    112  H7  UNL A   1      11.895   2.496  25.667  1.00  0.00    +0.000 H 
ATOM      8  C6  UNL A   1      11.680   1.667  26.308  1.00  0.00    +0.000 C 
BRANCH    8    7
ATOM    111  H6  UNL A   1      13.113   0.706  27.489  1.00  0.00    +0.000 H 
ATOM      7  N1  UNL A   1      12.948   0.967  26.554  1.00  0.00    +0.000 N 
BRANCH    7    5
ATOM      5  C5  UNL A   1      13.927   0.627  25.669  1.00  0.00    +0.000 C 
ATOM      6  O1  UNL A   1      14.419   1.535  24.994  1.00  0.00    +0.000 O 
BRANCH    5    4
ATOM      4  C4  UNL A   1      14.336  -0.821  25.469  1.00  0.00    +0.000 C 
ATOM    109  H4  UNL A   1      15.164  -0.847  24.792  1.00  0.00    +0.000 H 
ATOM    110  H5  UNL A   1      14.583  -1.211  26.434  1.00  0.00    +0.000 H 
BRANCH    4    3
ATOM      2  C2  UNL A   1      12.303  -2.437  25.609  1.00  0.00    +0.000 C 
ATOM      3  C3  UNL A   1      13.247  -1.688  24.914  1.00  0.00    +0.000 C 
ATOM     98  N8  UNL A   1      11.463  -3.048  24.678  1.00  0.00    +0.000 N 
ATOM    144  H39 UNL A   1      13.600  -1.560  22.761  1.00  0.00    +0.000 H 
ATOM     86  C60 UNL A   1      13.022  -1.925  23.534  1.00  0.00    +0.000 C 
ATOM     87  C61 UNL A   1      11.905  -2.725  23.394  1.00  0.00    +0.000 C 
BRANCH    2    1
ATOM      1  C1  UNL A   1      12.245  -2.684  27.084  1.00  0.00    +0.000 C 
ATOM    106  H1  UNL A   1      13.162  -3.132  27.408  1.00  0.00    +0.000 H 
ATOM    107  H2  UNL A   1      11.430  -3.343  27.304  1.00  0.00    +0.000 H 
ATOM    108  H3  UNL A   1      12.100  -1.756  27.595  1.00  0.00    +0.000 H 
ENDBRANCH    2    1
BRANCH   87   88
ATOM     97  C68 UNL A   1      11.575  -4.219  21.436  1.00  0.00    +0.000 C 
ATOM    145  H40 UNL A   1       9.975  -1.352  22.109  1.00  0.00    +0.000 H 
ATOM    146  H41 UNL A   1       8.848  -1.922  20.035  1.00  0.00    +0.000 H 
ATOM    150  H45 UNL A   1      11.200  -5.403  19.725  1.00  0.00    +0.000 H 
ATOM    151  H46 UNL A   1      12.319  -4.832  21.802  1.00  0.00    +0.000 H 
ATOM     88  C62 UNL A   1      11.216  -3.064  22.141  1.00  0.00    +0.000 C 
ATOM     89  C63 UNL A   1      10.226  -2.221  21.611  1.00  0.00    +0.000 C 
ATOM     90  C64 UNL A   1       9.578  -2.543  20.415  1.00  0.00    +0.000 C 
ATOM     91  C65 UNL A   1       9.928  -3.715  19.742  1.00  0.00    +0.000 C 
ATOM     96  C67 UNL A   1      10.933  -4.548  20.239  1.00  0.00    +0.000 C 
BRANCH   91   92
ATOM     92  S1  UNL A   1       9.128  -4.102  18.204  1.00  0.00    +0.000 S 
ATOM     94  O5  UNL A   1       9.116  -2.900  17.410  1.00  0.00    +0.000 O 
ATOM     95  O6  UNL A   1       9.730  -5.331  17.695  1.00  0.00    +0.000 O 
BRANCH   92   93
ATOM    149  H44 UNL A   1       6.982  -3.617  19.052  1.00  0.00    +0.000 H 
ATOM    147  H42 UNL A   1       7.466  -5.258  19.410  1.00  0.00    +0.000 H 
ATOM    148  H43 UNL A   1       6.926  -4.838  17.803  1.00  0.00    +0.000 H 
ATOM     93  C66 UNL A   1       7.460  -4.492  18.663  1.00  0.00    +0.000 C 
ENDBRANCH   92   93
ENDBRANCH   91   92
ENDBRANCH   87   88
BRANCH   98   99
ATOM     99  C69 UNL A   1      10.365  -3.900  24.971  1.00  0.00    +0.000 C 
ATOM    100  C70 UNL A   1      10.417  -5.251  24.594  1.00  0.00    +0.000 C 
ATOM    101  C71 UNL A   1       9.325  -6.084  24.841  1.00  0.00    +0.000 C 
ATOM    102  C72 UNL A   1       8.181  -5.567  25.446  1.00  0.00    +0.000 C 
ATOM    103  C73 UNL A   1       8.136  -4.222  25.803  1.00  0.00    +0.000 C 
ATOM    104  F16 UNL A   1       7.026  -3.726  26.364  1.00  0.00    +0.000 F 
ATOM    105  C74 UNL A   1       9.218  -3.379  25.573  1.00  0.00    +0.000 C 
ATOM    152  H47 UNL A   1      11.262  -5.627  24.136  1.00  0.00    +0.000 H 
ATOM    153  H48 UNL A   1       9.365  -7.080  24.576  1.00  0.00    +0.000 H 
ATOM    154  H49 UNL A   1       7.370  -6.178  25.629  1.00  0.00    +0.000 H 
ATOM    155  H50 UNL A   1       9.174  -2.384  25.844  1.00  0.00    +0.000 H 
ENDBRANCH   98   99
ENDBRANCH    4    3
ENDBRANCH    5    4
ENDBRANCH    7    5
ENDBRANCH    8    7
BRANCH    8    9
ATOM      9  C7  UNL A   1      11.096   2.222  27.615  1.00  0.00    +0.000 C 
ATOM    114  H9  UNL A   1      10.303   2.891  27.351  1.00  0.00    +0.000 H 
ATOM    113  H8  UNL A   1      10.748   1.403  28.208  1.00  0.00    +0.000 H 
BRANCH    9   10
ATOM     10  O2  UNL A   1      12.039   2.966  28.379  1.00  0.00    +0.000 O 
ATOM    115  H10 UNL A   1      11.607   3.753  28.747  1.00  0.00    +0.000 H 
ENDBRANCH    9   10
ENDBRANCH    8    9
ENDBRANCH   11    8
ENDBRANCH   13   11
ENDBRANCH   14   13
ENDBRANCH   15   14
ENDBRANCH   16   15
ENDBRANCH   17   16
ENDBRANCH   18   17
ENDBRANCH   19   18
ENDBRANCH   20   19
ENDBRANCH   21   20
ENDBRANCH   23   21
ENDBRANCH   27   26
BRANCH   31   32
ATOM     33  C25 UNL A   1       8.850   9.631  24.042  1.00  0.00    +0.000 C 
ATOM     34  F1  UNL A   1       9.684   9.616  25.093  1.00  0.00    +0.000 F 
ATOM     35  C26 UNL A   1       7.649   8.925  24.120  1.00  0.00    +0.000 C 
ATOM     36  F2  UNL A   1       7.333   8.270  25.245  1.00  0.00    +0.000 F 
ATOM     37  C27 UNL A   1       6.779   8.897  23.039  1.00  0.00    +0.000 C 
ATOM     38  F3  UNL A   1       5.643   8.188  23.104  1.00  0.00    +0.000 F 
ATOM     39  C28 UNL A   1       7.069   9.635  21.907  1.00  0.00    +0.000 C 
ATOM     40  F4  UNL A   1       6.225   9.635  20.863  1.00  0.00    +0.000 F 
ATOM     41  C29 UNL A   1       8.231  10.396  21.854  1.00  0.00    +0.000 C 
ATOM     42  F5  UNL A   1       8.397  11.205  20.795  1.00  0.00    +0.000 F 
ATOM     32  C24 UNL A   1       9.183  10.356  22.894  1.00  0.00    +0.000 C 
ENDBRANCH   31   32
BRANCH   48   49
ATOM     49  C35 UNL A   1       8.418  14.462  19.761  1.00  0.00    +0.000 C 
ATOM     50  C36 UNL A   1       8.004  13.539  18.771  1.00  0.00    +0.000 C 
ATOM     51  F6  UNL A   1       8.847  12.635  18.252  1.00  0.00    +0.000 F 
ATOM     52  C37 UNL A   1       6.688  13.507  18.301  1.00  0.00    +0.000 C 
ATOM     53  F7  UNL A   1       6.346  12.668  17.311  1.00  0.00    +0.000 F 
ATOM     54  C38 UNL A   1       5.733  14.339  18.853  1.00  0.00    +0.000 C 
ATOM     55  F8  UNL A   1       4.467  14.303  18.413  1.00  0.00    +0.000 F 
ATOM     56  C39 UNL A   1       6.090  15.198  19.876  1.00  0.00    +0.000 C 
ATOM     57  F9  UNL A   1       5.163  15.972  20.456  1.00  0.00    +0.000 F 
ATOM     58  C40 UNL A   1       7.412  15.268  20.310  1.00  0.00    +0.000 C 
ATOM     59  F10 UNL A   1       7.712  16.132  21.292  1.00  0.00    +0.000 F 
ENDBRANCH   48   49
BRANCH   63   64
ATOM     65  C45 UNL A   1      13.564  16.172  14.931  1.00  0.00    +0.000 C 
ATOM     66  F11 UNL A   1      14.652  15.788  15.613  1.00  0.00    +0.000 F 
ATOM     67  C46 UNL A   1      13.839  16.779  13.692  1.00  0.00    +0.000 C 
ATOM     68  F12 UNL A   1      15.107  16.884  13.255  1.00  0.00    +0.000 F 
ATOM     69  C47 UNL A   1      12.807  17.195  12.888  1.00  0.00    +0.000 C 
ATOM     70  F13 UNL A   1      13.056  17.706  11.672  1.00  0.00    +0.000 F 
ATOM     71  C48 UNL A   1      11.508  17.037  13.350  1.00  0.00    +0.000 C 
ATOM     72  F14 UNL A   1      10.500  17.440  12.562  1.00  0.00    +0.000 F 
ATOM     73  C49 UNL A   1      11.227  16.396  14.587  1.00  0.00    +0.000 C 
ATOM     74  F15 UNL A   1       9.941  16.195  14.904  1.00  0.00    +0.000 F 
ATOM     64  C44 UNL A   1      12.235  15.890  15.419  1.00  0.00    +0.000 C 
ENDBRANCH   63   64
TORSDOF 26
ENDMDL
MODEL 10
REMARK VINA RESULT:      -7.1     44.155     49.269
ROOT
ATOM    132  H27 UNL A   1      18.639  48.638   3.536  1.00  0.00    +0.000 H 
ATOM    133  H28 UNL A   1      18.391  48.870   0.892  1.00  0.00    +0.000 H 
ATOM    134  H29 UNL A   1      17.327  52.402   2.727  1.00  0.00    +0.000 H 
ATOM    135  H30 UNL A   1      13.004  49.876  -3.283  1.00  0.00    +0.000 H 
ATOM    136  H31 UNL A   1      11.715  49.838  -1.114  1.00  0.00    +0.000 H 
ATOM    137  H32 UNL A   1      15.716  49.192  -0.188  1.00  0.00    +0.000 H 
ATOM    138  H33 UNL A   1      18.370  48.069  -2.271  1.00  0.00    +0.000 H 
ATOM    139  H34 UNL A   1      19.786  49.680  -0.807  1.00  0.00    +0.000 H 
ATOM    140  H35 UNL A   1      16.199  47.440   4.259  1.00  0.00    +0.000 H 
ATOM    141  H36 UNL A   1      15.279  46.958   1.892  1.00  0.00    +0.000 H 
ATOM     27  C20 UNL A   1      13.200  49.043   1.281  1.00  0.00    +0.000 C 
ATOM     28  C21 UNL A   1      14.337  48.994   2.252  1.00  0.00    +0.000 C 
ATOM     29  N4  UNL A   1      14.381  49.877   3.214  1.00  0.00    +0.000 N 
ATOM     30  C22 UNL A   1      15.384  49.482   4.066  1.00  0.00    +0.000 C 
ATOM     31  C23 UNL A   1      16.286  50.458   4.374  1.00  0.00    +0.000 C 
ATOM     43  C30 UNL A   1      17.405  50.429   3.471  1.00  0.00    +0.000 C 
ATOM     44  C31 UNL A   1      18.178  49.388   2.996  1.00  0.00    +0.000 C 
ATOM     45  C32 UNL A   1      18.191  49.591   1.602  1.00  0.00    +0.000 C 
ATOM     46  C33 UNL A   1      17.887  50.920   1.338  1.00  0.00    +0.000 C 
ATOM     47  N5  UNL A   1      17.503  51.449   2.548  1.00  0.00    +0.000 N 
ATOM     48  C34 UNL A   1      17.727  51.698   0.140  1.00  0.00    +0.000 C 
ATOM     60  C41 UNL A   1      18.123  51.117  -1.018  1.00  0.00    +0.000 C 
ATOM     61  N6  UNL A   1      17.233  51.184  -2.041  1.00  0.00    +0.000 N 
ATOM     62  C42 UNL A   1      17.077  49.933  -2.352  1.00  0.00    +0.000 C 
ATOM     63  C43 UNL A   1      15.894  49.470  -3.079  1.00  0.00    +0.000 C 
ATOM     75  C50 UNL A   1      14.853  49.451  -2.143  1.00  0.00    +0.000 C 
ATOM     76  C51 UNL A   1      13.428  49.693  -2.360  1.00  0.00    +0.000 C 
ATOM     77  C52 UNL A   1      12.727  49.649  -1.188  1.00  0.00    +0.000 C 
ATOM     78  C53 UNL A   1      13.582  49.302  -0.041  1.00  0.00    +0.000 C 
ATOM     79  N7  UNL A   1      14.875  49.294  -0.691  1.00  0.00    +0.000 N 
ATOM     80  C54 UNL A   1      18.178  49.045  -1.999  1.00  0.00    +0.000 C 
ATOM     81  C55 UNL A   1      18.861  49.882  -1.216  1.00  0.00    +0.000 C 
ATOM     82  C56 UNL A   1      15.664  48.103   3.677  1.00  0.00    +0.000 C 
ATOM     83  C57 UNL A   1      15.146  47.795   2.480  1.00  0.00    +0.000 C 
ENDROOT
BRANCH   27   26
ATOM    130  H25 UNL A   1       9.094  50.854   2.629  1.00  0.00    +0.000 H 
ATOM    131  H26 UNL A   1      11.454  50.953   2.154  1.00  0.00    +0.000 H 
ATOM    142  H37 UNL A   1      11.828  46.820   2.699  1.00  0.00    +0.000 H 
ATOM    143  H38 UNL A   1       9.499  46.783   3.476  1.00  0.00    +0.000 H 
ATOM     84  C58 UNL A   1      11.290  47.701   2.699  1.00  0.00    +0.000 C 
ATOM     85  C59 UNL A   1       9.896  47.674   3.140  1.00  0.00    +0.000 C 
ATOM     23  C16 UNL A   1       9.075  48.817   3.124  1.00  0.00    +0.000 C 
ATOM     24  C17 UNL A   1       9.661  49.995   2.701  1.00  0.00    +0.000 C 
ATOM     25  C18 UNL A   1      11.043  50.029   2.359  1.00  0.00    +0.000 C 
ATOM     26  C19 UNL A   1      11.924  48.885   2.276  1.00  0.00    +0.000 C 
BRANCH   23   21
ATOM     21  C15 UNL A   1       7.586  48.819   3.371  1.00  0.00    +0.000 C 
ATOM     22  O4  UNL A   1       6.824  49.275   2.522  1.00  0.00    +0.000 O 
BRANCH   21   20
ATOM    129  H24 UNL A   1       6.186  47.966   4.575  1.00  0.00    +0.000 H 
ATOM     20  N3  UNL A   1       7.069  48.403   4.589  1.00  0.00    +0.000 N 
BRANCH   20   19
ATOM     19  C14 UNL A   1       7.707  48.552   5.873  1.00  0.00    +0.000 C 
ATOM    127  H22 UNL A   1       8.569  49.173   5.742  1.00  0.00    +0.000 H 
ATOM    128  H23 UNL A   1       6.966  48.970   6.521  1.00  0.00    +0.000 H 
BRANCH   19   18
ATOM     18  C13 UNL A   1       8.164  47.246   6.544  1.00  0.00    +0.000 C 
ATOM    125  H20 UNL A   1       7.916  47.317   7.582  1.00  0.00    +0.000 H 
ATOM    126  H21 UNL A   1       7.660  46.472   6.002  1.00  0.00    +0.000 H 
BRANCH   18   17
ATOM     17  C12 UNL A   1       9.654  46.879   6.451  1.00  0.00    +0.000 C 
ATOM    123  H18 UNL A   1       9.946  46.974   5.426  1.00  0.00    +0.000 H 
ATOM    124  H19 UNL A   1      10.150  47.549   7.122  1.00  0.00    +0.000 H 
BRANCH   17   16
ATOM    121  H16 UNL A   1       9.681  45.344   7.913  1.00  0.00    +0.000 H 
ATOM    122  H17 UNL A   1       9.629  44.803   6.201  1.00  0.00    +0.000 H 
ATOM     16  C11 UNL A   1      10.052  45.475   6.918  1.00  0.00    +0.000 C 
BRANCH   16   15
ATOM    119  H14 UNL A   1      11.728  44.392   7.651  1.00  0.00    +0.000 H 
ATOM     15  C10 UNL A   1      11.554  45.167   6.934  1.00  0.00    +0.000 C 
ATOM    120  H15 UNL A   1      11.813  44.885   5.935  1.00  0.00    +0.000 H 
BRANCH   15   14
ATOM    118  H13 UNL A   1      12.004  47.243   6.898  1.00  0.00    +0.000 H 
ATOM    117  H12 UNL A   1      13.419  46.198   6.867  1.00  0.00    +0.000 H 
ATOM     14  C9  UNL A   1      12.448  46.352   7.291  1.00  0.00    +0.000 C 
BRANCH   14   13
ATOM    116  H11 UNL A   1      12.909  45.709   9.214  1.00  0.00    +0.000 H 
ATOM     13  N2  UNL A   1      12.577  46.496   8.724  1.00  0.00    +0.000 N 
BRANCH   13   11
ATOM     11  C8  UNL A   1      12.289  47.602   9.476  1.00  0.00    +0.000 C 
ATOM     12  O3  UNL A   1      11.330  48.286   9.107  1.00  0.00    +0.000 O 
BRANCH   11    8
ATOM    112  H7  UNL A   1      12.770  48.929  11.047  1.00  0.00    +0.000 H 
ATOM      8  C6  UNL A   1      13.060  47.936  10.775  1.00  0.00    +0.000 C 
BRANCH    8    7
ATOM    111  H6  UNL A   1      14.967  47.081  10.709  1.00  0.00    +0.000 H 
ATOM      7  N1  UNL A   1      14.516  47.947  10.578  1.00  0.00    +0.000 N 
BRANCH    7    5
ATOM      5  C5  UNL A   1      15.329  48.987  10.239  1.00  0.00    +0.000 C 
ATOM      6  O1  UNL A   1      15.844  48.960   9.119  1.00  0.00    +0.000 O 
BRANCH    5    4
ATOM      4  C4  UNL A   1      15.648  50.090  11.233  1.00  0.00    +0.000 C 
ATOM    109  H4  UNL A   1      15.824  49.642  12.189  1.00  0.00    +0.000 H 
ATOM    110  H5  UNL A   1      16.506  50.608  10.858  1.00  0.00    +0.000 H 
BRANCH    4    3
ATOM      2  C2  UNL A   1      13.943  51.546  12.551  1.00  0.00    +0.000 C 
ATOM      3  C3  UNL A   1      14.556  51.105  11.382  1.00  0.00    +0.000 C 
ATOM     98  N8  UNL A   1      13.014  52.528  12.209  1.00  0.00    +0.000 N 
ATOM    144  H39 UNL A   1      14.106  51.616   9.305  1.00  0.00    +0.000 H 
ATOM     86  C60 UNL A   1      13.919  51.775  10.308  1.00  0.00    +0.000 C 
ATOM     87  C61 UNL A   1      13.005  52.675  10.821  1.00  0.00    +0.000 C 
BRANCH    2    1
ATOM      1  C1  UNL A   1      14.117  50.997  13.932  1.00  0.00    +0.000 C 
ATOM    106  H1  UNL A   1      15.071  51.294  14.317  1.00  0.00    +0.000 H 
ATOM    107  H2  UNL A   1      14.063  49.929  13.901  1.00  0.00    +0.000 H 
ATOM    108  H3  UNL A   1      13.343  51.374  14.566  1.00  0.00    +0.000 H 
ENDBRANCH    2    1
BRANCH   87   88
ATOM     97  C68 UNL A   1      11.038  53.372   9.472  1.00  0.00    +0.000 C 
ATOM    145  H40 UNL A   1      13.691  55.233  10.327  1.00  0.00    +0.000 H 
ATOM    146  H41 UNL A   1      12.451  56.912   9.083  1.00  0.00    +0.000 H 
ATOM    150  H45 UNL A   1       9.422  54.089   8.313  1.00  0.00    +0.000 H 
ATOM    151  H46 UNL A   1      10.661  52.416   9.562  1.00  0.00    +0.000 H 
ATOM     88  C62 UNL A   1      12.260  53.696  10.073  1.00  0.00    +0.000 C 
ATOM     89  C63 UNL A   1      12.776  54.992   9.911  1.00  0.00    +0.000 C 
ATOM     90  C64 UNL A   1      12.068  55.960   9.193  1.00  0.00    +0.000 C 
ATOM     91  C65 UNL A   1      10.837  55.626   8.627  1.00  0.00    +0.000 C 
ATOM     96  C67 UNL A   1      10.324  54.333   8.751  1.00  0.00    +0.000 C 
BRANCH   91   92
ATOM     92  S1  UNL A   1       9.958  56.848   7.684  1.00  0.00    +0.000 S 
ATOM     94  O5  UNL A   1       8.866  57.317   8.497  1.00  0.00    +0.000 O 
ATOM     95  O6  UNL A   1      10.946  57.779   7.146  1.00  0.00    +0.000 O 
BRANCH   92   93
ATOM    149  H44 UNL A   1       8.405  56.432   5.960  1.00  0.00    +0.000 H 
ATOM    147  H42 UNL A   1       9.056  54.950   6.618  1.00  0.00    +0.000 H 
ATOM    148  H43 UNL A   1      10.015  55.913   5.521  1.00  0.00    +0.000 H 
ATOM     93  C66 UNL A   1       9.292  55.946   6.309  1.00  0.00    +0.000 C 
ENDBRANCH   92   93
ENDBRANCH   91   92
ENDBRANCH   87   88
BRANCH   98   99
ATOM     99  C69 UNL A   1      12.175  53.239  13.108  1.00  0.00    +0.000 C 
ATOM    100  C70 UNL A   1      10.962  52.667  13.520  1.00  0.00    +0.000 C 
ATOM    101  C71 UNL A   1      10.112  53.377  14.370  1.00  0.00    +0.000 C 
ATOM    102  C72 UNL A   1      10.465  54.657  14.793  1.00  0.00    +0.000 C 
ATOM    103  C73 UNL A   1      11.666  55.219  14.367  1.00  0.00    +0.000 C 
ATOM    104  F16 UNL A   1      11.989  56.458  14.760  1.00  0.00    +0.000 F 
ATOM    105  C74 UNL A   1      12.529  54.523  13.528  1.00  0.00    +0.000 C 
ATOM    152  H47 UNL A   1      10.699  51.724  13.195  1.00  0.00    +0.000 H 
ATOM    153  H48 UNL A   1       9.225  52.955  14.684  1.00  0.00    +0.000 H 
ATOM    154  H49 UNL A   1       9.840  55.187  15.420  1.00  0.00    +0.000 H 
ATOM    155  H50 UNL A   1      13.417  54.950  13.219  1.00  0.00    +0.000 H 
ENDBRANCH   98   99
ENDBRANCH    4    3
ENDBRANCH    5    4
ENDBRANCH    7    5
ENDBRANCH    8    7
BRANCH    8    9
ATOM      9  C7  UNL A   1      12.668  47.000  11.928  1.00  0.00    +0.000 C 
ATOM    114  H9  UNL A   1      13.171  46.070  11.767  1.00  0.00    +0.000 H 
ATOM    113  H8  UNL A   1      12.957  47.458  12.850  1.00  0.00    +0.000 H 
BRANCH    9   10
ATOM     10  O2  UNL A   1      11.273  46.725  11.977  1.00  0.00    +0.000 O 
ATOM    115  H10 UNL A   1      10.991  46.653  12.902  1.00  0.00    +0.000 H 
ENDBRANCH    9   10
ENDBRANCH    8    9
ENDBRANCH   11    8
ENDBRANCH   13   11
ENDBRANCH   14   13
ENDBRANCH   15   14
ENDBRANCH   16   15
ENDBRANCH   17   16
ENDBRANCH   18   17
ENDBRANCH   19   18
ENDBRANCH   20   19
ENDBRANCH   21   20
ENDBRANCH   23   21
ENDBRANCH   27   26
BRANCH   31   32
ATOM     33  C25 UNL A   1      15.666  51.958   6.267  1.00  0.00    +0.000 C 
ATOM     34  F1  UNL A   1      16.368  51.158   7.083  1.00  0.00    +0.000 F 
ATOM     35  C26 UNL A   1      14.959  53.030   6.813  1.00  0.00    +0.000 C 
ATOM     36  F2  UNL A   1      15.014  53.262   8.132  1.00  0.00    +0.000 F 
ATOM     37  C27 UNL A   1      14.199  53.858   5.999  1.00  0.00    +0.000 C 
ATOM     38  F3  UNL A   1      13.492  54.865   6.531  1.00  0.00    +0.000 F 
ATOM     39  C28 UNL A   1      14.203  53.665   4.630  1.00  0.00    +0.000 C 
ATOM     40  F4  UNL A   1      13.490  54.473   3.830  1.00  0.00    +0.000 F 
ATOM     41  C29 UNL A   1      14.963  52.641   4.077  1.00  0.00    +0.000 C 
ATOM     42  F5  UNL A   1      15.048  52.584   2.738  1.00  0.00    +0.000 F 
ATOM     32  C24 UNL A   1      15.657  51.720   4.889  1.00  0.00    +0.000 C 
ENDBRANCH   31   32
BRANCH   48   49
ATOM     49  C35 UNL A   1      17.031  53.039   0.028  1.00  0.00    +0.000 C 
ATOM     50  C36 UNL A   1      15.655  53.263  -0.220  1.00  0.00    +0.000 C 
ATOM     51  F6  UNL A   1      14.758  52.268  -0.178  1.00  0.00    +0.000 F 
ATOM     52  C37 UNL A   1      15.157  54.539  -0.498  1.00  0.00    +0.000 C 
ATOM     53  F7  UNL A   1      13.860  54.706  -0.799  1.00  0.00    +0.000 F 
ATOM     54  C38 UNL A   1      15.998  55.636  -0.464  1.00  0.00    +0.000 C 
ATOM     55  F8  UNL A   1      15.521  56.863  -0.718  1.00  0.00    +0.000 F 
ATOM     56  C39 UNL A   1      17.332  55.458  -0.148  1.00  0.00    +0.000 C 
ATOM     57  F9  UNL A   1      18.147  56.519  -0.061  1.00  0.00    +0.000 F 
ATOM     58  C40 UNL A   1      17.841  54.181   0.077  1.00  0.00    +0.000 C 
ATOM     59  F10 UNL A   1      19.147  54.060   0.360  1.00  0.00    +0.000 F 
ENDBRANCH   48   49
BRANCH   63   64
ATOM     65  C45 UNL A   1      16.598  48.096  -5.196  1.00  0.00    +0.000 C 
ATOM     66  F11 UNL A   1      17.026  47.064  -4.455  1.00  0.00    +0.000 F 
ATOM     67  C46 UNL A   1      16.438  47.803  -6.563  1.00  0.00    +0.000 C 
ATOM     68  F12 UNL A   1      16.654  46.557  -7.019  1.00  0.00    +0.000 F 
ATOM     69  C47 UNL A   1      15.982  48.772  -7.422  1.00  0.00    +0.000 C 
ATOM     70  F13 UNL A   1      15.753  48.482  -8.713  1.00  0.00    +0.000 F 
ATOM     71  C48 UNL A   1      15.730  50.038  -6.913  1.00  0.00    +0.000 C 
ATOM     72  F14 UNL A   1      15.280  50.983  -7.754  1.00  0.00    +0.000 F 
ATOM     73  C49 UNL A   1      15.861  50.327  -5.528  1.00  0.00    +0.000 C 
ATOM     74  F15 UNL A   1      15.497  51.547  -5.112  1.00  0.00    +0.000 F 
ATOM     64  C44 UNL A   1      16.256  49.362  -4.592  1.00  0.00    +0.000 C 
ENDBRANCH   63   64
TORSDOF 26
ENDMDL
