MODEL 1
REMARK VINA RESULT:     -11.5      0.000      0.000
ROOT
ATOM     19  C15 UNL A   1      38.059  30.005  29.688  1.00  0.00    +0.000 C 
ATOM     20  C16 UNL A   1      39.136  29.103  29.151  1.00  0.00    +0.000 C 
ATOM     21  N3  UNL A   1      40.246  28.708  29.723  1.00  0.00    +0.000 N 
ATOM     22  C17 UNL A   1      40.858  27.855  28.813  1.00  0.00    +0.000 C 
ATOM     23  C18 UNL A   1      42.056  27.229  28.913  1.00  0.00    +0.000 C 
ATOM     35  C25 UNL A   1      42.947  27.353  30.037  1.00  0.00    +0.000 C 
ATOM     36  C26 UNL A   1      44.208  26.806  30.203  1.00  0.00    +0.000 C 
ATOM     37  C27 UNL A   1      44.679  27.165  31.470  1.00  0.00    +0.000 C 
ATOM     38  C28 UNL A   1      43.731  27.971  32.076  1.00  0.00    +0.000 C 
ATOM     39  N4  UNL A   1      42.672  28.075  31.188  1.00  0.00    +0.000 N 
ATOM     40  C29 UNL A   1      43.782  28.600  33.371  1.00  0.00    +0.000 C 
ATOM     52  C36 UNL A   1      42.810  29.390  33.890  1.00  0.00    +0.000 C 
ATOM     53  N5  UNL A   1      41.599  29.764  33.325  1.00  0.00    +0.000 N 
ATOM     54  C37 UNL A   1      41.005  30.519  34.217  1.00  0.00    +0.000 C 
ATOM     55  C38 UNL A   1      39.679  31.223  34.132  1.00  0.00    +0.000 C 
ATOM     67  C45 UNL A   1      38.948  31.123  33.006  1.00  0.00    +0.000 C 
ATOM     68  C46 UNL A   1      37.652  31.756  32.780  1.00  0.00    +0.000 C 
ATOM     69  C47 UNL A   1      37.197  31.403  31.567  1.00  0.00    +0.000 C 
ATOM     70  C48 UNL A   1      38.186  30.544  30.916  1.00  0.00    +0.000 C 
ATOM     71  N6  UNL A   1      39.196  30.440  31.840  1.00  0.00    +0.000 N 
ATOM     72  C49 UNL A   1      41.767  30.687  35.464  1.00  0.00    +0.000 C 
ATOM     73  C50 UNL A   1      42.874  30.011  35.196  1.00  0.00    +0.000 C 
ATOM     74  C51 UNL A   1      39.976  27.757  27.669  1.00  0.00    +0.000 C 
ATOM     75  C52 UNL A   1      38.927  28.555  27.802  1.00  0.00    +0.000 C 
ATOM    112  H21 UNL A   1      44.713  26.231  29.510  1.00  0.00    +0.000 H 
ATOM    113  H22 UNL A   1      45.581  26.878  31.883  1.00  0.00    +0.000 H 
ATOM    114  H23 UNL A   1      41.846  28.586  31.350  1.00  0.00    +0.000 H 
ATOM    115  H24 UNL A   1      37.164  32.375  33.446  1.00  0.00    +0.000 H 
ATOM    116  H25 UNL A   1      36.293  31.690  31.160  1.00  0.00    +0.000 H 
ATOM    117  H26 UNL A   1      40.021  29.925  31.683  1.00  0.00    +0.000 H 
ATOM    118  H27 UNL A   1      41.505  31.198  36.322  1.00  0.00    +0.000 H 
ATOM    119  H28 UNL A   1      43.679  29.935  35.837  1.00  0.00    +0.000 H 
ATOM    120  H29 UNL A   1      40.142  27.143  26.855  1.00  0.00    +0.000 H 
ATOM    121  H30 UNL A   1      38.162  28.742  27.134  1.00  0.00    +0.000 H 
ENDROOT
BRANCH   19   18
ATOM     76  C53 UNL A   1      35.963  29.192  28.591  1.00  0.00    +0.000 C 
ATOM     77  C54 UNL A   1      34.794  29.417  27.863  1.00  0.00    +0.000 C 
ATOM    110  H19 UNL A   1      35.044  32.740  27.496  1.00  0.00    +0.000 H 
ATOM     15  C11 UNL A   1      34.426  30.719  27.515  1.00  0.00    +0.000 C 
ATOM     16  C12 UNL A   1      35.291  31.783  27.792  1.00  0.00    +0.000 C 
ATOM     17  C13 UNL A   1      36.492  31.550  28.468  1.00  0.00    +0.000 C 
ATOM    111  H20 UNL A   1      37.139  32.333  28.650  1.00  0.00    +0.000 H 
ATOM     18  C14 UNL A   1      36.823  30.256  28.902  1.00  0.00    +0.000 C 
ATOM    122  H31 UNL A   1      36.197  28.236  28.902  1.00  0.00    +0.000 H 
ATOM    123  H32 UNL A   1      34.201  28.620  27.581  1.00  0.00    +0.000 H 
BRANCH   15   13
ATOM     13  C10 UNL A   1      33.158  31.002  26.803  1.00  0.00    +0.000 C 
ATOM     14  O2  UNL A   1      32.455  31.937  27.167  1.00  0.00    +0.000 O 
BRANCH   13   12
ATOM     12  N2  UNL A   1      32.763  30.223  25.741  1.00  0.00    +0.000 N 
ATOM    109  H18 UNL A   1      33.337  30.282  24.943  1.00  0.00    +0.000 H 
BRANCH   12   11
ATOM     11  C9  UNL A   1      31.626  29.326  25.622  1.00  0.00    +0.000 C 
ATOM    108  H17 UNL A   1      31.335  29.300  24.593  1.00  0.00    +0.000 H 
ATOM    107  H16 UNL A   1      30.834  29.690  26.243  1.00  0.00    +0.000 H 
BRANCH   11   10
ATOM    105  H14 UNL A   1      32.170  27.906  27.099  1.00  0.00    +0.000 H 
ATOM     10  C8  UNL A   1      31.970  27.898  26.048  1.00  0.00    +0.000 C 
ATOM    106  H15 UNL A   1      31.126  27.298  25.774  1.00  0.00    +0.000 H 
BRANCH   10    9
ATOM      9  C7  UNL A   1      33.179  27.274  25.339  1.00  0.00    +0.000 C 
ATOM    103  H12 UNL A   1      32.818  26.744  24.482  1.00  0.00    +0.000 H 
ATOM    104  H13 UNL A   1      33.832  28.089  25.105  1.00  0.00    +0.000 H 
BRANCH    9    8
ATOM    101  H10 UNL A   1      35.028  26.644  26.179  1.00  0.00    +0.000 H 
ATOM    102  H11 UNL A   1      33.578  26.281  27.151  1.00  0.00    +0.000 H 
ATOM      8  C6  UNL A   1      34.017  26.299  26.176  1.00  0.00    +0.000 C 
BRANCH    8    7
ATOM     99  H8  UNL A   1      33.789  24.206  26.492  1.00  0.00    +0.000 H 
ATOM    100  H9  UNL A   1      33.264  24.795  24.900  1.00  0.00    +0.000 H 
ATOM      7  C5  UNL A   1      34.006  24.853  25.668  1.00  0.00    +0.000 C 
BRANCH    7    6
ATOM     97  H6  UNL A   1      35.878  25.282  24.735  1.00  0.00    +0.000 H 
ATOM     98  H7  UNL A   1      35.888  23.865  25.778  1.00  0.00    +0.000 H 
ATOM      6  C4  UNL A   1      35.334  24.414  25.045  1.00  0.00    +0.000 C 
BRANCH    6    5
ATOM      5  N1  UNL A   1      35.115  23.557  23.895  1.00  0.00    +0.000 N 
ATOM     96  H5  UNL A   1      35.789  23.628  23.183  1.00  0.00    +0.000 H 
BRANCH    5    3
ATOM      3  C3  UNL A   1      34.104  22.662  23.659  1.00  0.00    +0.000 C 
ATOM      4  O1  UNL A   1      34.080  21.641  24.350  1.00  0.00    +0.000 O 
BRANCH    3    2
ATOM      2  C2  UNL A   1      33.068  22.927  22.550  1.00  0.00    +0.000 C 
ATOM     95  H4  UNL A   1      33.560  22.892  21.602  1.00  0.00    +0.000 H 
BRANCH    2    1
ATOM      1  C1  UNL A   1      31.997  21.827  22.578  1.00  0.00    +0.000 C 
ATOM     92  H1  UNL A   1      31.051  22.242  22.296  1.00  0.00    +0.000 H 
ATOM     93  H2  UNL A   1      31.928  21.420  23.565  1.00  0.00    +0.000 H 
ATOM     94  H3  UNL A   1      32.265  21.051  21.890  1.00  0.00    +0.000 H 
ENDBRANCH    2    1
BRANCH    2   78
ATOM    129  H38 UNL A   1      26.921  29.913  23.054  1.00  0.00    +0.000 H 
ATOM    130  H39 UNL A   1      30.842  29.558  21.565  1.00  0.00    +0.000 H 
ATOM     78  C55 UNL A   1      32.469  24.328  22.650  1.00  0.00    +0.000 C 
ATOM     79  C56 UNL A   1      33.002  25.414  21.943  1.00  0.00    +0.000 C 
ATOM     80  C57 UNL A   1      32.356  26.661  21.916  1.00  0.00    +0.000 C 
ATOM     81  C58 UNL A   1      31.104  26.804  22.547  1.00  0.00    +0.000 C 
ATOM     82  C59 UNL A   1      30.610  25.728  23.277  1.00  0.00    +0.000 C 
ATOM     83  C60 UNL A   1      31.297  24.516  23.405  1.00  0.00    +0.000 C 
ATOM     84  N7  UNL A   1      29.376  26.095  23.757  1.00  0.00    +0.000 N 
ATOM     85  C61 UNL A   1      29.028  27.348  23.314  1.00  0.00    +0.000 C 
ATOM     86  C62 UNL A   1      27.840  28.068  23.491  1.00  0.00    +0.000 C 
ATOM     87  C63 UNL A   1      27.782  29.354  22.948  1.00  0.00    +0.000 C 
ATOM     88  C64 UNL A   1      28.872  29.890  22.266  1.00  0.00    +0.000 C 
ATOM     89 Cl1  UNL A   1      28.767  31.487  21.630  1.00  0.00    +0.000 Cl
ATOM     90  C65 UNL A   1      30.045  29.153  22.080  1.00  0.00    +0.000 C 
ATOM     91  C66 UNL A   1      30.123  27.846  22.606  1.00  0.00    +0.000 C 
ATOM    124  H33 UNL A   1      33.890  25.295  21.429  1.00  0.00    +0.000 H 
ATOM    125  H34 UNL A   1      32.792  27.464  21.437  1.00  0.00    +0.000 H 
ATOM    126  H35 UNL A   1      30.952  23.777  24.037  1.00  0.00    +0.000 H 
ATOM    127  H36 UNL A   1      28.814  25.533  24.340  1.00  0.00    +0.000 H 
ATOM    128  H37 UNL A   1      27.041  27.664  24.003  1.00  0.00    +0.000 H 
ENDBRANCH    2   78
ENDBRANCH    3    2
ENDBRANCH    5    3
ENDBRANCH    6    5
ENDBRANCH    7    6
ENDBRANCH    8    7
ENDBRANCH    9    8
ENDBRANCH   10    9
ENDBRANCH   11   10
ENDBRANCH   12   11
ENDBRANCH   13   12
ENDBRANCH   15   13
ENDBRANCH   19   18
BRANCH   23   24
ATOM     33  C24 UNL A   1      42.017  25.033  27.675  1.00  0.00    +0.000 C 
ATOM     34  F5  UNL A   1      41.161  24.548  28.587  1.00  0.00    +0.000 F 
ATOM     24  C19 UNL A   1      42.479  26.355  27.770  1.00  0.00    +0.000 C 
ATOM     25  C20 UNL A   1      43.379  26.806  26.794  1.00  0.00    +0.000 C 
ATOM     26  F1  UNL A   1      43.843  28.065  26.834  1.00  0.00    +0.000 F 
ATOM     27  C21 UNL A   1      43.781  25.976  25.751  1.00  0.00    +0.000 C 
ATOM     28  F2  UNL A   1      44.609  26.444  24.806  1.00  0.00    +0.000 F 
ATOM     29  C22 UNL A   1      43.318  24.671  25.681  1.00  0.00    +0.000 C 
ATOM     30  F3  UNL A   1      43.713  23.871  24.681  1.00  0.00    +0.000 F 
ATOM     31  C23 UNL A   1      42.442  24.197  26.646  1.00  0.00    +0.000 C 
ATOM     32  F4  UNL A   1      42.004  22.931  26.588  1.00  0.00    +0.000 F 
ENDBRANCH   23   24
BRANCH   40   41
ATOM     41  C30 UNL A   1      45.010  28.387  34.205  1.00  0.00    +0.000 C 
ATOM     42  C31 UNL A   1      45.123  27.297  35.082  1.00  0.00    +0.000 C 
ATOM     43  F6  UNL A   1      44.100  26.441  35.228  1.00  0.00    +0.000 F 
ATOM     44  C32 UNL A   1      46.274  27.106  35.840  1.00  0.00    +0.000 C 
ATOM     45  F7  UNL A   1      46.342  26.084  36.705  1.00  0.00    +0.000 F 
ATOM     46  C33 UNL A   1      47.344  27.980  35.716  1.00  0.00    +0.000 C 
ATOM     47  F8  UNL A   1      48.453  27.792  36.445  1.00  0.00    +0.000 F 
ATOM     48  C34 UNL A   1      47.261  29.054  34.843  1.00  0.00    +0.000 C 
ATOM     49  F9  UNL A   1      48.297  29.893  34.714  1.00  0.00    +0.000 F 
ATOM     50  C35 UNL A   1      46.101  29.263  34.102  1.00  0.00    +0.000 C 
ATOM     51  F10 UNL A   1      46.044  30.318  33.275  1.00  0.00    +0.000 F 
ENDBRANCH   40   41
BRANCH   55   56
ATOM     65  C44 UNL A   1      38.423  31.477  36.300  1.00  0.00    +0.000 C 
ATOM     66  F15 UNL A   1      38.123  30.170  36.275  1.00  0.00    +0.000 F 
ATOM     56  C39 UNL A   1      39.182  32.043  35.267  1.00  0.00    +0.000 C 
ATOM     57  C40 UNL A   1      39.463  33.415  35.338  1.00  0.00    +0.000 C 
ATOM     58  F11 UNL A   1      40.203  33.996  34.383  1.00  0.00    +0.000 F 
ATOM     59  C41 UNL A   1      39.019  34.185  36.411  1.00  0.00    +0.000 C 
ATOM     60  F12 UNL A   1      39.338  35.485  36.476  1.00  0.00    +0.000 F 
ATOM     61  C42 UNL A   1      38.262  33.605  37.418  1.00  0.00    +0.000 C 
ATOM     62  F13 UNL A   1      37.832  34.347  38.447  1.00  0.00    +0.000 F 
ATOM     63  C43 UNL A   1      37.957  32.253  37.359  1.00  0.00    +0.000 C 
ATOM     64  F14 UNL A   1      37.214  31.692  38.323  1.00  0.00    +0.000 F 
ENDBRANCH   55   56
TORSDOF 17
ENDMDL
MODEL 2
REMARK VINA RESULT:     -11.5     19.844     24.739
ROOT
ATOM     19  C15 UNL A   1      53.258  19.809  11.633  1.00  0.00    +0.000 C 
ATOM     20  C16 UNL A   1      54.612  19.175  11.471  1.00  0.00    +0.000 C 
ATOM     21  N3  UNL A   1      55.615  19.139  12.313  1.00  0.00    +0.000 N 
ATOM     22  C17 UNL A   1      56.608  18.396  11.688  1.00  0.00    +0.000 C 
ATOM     23  C18 UNL A   1      57.860  18.118  12.126  1.00  0.00    +0.000 C 
ATOM     35  C25 UNL A   1      58.404  18.573  13.378  1.00  0.00    +0.000 C 
ATOM     36  C26 UNL A   1      59.681  18.393  13.882  1.00  0.00    +0.000 C 
ATOM     37  C27 UNL A   1      59.739  18.978  15.151  1.00  0.00    +0.000 C 
ATOM     38  C28 UNL A   1      58.512  19.561  15.420  1.00  0.00    +0.000 C 
ATOM     39  N4  UNL A   1      57.701  19.301  14.327  1.00  0.00    +0.000 N 
ATOM     40  C29 UNL A   1      58.105  20.298  16.589  1.00  0.00    +0.000 C 
ATOM     52  C36 UNL A   1      56.881  20.850  16.771  1.00  0.00    +0.000 C 
ATOM     53  N5  UNL A   1      55.786  20.840  15.919  1.00  0.00    +0.000 N 
ATOM     54  C37 UNL A   1      54.837  21.493  16.545  1.00  0.00    +0.000 C 
ATOM     55  C38 UNL A   1      53.442  21.814  16.084  1.00  0.00    +0.000 C 
ATOM     67  C45 UNL A   1      53.045  21.422  14.858  1.00  0.00    +0.000 C 
ATOM     68  C46 UNL A   1      51.729  21.670  14.277  1.00  0.00    +0.000 C 
ATOM     69  C47 UNL A   1      51.671  21.100  13.063  1.00  0.00    +0.000 C 
ATOM     70  C48 UNL A   1      52.960  20.474  12.767  1.00  0.00    +0.000 C 
ATOM     71  N6  UNL A   1      53.716  20.724  13.885  1.00  0.00    +0.000 N 
ATOM     72  C49 UNL A   1      55.219  21.968  17.883  1.00  0.00    +0.000 C 
ATOM     73  C50 UNL A   1      56.485  21.584  17.955  1.00  0.00    +0.000 C 
ATOM     74  C51 UNL A   1      56.072  17.964  10.414  1.00  0.00    +0.000 C 
ATOM     75  C52 UNL A   1      54.864  18.469  10.206  1.00  0.00    +0.000 C 
ATOM    112  H21 UNL A   1      60.456  17.909  13.403  1.00  0.00    +0.000 H 
ATOM    113  H22 UNL A   1      60.558  18.977  15.779  1.00  0.00    +0.000 H 
ATOM    114  H23 UNL A   1      56.764  19.591  14.236  1.00  0.00    +0.000 H 
ATOM    115  H24 UNL A   1      50.965  22.199  14.727  1.00  0.00    +0.000 H 
ATOM    116  H25 UNL A   1      50.849  21.101  12.439  1.00  0.00    +0.000 H 
ATOM    117  H26 UNL A   1      54.651  20.430  13.980  1.00  0.00    +0.000 H 
ATOM    118  H27 UNL A   1      54.649  22.470  18.583  1.00  0.00    +0.000 H 
ATOM    119  H28 UNL A   1      57.109  21.781  18.753  1.00  0.00    +0.000 H 
ATOM    120  H29 UNL A   1      56.566  17.344   9.753  1.00  0.00    +0.000 H 
ATOM    121  H30 UNL A   1      54.259  18.387   9.374  1.00  0.00    +0.000 H 
ENDROOT
BRANCH   19   18
ATOM     76  C53 UNL A   1      51.990  20.695   9.667  1.00  0.00    +0.000 C 
ATOM     77  C54 UNL A   1      51.027  20.557   8.666  1.00  0.00    +0.000 C 
ATOM    110  H19 UNL A   1      50.013  17.435   9.351  1.00  0.00    +0.000 H 
ATOM     15  C11 UNL A   1      50.348  19.345   8.512  1.00  0.00    +0.000 C 
ATOM     16  C12 UNL A   1      50.547  18.314   9.436  1.00  0.00    +0.000 C 
ATOM     17  C13 UNL A   1      51.468  18.475  10.475  1.00  0.00    +0.000 C 
ATOM    111  H20 UNL A   1      51.596  17.720  11.168  1.00  0.00    +0.000 H 
ATOM     18  C14 UNL A   1      52.222  19.654  10.580  1.00  0.00    +0.000 C 
ATOM    122  H31 UNL A   1      52.536  21.568   9.735  1.00  0.00    +0.000 H 
ATOM    123  H32 UNL A   1      50.816  21.351   8.040  1.00  0.00    +0.000 H 
BRANCH   15   13
ATOM     13  C10 UNL A   1      49.368  19.140   7.418  1.00  0.00    +0.000 C 
ATOM     14  O2  UNL A   1      48.242  19.612   7.520  1.00  0.00    +0.000 O 
BRANCH   13   12
ATOM     12  N2  UNL A   1      49.712  18.425   6.296  1.00  0.00    +0.000 N 
ATOM    109  H18 UNL A   1      49.925  18.967   5.503  1.00  0.00    +0.000 H 
BRANCH   12   11
ATOM     11  C9  UNL A   1      49.808  16.987   6.108  1.00  0.00    +0.000 C 
ATOM    108  H17 UNL A   1      49.797  16.528   7.075  1.00  0.00    +0.000 H 
ATOM    107  H16 UNL A   1      50.713  16.767   5.582  1.00  0.00    +0.000 H 
BRANCH   11   10
ATOM    105  H14 UNL A   1      48.596  16.932   4.370  1.00  0.00    +0.000 H 
ATOM     10  C8  UNL A   1      48.627  16.428   5.313  1.00  0.00    +0.000 C 
ATOM    106  H15 UNL A   1      48.798  15.374   5.234  1.00  0.00    +0.000 H 
BRANCH   10    9
ATOM      9  C7  UNL A   1      47.253  16.583   5.979  1.00  0.00    +0.000 C 
ATOM    103  H12 UNL A   1      46.917  15.609   6.268  1.00  0.00    +0.000 H 
ATOM    104  H13 UNL A   1      47.402  17.254   6.800  1.00  0.00    +0.000 H 
BRANCH    9    8
ATOM    101  H10 UNL A   1      45.265  16.644   5.228  1.00  0.00    +0.000 H 
ATOM    102  H11 UNL A   1      46.050  18.230   5.457  1.00  0.00    +0.000 H 
ATOM      8  C6  UNL A   1      46.157  17.221   5.115  1.00  0.00    +0.000 C 
BRANCH    8    7
ATOM     99  H8  UNL A   1      47.547  17.443   3.518  1.00  0.00    +0.000 H 
ATOM    100  H9  UNL A   1      46.157  16.390   3.176  1.00  0.00    +0.000 H 
ATOM      7  C5  UNL A   1      46.492  17.302   3.622  1.00  0.00    +0.000 C 
BRANCH    7    6
ATOM     97  H6  UNL A   1      45.902  19.348   3.460  1.00  0.00    +0.000 H 
ATOM     98  H7  UNL A   1      46.203  18.549   1.922  1.00  0.00    +0.000 H 
ATOM      6  C4  UNL A   1      45.777  18.446   2.897  1.00  0.00    +0.000 C 
BRANCH    6    5
ATOM      5  N1  UNL A   1      44.359  18.170   2.754  1.00  0.00    +0.000 N 
ATOM     96  H5  UNL A   1      44.139  17.295   2.362  1.00  0.00    +0.000 H 
BRANCH    5    3
ATOM      3  C3  UNL A   1      43.284  18.952   3.085  1.00  0.00    +0.000 C 
ATOM      4  O1  UNL A   1      43.520  20.068   3.553  1.00  0.00    +0.000 O 
BRANCH    3    2
ATOM      2  C2  UNL A   1      41.848  18.427   2.900  1.00  0.00    +0.000 C 
ATOM     95  H4  UNL A   1      41.868  17.591   2.234  1.00  0.00    +0.000 H 
BRANCH    2    1
ATOM      1  C1  UNL A   1      41.300  17.950   4.253  1.00  0.00    +0.000 C 
ATOM     92  H1  UNL A   1      42.078  17.987   4.987  1.00  0.00    +0.000 H 
ATOM     93  H2  UNL A   1      40.945  16.945   4.161  1.00  0.00    +0.000 H 
ATOM     94  H3  UNL A   1      40.494  18.587   4.556  1.00  0.00    +0.000 H 
ENDBRANCH    2    1
BRANCH    2   78
ATOM    129  H38 UNL A   1      34.272  22.800  -0.314  1.00  0.00    +0.000 H 
ATOM    130  H39 UNL A   1      38.313  22.684  -1.490  1.00  0.00    +0.000 H 
ATOM     78  C55 UNL A   1      40.942  19.460   2.234  1.00  0.00    +0.000 C 
ATOM     79  C56 UNL A   1      41.292  20.086   1.029  1.00  0.00    +0.000 C 
ATOM     80  C57 UNL A   1      40.390  20.915   0.344  1.00  0.00    +0.000 C 
ATOM     81  C58 UNL A   1      39.076  21.060   0.833  1.00  0.00    +0.000 C 
ATOM     82  C59 UNL A   1      38.759  20.464   2.049  1.00  0.00    +0.000 C 
ATOM     83  C60 UNL A   1      39.682  19.728   2.799  1.00  0.00    +0.000 C 
ATOM     84  N7  UNL A   1      37.429  20.712   2.289  1.00  0.00    +0.000 N 
ATOM     85  C61 UNL A   1      36.860  21.397   1.243  1.00  0.00    +0.000 C 
ATOM     86  C62 UNL A   1      35.529  21.778   1.034  1.00  0.00    +0.000 C 
ATOM     87  C63 UNL A   1      35.243  22.506  -0.124  1.00  0.00    +0.000 C 
ATOM     88  C64 UNL A   1      36.253  22.840  -1.023  1.00  0.00    +0.000 C 
ATOM     89 Cl1  UNL A   1      35.863  23.758  -2.427  1.00  0.00    +0.000 Cl
ATOM     90  C65 UNL A   1      37.575  22.437  -0.812  1.00  0.00    +0.000 C 
ATOM     91  C66 UNL A   1      37.886  21.688   0.342  1.00  0.00    +0.000 C 
ATOM    124  H33 UNL A   1      42.235  19.934   0.637  1.00  0.00    +0.000 H 
ATOM    125  H34 UNL A   1      40.685  21.412  -0.511  1.00  0.00    +0.000 H 
ATOM    126  H35 UNL A   1      39.444  19.388   3.744  1.00  0.00    +0.000 H 
ATOM    127  H36 UNL A   1      36.947  20.435   3.102  1.00  0.00    +0.000 H 
ATOM    128  H37 UNL A   1      34.789  21.530   1.709  1.00  0.00    +0.000 H 
ENDBRANCH    2   78
ENDBRANCH    3    2
ENDBRANCH    5    3
ENDBRANCH    6    5
ENDBRANCH    7    6
ENDBRANCH    8    7
ENDBRANCH    9    8
ENDBRANCH   10    9
ENDBRANCH   11   10
ENDBRANCH   12   11
ENDBRANCH   13   12
ENDBRANCH   15   13
ENDBRANCH   19   18
BRANCH   23   24
ATOM     33  C24 UNL A   1      58.764  15.886  11.377  1.00  0.00    +0.000 C 
ATOM     34  F5  UNL A   1      57.979  15.279  12.279  1.00  0.00    +0.000 F 
ATOM     24  C19 UNL A   1      58.736  17.282  11.239  1.00  0.00    +0.000 C 
ATOM     25  C20 UNL A   1      59.583  17.865  10.285  1.00  0.00    +0.000 C 
ATOM     26  F1  UNL A   1      59.586  19.195  10.108  1.00  0.00    +0.000 F 
ATOM     27  C21 UNL A   1      60.408  17.079   9.484  1.00  0.00    +0.000 C 
ATOM     28  F2  UNL A   1      61.177  17.655   8.550  1.00  0.00    +0.000 F 
ATOM     29  C22 UNL A   1      60.425  15.702   9.643  1.00  0.00    +0.000 C 
ATOM     30  F3  UNL A   1      61.226  14.947   8.876  1.00  0.00    +0.000 F 
ATOM     31  C23 UNL A   1      59.609  15.105  10.592  1.00  0.00    +0.000 C 
ATOM     32  F4  UNL A   1      59.635  13.775  10.757  1.00  0.00    +0.000 F 
ENDBRANCH   23   24
BRANCH   40   41
ATOM     41  C30 UNL A   1      59.115  20.492  17.682  1.00  0.00    +0.000 C 
ATOM     42  C31 UNL A   1      59.825  21.694  17.821  1.00  0.00    +0.000 C 
ATOM     43  F6  UNL A   1      59.648  22.688  16.937  1.00  0.00    +0.000 F 
ATOM     44  C32 UNL A   1      60.749  21.863  18.847  1.00  0.00    +0.000 C 
ATOM     45  F7  UNL A   1      61.449  23.003  18.934  1.00  0.00    +0.000 F 
ATOM     46  C33 UNL A   1      60.960  20.849  19.770  1.00  0.00    +0.000 C 
ATOM     47  F8  UNL A   1      61.848  21.016  20.760  1.00  0.00    +0.000 F 
ATOM     48  C34 UNL A   1      60.256  19.659  19.662  1.00  0.00    +0.000 C 
ATOM     49  F9  UNL A   1      60.450  18.683  20.558  1.00  0.00    +0.000 F 
ATOM     50  C35 UNL A   1      59.349  19.476  18.621  1.00  0.00    +0.000 C 
ATOM     51  F10 UNL A   1      58.692  18.310  18.534  1.00  0.00    +0.000 F 
ENDBRANCH   40   41
BRANCH   55   56
ATOM     65  C44 UNL A   1      52.355  23.963  16.819  1.00  0.00    +0.000 C 
ATOM     66  F15 UNL A   1      53.058  24.632  15.894  1.00  0.00    +0.000 F 
ATOM     56  C39 UNL A   1      52.512  22.577  16.955  1.00  0.00    +0.000 C 
ATOM     57  C40 UNL A   1      51.757  21.927  17.942  1.00  0.00    +0.000 C 
ATOM     58  F11 UNL A   1      51.859  20.598  18.094  1.00  0.00    +0.000 F 
ATOM     59  C41 UNL A   1      50.866  22.632  18.747  1.00  0.00    +0.000 C 
ATOM     60  F12 UNL A   1      50.126  21.980  19.654  1.00  0.00    +0.000 F 
ATOM     61  C42 UNL A   1      50.734  24.005  18.601  1.00  0.00    +0.000 C 
ATOM     62  F13 UNL A   1      49.880  24.684  19.379  1.00  0.00    +0.000 F 
ATOM     63  C43 UNL A   1      51.483  24.672  17.644  1.00  0.00    +0.000 C 
ATOM     64  F14 UNL A   1      51.369  26.000  17.509  1.00  0.00    +0.000 F 
ENDBRANCH   55   56
TORSDOF 17
ENDMDL
MODEL 3
REMARK VINA RESULT:     -11.4      4.221      9.437
ROOT
ATOM     19  C15 UNL A   1      41.208  26.201  27.531  1.00  0.00    +0.000 C 
ATOM     20  C16 UNL A   1      40.558  27.309  28.312  1.00  0.00    +0.000 C 
ATOM     21  N3  UNL A   1      41.054  28.465  28.680  1.00  0.00    +0.000 N 
ATOM     22  C17 UNL A   1      40.027  29.126  29.341  1.00  0.00    +0.000 C 
ATOM     23  C18 UNL A   1      40.055  30.333  29.955  1.00  0.00    +0.000 C 
ATOM     35  C25 UNL A   1      41.216  31.179  30.035  1.00  0.00    +0.000 C 
ATOM     36  C26 UNL A   1      41.358  32.392  30.687  1.00  0.00    +0.000 C 
ATOM     37  C27 UNL A   1      42.654  32.865  30.458  1.00  0.00    +0.000 C 
ATOM     38  C28 UNL A   1      43.334  31.927  29.698  1.00  0.00    +0.000 C 
ATOM     39  N4  UNL A   1      42.439  30.901  29.443  1.00  0.00    +0.000 N 
ATOM     40  C29 UNL A   1      44.697  31.964  29.236  1.00  0.00    +0.000 C 
ATOM     52  C36 UNL A   1      45.294  30.993  28.503  1.00  0.00    +0.000 C 
ATOM     53  N5  UNL A   1      44.764  29.794  28.049  1.00  0.00    +0.000 N 
ATOM     54  C37 UNL A   1      45.724  29.208  27.376  1.00  0.00    +0.000 C 
ATOM     55  C38 UNL A   1      45.719  27.872  26.685  1.00  0.00    +0.000 C 
ATOM     67  C45 UNL A   1      44.613  27.105  26.735  1.00  0.00    +0.000 C 
ATOM     68  C46 UNL A   1      44.469  25.789  26.121  1.00  0.00    +0.000 C 
ATOM     69  C47 UNL A   1      43.221  25.340  26.334  1.00  0.00    +0.000 C 
ATOM     70  C48 UNL A   1      42.488  26.324  27.130  1.00  0.00    +0.000 C 
ATOM     71  N6  UNL A   1      43.396  27.335  27.329  1.00  0.00    +0.000 N 
ATOM     72  C49 UNL A   1      46.969  29.986  27.306  1.00  0.00    +0.000 C 
ATOM     73  C50 UNL A   1      46.666  31.046  28.040  1.00  0.00    +0.000 C 
ATOM     74  C51 UNL A   1      38.867  28.260  29.288  1.00  0.00    +0.000 C 
ATOM     75  C52 UNL A   1      39.159  27.101  28.716  1.00  0.00    +0.000 C 
ATOM    112  H21 UNL A   1      40.632  32.865  31.247  1.00  0.00    +0.000 H 
ATOM    113  H22 UNL A   1      43.039  33.761  30.797  1.00  0.00    +0.000 H 
ATOM    114  H23 UNL A   1      42.641  30.092  28.918  1.00  0.00    +0.000 H 
ATOM    115  H24 UNL A   1      45.206  25.284  25.605  1.00  0.00    +0.000 H 
ATOM    116  H25 UNL A   1      42.840  24.445  25.990  1.00  0.00    +0.000 H 
ATOM    117  H26 UNL A   1      43.195  28.147  27.848  1.00  0.00    +0.000 H 
ATOM    118  H27 UNL A   1      47.848  29.764  26.813  1.00  0.00    +0.000 H 
ATOM    119  H28 UNL A   1      47.322  31.813  28.255  1.00  0.00    +0.000 H 
ATOM    120  H29 UNL A   1      37.934  28.514  29.649  1.00  0.00    +0.000 H 
ATOM    121  H30 UNL A   1      38.561  26.270  28.586  1.00  0.00    +0.000 H 
ENDROOT
BRANCH   19   18
ATOM     76  C53 UNL A   1      39.316  25.129  26.294  1.00  0.00    +0.000 C 
ATOM     77  C54 UNL A   1      38.584  24.004  25.910  1.00  0.00    +0.000 C 
ATOM    110  H19 UNL A   1      40.386  21.652  27.479  1.00  0.00    +0.000 H 
ATOM     15  C11 UNL A   1      39.009  22.729  26.291  1.00  0.00    +0.000 C 
ATOM     16  C12 UNL A   1      40.098  22.590  27.158  1.00  0.00    +0.000 C 
ATOM     17  C13 UNL A   1      40.795  23.721  27.593  1.00  0.00    +0.000 C 
ATOM    111  H20 UNL A   1      41.583  23.616  28.251  1.00  0.00    +0.000 H 
ATOM     18  C14 UNL A   1      40.430  24.998  27.138  1.00  0.00    +0.000 C 
ATOM    122  H31 UNL A   1      39.036  26.062  25.955  1.00  0.00    +0.000 H 
ATOM    123  H32 UNL A   1      37.728  24.115  25.343  1.00  0.00    +0.000 H 
BRANCH   15   13
ATOM     13  C10 UNL A   1      38.296  21.509  25.844  1.00  0.00    +0.000 C 
ATOM     14  O2  UNL A   1      38.935  20.497  25.583  1.00  0.00    +0.000 O 
BRANCH   13   12
ATOM     12  N2  UNL A   1      36.927  21.505  25.718  1.00  0.00    +0.000 N 
ATOM    109  H18 UNL A   1      36.429  21.402  26.561  1.00  0.00    +0.000 H 
BRANCH   12   11
ATOM     11  C9  UNL A   1      36.107  21.632  24.525  1.00  0.00    +0.000 C 
ATOM    108  H17 UNL A   1      35.403  20.825  24.523  1.00  0.00    +0.000 H 
ATOM    107  H16 UNL A   1      36.742  21.598  23.665  1.00  0.00    +0.000 H 
BRANCH   11   10
ATOM    105  H14 UNL A   1      35.862  23.646  23.911  1.00  0.00    +0.000 H 
ATOM     10  C8  UNL A   1      35.317  22.941  24.503  1.00  0.00    +0.000 C 
ATOM    106  H15 UNL A   1      34.354  22.697  24.105  1.00  0.00    +0.000 H 
BRANCH   10    9
ATOM      9  C7  UNL A   1      35.057  23.575  25.877  1.00  0.00    +0.000 C 
ATOM    103  H12 UNL A   1      34.355  22.956  26.396  1.00  0.00    +0.000 H 
ATOM    104  H13 UNL A   1      36.014  23.643  26.351  1.00  0.00    +0.000 H 
BRANCH    9    8
ATOM    101  H10 UNL A   1      33.596  25.018  26.430  1.00  0.00    +0.000 H 
ATOM    102  H11 UNL A   1      35.264  25.633  26.270  1.00  0.00    +0.000 H 
ATOM      8  C6  UNL A   1      34.501  25.005  25.860  1.00  0.00    +0.000 C 
BRANCH    8    7
ATOM     99  H8  UNL A   1      35.096  25.532  23.886  1.00  0.00    +0.000 H 
ATOM    100  H9  UNL A   1      33.430  24.932  24.043  1.00  0.00    +0.000 H 
ATOM      7  C5  UNL A   1      34.194  25.551  24.462  1.00  0.00    +0.000 C 
BRANCH    7    6
ATOM     97  H6  UNL A   1      33.954  27.464  25.381  1.00  0.00    +0.000 H 
ATOM     98  H7  UNL A   1      34.057  27.504  23.626  1.00  0.00    +0.000 H 
ATOM      6  C4  UNL A   1      33.656  26.986  24.471  1.00  0.00    +0.000 C 
BRANCH    6    5
ATOM      5  N1  UNL A   1      32.208  27.002  24.378  1.00  0.00    +0.000 N 
ATOM     96  H5  UNL A   1      31.845  27.344  23.531  1.00  0.00    +0.000 H 
BRANCH    5    3
ATOM      3  C3  UNL A   1      31.274  26.610  25.301  1.00  0.00    +0.000 C 
ATOM      4  O1  UNL A   1      31.256  27.211  26.378  1.00  0.00    +0.000 O 
BRANCH    3    2
ATOM      2  C2  UNL A   1      30.315  25.443  24.997  1.00  0.00    +0.000 C 
ATOM     95  H4  UNL A   1      29.575  25.394  25.767  1.00  0.00    +0.000 H 
BRANCH    2    1
ATOM      1  C1  UNL A   1      29.603  25.702  23.661  1.00  0.00    +0.000 C 
ATOM     92  H1  UNL A   1      29.731  24.857  23.018  1.00  0.00    +0.000 H 
ATOM     93  H2  UNL A   1      30.020  26.571  23.196  1.00  0.00    +0.000 H 
ATOM     94  H3  UNL A   1      28.559  25.860  23.838  1.00  0.00    +0.000 H 
ENDBRANCH    2    1
BRANCH    2   78
ATOM    129  H38 UNL A   1      32.987  16.790  22.797  1.00  0.00    +0.000 H 
ATOM    130  H39 UNL A   1      32.743  18.960  26.396  1.00  0.00    +0.000 H 
ATOM     78  C55 UNL A   1      31.028  24.094  25.026  1.00  0.00    +0.000 C 
ATOM     79  C56 UNL A   1      31.259  23.403  26.224  1.00  0.00    +0.000 C 
ATOM     80  C57 UNL A   1      31.773  22.097  26.230  1.00  0.00    +0.000 C 
ATOM     81  C58 UNL A   1      31.988  21.432  25.006  1.00  0.00    +0.000 C 
ATOM     82  C59 UNL A   1      31.791  22.146  23.828  1.00  0.00    +0.000 C 
ATOM     83  C60 UNL A   1      31.386  23.485  23.810  1.00  0.00    +0.000 C 
ATOM     84  N7  UNL A   1      32.023  21.282  22.786  1.00  0.00    +0.000 N 
ATOM     85  C61 UNL A   1      32.306  20.019  23.247  1.00  0.00    +0.000 C 
ATOM     86  C62 UNL A   1      32.521  18.830  22.539  1.00  0.00    +0.000 C 
ATOM     87  C63 UNL A   1      32.826  17.687  23.283  1.00  0.00    +0.000 C 
ATOM     88  C64 UNL A   1      32.917  17.744  24.671  1.00  0.00    +0.000 C 
ATOM     89 Cl1  UNL A   1      33.317  16.316  25.549  1.00  0.00    +0.000 Cl
ATOM     90  C65 UNL A   1      32.681  18.933  25.367  1.00  0.00    +0.000 C 
ATOM     91  C66 UNL A   1      32.356  20.097  24.639  1.00  0.00    +0.000 C 
ATOM    124  H33 UNL A   1      31.047  23.866  27.122  1.00  0.00    +0.000 H 
ATOM    125  H34 UNL A   1      31.990  21.626  27.123  1.00  0.00    +0.000 H 
ATOM    126  H35 UNL A   1      31.350  24.014  22.924  1.00  0.00    +0.000 H 
ATOM    127  H36 UNL A   1      31.990  21.534  21.834  1.00  0.00    +0.000 H 
ATOM    128  H37 UNL A   1      32.457  18.800  21.510  1.00  0.00    +0.000 H 
ENDBRANCH    2   78
ENDBRANCH    3    2
ENDBRANCH    5    3
ENDBRANCH    6    5
ENDBRANCH    7    6
ENDBRANCH    8    7
ENDBRANCH    9    8
ENDBRANCH   10    9
ENDBRANCH   11   10
ENDBRANCH   12   11
ENDBRANCH   13   12
ENDBRANCH   15   13
ENDBRANCH   19   18
BRANCH   23   24
ATOM     33  C24 UNL A   1      38.569  30.622  31.972  1.00  0.00    +0.000 C 
ATOM     34  F5  UNL A   1      39.508  30.040  32.732  1.00  0.00    +0.000 F 
ATOM     24  C19 UNL A   1      38.787  30.813  30.598  1.00  0.00    +0.000 C 
ATOM     25  C20 UNL A   1      37.768  31.420  29.850  1.00  0.00    +0.000 C 
ATOM     26  F1  UNL A   1      37.932  31.635  28.536  1.00  0.00    +0.000 F 
ATOM     27  C21 UNL A   1      36.587  31.841  30.457  1.00  0.00    +0.000 C 
ATOM     28  F2  UNL A   1      35.645  32.456  29.728  1.00  0.00    +0.000 F 
ATOM     29  C22 UNL A   1      36.389  31.635  31.814  1.00  0.00    +0.000 C 
ATOM     30  F3  UNL A   1      35.248  32.033  32.394  1.00  0.00    +0.000 F 
ATOM     31  C23 UNL A   1      37.376  31.020  32.570  1.00  0.00    +0.000 C 
ATOM     32  F4  UNL A   1      37.181  30.807  33.879  1.00  0.00    +0.000 F 
ENDBRANCH   23   24
BRANCH   40   41
ATOM     41  C30 UNL A   1      45.532  33.153  29.610  1.00  0.00    +0.000 C 
ATOM     42  C31 UNL A   1      46.314  33.164  30.775  1.00  0.00    +0.000 C 
ATOM     43  F6  UNL A   1      46.290  32.118  31.614  1.00  0.00    +0.000 F 
ATOM     44  C32 UNL A   1      47.094  34.271  31.102  1.00  0.00    +0.000 C 
ATOM     45  F7  UNL A   1      47.797  34.278  32.242  1.00  0.00    +0.000 F 
ATOM     46  C33 UNL A   1      47.130  35.371  30.258  1.00  0.00    +0.000 C 
ATOM     47  F8  UNL A   1      47.884  36.433  30.572  1.00  0.00    +0.000 F 
ATOM     48  C34 UNL A   1      46.379  35.374  29.092  1.00  0.00    +0.000 C 
ATOM     49  F9  UNL A   1      46.421  36.431  28.271  1.00  0.00    +0.000 F 
ATOM     50  C35 UNL A   1      45.579  34.280  28.775  1.00  0.00    +0.000 C 
ATOM     51  F10 UNL A   1      44.853  34.315  27.648  1.00  0.00    +0.000 F 
ENDBRANCH   40   41
BRANCH   55   56
ATOM     65  C44 UNL A   1      47.110  27.614  24.602  1.00  0.00    +0.000 C 
ATOM     66  F15 UNL A   1      46.180  28.282  23.903  1.00  0.00    +0.000 F 
ATOM     56  C39 UNL A   1      46.927  27.383  25.972  1.00  0.00    +0.000 C 
ATOM     57  C40 UNL A   1      47.927  26.675  26.655  1.00  0.00    +0.000 C 
ATOM     58  F11 UNL A   1      47.805  26.449  27.971  1.00  0.00    +0.000 F 
ATOM     59  C41 UNL A   1      49.072  26.234  25.997  1.00  0.00    +0.000 C 
ATOM     60  F12 UNL A   1      50.032  25.597  26.682  1.00  0.00    +0.000 F 
ATOM     61  C42 UNL A   1      49.228  26.467  24.638  1.00  0.00    +0.000 C 
ATOM     62  F13 UNL A   1      50.328  26.038  24.005  1.00  0.00    +0.000 F 
ATOM     63  C43 UNL A   1      48.244  27.149  23.939  1.00  0.00    +0.000 C 
ATOM     64  F14 UNL A   1      48.384  27.364  22.624  1.00  0.00    +0.000 F 
ENDBRANCH   55   56
TORSDOF 17
ENDMDL
MODEL 4
REMARK VINA RESULT:     -11.3     17.694     23.715
ROOT
ATOM     19  C15 UNL A   1      25.812  36.151  45.461  1.00  0.00    +0.000 C 
ATOM     20  C16 UNL A   1      25.717  37.301  46.425  1.00  0.00    +0.000 C 
ATOM     21  N3  UNL A   1      26.629  38.181  46.757  1.00  0.00    +0.000 N 
ATOM     22  C17 UNL A   1      26.013  39.046  47.651  1.00  0.00    +0.000 C 
ATOM     23  C18 UNL A   1      26.550  40.094  48.322  1.00  0.00    +0.000 C 
ATOM     35  C25 UNL A   1      27.925  40.506  48.221  1.00  0.00    +0.000 C 
ATOM     36  C26 UNL A   1      28.576  41.517  48.907  1.00  0.00    +0.000 C 
ATOM     37  C27 UNL A   1      29.898  41.575  48.452  1.00  0.00    +0.000 C 
ATOM     38  C28 UNL A   1      30.082  40.573  47.515  1.00  0.00    +0.000 C 
ATOM     39  N4  UNL A   1      28.863  39.928  47.379  1.00  0.00    +0.000 N 
ATOM     40  C29 UNL A   1      31.280  40.228  46.792  1.00  0.00    +0.000 C 
ATOM     52  C36 UNL A   1      31.381  39.218  45.894  1.00  0.00    +0.000 C 
ATOM     53  N5  UNL A   1      30.407  38.319  45.481  1.00  0.00    +0.000 N 
ATOM     54  C37 UNL A   1      30.985  37.546  44.594  1.00  0.00    +0.000 C 
ATOM     55  C38 UNL A   1      30.413  36.380  43.836  1.00  0.00    +0.000 C 
ATOM     67  C45 UNL A   1      29.138  36.009  44.057  1.00  0.00    +0.000 C 
ATOM     68  C46 UNL A   1      28.455  34.897  43.403  1.00  0.00    +0.000 C 
ATOM     69  C47 UNL A   1      27.184  34.848  43.833  1.00  0.00    +0.000 C 
ATOM     70  C48 UNL A   1      26.972  35.907  44.821  1.00  0.00    +0.000 C 
ATOM     71  N6  UNL A   1      28.188  36.539  44.897  1.00  0.00    +0.000 N 
ATOM     72  C49 UNL A   1      32.390  37.888  44.325  1.00  0.00    +0.000 C 
ATOM     73  C50 UNL A   1      32.591  38.887  45.171  1.00  0.00    +0.000 C 
ATOM     74  C51 UNL A   1      24.637  38.612  47.777  1.00  0.00    +0.000 C 
ATOM     75  C52 UNL A   1      24.418  37.503  47.087  1.00  0.00    +0.000 C 
ATOM    112  H21 UNL A   1      28.158  42.124  49.629  1.00  0.00    +0.000 H 
ATOM    113  H22 UNL A   1      30.615  42.250  48.763  1.00  0.00    +0.000 H 
ATOM    114  H23 UNL A   1      28.689  39.170  46.775  1.00  0.00    +0.000 H 
ATOM    115  H24 UNL A   1      28.881  34.252  42.719  1.00  0.00    +0.000 H 
ATOM    116  H25 UNL A   1      26.471  34.173  43.517  1.00  0.00    +0.000 H 
ATOM    117  H26 UNL A   1      28.364  37.301  45.496  1.00  0.00    +0.000 H 
ATOM    118  H27 UNL A   1      33.046  37.460  43.653  1.00  0.00    +0.000 H 
ATOM    119  H28 UNL A   1      33.494  39.370  45.298  1.00  0.00    +0.000 H 
ATOM    120  H29 UNL A   1      23.919  39.104  48.333  1.00  0.00    +0.000 H 
ATOM    121  H30 UNL A   1      23.562  36.930  47.027  1.00  0.00    +0.000 H 
ENDROOT
BRANCH   19   18
ATOM     76  C53 UNL A   1      24.442  34.086  45.803  1.00  0.00    +0.000 C 
ATOM     77  C54 UNL A   1      23.319  33.302  45.535  1.00  0.00    +0.000 C 
ATOM    110  H19 UNL A   1      21.782  35.328  43.349  1.00  0.00    +0.000 H 
ATOM     15  C11 UNL A   1      22.318  33.781  44.686  1.00  0.00    +0.000 C 
ATOM     16  C12 UNL A   1      22.499  34.993  44.012  1.00  0.00    +0.000 C 
ATOM     17  C13 UNL A   1      23.652  35.751  44.235  1.00  0.00    +0.000 C 
ATOM    111  H20 UNL A   1      23.793  36.634  43.719  1.00  0.00    +0.000 H 
ATOM     18  C14 UNL A   1      24.618  35.320  45.157  1.00  0.00    +0.000 C 
ATOM    122  H31 UNL A   1      25.146  33.757  46.482  1.00  0.00    +0.000 H 
ATOM    123  H32 UNL A   1      23.229  32.367  45.964  1.00  0.00    +0.000 H 
BRANCH   15   13
ATOM     13  C10 UNL A   1      21.081  33.005  44.432  1.00  0.00    +0.000 C 
ATOM     14  O2  UNL A   1      21.094  32.100  43.605  1.00  0.00    +0.000 O 
BRANCH   13   12
ATOM     12  N2  UNL A   1      19.921  33.293  45.112  1.00  0.00    +0.000 N 
ATOM    109  H18 UNL A   1      19.750  32.734  45.904  1.00  0.00    +0.000 H 
BRANCH   12   11
ATOM     11  C9  UNL A   1      18.912  34.302  44.835  1.00  0.00    +0.000 C 
ATOM    108  H17 UNL A   1      19.346  35.030  44.181  1.00  0.00    +0.000 H 
ATOM    107  H16 UNL A   1      18.603  34.744  45.759  1.00  0.00    +0.000 H 
BRANCH   11   10
ATOM    105  H14 UNL A   1      17.348  32.878  44.708  1.00  0.00    +0.000 H 
ATOM     10  C8  UNL A   1      17.686  33.715  44.135  1.00  0.00    +0.000 C 
ATOM    106  H15 UNL A   1      16.973  34.512  44.073  1.00  0.00    +0.000 H 
BRANCH   10    9
ATOM      9  C7  UNL A   1      17.915  33.242  42.693  1.00  0.00    +0.000 C 
ATOM    103  H12 UNL A   1      17.408  33.923  42.040  1.00  0.00    +0.000 H 
ATOM    104  H13 UNL A   1      18.977  33.220  42.560  1.00  0.00    +0.000 H 
BRANCH    9    8
ATOM    101  H10 UNL A   1      16.405  31.889  42.055  1.00  0.00    +0.000 H 
ATOM    102  H11 UNL A   1      18.073  31.449  41.603  1.00  0.00    +0.000 H 
ATOM      8  C6  UNL A   1      17.426  31.826  42.366  1.00  0.00    +0.000 C 
BRANCH    8    7
ATOM     99  H8  UNL A   1      18.041  29.970  43.205  1.00  0.00    +0.000 H 
ATOM    100  H9  UNL A   1      18.011  31.341  44.335  1.00  0.00    +0.000 H 
ATOM      7  C5  UNL A   1      17.511  30.839  43.534  1.00  0.00    +0.000 C 
BRANCH    7    6
ATOM     97  H6  UNL A   1      15.963  30.875  45.005  1.00  0.00    +0.000 H 
ATOM     98  H7  UNL A   1      15.396  30.681  43.351  1.00  0.00    +0.000 H 
ATOM      6  C4  UNL A   1      16.143  30.399  44.064  1.00  0.00    +0.000 C 
BRANCH    6    5
ATOM      5  N1  UNL A   1      16.089  28.960  44.242  1.00  0.00    +0.000 N 
ATOM     96  H5  UNL A   1      15.907  28.656  45.160  1.00  0.00    +0.000 H 
BRANCH    5    3
ATOM      3  C3  UNL A   1      16.255  27.963  43.317  1.00  0.00    +0.000 C 
ATOM      4  O1  UNL A   1      17.326  27.352  43.332  1.00  0.00    +0.000 O 
BRANCH    3    2
ATOM      2  C2  UNL A   1      15.149  27.654  42.291  1.00  0.00    +0.000 C 
ATOM     95  H4  UNL A   1      14.217  28.020  42.667  1.00  0.00    +0.000 H 
BRANCH    2    1
ATOM      1  C1  UNL A   1      15.455  28.382  40.974  1.00  0.00    +0.000 C 
ATOM     92  H1  UNL A   1      16.515  28.488  40.863  1.00  0.00    +0.000 H 
ATOM     93  H2  UNL A   1      15.000  29.350  40.987  1.00  0.00    +0.000 H 
ATOM     94  H3  UNL A   1      15.066  27.815  40.154  1.00  0.00    +0.000 H 
ENDBRANCH    2    1
BRANCH    2   78
ATOM    129  H38 UNL A   1      12.776  19.443  38.577  1.00  0.00    +0.000 H 
ATOM    130  H39 UNL A   1      13.177  20.875  42.515  1.00  0.00    +0.000 H 
ATOM     78  C55 UNL A   1      14.952  26.153  42.096  1.00  0.00    +0.000 C 
ATOM     79  C56 UNL A   1      14.535  25.318  43.143  1.00  0.00    +0.000 C 
ATOM     80  C57 UNL A   1      14.206  23.972  42.921  1.00  0.00    +0.000 C 
ATOM     81  C58 UNL A   1      14.217  23.465  41.606  1.00  0.00    +0.000 C 
ATOM     82  C59 UNL A   1      14.671  24.296  40.586  1.00  0.00    +0.000 C 
ATOM     83  C60 UNL A   1      15.108  25.605  40.810  1.00  0.00    +0.000 C 
ATOM     84  N7  UNL A   1      14.551  23.598  39.409  1.00  0.00    +0.000 N 
ATOM     85  C61 UNL A   1      13.980  22.366  39.623  1.00  0.00    +0.000 C 
ATOM     86  C62 UNL A   1      13.603  21.377  38.706  1.00  0.00    +0.000 C 
ATOM     87  C63 UNL A   1      13.070  20.193  39.222  1.00  0.00    +0.000 C 
ATOM     88  C64 UNL A   1      12.931  20.014  40.596  1.00  0.00    +0.000 C 
ATOM     89 Cl1  UNL A   1      12.289  18.531  41.193  1.00  0.00    +0.000 Cl
ATOM     90  C65 UNL A   1      13.293  21.017  41.500  1.00  0.00    +0.000 C 
ATOM     91  C66 UNL A   1      13.820  22.227  41.002  1.00  0.00    +0.000 C 
ATOM    124  H33 UNL A   1      14.468  25.702  44.099  1.00  0.00    +0.000 H 
ATOM    125  H34 UNL A   1      13.956  23.358  43.712  1.00  0.00    +0.000 H 
ATOM    126  H35 UNL A   1      15.535  26.158  40.050  1.00  0.00    +0.000 H 
ATOM    127  H36 UNL A   1      14.834  23.936  38.528  1.00  0.00    +0.000 H 
ATOM    128  H37 UNL A   1      13.716  21.518  37.690  1.00  0.00    +0.000 H 
ENDBRANCH    2   78
ENDBRANCH    3    2
ENDBRANCH    5    3
ENDBRANCH    6    5
ENDBRANCH    7    6
ENDBRANCH    8    7
ENDBRANCH    9    8
ENDBRANCH   10    9
ENDBRANCH   11   10
ENDBRANCH   12   11
ENDBRANCH   13   12
ENDBRANCH   15   13
ENDBRANCH   19   18
BRANCH   23   24
ATOM     33  C24 UNL A   1      24.965  42.005  48.768  1.00  0.00    +0.000 C 
ATOM     34  F5  UNL A   1      25.085  42.386  47.487  1.00  0.00    +0.000 F 
ATOM     24  C19 UNL A   1      25.647  40.870  49.235  1.00  0.00    +0.000 C 
ATOM     25  C20 UNL A   1      25.491  40.521  50.584  1.00  0.00    +0.000 C 
ATOM     26  F1  UNL A   1      26.114  39.439  51.078  1.00  0.00    +0.000 F 
ATOM     27  C21 UNL A   1      24.668  41.264  51.427  1.00  0.00    +0.000 C 
ATOM     28  F2  UNL A   1      24.502  40.885  52.702  1.00  0.00    +0.000 F 
ATOM     29  C22 UNL A   1      24.010  42.385  50.945  1.00  0.00    +0.000 C 
ATOM     30  F3  UNL A   1      23.224  43.104  51.760  1.00  0.00    +0.000 F 
ATOM     31  C23 UNL A   1      24.163  42.760  49.619  1.00  0.00    +0.000 C 
ATOM     32  F4  UNL A   1      23.540  43.852  49.156  1.00  0.00    +0.000 F 
ENDBRANCH   23   24
BRANCH   40   41
ATOM     41  C30 UNL A   1      32.518  41.030  47.065  1.00  0.00    +0.000 C 
ATOM     42  C31 UNL A   1      32.728  42.282  46.467  1.00  0.00    +0.000 C 
ATOM     43  F6  UNL A   1      31.837  42.770  45.590  1.00  0.00    +0.000 F 
ATOM     44  C32 UNL A   1      33.877  43.020  46.739  1.00  0.00    +0.000 C 
ATOM     45  F7  UNL A   1      34.080  44.192  46.122  1.00  0.00    +0.000 F 
ATOM     46  C33 UNL A   1      34.820  42.537  47.634  1.00  0.00    +0.000 C 
ATOM     47  F8  UNL A   1      35.924  43.250  47.897  1.00  0.00    +0.000 F 
ATOM     48  C34 UNL A   1      34.624  41.310  48.250  1.00  0.00    +0.000 C 
ATOM     49  F9  UNL A   1      35.528  40.846  49.122  1.00  0.00    +0.000 F 
ATOM     50  C35 UNL A   1      33.489  40.557  47.960  1.00  0.00    +0.000 C 
ATOM     51  F10 UNL A   1      33.331  39.368  48.561  1.00  0.00    +0.000 F 
ENDBRANCH   40   41
BRANCH   55   56
ATOM     65  C44 UNL A   1      31.938  34.466  43.245  1.00  0.00    +0.000 C 
ATOM     66  F15 UNL A   1      31.864  34.022  44.508  1.00  0.00    +0.000 F 
ATOM     56  C39 UNL A   1      31.246  35.624  42.866  1.00  0.00    +0.000 C 
ATOM     57  C40 UNL A   1      31.362  36.049  41.535  1.00  0.00    +0.000 C 
ATOM     58  F11 UNL A   1      30.700  37.140  41.122  1.00  0.00    +0.000 F 
ATOM     59  C41 UNL A   1      32.123  35.332  40.615  1.00  0.00    +0.000 C 
ATOM     60  F12 UNL A   1      32.182  35.737  39.339  1.00  0.00    +0.000 F 
ATOM     61  C42 UNL A   1      32.807  34.193  41.014  1.00  0.00    +0.000 C 
ATOM     62  F13 UNL A   1      33.542  33.507  40.130  1.00  0.00    +0.000 F 
ATOM     63  C43 UNL A   1      32.721  33.765  42.330  1.00  0.00    +0.000 C 
ATOM     64  F14 UNL A   1      33.391  32.673  42.724  1.00  0.00    +0.000 F 
ENDBRANCH   55   56
TORSDOF 17
ENDMDL
MODEL 5
REMARK VINA RESULT:     -11.2     17.767     22.807
ROOT
ATOM     19  C15 UNL A   1      25.761  36.168  45.546  1.00  0.00    +0.000 C 
ATOM     20  C16 UNL A   1      27.086  36.035  44.849  1.00  0.00    +0.000 C 
ATOM     21  N3  UNL A   1      28.175  36.748  44.996  1.00  0.00    +0.000 N 
ATOM     22  C17 UNL A   1      29.117  36.182  44.147  1.00  0.00    +0.000 C 
ATOM     23  C18 UNL A   1      30.385  36.590  43.897  1.00  0.00    +0.000 C 
ATOM     35  C25 UNL A   1      31.002  37.744  44.496  1.00  0.00    +0.000 C 
ATOM     36  C26 UNL A   1      32.260  38.271  44.260  1.00  0.00    +0.000 C 
ATOM     37  C27 UNL A   1      32.438  39.375  45.101  1.00  0.00    +0.000 C 
ATOM     38  C28 UNL A   1      31.276  39.561  45.830  1.00  0.00    +0.000 C 
ATOM     39  N4  UNL A   1      30.405  38.552  45.453  1.00  0.00    +0.000 N 
ATOM     40  C29 UNL A   1      30.980  40.582  46.802  1.00  0.00    +0.000 C 
ATOM     52  C36 UNL A   1      29.805  40.703  47.467  1.00  0.00    +0.000 C 
ATOM     53  N5  UNL A   1      28.665  39.916  47.373  1.00  0.00    +0.000 N 
ATOM     54  C37 UNL A   1      27.806  40.425  48.222  1.00  0.00    +0.000 C 
ATOM     55  C38 UNL A   1      26.397  39.992  48.519  1.00  0.00    +0.000 C 
ATOM     67  C45 UNL A   1      25.869  38.952  47.846  1.00  0.00    +0.000 C 
ATOM     68  C46 UNL A   1      24.517  38.429  48.023  1.00  0.00    +0.000 C 
ATOM     69  C47 UNL A   1      24.351  37.364  47.222  1.00  0.00    +0.000 C 
ATOM     70  C48 UNL A   1      25.574  37.150  46.450  1.00  0.00    +0.000 C 
ATOM     71  N6  UNL A   1      26.417  38.145  46.879  1.00  0.00    +0.000 N 
ATOM     72  C49 UNL A   1      28.317  41.581  48.972  1.00  0.00    +0.000 C 
ATOM     73  C50 UNL A   1      29.523  41.732  48.446  1.00  0.00    +0.000 C 
ATOM     74  C51 UNL A   1      28.486  35.039  43.520  1.00  0.00    +0.000 C 
ATOM     75  C52 UNL A   1      27.213  34.940  43.874  1.00  0.00    +0.000 C 
ATOM    112  H21 UNL A   1      32.948  37.912  43.580  1.00  0.00    +0.000 H 
ATOM    113  H22 UNL A   1      33.291  39.953  45.167  1.00  0.00    +0.000 H 
ATOM    114  H23 UNL A   1      29.495  38.427  45.810  1.00  0.00    +0.000 H 
ATOM    115  H24 UNL A   1      23.805  38.815  48.662  1.00  0.00    +0.000 H 
ATOM    116  H25 UNL A   1      23.496  36.788  47.163  1.00  0.00    +0.000 H 
ATOM    117  H26 UNL A   1      27.329  38.269  46.528  1.00  0.00    +0.000 H 
ATOM    118  H27 UNL A   1      27.855  42.131  49.714  1.00  0.00    +0.000 H 
ATOM    119  H28 UNL A   1      30.180  42.486  48.703  1.00  0.00    +0.000 H 
ATOM    120  H29 UNL A   1      28.965  34.387  42.880  1.00  0.00    +0.000 H 
ATOM    121  H30 UNL A   1      26.497  34.270  43.552  1.00  0.00    +0.000 H 
ENDROOT
BRANCH   19   18
ATOM     76  C53 UNL A   1      24.676  33.954  45.965  1.00  0.00    +0.000 C 
ATOM     77  C54 UNL A   1      23.655  33.028  45.747  1.00  0.00    +0.000 C 
ATOM    110  H19 UNL A   1      21.803  34.801  43.585  1.00  0.00    +0.000 H 
ATOM     15  C11 UNL A   1      22.574  33.360  44.926  1.00  0.00    +0.000 C 
ATOM     16  C12 UNL A   1      22.578  34.573  44.228  1.00  0.00    +0.000 C 
ATOM     17  C13 UNL A   1      23.632  35.474  44.400  1.00  0.00    +0.000 C 
ATOM    111  H20 UNL A   1      23.642  36.358  43.866  1.00  0.00    +0.000 H 
ATOM     18  C14 UNL A   1      24.674  35.187  45.295  1.00  0.00    +0.000 C 
ATOM    122  H31 UNL A   1      25.438  33.730  46.624  1.00  0.00    +0.000 H 
ATOM    123  H32 UNL A   1      23.698  32.097  46.193  1.00  0.00    +0.000 H 
BRANCH   15   13
ATOM     13  C10 UNL A   1      21.438  32.429  44.726  1.00  0.00    +0.000 C 
ATOM     14  O2  UNL A   1      21.432  31.683  43.753  1.00  0.00    +0.000 O 
BRANCH   13   12
ATOM     12  N2  UNL A   1      20.393  32.398  45.618  1.00  0.00    +0.000 N 
ATOM    109  H18 UNL A   1      20.652  32.429  46.567  1.00  0.00    +0.000 H 
BRANCH   12   11
ATOM     11  C9  UNL A   1      18.963  32.326  45.367  1.00  0.00    +0.000 C 
ATOM    108  H17 UNL A   1      18.462  32.365  46.312  1.00  0.00    +0.000 H 
ATOM    107  H16 UNL A   1      18.749  31.416  44.848  1.00  0.00    +0.000 H 
BRANCH   11   10
ATOM    105  H14 UNL A   1      17.607  33.916  45.012  1.00  0.00    +0.000 H 
ATOM     10  C8  UNL A   1      18.465  33.502  44.526  1.00  0.00    +0.000 C 
ATOM    106  H15 UNL A   1      19.289  34.182  44.453  1.00  0.00    +0.000 H 
BRANCH   10    9
ATOM      9  C7  UNL A   1      18.073  33.158  43.082  1.00  0.00    +0.000 C 
ATOM    103  H12 UNL A   1      17.094  33.555  42.906  1.00  0.00    +0.000 H 
ATOM    104  H13 UNL A   1      18.835  33.586  42.465  1.00  0.00    +0.000 H 
BRANCH    9    8
ATOM    101  H10 UNL A   1      18.651  31.514  41.864  1.00  0.00    +0.000 H 
ATOM    102  H11 UNL A   1      18.410  31.145  43.593  1.00  0.00    +0.000 H 
ATOM      8  C6  UNL A   1      18.046  31.665  42.733  1.00  0.00    +0.000 C 
BRANCH    8    7
ATOM     99  H8  UNL A   1      16.020  31.909  42.126  1.00  0.00    +0.000 H 
ATOM    100  H9  UNL A   1      16.760  30.352  41.696  1.00  0.00    +0.000 H 
ATOM      7  C5  UNL A   1      16.649  31.105  42.446  1.00  0.00    +0.000 C 
BRANCH    7    6
ATOM     97  H6  UNL A   1      16.747  30.257  44.404  1.00  0.00    +0.000 H 
ATOM     98  H7  UNL A   1      15.240  31.089  44.042  1.00  0.00    +0.000 H 
ATOM      6  C4  UNL A   1      15.998  30.437  43.661  1.00  0.00    +0.000 C 
BRANCH    6    5
ATOM      5  N1  UNL A   1      15.380  29.175  43.296  1.00  0.00    +0.000 N 
ATOM     96  H5  UNL A   1      14.483  29.023  43.669  1.00  0.00    +0.000 H 
BRANCH    5    3
ATOM      3  C3  UNL A   1      15.867  28.166  42.507  1.00  0.00    +0.000 C 
ATOM      4  O1  UNL A   1      16.977  27.711  42.792  1.00  0.00    +0.000 O 
BRANCH    3    2
ATOM      2  C2  UNL A   1      15.057  27.657  41.300  1.00  0.00    +0.000 C 
ATOM     95  H4  UNL A   1      14.082  28.096  41.327  1.00  0.00    +0.000 H 
BRANCH    2    1
ATOM      1  C1  UNL A   1      15.746  28.094  40.000  1.00  0.00    +0.000 C 
ATOM     92  H1  UNL A   1      15.924  27.237  39.384  1.00  0.00    +0.000 H 
ATOM     93  H2  UNL A   1      16.678  28.567  40.231  1.00  0.00    +0.000 H 
ATOM     94  H3  UNL A   1      15.117  28.784  39.477  1.00  0.00    +0.000 H 
ENDBRANCH    2    1
BRANCH    2   78
ATOM    129  H38 UNL A   1      12.661  18.963  38.949  1.00  0.00    +0.000 H 
ATOM    130  H39 UNL A   1      12.882  21.061  42.592  1.00  0.00    +0.000 H 
ATOM     78  C55 UNL A   1      14.828  26.148  41.360  1.00  0.00    +0.000 C 
ATOM     79  C56 UNL A   1      14.329  25.520  42.510  1.00  0.00    +0.000 C 
ATOM     80  C57 UNL A   1      13.975  24.161  42.508  1.00  0.00    +0.000 C 
ATOM     81  C58 UNL A   1      14.045  23.430  41.306  1.00  0.00    +0.000 C 
ATOM     82  C59 UNL A   1      14.579  24.059  40.185  1.00  0.00    +0.000 C 
ATOM     83  C60 UNL A   1      15.041  25.379  40.202  1.00  0.00    +0.000 C 
ATOM     84  N7  UNL A   1      14.506  23.166  39.144  1.00  0.00    +0.000 N 
ATOM     85  C61 UNL A   1      13.889  22.002  39.536  1.00  0.00    +0.000 C 
ATOM     86  C62 UNL A   1      13.535  20.874  38.786  1.00  0.00    +0.000 C 
ATOM     87  C63 UNL A   1      12.940  19.810  39.469  1.00  0.00    +0.000 C 
ATOM     88  C64 UNL A   1      12.719  19.879  40.842  1.00  0.00    +0.000 C 
ATOM     89 Cl1  UNL A   1      12.002  18.537  41.650  1.00  0.00    +0.000 Cl
ATOM     90  C65 UNL A   1      13.059  21.019  41.576  1.00  0.00    +0.000 C 
ATOM     91  C66 UNL A   1      13.648  22.112  40.906  1.00  0.00    +0.000 C 
ATOM    124  H33 UNL A   1      14.220  26.068  43.378  1.00  0.00    +0.000 H 
ATOM    125  H34 UNL A   1      13.664  23.702  43.378  1.00  0.00    +0.000 H 
ATOM    126  H35 UNL A   1      15.525  25.780  39.384  1.00  0.00    +0.000 H 
ATOM    127  H36 UNL A   1      14.848  23.337  38.236  1.00  0.00    +0.000 H 
ATOM    128  H37 UNL A   1      13.709  20.830  37.770  1.00  0.00    +0.000 H 
ENDBRANCH    2   78
ENDBRANCH    3    2
ENDBRANCH    5    3
ENDBRANCH    6    5
ENDBRANCH    7    6
ENDBRANCH    8    7
ENDBRANCH    9    8
ENDBRANCH   10    9
ENDBRANCH   11   10
ENDBRANCH   12   11
ENDBRANCH   13   12
ENDBRANCH   15   13
ENDBRANCH   19   18
BRANCH   23   24
ATOM     33  C24 UNL A   1      31.278  36.168  41.577  1.00  0.00    +0.000 C 
ATOM     34  F5  UNL A   1      30.666  37.283  41.152  1.00  0.00    +0.000 F 
ATOM     24  C19 UNL A   1      31.194  35.784  42.924  1.00  0.00    +0.000 C 
ATOM     25  C20 UNL A   1      31.848  34.605  43.312  1.00  0.00    +0.000 C 
ATOM     26  F1  UNL A   1      31.806  34.199  44.590  1.00  0.00    +0.000 F 
ATOM     27  C21 UNL A   1      32.577  33.854  42.393  1.00  0.00    +0.000 C 
ATOM     28  F2  UNL A   1      33.228  32.754  42.797  1.00  0.00    +0.000 F 
ATOM     29  C22 UNL A   1      32.640  34.249  41.066  1.00  0.00    +0.000 C 
ATOM     30  F3  UNL A   1      33.335  33.519  40.181  1.00  0.00    +0.000 F 
ATOM     31  C23 UNL A   1      31.986  35.400  40.656  1.00  0.00    +0.000 C 
ATOM     32  F4  UNL A   1      32.035  35.776  39.370  1.00  0.00    +0.000 F 
ENDBRANCH   23   24
BRANCH   40   41
ATOM     41  C30 UNL A   1      32.039  41.605  47.089  1.00  0.00    +0.000 C 
ATOM     42  C31 UNL A   1      33.161  41.299  47.874  1.00  0.00    +0.000 C 
ATOM     43  F6  UNL A   1      33.285  40.085  48.430  1.00  0.00    +0.000 F 
ATOM     44  C32 UNL A   1      34.142  42.256  48.122  1.00  0.00    +0.000 C 
ATOM     45  F7  UNL A   1      35.182  41.957  48.911  1.00  0.00    +0.000 F 
ATOM     46  C33 UNL A   1      34.035  43.523  47.567  1.00  0.00    +0.000 C 
ATOM     47  F8  UNL A   1      34.982  44.441  47.804  1.00  0.00    +0.000 F 
ATOM     48  C34 UNL A   1      32.943  43.841  46.774  1.00  0.00    +0.000 C 
ATOM     49  F9  UNL A   1      32.844  45.060  46.229  1.00  0.00    +0.000 F 
ATOM     50  C35 UNL A   1      31.948  42.895  46.545  1.00  0.00    +0.000 C 
ATOM     51  F10 UNL A   1      30.896  43.234  45.784  1.00  0.00    +0.000 F 
ENDBRANCH   40   41
BRANCH   55   56
ATOM     65  C44 UNL A   1      24.781  41.810  49.171  1.00  0.00    +0.000 C 
ATOM     66  F15 UNL A   1      24.752  42.235  47.899  1.00  0.00    +0.000 F 
ATOM     56  C39 UNL A   1      25.578  40.714  49.527  1.00  0.00    +0.000 C 
ATOM     57  C40 UNL A   1      25.578  40.314  50.870  1.00  0.00    +0.000 C 
ATOM     58  F11 UNL A   1      26.309  39.257  51.253  1.00  0.00    +0.000 F 
ATOM     59  C41 UNL A   1      24.795  40.972  51.816  1.00  0.00    +0.000 C 
ATOM     60  F12 UNL A   1      24.781  40.543  53.086  1.00  0.00    +0.000 F 
ATOM     61  C42 UNL A   1      24.021  42.061  51.443  1.00  0.00    +0.000 C 
ATOM     62  F13 UNL A   1      23.272  42.696  52.354  1.00  0.00    +0.000 F 
ATOM     63  C43 UNL A   1      24.020  42.485  50.123  1.00  0.00    +0.000 C 
ATOM     64  F14 UNL A   1      23.284  43.545  49.761  1.00  0.00    +0.000 F 
ENDBRANCH   55   56
TORSDOF 17
ENDMDL
MODEL 6
REMARK VINA RESULT:     -11.2     25.674     34.035
ROOT
ATOM     19  C15 UNL A   1      20.757  19.233   5.331  1.00  0.00    +0.000 C 
ATOM     20  C16 UNL A   1      19.636  18.860   6.261  1.00  0.00    +0.000 C 
ATOM     21  N3  UNL A   1      18.368  19.187   6.203  1.00  0.00    +0.000 N 
ATOM     22  C17 UNL A   1      17.763  18.549   7.278  1.00  0.00    +0.000 C 
ATOM     23  C18 UNL A   1      16.471  18.615   7.682  1.00  0.00    +0.000 C 
ATOM     35  C25 UNL A   1      15.455  19.404   7.037  1.00  0.00    +0.000 C 
ATOM     36  C26 UNL A   1      14.134  19.581   7.409  1.00  0.00    +0.000 C 
ATOM     37  C27 UNL A   1      13.516  20.402   6.459  1.00  0.00    +0.000 C 
ATOM     38  C28 UNL A   1      14.464  20.771   5.518  1.00  0.00    +0.000 C 
ATOM     39  N4  UNL A   1      15.647  20.148   5.882  1.00  0.00    +0.000 N 
ATOM     40  C29 UNL A   1      14.304  21.625   4.370  1.00  0.00    +0.000 C 
ATOM     52  C36 UNL A   1      15.291  21.949   3.500  1.00  0.00    +0.000 C 
ATOM     53  N5  UNL A   1      16.623  21.557   3.508  1.00  0.00    +0.000 N 
ATOM     54  C37 UNL A   1      17.169  22.118   2.457  1.00  0.00    +0.000 C 
ATOM     55  C38 UNL A   1      18.596  22.060   1.985  1.00  0.00    +0.000 C 
ATOM     67  C45 UNL A   1      19.502  21.367   2.701  1.00  0.00    +0.000 C 
ATOM     68  C46 UNL A   1      20.917  21.231   2.369  1.00  0.00    +0.000 C 
ATOM     69  C47 UNL A   1      21.506  20.436   3.277  1.00  0.00    +0.000 C 
ATOM     70  C48 UNL A   1      20.515  20.032   4.274  1.00  0.00    +0.000 C 
ATOM     71  N6  UNL A   1      19.356  20.639   3.857  1.00  0.00    +0.000 N 
ATOM     72  C49 UNL A   1      16.234  22.910   1.645  1.00  0.00    +0.000 C 
ATOM     73  C50 UNL A   1      15.114  22.805   2.346  1.00  0.00    +0.000 C 
ATOM     74  C51 UNL A   1      18.792  17.781   7.946  1.00  0.00    +0.000 C 
ATOM     75  C52 UNL A   1      19.979  17.986   7.394  1.00  0.00    +0.000 C 
ATOM    112  H21 UNL A   1      13.681  19.178   8.244  1.00  0.00    +0.000 H 
ATOM    113  H22 UNL A   1      12.524  20.686   6.459  1.00  0.00    +0.000 H 
ATOM    114  H23 UNL A   1      16.499  20.224   5.394  1.00  0.00    +0.000 H 
ATOM    115  H24 UNL A   1      21.389  21.675   1.566  1.00  0.00    +0.000 H 
ATOM    116  H25 UNL A   1      22.498  20.153   3.271  1.00  0.00    +0.000 H 
ATOM    117  H26 UNL A   1      18.502  20.561   4.340  1.00  0.00    +0.000 H 
ATOM    118  H27 UNL A   1      16.406  23.415   0.762  1.00  0.00    +0.000 H 
ATOM    119  H28 UNL A   1      14.228  23.273   2.100  1.00  0.00    +0.000 H 
ATOM    120  H29 UNL A   1      18.623  17.154   8.749  1.00  0.00    +0.000 H 
ATOM    121  H30 UNL A   1      20.903  17.626   7.681  1.00  0.00    +0.000 H 
ENDROOT
BRANCH   19   18
ATOM     76  C53 UNL A   1      22.601  17.679   4.664  1.00  0.00    +0.000 C 
ATOM     77  C54 UNL A   1      23.883  17.155   4.834  1.00  0.00    +0.000 C 
ATOM    110  H19 UNL A   1      24.858  19.004   7.455  1.00  0.00    +0.000 H 
ATOM     15  C11 UNL A   1      24.730  17.680   5.813  1.00  0.00    +0.000 C 
ATOM     16  C12 UNL A   1      24.249  18.647   6.702  1.00  0.00    +0.000 C 
ATOM     17  C13 UNL A   1      22.944  19.130   6.570  1.00  0.00    +0.000 C 
ATOM    111  H20 UNL A   1      22.585  19.827   7.241  1.00  0.00    +0.000 H 
ATOM     18  C14 UNL A   1      22.120  18.674   5.530  1.00  0.00    +0.000 C 
ATOM    122  H31 UNL A   1      22.004  17.334   3.897  1.00  0.00    +0.000 H 
ATOM    123  H32 UNL A   1      24.206  16.378   4.234  1.00  0.00    +0.000 H 
BRANCH   15   13
ATOM     13  C10 UNL A   1      26.121  17.194   5.976  1.00  0.00    +0.000 C 
ATOM     14  O2  UNL A   1      26.323  16.009   6.211  1.00  0.00    +0.000 O 
BRANCH   13   12
ATOM     12  N2  UNL A   1      27.182  18.061   5.870  1.00  0.00    +0.000 N 
ATOM    109  H18 UNL A   1      27.188  18.618   5.058  1.00  0.00    +0.000 H 
BRANCH   12   11
ATOM     11  C9  UNL A   1      28.295  18.278   6.779  1.00  0.00    +0.000 C 
ATOM    108  H17 UNL A   1      29.041  18.840   6.256  1.00  0.00    +0.000 H 
ATOM    107  H16 UNL A   1      28.673  17.328   7.095  1.00  0.00    +0.000 H 
BRANCH   11   10
ATOM    105  H14 UNL A   1      28.706  19.710   8.287  1.00  0.00    +0.000 H 
ATOM     10  C8  UNL A   1      27.885  19.081   8.014  1.00  0.00    +0.000 C 
ATOM    106  H15 UNL A   1      27.003  19.620   7.734  1.00  0.00    +0.000 H 
BRANCH   10    9
ATOM      9  C7  UNL A   1      27.497  18.246   9.242  1.00  0.00    +0.000 C 
ATOM    103  H12 UNL A   1      27.572  17.213   8.972  1.00  0.00    +0.000 H 
ATOM    104  H13 UNL A   1      28.169  18.544  10.020  1.00  0.00    +0.000 H 
BRANCH    9    8
ATOM    101  H10 UNL A   1      25.380  18.224   9.039  1.00  0.00    +0.000 H 
ATOM    102  H11 UNL A   1      26.001  17.883  10.677  1.00  0.00    +0.000 H 
ATOM      8  C6  UNL A   1      26.087  18.486   9.797  1.00  0.00    +0.000 C 
BRANCH    8    7
ATOM     99  H8  UNL A   1      26.097  20.583   9.433  1.00  0.00    +0.000 H 
ATOM    100  H9  UNL A   1      24.770  19.996  10.459  1.00  0.00    +0.000 H 
ATOM      7  C5  UNL A   1      25.812  19.930  10.231  1.00  0.00    +0.000 C 
BRANCH    7    6
ATOM     97  H6  UNL A   1      27.376  19.654  11.659  1.00  0.00    +0.000 H 
ATOM     98  H7  UNL A   1      26.957  21.334  11.348  1.00  0.00    +0.000 H 
ATOM      6  C4  UNL A   1      26.576  20.345  11.492  1.00  0.00    +0.000 C 
BRANCH    6    5
ATOM      5  N1  UNL A   1      25.705  20.351  12.653  1.00  0.00    +0.000 N 
ATOM     96  H5  UNL A   1      25.435  21.241  12.971  1.00  0.00    +0.000 H 
BRANCH    5    3
ATOM      3  C3  UNL A   1      25.205  19.295  13.369  1.00  0.00    +0.000 C 
ATOM      4  O1  UNL A   1      26.018  18.565  13.941  1.00  0.00    +0.000 O 
BRANCH    3    2
ATOM      2  C2  UNL A   1      23.688  19.032  13.420  1.00  0.00    +0.000 C 
ATOM     95  H4  UNL A   1      23.461  18.485  14.310  1.00  0.00    +0.000 H 
BRANCH    2    1
ATOM      1  C1  UNL A   1      22.939  20.371  13.476  1.00  0.00    +0.000 C 
ATOM     92  H1  UNL A   1      22.718  20.699  12.480  1.00  0.00    +0.000 H 
ATOM     93  H2  UNL A   1      23.548  21.102  13.964  1.00  0.00    +0.000 H 
ATOM     94  H3  UNL A   1      22.026  20.247  14.020  1.00  0.00    +0.000 H 
ENDBRANCH    2    1
BRANCH    2   78
ATOM    129  H38 UNL A   1      23.497  12.456   6.820  1.00  0.00    +0.000 H 
ATOM    130  H39 UNL A   1      21.709  16.245   7.239  1.00  0.00    +0.000 H 
ATOM     78  C55 UNL A   1      23.222  18.149  12.266  1.00  0.00    +0.000 C 
ATOM     79  C56 UNL A   1      22.531  18.674  11.164  1.00  0.00    +0.000 C 
ATOM     80  C57 UNL A   1      22.243  17.888  10.036  1.00  0.00    +0.000 C 
ATOM     81  C58 UNL A   1      22.727  16.566   9.974  1.00  0.00    +0.000 C 
ATOM     82  C59 UNL A   1      23.376  16.050  11.091  1.00  0.00    +0.000 C 
ATOM     83  C60 UNL A   1      23.571  16.787  12.264  1.00  0.00    +0.000 C 
ATOM     84  N7  UNL A   1      23.783  14.777  10.774  1.00  0.00    +0.000 N 
ATOM     85  C61 UNL A   1      23.472  14.471   9.471  1.00  0.00    +0.000 C 
ATOM     86  C62 UNL A   1      23.773  13.330   8.718  1.00  0.00    +0.000 C 
ATOM     87  C63 UNL A   1      23.292  13.280   7.407  1.00  0.00    +0.000 C 
ATOM     88  C64 UNL A   1      22.538  14.328   6.885  1.00  0.00    +0.000 C 
ATOM     89 Cl1  UNL A   1      21.945  14.219   5.271  1.00  0.00    +0.000 Cl
ATOM     90  C65 UNL A   1      22.262  15.471   7.640  1.00  0.00    +0.000 C 
ATOM     91  C66 UNL A   1      22.749  15.551   8.962  1.00  0.00    +0.000 C 
ATOM    124  H33 UNL A   1      22.226  19.660  11.182  1.00  0.00    +0.000 H 
ATOM    125  H34 UNL A   1      21.684  18.275   9.260  1.00  0.00    +0.000 H 
ATOM    126  H35 UNL A   1      23.962  16.342  13.109  1.00  0.00    +0.000 H 
ATOM    127  H36 UNL A   1      24.238  14.165  11.397  1.00  0.00    +0.000 H 
ATOM    128  H37 UNL A   1      24.327  12.556   9.116  1.00  0.00    +0.000 H 
ENDBRANCH    2   78
ENDBRANCH    3    2
ENDBRANCH    5    3
ENDBRANCH    6    5
ENDBRANCH    7    6
ENDBRANCH    8    7
ENDBRANCH    9    8
ENDBRANCH   10    9
ENDBRANCH   11   10
ENDBRANCH   12   11
ENDBRANCH   13   12
ENDBRANCH   15   13
ENDBRANCH   19   18
BRANCH   23   24
ATOM     33  C24 UNL A   1      15.766  16.451   8.768  1.00  0.00    +0.000 C 
ATOM     34  F5  UNL A   1      15.846  15.841   7.577  1.00  0.00    +0.000 F 
ATOM     24  C19 UNL A   1      16.081  17.814   8.889  1.00  0.00    +0.000 C 
ATOM     25  C20 UNL A   1      15.972  18.402  10.157  1.00  0.00    +0.000 C 
ATOM     26  F1  UNL A   1      16.272  19.699  10.328  1.00  0.00    +0.000 F 
ATOM     27  C21 UNL A   1      15.586  17.652  11.266  1.00  0.00    +0.000 C 
ATOM     28  F2  UNL A   1      15.531  18.227  12.475  1.00  0.00    +0.000 F 
ATOM     29  C22 UNL A   1      15.272  16.309  11.122  1.00  0.00    +0.000 C 
ATOM     30  F3  UNL A   1      14.893  15.590  12.188  1.00  0.00    +0.000 F 
ATOM     31  C23 UNL A   1      15.355  15.710   9.874  1.00  0.00    +0.000 C 
ATOM     32  F4  UNL A   1      15.038  14.416   9.730  1.00  0.00    +0.000 F 
ENDBRANCH   23   24
BRANCH   40   41
ATOM     41  C30 UNL A   1      12.951  22.224   4.125  1.00  0.00    +0.000 C 
ATOM     42  C31 UNL A   1      12.024  21.616   3.264  1.00  0.00    +0.000 C 
ATOM     43  F6  UNL A   1      12.354  20.501   2.597  1.00  0.00    +0.000 F 
ATOM     44  C32 UNL A   1      10.767  22.178   3.056  1.00  0.00    +0.000 C 
ATOM     45  F7  UNL A   1       9.915  21.606   2.194  1.00  0.00    +0.000 F 
ATOM     46  C33 UNL A   1      10.402  23.336   3.725  1.00  0.00    +0.000 C 
ATOM     47  F8  UNL A   1       9.190  23.873   3.526  1.00  0.00    +0.000 F 
ATOM     48  C34 UNL A   1      11.295  23.944   4.594  1.00  0.00    +0.000 C 
ATOM     49  F9  UNL A   1      10.941  25.057   5.249  1.00  0.00    +0.000 F 
ATOM     50  C35 UNL A   1      12.563  23.400   4.785  1.00  0.00    +0.000 C 
ATOM     51  F10 UNL A   1      13.411  24.016   5.622  1.00  0.00    +0.000 F 
ENDBRANCH   40   41
BRANCH   55   56
ATOM     65  C44 UNL A   1      18.847  22.210  -0.516  1.00  0.00    +0.000 C 
ATOM     66  F15 UNL A   1      18.302  20.992  -0.641  1.00  0.00    +0.000 F 
ATOM     56  C39 UNL A   1      19.017  22.778   0.755  1.00  0.00    +0.000 C 
ATOM     57  C40 UNL A   1      19.597  24.051   0.829  1.00  0.00    +0.000 C 
ATOM     58  F11 UNL A   1      19.760  24.642   2.022  1.00  0.00    +0.000 F 
ATOM     59  C41 UNL A   1      19.973  24.739  -0.322  1.00  0.00    +0.000 C 
ATOM     60  F12 UNL A   1      20.487  25.973  -0.224  1.00  0.00    +0.000 F 
ATOM     61  C42 UNL A   1      19.803  24.155  -1.568  1.00  0.00    +0.000 C 
ATOM     62  F13 UNL A   1      20.169  24.815  -2.675  1.00  0.00    +0.000 F 
ATOM     63  C43 UNL A   1      19.248  22.888  -1.665  1.00  0.00    +0.000 C 
ATOM     64  F14 UNL A   1      19.095  22.314  -2.867  1.00  0.00    +0.000 F 
ENDBRANCH   55   56
TORSDOF 17
ENDMDL
MODEL 7
REMARK VINA RESULT:     -11.2     25.673     28.339
ROOT
ATOM     19  C15 UNL A   1      46.345  50.767  18.219  1.00  0.00    +0.000 C 
ATOM     20  C16 UNL A   1      46.632  52.043  17.477  1.00  0.00    +0.000 C 
ATOM     21  N3  UNL A   1      47.656  52.853  17.589  1.00  0.00    +0.000 N 
ATOM     22  C17 UNL A   1      47.451  53.854  16.649  1.00  0.00    +0.000 C 
ATOM     23  C18 UNL A   1      48.203  54.956  16.408  1.00  0.00    +0.000 C 
ATOM     35  C25 UNL A   1      49.402  55.297  17.128  1.00  0.00    +0.000 C 
ATOM     36  C26 UNL A   1      50.198  56.422  16.997  1.00  0.00    +0.000 C 
ATOM     37  C27 UNL A   1      51.277  56.301  17.879  1.00  0.00    +0.000 C 
ATOM     38  C28 UNL A   1      51.131  55.122  18.590  1.00  0.00    +0.000 C 
ATOM     39  N4  UNL A   1      49.979  54.513  18.116  1.00  0.00    +0.000 N 
ATOM     40  C29 UNL A   1      51.979  54.585  19.623  1.00  0.00    +0.000 C 
ATOM     52  C36 UNL A   1      51.758  53.422  20.282  1.00  0.00    +0.000 C 
ATOM     53  N5  UNL A   1      50.715  52.519  20.130  1.00  0.00    +0.000 N 
ATOM     54  C37 UNL A   1      50.952  51.550  20.980  1.00  0.00    +0.000 C 
ATOM     55  C38 UNL A   1      50.137  50.318  21.265  1.00  0.00    +0.000 C 
ATOM     67  C45 UNL A   1      48.980  50.123  20.604  1.00  0.00    +0.000 C 
ATOM     68  C46 UNL A   1      48.086  48.983  20.783  1.00  0.00    +0.000 C 
ATOM     69  C47 UNL A   1      47.056  49.095  19.930  1.00  0.00    +0.000 C 
ATOM     70  C48 UNL A   1      47.200  50.335  19.166  1.00  0.00    +0.000 C 
ATOM     71  N6  UNL A   1      48.365  50.884  19.640  1.00  0.00    +0.000 N 
ATOM     72  C49 UNL A   1      52.192  51.718  21.751  1.00  0.00    +0.000 C 
ATOM     73  C50 UNL A   1      52.624  52.892  21.315  1.00  0.00    +0.000 C 
ATOM     74  C51 UNL A   1      46.228  53.529  15.946  1.00  0.00    +0.000 C 
ATOM     75  C52 UNL A   1      45.652  52.452  16.460  1.00  0.00    +0.000 C 
ATOM    112  H21 UNL A   1      50.024  57.214  16.359  1.00  0.00    +0.000 H 
ATOM    113  H22 UNL A   1      52.051  56.977  17.983  1.00  0.00    +0.000 H 
ATOM    114  H23 UNL A   1      49.623  53.652  18.435  1.00  0.00    +0.000 H 
ATOM    115  H24 UNL A   1      48.225  48.213  21.457  1.00  0.00    +0.000 H 
ATOM    116  H25 UNL A   1      46.286  48.415  19.828  1.00  0.00    +0.000 H 
ATOM    117  H26 UNL A   1      48.727  51.742  19.319  1.00  0.00    +0.000 H 
ATOM    118  H27 UNL A   1      52.615  51.086  22.449  1.00  0.00    +0.000 H 
ATOM    119  H28 UNL A   1      53.469  53.368  21.666  1.00  0.00    +0.000 H 
ATOM    120  H29 UNL A   1      45.853  54.065  15.148  1.00  0.00    +0.000 H 
ATOM    121  H30 UNL A   1      44.751  52.013  16.211  1.00  0.00    +0.000 H 
ENDROOT
BRANCH   19   18
ATOM     76  C53 UNL A   1      43.931  50.178  18.513  1.00  0.00    +0.000 C 
ATOM     77  C54 UNL A   1      42.807  49.418  18.187  1.00  0.00    +0.000 C 
ATOM    110  H19 UNL A   1      44.159  47.487  15.804  1.00  0.00    +0.000 H 
ATOM     15  C11 UNL A   1      42.873  48.478  17.156  1.00  0.00    +0.000 C 
ATOM     16  C12 UNL A   1      44.097  48.213  16.534  1.00  0.00    +0.000 C 
ATOM     17  C13 UNL A   1      45.238  48.932  16.902  1.00  0.00    +0.000 C 
ATOM    111  H20 UNL A   1      46.145  48.718  16.457  1.00  0.00    +0.000 H 
ATOM     18  C14 UNL A   1      45.158  49.944  17.872  1.00  0.00    +0.000 C 
ATOM    122  H31 UNL A   1      43.860  50.917  19.229  1.00  0.00    +0.000 H 
ATOM    123  H32 UNL A   1      41.925  49.552  18.709  1.00  0.00    +0.000 H 
BRANCH   15   13
ATOM     13  C10 UNL A   1      41.681  47.702  16.737  1.00  0.00    +0.000 C 
ATOM     14  O2  UNL A   1      40.566  48.197  16.854  1.00  0.00    +0.000 O 
BRANCH   13   12
ATOM     12  N2  UNL A   1      41.816  46.434  16.224  1.00  0.00    +0.000 N 
ATOM    109  H18 UNL A   1      42.041  46.391  15.267  1.00  0.00    +0.000 H 
BRANCH   12   11
ATOM     11  C9  UNL A   1      41.678  45.147  16.887  1.00  0.00    +0.000 C 
ATOM    108  H17 UNL A   1      42.165  44.412  16.280  1.00  0.00    +0.000 H 
ATOM    107  H16 UNL A   1      40.637  44.930  17.004  1.00  0.00    +0.000 H 
BRANCH   11   10
ATOM    105  H14 UNL A   1      42.074  46.034  18.771  1.00  0.00    +0.000 H 
ATOM     10  C8  UNL A   1      42.344  45.132  18.263  1.00  0.00    +0.000 C 
ATOM    106  H15 UNL A   1      41.996  44.243  18.749  1.00  0.00    +0.000 H 
BRANCH   10    9
ATOM      9  C7  UNL A   1      43.876  45.034  18.253  1.00  0.00    +0.000 C 
ATOM    103  H12 UNL A   1      44.139  44.007  18.406  1.00  0.00    +0.000 H 
ATOM    104  H13 UNL A   1      44.185  45.427  17.307  1.00  0.00    +0.000 H 
BRANCH    9    8
ATOM    101  H10 UNL A   1      45.598  46.062  18.956  1.00  0.00    +0.000 H 
ATOM    102  H11 UNL A   1      44.031  46.760  19.446  1.00  0.00    +0.000 H 
ATOM      8  C6  UNL A   1      44.608  45.869  19.310  1.00  0.00    +0.000 C 
BRANCH    8    7
ATOM     99  H8  UNL A   1      43.752  45.247  21.156  1.00  0.00    +0.000 H 
ATOM    100  H9  UNL A   1      45.042  44.200  20.526  1.00  0.00    +0.000 H 
ATOM      7  C5  UNL A   1      44.712  45.204  20.686  1.00  0.00    +0.000 C 
BRANCH    7    6
ATOM     97  H6  UNL A   1      46.067  46.785  21.163  1.00  0.00    +0.000 H 
ATOM     98  H7  UNL A   1      45.265  46.064  22.553  1.00  0.00    +0.000 H 
ATOM      6  C4  UNL A   1      45.734  45.872  21.611  1.00  0.00    +0.000 C 
BRANCH    6    5
ATOM      5  N1  UNL A   1      46.879  45.008  21.835  1.00  0.00    +0.000 N 
ATOM     96  H5  UNL A   1      46.688  44.172  22.315  1.00  0.00    +0.000 H 
BRANCH    5    3
ATOM      3  C3  UNL A   1      48.188  45.191  21.474  1.00  0.00    +0.000 C 
ATOM      4  O1  UNL A   1      48.872  45.932  22.184  1.00  0.00    +0.000 O 
BRANCH    3    2
ATOM      2  C2  UNL A   1      48.754  44.512  20.212  1.00  0.00    +0.000 C 
ATOM     95  H4  UNL A   1      49.769  44.232  20.396  1.00  0.00    +0.000 H 
BRANCH    2    1
ATOM      1  C1  UNL A   1      47.950  43.239  19.913  1.00  0.00    +0.000 C 
ATOM     92  H1  UNL A   1      48.337  42.427  20.494  1.00  0.00    +0.000 H 
ATOM     93  H2  UNL A   1      48.030  43.002  18.872  1.00  0.00    +0.000 H 
ATOM     94  H3  UNL A   1      46.922  43.399  20.164  1.00  0.00    +0.000 H 
ENDBRANCH    2    1
BRANCH    2   78
ATOM    129  H38 UNL A   1      50.028  52.158  15.038  1.00  0.00    +0.000 H 
ATOM    130  H39 UNL A   1      47.421  48.860  14.808  1.00  0.00    +0.000 H 
ATOM     78  C55 UNL A   1      48.801  45.467  19.022  1.00  0.00    +0.000 C 
ATOM     79  C56 UNL A   1      47.781  45.504  18.061  1.00  0.00    +0.000 C 
ATOM     80  C57 UNL A   1      47.752  46.487  17.059  1.00  0.00    +0.000 C 
ATOM     81  C58 UNL A   1      48.724  47.508  17.063  1.00  0.00    +0.000 C 
ATOM     82  C59 UNL A   1      49.750  47.433  18.000  1.00  0.00    +0.000 C 
ATOM     83  C60 UNL A   1      49.853  46.396  18.933  1.00  0.00    +0.000 C 
ATOM     84  N7  UNL A   1      50.537  48.546  17.831  1.00  0.00    +0.000 N 
ATOM     85  C61 UNL A   1      50.023  49.369  16.858  1.00  0.00    +0.000 C 
ATOM     86  C62 UNL A   1      50.452  50.630  16.427  1.00  0.00    +0.000 C 
ATOM     87  C63 UNL A   1      49.744  51.226  15.380  1.00  0.00    +0.000 C 
ATOM     88  C64 UNL A   1      48.661  50.577  14.793  1.00  0.00    +0.000 C 
ATOM     89 Cl1  UNL A   1      47.828  51.337  13.490  1.00  0.00    +0.000 Cl
ATOM     90  C65 UNL A   1      48.230  49.327  15.245  1.00  0.00    +0.000 C 
ATOM     91  C66 UNL A   1      48.920  48.712  16.311  1.00  0.00    +0.000 C 
ATOM    124  H33 UNL A   1      47.033  44.792  18.090  1.00  0.00    +0.000 H 
ATOM    125  H34 UNL A   1      47.025  46.465  16.327  1.00  0.00    +0.000 H 
ATOM    126  H35 UNL A   1      50.682  46.314  19.543  1.00  0.00    +0.000 H 
ATOM    127  H36 UNL A   1      51.360  48.730  18.340  1.00  0.00    +0.000 H 
ATOM    128  H37 UNL A   1      51.260  51.100  16.865  1.00  0.00    +0.000 H 
ENDBRANCH    2   78
ENDBRANCH    3    2
ENDBRANCH    5    3
ENDBRANCH    6    5
ENDBRANCH    7    6
ENDBRANCH    8    7
ENDBRANCH    9    8
ENDBRANCH   10    9
ENDBRANCH   11   10
ENDBRANCH   12   11
ENDBRANCH   13   12
ENDBRANCH   15   13
ENDBRANCH   19   18
BRANCH   23   24
ATOM     33  C24 UNL A   1      47.018  57.043  15.632  1.00  0.00    +0.000 C 
ATOM     34  F5  UNL A   1      46.755  57.353  16.910  1.00  0.00    +0.000 F 
ATOM     24  C19 UNL A   1      47.746  55.884  15.321  1.00  0.00    +0.000 C 
ATOM     25  C20 UNL A   1      47.987  55.604  13.968  1.00  0.00    +0.000 C 
ATOM     26  F1  UNL A   1      48.686  54.513  13.618  1.00  0.00    +0.000 F 
ATOM     27  C21 UNL A   1      47.537  56.462  12.967  1.00  0.00    +0.000 C 
ATOM     28  F2  UNL A   1      47.816  56.195  11.684  1.00  0.00    +0.000 F 
ATOM     29  C22 UNL A   1      46.813  57.597  13.298  1.00  0.00    +0.000 C 
ATOM     30  F3  UNL A   1      46.374  58.418  12.332  1.00  0.00    +0.000 F 
ATOM     31  C23 UNL A   1      46.548  57.885  14.628  1.00  0.00    +0.000 C 
ATOM     32  F4  UNL A   1      45.836  58.974  14.948  1.00  0.00    +0.000 F 
ENDBRANCH   23   24
BRANCH   40   41
ATOM     41  C30 UNL A   1      53.189  55.379  20.019  1.00  0.00    +0.000 C 
ATOM     42  C31 UNL A   1      54.450  55.124  19.460  1.00  0.00    +0.000 C 
ATOM     43  F6  UNL A   1      54.610  54.119  18.586  1.00  0.00    +0.000 F 
ATOM     44  C32 UNL A   1      55.561  55.877  19.829  1.00  0.00    +0.000 C 
ATOM     45  F7  UNL A   1      56.765  55.587  19.317  1.00  0.00    +0.000 F 
ATOM     46  C33 UNL A   1      55.427  56.916  20.739  1.00  0.00    +0.000 C 
ATOM     47  F8  UNL A   1      56.497  57.643  21.090  1.00  0.00    +0.000 F 
ATOM     48  C34 UNL A   1      54.187  57.198  21.290  1.00  0.00    +0.000 C 
ATOM     49  F9  UNL A   1      54.054  58.207  22.160  1.00  0.00    +0.000 F 
ATOM     50  C35 UNL A   1      53.078  56.429  20.943  1.00  0.00    +0.000 C 
ATOM     51  F10 UNL A   1      51.893  56.715  21.502  1.00  0.00    +0.000 F 
ENDBRANCH   40   41
BRANCH   55   56
ATOM     65  C44 UNL A   1      50.108  49.375  23.600  1.00  0.00    +0.000 C 
ATOM     66  F15 UNL A   1      49.237  50.325  23.969  1.00  0.00    +0.000 F 
ATOM     56  C39 UNL A   1      50.584  49.332  22.282  1.00  0.00    +0.000 C 
ATOM     57  C40 UNL A   1      51.497  48.322  21.950  1.00  0.00    +0.000 C 
ATOM     58  F11 UNL A   1      51.964  48.229  20.696  1.00  0.00    +0.000 F 
ATOM     59  C41 UNL A   1      51.904  47.381  22.893  1.00  0.00    +0.000 C 
ATOM     60  F12 UNL A   1      52.745  46.401  22.538  1.00  0.00    +0.000 F 
ATOM     61  C42 UNL A   1      51.426  47.448  24.193  1.00  0.00    +0.000 C 
ATOM     62  F13 UNL A   1      51.821  46.545  25.101  1.00  0.00    +0.000 F 
ATOM     63  C43 UNL A   1      50.535  48.449  24.549  1.00  0.00    +0.000 C 
ATOM     64  F14 UNL A   1      50.082  48.526  25.809  1.00  0.00    +0.000 F 
ENDBRANCH   55   56
TORSDOF 17
ENDMDL
MODEL 8
REMARK VINA RESULT:     -11.1     17.722     23.777
ROOT
ATOM     19  C15 UNL A   1      25.225  38.392  48.234  1.00  0.00    +0.000 C 
ATOM     20  C16 UNL A   1      25.030  37.081  47.526  1.00  0.00    +0.000 C 
ATOM     21  N3  UNL A   1      25.874  36.406  46.785  1.00  0.00    +0.000 N 
ATOM     22  C17 UNL A   1      25.207  35.248  46.409  1.00  0.00    +0.000 C 
ATOM     23  C18 UNL A   1      25.634  34.251  45.596  1.00  0.00    +0.000 C 
ATOM     35  C25 UNL A   1      26.917  34.224  44.945  1.00  0.00    +0.000 C 
ATOM     36  C26 UNL A   1      27.416  33.287  44.057  1.00  0.00    +0.000 C 
ATOM     37  C27 UNL A   1      28.722  33.656  43.717  1.00  0.00    +0.000 C 
ATOM     38  C28 UNL A   1      29.022  34.845  44.360  1.00  0.00    +0.000 C 
ATOM     39  N4  UNL A   1      27.908  35.180  45.114  1.00  0.00    +0.000 N 
ATOM     40  C29 UNL A   1      30.235  35.619  44.296  1.00  0.00    +0.000 C 
ATOM     52  C36 UNL A   1      30.446  36.787  44.951  1.00  0.00    +0.000 C 
ATOM     53  N5  UNL A   1      29.587  37.480  45.793  1.00  0.00    +0.000 N 
ATOM     54  C37 UNL A   1      30.250  38.540  46.188  1.00  0.00    +0.000 C 
ATOM     55  C38 UNL A   1      29.802  39.658  47.088  1.00  0.00    +0.000 C 
ATOM     67  C45 UNL A   1      28.550  39.646  47.585  1.00  0.00    +0.000 C 
ATOM     68  C46 UNL A   1      27.978  40.665  48.460  1.00  0.00    +0.000 C 
ATOM     69  C47 UNL A   1      26.728  40.305  48.793  1.00  0.00    +0.000 C 
ATOM     70  C48 UNL A   1      26.399  39.045  48.126  1.00  0.00    +0.000 C 
ATOM     71  N6  UNL A   1      27.536  38.734  47.423  1.00  0.00    +0.000 N 
ATOM     72  C49 UNL A   1      31.619  38.623  45.659  1.00  0.00    +0.000 C 
ATOM     73  C50 UNL A   1      31.673  37.551  44.882  1.00  0.00    +0.000 C 
ATOM     74  C51 UNL A   1      23.903  35.290  47.038  1.00  0.00    +0.000 C 
ATOM     75  C52 UNL A   1      23.722  36.429  47.690  1.00  0.00    +0.000 C 
ATOM    112  H21 UNL A   1      26.910  32.459  43.705  1.00  0.00    +0.000 H 
ATOM    113  H22 UNL A   1      29.354  33.131  43.092  1.00  0.00    +0.000 H 
ATOM    114  H23 UNL A   1      27.831  35.980  45.684  1.00  0.00    +0.000 H 
ATOM    115  H24 UNL A   1      28.458  41.523  48.774  1.00  0.00    +0.000 H 
ATOM    116  H25 UNL A   1      26.101  40.832  49.421  1.00  0.00    +0.000 H 
ATOM    117  H26 UNL A   1      27.618  37.932  46.857  1.00  0.00    +0.000 H 
ATOM    118  H27 UNL A   1      32.347  39.331  45.845  1.00  0.00    +0.000 H 
ATOM    119  H28 UNL A   1      32.487  37.293  44.301  1.00  0.00    +0.000 H 
ATOM    120  H29 UNL A   1      23.206  34.531  46.985  1.00  0.00    +0.000 H 
ATOM    121  H30 UNL A   1      22.882  36.770  48.185  1.00  0.00    +0.000 H 
ENDROOT
BRANCH   19   18
ATOM     76  C53 UNL A   1      24.115  38.598  50.466  1.00  0.00    +0.000 C 
ATOM     77  C54 UNL A   1      23.123  39.120  51.298  1.00  0.00    +0.000 C 
ATOM    110  H19 UNL A   1      21.535  41.050  49.065  1.00  0.00    +0.000 H 
ATOM     15  C11 UNL A   1      22.218  40.062  50.803  1.00  0.00    +0.000 C 
ATOM     16  C12 UNL A   1      22.231  40.390  49.443  1.00  0.00    +0.000 C 
ATOM     17  C13 UNL A   1      23.186  39.821  48.596  1.00  0.00    +0.000 C 
ATOM    111  H20 UNL A   1      23.179  40.048  47.589  1.00  0.00    +0.000 H 
ATOM     18  C14 UNL A   1      24.157  38.945  49.107  1.00  0.00    +0.000 C 
ATOM    122  H31 UNL A   1      24.821  37.953  50.853  1.00  0.00    +0.000 H 
ATOM    123  H32 UNL A   1      23.059  38.808  52.281  1.00  0.00    +0.000 H 
BRANCH   15   13
ATOM     13  C10 UNL A   1      21.196  40.687  51.675  1.00  0.00    +0.000 C 
ATOM     14  O2  UNL A   1      21.544  41.256  52.703  1.00  0.00    +0.000 O 
BRANCH   13   12
ATOM     12  N2  UNL A   1      19.863  40.631  51.342  1.00  0.00    +0.000 N 
ATOM    109  H18 UNL A   1      19.483  41.470  50.994  1.00  0.00    +0.000 H 
BRANCH   12   11
ATOM     11  C9  UNL A   1      18.934  39.518  51.426  1.00  0.00    +0.000 C 
ATOM    108  H17 UNL A   1      18.934  39.017  50.480  1.00  0.00    +0.000 H 
ATOM    107  H16 UNL A   1      17.962  39.896  51.667  1.00  0.00    +0.000 H 
BRANCH   11   10
ATOM    105  H14 UNL A   1      20.079  38.961  53.121  1.00  0.00    +0.000 H 
ATOM     10  C8  UNL A   1      19.345  38.502  52.493  1.00  0.00    +0.000 C 
ATOM    106  H15 UNL A   1      18.444  38.233  53.006  1.00  0.00    +0.000 H 
BRANCH   10    9
ATOM      9  C7  UNL A   1      19.932  37.188  51.958  1.00  0.00    +0.000 C 
ATOM    103  H12 UNL A   1      20.999  37.278  51.968  1.00  0.00    +0.000 H 
ATOM    104  H13 UNL A   1      19.554  36.419  52.598  1.00  0.00    +0.000 H 
BRANCH    9    8
ATOM    101  H10 UNL A   1      19.105  35.802  50.574  1.00  0.00    +0.000 H 
ATOM    102  H11 UNL A   1      18.793  37.523  50.220  1.00  0.00    +0.000 H 
ATOM      8  C6  UNL A   1      19.507  36.792  50.538  1.00  0.00    +0.000 C 
BRANCH    8    7
ATOM     99  H8  UNL A   1      21.361  37.542  49.811  1.00  0.00    +0.000 H 
ATOM    100  H9  UNL A   1      21.048  35.827  49.469  1.00  0.00    +0.000 H 
ATOM      7  C5  UNL A   1      20.639  36.813  49.506  1.00  0.00    +0.000 C 
BRANCH    7    6
ATOM     97  H6  UNL A   1      19.187  37.582  48.143  1.00  0.00    +0.000 H 
ATOM     98  H7  UNL A   1      20.857  37.860  47.666  1.00  0.00    +0.000 H 
ATOM      6  C4  UNL A   1      20.169  37.160  48.091  1.00  0.00    +0.000 C 
BRANCH    6    5
ATOM      5  N1  UNL A   1      20.133  35.979  47.248  1.00  0.00    +0.000 N 
ATOM     96  H5  UNL A   1      20.919  35.392  47.313  1.00  0.00    +0.000 H 
BRANCH    5    3
ATOM      3  C3  UNL A   1      19.163  35.565  46.373  1.00  0.00    +0.000 C 
ATOM      4  O1  UNL A   1      18.015  35.462  46.811  1.00  0.00    +0.000 O 
BRANCH    3    2
ATOM      2  C2  UNL A   1      19.519  35.220  44.915  1.00  0.00    +0.000 C 
ATOM     95  H4  UNL A   1      18.879  35.773  44.262  1.00  0.00    +0.000 H 
BRANCH    2    1
ATOM      1  C1  UNL A   1      20.970  35.634  44.631  1.00  0.00    +0.000 C 
ATOM     92  H1  UNL A   1      21.562  35.485  45.510  1.00  0.00    +0.000 H 
ATOM     93  H2  UNL A   1      20.999  36.667  44.354  1.00  0.00    +0.000 H 
ATOM     94  H3  UNL A   1      21.361  35.039  43.832  1.00  0.00    +0.000 H 
ENDBRANCH    2    1
BRANCH    2   78
ATOM    129  H38 UNL A   1      15.279  27.342  42.304  1.00  0.00    +0.000 H 
ATOM    130  H39 UNL A   1      18.400  28.246  44.981  1.00  0.00    +0.000 H 
ATOM     78  C55 UNL A   1      19.259  33.750  44.596  1.00  0.00    +0.000 C 
ATOM     79  C56 UNL A   1      19.741  32.717  45.412  1.00  0.00    +0.000 C 
ATOM     80  C57 UNL A   1      19.368  31.380  45.202  1.00  0.00    +0.000 C 
ATOM     81  C58 UNL A   1      18.426  31.075  44.199  1.00  0.00    +0.000 C 
ATOM     82  C59 UNL A   1      17.988  32.106  43.373  1.00  0.00    +0.000 C 
ATOM     83  C60 UNL A   1      18.438  33.424  43.501  1.00  0.00    +0.000 C 
ATOM     84  N7  UNL A   1      17.059  31.572  42.514  1.00  0.00    +0.000 N 
ATOM     85  C61 UNL A   1      16.836  30.245  42.793  1.00  0.00    +0.000 C 
ATOM     86  C62 UNL A   1      15.921  29.348  42.227  1.00  0.00    +0.000 C 
ATOM     87  C63 UNL A   1      15.942  28.031  42.693  1.00  0.00    +0.000 C 
ATOM     88  C64 UNL A   1      16.846  27.638  43.677  1.00  0.00    +0.000 C 
ATOM     89 Cl1  UNL A   1      16.853  25.999  44.209  1.00  0.00    +0.000 Cl
ATOM     90  C65 UNL A   1      17.740  28.548  44.247  1.00  0.00    +0.000 C 
ATOM     91  C66 UNL A   1      17.729  29.887  43.804  1.00  0.00    +0.000 C 
ATOM    124  H33 UNL A   1      20.385  32.945  46.186  1.00  0.00    +0.000 H 
ATOM    125  H34 UNL A   1      19.777  30.628  45.777  1.00  0.00    +0.000 H 
ATOM    126  H35 UNL A   1      18.174  34.142  42.808  1.00  0.00    +0.000 H 
ATOM    127  H36 UNL A   1      16.611  32.074  41.795  1.00  0.00    +0.000 H 
ATOM    128  H37 UNL A   1      15.260  29.649  41.495  1.00  0.00    +0.000 H 
ENDBRANCH    2   78
ENDBRANCH    3    2
ENDBRANCH    5    3
ENDBRANCH    6    5
ENDBRANCH    7    6
ENDBRANCH    8    7
ENDBRANCH    9    8
ENDBRANCH   10    9
ENDBRANCH   11   10
ENDBRANCH   12   11
ENDBRANCH   13   12
ENDBRANCH   15   13
ENDBRANCH   19   18
BRANCH   23   24
ATOM     33  C24 UNL A   1      24.791  31.935  46.131  1.00  0.00    +0.000 C 
ATOM     34  F5  UNL A   1      25.694  31.849  47.119  1.00  0.00    +0.000 F 
ATOM     24  C19 UNL A   1      24.698  33.102  45.357  1.00  0.00    +0.000 C 
ATOM     25  C20 UNL A   1      23.742  33.136  44.332  1.00  0.00    +0.000 C 
ATOM     26  F1  UNL A   1      23.606  34.232  43.570  1.00  0.00    +0.000 F 
ATOM     27  C21 UNL A   1      22.895  32.053  44.106  1.00  0.00    +0.000 C 
ATOM     28  F2  UNL A   1      21.960  32.125  43.148  1.00  0.00    +0.000 F 
ATOM     29  C22 UNL A   1      23.009  30.907  44.878  1.00  0.00    +0.000 C 
ATOM     30  F3  UNL A   1      22.199  29.863  44.654  1.00  0.00    +0.000 F 
ATOM     31  C23 UNL A   1      23.960  30.845  45.885  1.00  0.00    +0.000 C 
ATOM     32  F4  UNL A   1      24.082  29.732  46.623  1.00  0.00    +0.000 F 
ENDBRANCH   23   24
BRANCH   40   41
ATOM     41  C30 UNL A   1      31.345  35.112  43.424  1.00  0.00    +0.000 C 
ATOM     42  C31 UNL A   1      32.325  34.237  43.917  1.00  0.00    +0.000 C 
ATOM     43  F6  UNL A   1      32.316  33.873  45.208  1.00  0.00    +0.000 F 
ATOM     44  C32 UNL A   1      33.342  33.766  43.091  1.00  0.00    +0.000 C 
ATOM     45  F7  UNL A   1      34.294  32.968  43.594  1.00  0.00    +0.000 F 
ATOM     46  C33 UNL A   1      33.382  34.134  41.755  1.00  0.00    +0.000 C 
ATOM     47  F8  UNL A   1      34.360  33.676  40.961  1.00  0.00    +0.000 F 
ATOM     48  C34 UNL A   1      32.413  34.983  41.242  1.00  0.00    +0.000 C 
ATOM     49  F9  UNL A   1      32.443  35.331  39.949  1.00  0.00    +0.000 F 
ATOM     50  C35 UNL A   1      31.409  35.477  42.070  1.00  0.00    +0.000 C 
ATOM     51  F10 UNL A   1      30.492  36.307  41.551  1.00  0.00    +0.000 F 
ENDBRANCH   40   41
BRANCH   55   56
ATOM     65  C44 UNL A   1      30.695  41.977  46.681  1.00  0.00    +0.000 C 
ATOM     66  F15 UNL A   1      29.843  42.122  45.656  1.00  0.00    +0.000 F 
ATOM     56  C39 UNL A   1      30.717  40.782  47.414  1.00  0.00    +0.000 C 
ATOM     57  C40 UNL A   1      31.631  40.681  48.472  1.00  0.00    +0.000 C 
ATOM     58  F11 UNL A   1      31.672  39.565  49.214  1.00  0.00    +0.000 F 
ATOM     59  C41 UNL A   1      32.475  41.740  48.797  1.00  0.00    +0.000 C 
ATOM     60  F12 UNL A   1      33.310  41.632  49.839  1.00  0.00    +0.000 F 
ATOM     61  C42 UNL A   1      32.443  42.909  48.052  1.00  0.00    +0.000 C 
ATOM     62  F13 UNL A   1      33.259  43.926  48.362  1.00  0.00    +0.000 F 
ATOM     63  C43 UNL A   1      31.559  43.026  46.990  1.00  0.00    +0.000 C 
ATOM     64  F14 UNL A   1      31.534  44.149  46.259  1.00  0.00    +0.000 F 
ENDBRANCH   55   56
TORSDOF 17
ENDMDL
MODEL 9
REMARK VINA RESULT:     -11.1     22.726     27.460
ROOT
ATOM     19  C15 UNL A   1      23.042  36.073  47.078  1.00  0.00    +0.000 C 
ATOM     20  C16 UNL A   1      24.054  37.184  47.025  1.00  0.00    +0.000 C 
ATOM     21  N3  UNL A   1      23.932  38.434  47.398  1.00  0.00    +0.000 N 
ATOM     22  C17 UNL A   1      25.171  39.020  47.173  1.00  0.00    +0.000 C 
ATOM     23  C18 UNL A   1      25.541  40.311  47.348  1.00  0.00    +0.000 C 
ATOM     35  C25 UNL A   1      24.664  41.353  47.817  1.00  0.00    +0.000 C 
ATOM     36  C26 UNL A   1      24.932  42.702  47.969  1.00  0.00    +0.000 C 
ATOM     37  C27 UNL A   1      23.789  43.320  48.490  1.00  0.00    +0.000 C 
ATOM     38  C28 UNL A   1      22.797  42.363  48.622  1.00  0.00    +0.000 C 
ATOM     39  N4  UNL A   1      23.349  41.160  48.210  1.00  0.00    +0.000 N 
ATOM     40  C29 UNL A   1      21.446  42.530  49.092  1.00  0.00    +0.000 C 
ATOM     52  C36 UNL A   1      20.527  41.538  49.180  1.00  0.00    +0.000 C 
ATOM     53  N5  UNL A   1      20.660  40.196  48.852  1.00  0.00    +0.000 N 
ATOM     54  C37 UNL A   1      19.503  39.643  49.125  1.00  0.00    +0.000 C 
ATOM     55  C38 UNL A   1      19.067  38.215  48.942  1.00  0.00    +0.000 C 
ATOM     67  C45 UNL A   1      19.927  37.324  48.414  1.00  0.00    +0.000 C 
ATOM     68  C46 UNL A   1      19.640  35.913  48.172  1.00  0.00    +0.000 C 
ATOM     69  C47 UNL A   1      20.740  35.320  47.681  1.00  0.00    +0.000 C 
ATOM     70  C48 UNL A   1      21.800  36.318  47.542  1.00  0.00    +0.000 C 
ATOM     71  N6  UNL A   1      21.225  37.480  47.992  1.00  0.00    +0.000 N 
ATOM     72  C49 UNL A   1      18.511  40.573  49.684  1.00  0.00    +0.000 C 
ATOM     73  C50 UNL A   1      19.173  41.720  49.660  1.00  0.00    +0.000 C 
ATOM     74  C51 UNL A   1      26.043  37.979  46.671  1.00  0.00    +0.000 C 
ATOM     75  C52 UNL A   1      25.386  36.840  46.505  1.00  0.00    +0.000 C 
ATOM    112  H21 UNL A   1      25.821  43.172  47.738  1.00  0.00    +0.000 H 
ATOM    113  H22 UNL A   1      23.701  44.319  48.734  1.00  0.00    +0.000 H 
ATOM    114  H23 UNL A   1      22.875  40.297  48.197  1.00  0.00    +0.000 H 
ATOM    115  H24 UNL A   1      18.737  35.446  48.350  1.00  0.00    +0.000 H 
ATOM    116  H25 UNL A   1      20.824  34.320  47.441  1.00  0.00    +0.000 H 
ATOM    117  H26 UNL A   1      21.697  38.344  48.011  1.00  0.00    +0.000 H 
ATOM    118  H27 UNL A   1      17.550  40.381  50.010  1.00  0.00    +0.000 H 
ATOM    119  H28 UNL A   1      18.775  42.628  49.948  1.00  0.00    +0.000 H 
ATOM    120  H29 UNL A   1      27.048  38.106  46.470  1.00  0.00    +0.000 H 
ATOM    121  H30 UNL A   1      25.721  35.946  46.113  1.00  0.00    +0.000 H 
ENDROOT
BRANCH   19   18
ATOM     76  C53 UNL A   1      23.844  33.777  47.661  1.00  0.00    +0.000 C 
ATOM     77  C54 UNL A   1      24.188  32.472  47.305  1.00  0.00    +0.000 C 
ATOM    110  H19 UNL A   1      23.557  32.647  44.017  1.00  0.00    +0.000 H 
ATOM     15  C11 UNL A   1      24.026  32.040  45.986  1.00  0.00    +0.000 C 
ATOM     16  C12 UNL A   1      23.634  32.951  45.000  1.00  0.00    +0.000 C 
ATOM     17  C13 UNL A   1      23.347  34.275  45.346  1.00  0.00    +0.000 C 
ATOM    111  H20 UNL A   1      23.079  34.950  44.612  1.00  0.00    +0.000 H 
ATOM     18  C14 UNL A   1      23.418  34.690  46.685  1.00  0.00    +0.000 C 
ATOM    122  H31 UNL A   1      23.902  34.071  48.648  1.00  0.00    +0.000 H 
ATOM    123  H32 UNL A   1      24.564  31.825  48.018  1.00  0.00    +0.000 H 
BRANCH   15   13
ATOM     13  C10 UNL A   1      24.318  30.643  45.587  1.00  0.00    +0.000 C 
ATOM     14  O2  UNL A   1      25.467  30.224  45.647  1.00  0.00    +0.000 O 
BRANCH   13   12
ATOM     12  N2  UNL A   1      23.311  29.816  45.148  1.00  0.00    +0.000 N 
ATOM    109  H18 UNL A   1      23.439  29.444  44.245  1.00  0.00    +0.000 H 
BRANCH   12   11
ATOM     11  C9  UNL A   1      22.088  29.409  45.818  1.00  0.00    +0.000 C 
ATOM    108  H17 UNL A   1      22.052  29.906  46.766  1.00  0.00    +0.000 H 
ATOM    107  H16 UNL A   1      22.096  28.346  45.936  1.00  0.00    +0.000 H 
BRANCH   11   10
ATOM    105  H14 UNL A   1      21.050  29.692  43.992  1.00  0.00    +0.000 H 
ATOM     10  C8  UNL A   1      20.838  29.809  45.033  1.00  0.00    +0.000 C 
ATOM    106  H15 UNL A   1      20.052  29.174  45.387  1.00  0.00    +0.000 H 
BRANCH   10    9
ATOM      9  C7  UNL A   1      20.351  31.247  45.259  1.00  0.00    +0.000 C 
ATOM    103  H12 UNL A   1      19.316  31.204  45.530  1.00  0.00    +0.000 H 
ATOM    104  H13 UNL A   1      20.985  31.652  46.021  1.00  0.00    +0.000 H 
BRANCH    9    8
ATOM    101  H10 UNL A   1      21.524  32.303  43.834  1.00  0.00    +0.000 H 
ATOM    102  H11 UNL A   1      19.924  31.757  43.262  1.00  0.00    +0.000 H 
ATOM      8  C6  UNL A   1      20.485  32.196  44.061  1.00  0.00    +0.000 C 
BRANCH    8    7
ATOM     99  H8  UNL A   1      19.736  33.726  45.337  1.00  0.00    +0.000 H 
ATOM    100  H9  UNL A   1      20.598  34.296  43.891  1.00  0.00    +0.000 H 
ATOM      7  C5  UNL A   1      19.897  33.593  44.288  1.00  0.00    +0.000 C 
BRANCH    7    6
ATOM     97  H6  UNL A   1      17.778  33.858  44.282  1.00  0.00    +0.000 H 
ATOM     98  H7  UNL A   1      18.630  34.745  43.023  1.00  0.00    +0.000 H 
ATOM      6  C4  UNL A   1      18.568  33.822  43.561  1.00  0.00    +0.000 C 
BRANCH    6    5
ATOM      5  N1  UNL A   1      18.299  32.754  42.616  1.00  0.00    +0.000 N 
ATOM     96  H5  UNL A   1      18.997  32.605  41.940  1.00  0.00    +0.000 H 
BRANCH    5    3
ATOM      3  C3  UNL A   1      17.211  31.925  42.528  1.00  0.00    +0.000 C 
ATOM      4  O1  UNL A   1      16.638  31.859  41.438  1.00  0.00    +0.000 O 
BRANCH    3    2
ATOM      2  C2  UNL A   1      16.723  31.141  43.761  1.00  0.00    +0.000 C 
ATOM     95  H4  UNL A   1      17.492  31.152  44.504  1.00  0.00    +0.000 H 
BRANCH    2    1
ATOM      1  C1  UNL A   1      15.480  31.828  44.345  1.00  0.00    +0.000 C 
ATOM     92  H1  UNL A   1      14.819  31.088  44.747  1.00  0.00    +0.000 H 
ATOM     93  H2  UNL A   1      14.978  32.373  43.574  1.00  0.00    +0.000 H 
ATOM     94  H3  UNL A   1      15.777  32.501  45.123  1.00  0.00    +0.000 H 
ENDBRANCH    2    1
BRANCH    2   78
ATOM    129  H38 UNL A   1      13.094  23.332  40.198  1.00  0.00    +0.000 H 
ATOM    130  H39 UNL A   1      15.126  24.261  43.767  1.00  0.00    +0.000 H 
ATOM     78  C55 UNL A   1      16.481  29.668  43.443  1.00  0.00    +0.000 C 
ATOM     79  C56 UNL A   1      16.564  28.673  44.428  1.00  0.00    +0.000 C 
ATOM     80  C57 UNL A   1      16.189  27.347  44.164  1.00  0.00    +0.000 C 
ATOM     81  C58 UNL A   1      15.642  27.019  42.907  1.00  0.00    +0.000 C 
ATOM     82  C59 UNL A   1      15.604  28.009  41.930  1.00  0.00    +0.000 C 
ATOM     83  C60 UNL A   1      16.079  29.308  42.145  1.00  0.00    +0.000 C 
ATOM     84  N7  UNL A   1      15.001  27.465  40.822  1.00  0.00    +0.000 N 
ATOM     85  C61 UNL A   1      14.593  26.176  41.068  1.00  0.00    +0.000 C 
ATOM     86  C62 UNL A   1      13.872  25.290  40.258  1.00  0.00    +0.000 C 
ATOM     87  C63 UNL A   1      13.626  24.012  40.765  1.00  0.00    +0.000 C 
ATOM     88  C64 UNL A   1      14.092  23.643  42.025  1.00  0.00    +0.000 C 
ATOM     89 Cl1  UNL A   1      13.786  22.050  42.604  1.00  0.00    +0.000 Cl
ATOM     90  C65 UNL A   1      14.793  24.543  42.832  1.00  0.00    +0.000 C 
ATOM     91  C66 UNL A   1      15.041  25.845  42.348  1.00  0.00    +0.000 C 
ATOM    124  H33 UNL A   1      16.909  28.922  45.369  1.00  0.00    +0.000 H 
ATOM    125  H34 UNL A   1      16.310  26.617  44.884  1.00  0.00    +0.000 H 
ATOM    126  H35 UNL A   1      16.132  29.986  41.368  1.00  0.00    +0.000 H 
ATOM    127  H36 UNL A   1      14.875  27.936  39.967  1.00  0.00    +0.000 H 
ATOM    128  H37 UNL A   1      13.537  25.571  39.323  1.00  0.00    +0.000 H 
ENDBRANCH    2   78
ENDBRANCH    3    2
ENDBRANCH    5    3
ENDBRANCH    6    5
ENDBRANCH    7    6
ENDBRANCH    8    7
ENDBRANCH    9    8
ENDBRANCH   10    9
ENDBRANCH   11   10
ENDBRANCH   12   11
ENDBRANCH   13   12
ENDBRANCH   15   13
ENDBRANCH   19   18
BRANCH   23   24
ATOM     33  C24 UNL A   1      27.348  40.916  45.697  1.00  0.00    +0.000 C 
ATOM     34  F5  UNL A   1      26.446  40.857  44.707  1.00  0.00    +0.000 F 
ATOM     24  C19 UNL A   1      26.959  40.676  47.024  1.00  0.00    +0.000 C 
ATOM     25  C20 UNL A   1      27.946  40.744  48.019  1.00  0.00    +0.000 C 
ATOM     26  F1  UNL A   1      27.624  40.533  49.304  1.00  0.00    +0.000 F 
ATOM     27  C21 UNL A   1      29.264  41.062  47.701  1.00  0.00    +0.000 C 
ATOM     28  F2  UNL A   1      30.180  41.161  48.675  1.00  0.00    +0.000 F 
ATOM     29  C22 UNL A   1      29.627  41.287  46.382  1.00  0.00    +0.000 C 
ATOM     30  F3  UNL A   1      30.898  41.585  46.078  1.00  0.00    +0.000 F 
ATOM     31  C23 UNL A   1      28.672  41.208  45.380  1.00  0.00    +0.000 C 
ATOM     32  F4  UNL A   1      29.025  41.411  44.102  1.00  0.00    +0.000 F 
ENDBRANCH   23   24
BRANCH   40   41
ATOM     41  C30 UNL A   1      21.009  43.907  49.496  1.00  0.00    +0.000 C 
ATOM     42  C31 UNL A   1      21.068  44.334  50.831  1.00  0.00    +0.000 C 
ATOM     43  F6  UNL A   1      21.474  43.491  51.792  1.00  0.00    +0.000 F 
ATOM     44  C32 UNL A   1      20.670  45.620  51.188  1.00  0.00    +0.000 C 
ATOM     45  F7  UNL A   1      20.691  45.991  52.476  1.00  0.00    +0.000 F 
ATOM     46  C33 UNL A   1      20.237  46.510  50.217  1.00  0.00    +0.000 C 
ATOM     47  F8  UNL A   1      19.858  47.748  50.563  1.00  0.00    +0.000 F 
ATOM     48  C34 UNL A   1      20.188  46.115  48.889  1.00  0.00    +0.000 C 
ATOM     49  F9  UNL A   1      19.780  46.977  47.949  1.00  0.00    +0.000 F 
ATOM     50  C35 UNL A   1      20.560  44.822  48.531  1.00  0.00    +0.000 C 
ATOM     51  F10 UNL A   1      20.490  44.463  47.241  1.00  0.00    +0.000 F 
ENDBRANCH   40   41
BRANCH   55   56
ATOM     65  C44 UNL A   1      17.291  37.716  50.656  1.00  0.00    +0.000 C 
ATOM     66  F15 UNL A   1      18.153  38.028  51.635  1.00  0.00    +0.000 F 
ATOM     56  C39 UNL A   1      17.694  37.788  49.315  1.00  0.00    +0.000 C 
ATOM     57  C40 UNL A   1      16.756  37.446  48.331  1.00  0.00    +0.000 C 
ATOM     58  F11 UNL A   1      17.091  37.520  47.035  1.00  0.00    +0.000 F 
ATOM     59  C41 UNL A   1      15.461  37.066  48.674  1.00  0.00    +0.000 C 
ATOM     60  F12 UNL A   1      14.571  36.785  47.711  1.00  0.00    +0.000 F 
ATOM     61  C42 UNL A   1      15.086  36.993  50.007  1.00  0.00    +0.000 C 
ATOM     62  F13 UNL A   1      13.841  36.624  50.336  1.00  0.00    +0.000 F 
ATOM     63  C43 UNL A   1      16.003  37.310  50.998  1.00  0.00    +0.000 C 
ATOM     64  F14 UNL A   1      15.649  37.228  52.289  1.00  0.00    +0.000 F 
ENDBRANCH   55   56
TORSDOF 17
ENDMDL
MODEL 10
REMARK VINA RESULT:     -11.1     17.795     23.868
ROOT
ATOM     19  C15 UNL A   1      25.713  35.170  45.550  1.00  0.00    +0.000 C 
ATOM     20  C16 UNL A   1      25.440  36.337  46.458  1.00  0.00    +0.000 C 
ATOM     21  N3  UNL A   1      26.212  37.353  46.756  1.00  0.00    +0.000 N 
ATOM     22  C17 UNL A   1      25.465  38.161  47.603  1.00  0.00    +0.000 C 
ATOM     23  C18 UNL A   1      25.837  39.304  48.228  1.00  0.00    +0.000 C 
ATOM     35  C25 UNL A   1      27.141  39.904  48.120  1.00  0.00    +0.000 C 
ATOM     36  C26 UNL A   1      27.630  41.027  48.762  1.00  0.00    +0.000 C 
ATOM     37  C27 UNL A   1      28.938  41.253  48.318  1.00  0.00    +0.000 C 
ATOM     38  C28 UNL A   1      29.277  40.246  47.430  1.00  0.00    +0.000 C 
ATOM     39  N4  UNL A   1      28.165  39.428  47.315  1.00  0.00    +0.000 N 
ATOM     40  C29 UNL A   1      30.522  40.044  46.736  1.00  0.00    +0.000 C 
ATOM     52  C36 UNL A   1      30.781  39.018  45.888  1.00  0.00    +0.000 C 
ATOM     53  N5  UNL A   1      29.951  37.972  45.509  1.00  0.00    +0.000 N 
ATOM     54  C37 UNL A   1      30.648  37.250  44.665  1.00  0.00    +0.000 C 
ATOM     55  C38 UNL A   1      30.259  35.981  43.957  1.00  0.00    +0.000 C 
ATOM     67  C45 UNL A   1      29.047  35.441  44.185  1.00  0.00    +0.000 C 
ATOM     68  C46 UNL A   1      28.540  34.214  43.578  1.00  0.00    +0.000 C 
ATOM     69  C47 UNL A   1      27.282  34.004  43.998  1.00  0.00    +0.000 C 
ATOM     70  C48 UNL A   1      26.906  35.065  44.932  1.00  0.00    +0.000 C 
ATOM     71  N6  UNL A   1      28.018  35.868  44.990  1.00  0.00    +0.000 N 
ATOM     72  C49 UNL A   1      31.993  37.776  44.392  1.00  0.00    +0.000 C 
ATOM     73  C50 UNL A   1      32.037  38.831  45.192  1.00  0.00    +0.000 C 
ATOM     74  C51 UNL A   1      24.163  37.541  47.737  1.00  0.00    +0.000 C 
ATOM     75  C52 UNL A   1      24.116  36.381  47.098  1.00  0.00    +0.000 C 
ATOM    112  H21 UNL A   1      27.119  41.600  49.452  1.00  0.00    +0.000 H 
ATOM    113  H22 UNL A   1      29.546  42.037  48.603  1.00  0.00    +0.000 H 
ATOM    114  H23 UNL A   1      28.110  38.625  46.746  1.00  0.00    +0.000 H 
ATOM    115  H24 UNL A   1      29.063  33.606  42.929  1.00  0.00    +0.000 H 
ATOM    116  H25 UNL A   1      26.677  33.220  43.708  1.00  0.00    +0.000 H 
ATOM    117  H26 UNL A   1      28.074  36.673  45.553  1.00  0.00    +0.000 H 
ATOM    118  H27 UNL A   1      32.714  37.416  43.747  1.00  0.00    +0.000 H 
ATOM    119  H28 UNL A   1      32.860  39.443  45.303  1.00  0.00    +0.000 H 
ATOM    120  H29 UNL A   1      23.374  37.949  48.262  1.00  0.00    +0.000 H 
ATOM    121  H30 UNL A   1      23.350  35.690  47.058  1.00  0.00    +0.000 H 
ENDROOT
BRANCH   19   18
ATOM     76  C53 UNL A   1      24.606  32.977  46.024  1.00  0.00    +0.000 C 
ATOM     77  C54 UNL A   1      23.610  32.029  45.783  1.00  0.00    +0.000 C 
ATOM    110  H19 UNL A   1      21.940  33.637  43.361  1.00  0.00    +0.000 H 
ATOM     15  C11 UNL A   1      22.601  32.296  44.854  1.00  0.00    +0.000 C 
ATOM     16  C12 UNL A   1      22.659  33.460  44.079  1.00  0.00    +0.000 C 
ATOM     17  C13 UNL A   1      23.691  34.381  44.279  1.00  0.00    +0.000 C 
ATOM    111  H20 UNL A   1      23.743  35.227  43.690  1.00  0.00    +0.000 H 
ATOM     18  C14 UNL A   1      24.655  34.163  45.275  1.00  0.00    +0.000 C 
ATOM    122  H31 UNL A   1      25.311  32.804  46.758  1.00  0.00    +0.000 H 
ATOM    123  H32 UNL A   1      23.620  31.130  46.291  1.00  0.00    +0.000 H 
BRANCH   15   13
ATOM     13  C10 UNL A   1      21.490  31.342  44.621  1.00  0.00    +0.000 C 
ATOM     14  O2  UNL A   1      21.678  30.143  44.791  1.00  0.00    +0.000 O 
BRANCH   13   12
ATOM     12  N2  UNL A   1      20.256  31.791  44.216  1.00  0.00    +0.000 N 
ATOM    109  H18 UNL A   1      20.024  31.590  43.280  1.00  0.00    +0.000 H 
BRANCH   12   11
ATOM     11  C9  UNL A   1      19.243  32.517  44.963  1.00  0.00    +0.000 C 
ATOM    108  H17 UNL A   1      19.683  32.841  45.884  1.00  0.00    +0.000 H 
ATOM    107  H16 UNL A   1      18.410  31.868  45.136  1.00  0.00    +0.000 H 
BRANCH   11   10
ATOM    105  H14 UNL A   1      19.482  34.531  44.346  1.00  0.00    +0.000 H 
ATOM     10  C8  UNL A   1      18.753  33.758  44.217  1.00  0.00    +0.000 C 
ATOM    106  H15 UNL A   1      18.620  33.456  43.198  1.00  0.00    +0.000 H 
BRANCH   10    9
ATOM      9  C7  UNL A   1      17.394  34.307  44.674  1.00  0.00    +0.000 C 
ATOM    103  H12 UNL A   1      17.019  33.658  45.438  1.00  0.00    +0.000 H 
ATOM    104  H13 UNL A   1      17.582  35.308  45.005  1.00  0.00    +0.000 H 
BRANCH    9    8
ATOM    101  H10 UNL A   1      15.980  35.438  43.560  1.00  0.00    +0.000 H 
ATOM    102  H11 UNL A   1      16.776  34.111  42.672  1.00  0.00    +0.000 H 
ATOM      8  C6  UNL A   1      16.319  34.425  43.587  1.00  0.00    +0.000 C 
BRANCH    8    7
ATOM     99  H8  UNL A   1      15.161  33.092  44.777  1.00  0.00    +0.000 H 
ATOM    100  H9  UNL A   1      14.231  34.126  43.670  1.00  0.00    +0.000 H 
ATOM      7  C5  UNL A   1      15.101  33.518  43.797  1.00  0.00    +0.000 C 
BRANCH    7    6
ATOM     97  H6  UNL A   1      14.154  31.774  43.009  1.00  0.00    +0.000 H 
ATOM     98  H7  UNL A   1      14.914  32.802  41.801  1.00  0.00    +0.000 H 
ATOM      6  C4  UNL A   1      15.007  32.377  42.779  1.00  0.00    +0.000 C 
BRANCH    6    5
ATOM      5  N1  UNL A   1      16.197  31.548  42.811  1.00  0.00    +0.000 N 
ATOM     96  H5  UNL A   1      16.883  31.772  42.142  1.00  0.00    +0.000 H 
BRANCH    5    3
ATOM      3  C3  UNL A   1      16.503  30.498  43.636  1.00  0.00    +0.000 C 
ATOM      4  O1  UNL A   1      16.189  30.603  44.824  1.00  0.00    +0.000 O 
BRANCH    3    2
ATOM      2  C2  UNL A   1      17.235  29.259  43.088  1.00  0.00    +0.000 C 
ATOM     95  H4  UNL A   1      17.778  29.538  42.210  1.00  0.00    +0.000 H 
BRANCH    2    1
ATOM      1  C1  UNL A   1      18.240  28.755  44.134  1.00  0.00    +0.000 C 
ATOM     92  H1  UNL A   1      18.769  29.586  44.552  1.00  0.00    +0.000 H 
ATOM     93  H2  UNL A   1      18.935  28.087  43.670  1.00  0.00    +0.000 H 
ATOM     94  H3  UNL A   1      17.716  28.239  44.912  1.00  0.00    +0.000 H 
ENDBRANCH    2    1
BRANCH    2   78
ATOM    129  H38 UNL A   1      13.230  20.941  41.811  1.00  0.00    +0.000 H 
ATOM    130  H39 UNL A   1      13.312  24.527  39.607  1.00  0.00    +0.000 H 
ATOM     78  C55 UNL A   1      16.262  28.171  42.641  1.00  0.00    +0.000 C 
ATOM     79  C56 UNL A   1      15.695  28.165  41.358  1.00  0.00    +0.000 C 
ATOM     80  C57 UNL A   1      14.928  27.082  40.901  1.00  0.00    +0.000 C 
ATOM     81  C58 UNL A   1      14.787  25.941  41.715  1.00  0.00    +0.000 C 
ATOM     82  C59 UNL A   1      15.323  25.980  42.998  1.00  0.00    +0.000 C 
ATOM     83  C60 UNL A   1      15.995  27.096  43.508  1.00  0.00    +0.000 C 
ATOM     84  N7  UNL A   1      15.094  24.753  43.573  1.00  0.00    +0.000 N 
ATOM     85  C61 UNL A   1      14.482  23.901  42.685  1.00  0.00    +0.000 C 
ATOM     86  C62 UNL A   1      14.146  22.549  42.822  1.00  0.00    +0.000 C 
ATOM     87  C63 UNL A   1      13.489  21.939  41.750  1.00  0.00    +0.000 C 
ATOM     88  C64 UNL A   1      13.181  22.661  40.599  1.00  0.00    +0.000 C 
ATOM     89 Cl1  UNL A   1      12.351  21.877  39.309  1.00  0.00    +0.000 Cl
ATOM     90  C65 UNL A   1      13.539  24.005  40.468  1.00  0.00    +0.000 C 
ATOM     91  C66 UNL A   1      14.216  24.639  41.531  1.00  0.00    +0.000 C 
ATOM    124  H33 UNL A   1      15.846  28.975  40.736  1.00  0.00    +0.000 H 
ATOM    125  H34 UNL A   1      14.471  27.121  39.976  1.00  0.00    +0.000 H 
ATOM    126  H35 UNL A   1      16.288  27.131  44.497  1.00  0.00    +0.000 H 
ATOM    127  H36 UNL A   1      15.338  24.515  44.496  1.00  0.00    +0.000 H 
ATOM    128  H37 UNL A   1      14.374  22.024  43.680  1.00  0.00    +0.000 H 
ENDBRANCH    2   78
ENDBRANCH    3    2
ENDBRANCH    5    3
ENDBRANCH    6    5
ENDBRANCH    7    6
ENDBRANCH    8    7
ENDBRANCH    9    8
ENDBRANCH   10    9
ENDBRANCH   11   10
ENDBRANCH   12   11
ENDBRANCH   13   12
ENDBRANCH   15   13
ENDBRANCH   19   18
BRANCH   23   24
ATOM     33  C24 UNL A   1      24.688  39.633  50.448  1.00  0.00    +0.000 C 
ATOM     34  F5  UNL A   1      25.498  38.712  50.990  1.00  0.00    +0.000 F 
ATOM     24  C19 UNL A   1      24.818  39.984  49.095  1.00  0.00    +0.000 C 
ATOM     25  C20 UNL A   1      23.939  40.947  48.579  1.00  0.00    +0.000 C 
ATOM     26  F1  UNL A   1      24.030  41.323  47.294  1.00  0.00    +0.000 F 
ATOM     27  C21 UNL A   1      22.983  41.553  49.390  1.00  0.00    +0.000 C 
ATOM     28  F2  UNL A   1      22.183  42.502  48.884  1.00  0.00    +0.000 F 
ATOM     29  C22 UNL A   1      22.867  41.186  50.722  1.00  0.00    +0.000 C 
ATOM     30  F3  UNL A   1      21.941  41.765  51.500  1.00  0.00    +0.000 F 
ATOM     31  C23 UNL A   1      23.713  40.223  51.250  1.00  0.00    +0.000 C 
ATOM     32  F4  UNL A   1      23.593  39.856  52.534  1.00  0.00    +0.000 F 
ENDBRANCH   23   24
BRANCH   40   41
ATOM     41  C30 UNL A   1      31.630  41.026  46.981  1.00  0.00    +0.000 C 
ATOM     42  C31 UNL A   1      31.597  42.319  46.438  1.00  0.00    +0.000 C 
ATOM     43  F6  UNL A   1      30.587  42.690  45.637  1.00  0.00    +0.000 F 
ATOM     44  C32 UNL A   1      32.627  43.224  46.684  1.00  0.00    +0.000 C 
ATOM     45  F7  UNL A   1      32.598  44.438  46.118  1.00  0.00    +0.000 F 
ATOM     46  C33 UNL A   1      33.689  42.865  47.501  1.00  0.00    +0.000 C 
ATOM     47  F8  UNL A   1      34.677  43.738  47.740  1.00  0.00    +0.000 F 
ATOM     48  C34 UNL A   1      33.732  41.598  48.063  1.00  0.00    +0.000 C 
ATOM     49  F9  UNL A   1      34.752  41.253  48.859  1.00  0.00    +0.000 F 
ATOM     50  C35 UNL A   1      32.718  40.682  47.797  1.00  0.00    +0.000 C 
ATOM     51  F10 UNL A   1      32.792  39.459  48.343  1.00  0.00    +0.000 F 
ENDBRANCH   40   41
BRANCH   55   56
ATOM     65  C44 UNL A   1      31.991  34.224  43.450  1.00  0.00    +0.000 C 
ATOM     66  F15 UNL A   1      31.903  33.778  44.711  1.00  0.00    +0.000 F 
ATOM     56  C39 UNL A   1      31.207  35.308  43.031  1.00  0.00    +0.000 C 
ATOM     57  C40 UNL A   1      31.341  35.739  41.704  1.00  0.00    +0.000 C 
ATOM     58  F11 UNL A   1      30.595  36.758  41.254  1.00  0.00    +0.000 F 
ATOM     59  C41 UNL A   1      32.211  35.098  40.825  1.00  0.00    +0.000 C 
ATOM     60  F12 UNL A   1      32.289  35.504  39.550  1.00  0.00    +0.000 F 
ATOM     61  C42 UNL A   1      32.984  34.034  41.263  1.00  0.00    +0.000 C 
ATOM     62  F13 UNL A   1      33.824  33.421  40.418  1.00  0.00    +0.000 F 
ATOM     63  C43 UNL A   1      32.881  33.601  42.577  1.00  0.00    +0.000 C 
ATOM     64  F14 UNL A   1      33.636  32.582  43.008  1.00  0.00    +0.000 F 
ENDBRANCH   55   56
TORSDOF 17
ENDMDL
