MODEL 1
REMARK VINA RESULT:      -9.2      0.000      0.000
ROOT
ATOM    133  H29 UNL A   1      18.632  37.785  45.831  1.00  0.00    +0.000 H 
ATOM    134  H30 UNL A   1      20.022  36.424  44.065  1.00  0.00    +0.000 H 
ATOM    135  H31 UNL A   1      18.913  33.853  47.111  1.00  0.00    +0.000 H 
ATOM    136  H32 UNL A   1      22.951  37.360  44.509  1.00  0.00    +0.000 H 
ATOM    137  H33 UNL A   1      21.482  37.631  46.591  1.00  0.00    +0.000 H 
ATOM    138  H34 UNL A   1      25.395  36.920  47.772  1.00  0.00    +0.000 H 
ATOM    139  H35 UNL A   1      24.708  33.039  43.382  1.00  0.00    +0.000 H 
ATOM    140  H36 UNL A   1      22.294  32.220  43.019  1.00  0.00    +0.000 H 
ATOM    141  H37 UNL A   1      18.822  36.577  51.219  1.00  0.00    +0.000 H 
ATOM    142  H38 UNL A   1      21.359  36.895  51.510  1.00  0.00    +0.000 H 
ATOM     38  C25 UNL A   1      22.772  36.514  48.963  1.00  0.00    +0.000 C 
ATOM     39  C26 UNL A   1      21.358  36.350  49.316  1.00  0.00    +0.000 C 
ATOM     40  N6  UNL A   1      20.461  35.897  48.519  1.00  0.00    +0.000 N 
ATOM     41  C27 UNL A   1      19.236  36.131  49.109  1.00  0.00    +0.000 C 
ATOM     42  C28 UNL A   1      18.137  36.182  48.304  1.00  0.00    +0.000 C 
ATOM     54  C35 UNL A   1      18.538  35.923  46.923  1.00  0.00    +0.000 C 
ATOM     55  C36 UNL A   1      18.877  36.784  45.893  1.00  0.00    +0.000 C 
ATOM     56  C37 UNL A   1      19.620  36.048  44.938  1.00  0.00    +0.000 C 
ATOM     57  C38 UNL A   1      19.715  34.738  45.378  1.00  0.00    +0.000 C 
ATOM     58  N7  UNL A   1      19.033  34.672  46.577  1.00  0.00    +0.000 N 
ATOM     59  C39 UNL A   1      20.308  33.550  44.785  1.00  0.00    +0.000 C 
ATOM     71  C46 UNL A   1      21.658  33.627  44.586  1.00  0.00    +0.000 C 
ATOM     72  N8  UNL A   1      22.451  34.492  45.295  1.00  0.00    +0.000 N 
ATOM     73  C47 UNL A   1      23.689  34.361  44.904  1.00  0.00    +0.000 C 
ATOM     74  C48 UNL A   1      24.828  35.186  45.450  1.00  0.00    +0.000 C 
ATOM     86  C55 UNL A   1      24.412  36.409  45.897  1.00  0.00    +0.000 C 
ATOM     87  C56 UNL A   1      23.195  37.080  45.472  1.00  0.00    +0.000 C 
ATOM     88  C57 UNL A   1      22.447  37.264  46.574  1.00  0.00    +0.000 C 
ATOM     89  C58 UNL A   1      23.223  36.861  47.738  1.00  0.00    +0.000 C 
ATOM     90  N9  UNL A   1      24.562  36.769  47.269  1.00  0.00    +0.000 N 
ATOM     91  C59 UNL A   1      23.850  33.353  43.863  1.00  0.00    +0.000 C 
ATOM     92  C60 UNL A   1      22.581  32.941  43.700  1.00  0.00    +0.000 C 
ATOM     93  C61 UNL A   1      19.531  36.472  50.476  1.00  0.00    +0.000 C 
ATOM     94  C62 UNL A   1      20.844  36.636  50.654  1.00  0.00    +0.000 C 
ENDROOT
BRANCH   38   37
ATOM     34  C21 UNL A   1      25.039  36.296  52.398  1.00  0.00    +0.000 C 
ATOM     35  C22 UNL A   1      24.947  37.558  51.791  1.00  0.00    +0.000 C 
ATOM     36  C23 UNL A   1      24.295  37.672  50.574  1.00  0.00    +0.000 C 
ATOM    131  H27 UNL A   1      25.360  38.388  52.244  1.00  0.00    +0.000 H 
ATOM    132  H28 UNL A   1      24.241  38.574  50.076  1.00  0.00    +0.000 H 
ATOM     37  C24 UNL A   1      23.716  36.523  50.054  1.00  0.00    +0.000 C 
ATOM    143  H39 UNL A   1      23.664  34.409  50.076  1.00  0.00    +0.000 H 
ATOM    144  H40 UNL A   1      25.201  34.233  51.955  1.00  0.00    +0.000 H 
ATOM     95  C63 UNL A   1      24.023  35.254  50.549  1.00  0.00    +0.000 C 
ATOM     96  C64 UNL A   1      24.803  35.140  51.667  1.00  0.00    +0.000 C 
BRANCH   34   32
ATOM     33  O7  UNL A   1      25.923  36.410  54.568  1.00  0.00    +0.000 O 
ATOM     32  C20 UNL A   1      24.920  36.288  53.874  1.00  0.00    +0.000 C 
BRANCH   32   31
ATOM    130  H26 UNL A   1      23.244  35.490  54.652  1.00  0.00    +0.000 H 
ATOM     31  N5  UNL A   1      23.665  36.358  54.453  1.00  0.00    +0.000 N 
BRANCH   31   30
ATOM    129  H25 UNL A   1      23.532  38.376  54.764  1.00  0.00    +0.000 H 
ATOM     30  C19 UNL A   1      22.880  37.529  54.812  1.00  0.00    +0.000 C 
ATOM    128  H24 UNL A   1      22.483  37.384  55.795  1.00  0.00    +0.000 H 
BRANCH   30   29
ATOM     29  C18 UNL A   1      21.728  37.791  53.860  1.00  0.00    +0.000 C 
ATOM    126  H22 UNL A   1      21.754  37.047  53.091  1.00  0.00    +0.000 H 
ATOM    127  H23 UNL A   1      20.833  37.755  54.445  1.00  0.00    +0.000 H 
BRANCH   29   28
ATOM    124  H20 UNL A   1      22.134  39.867  53.913  1.00  0.00    +0.000 H 
ATOM     28  C17 UNL A   1      21.761  39.167  53.195  1.00  0.00    +0.000 C 
ATOM    125  H21 UNL A   1      22.379  39.053  52.330  1.00  0.00    +0.000 H 
BRANCH   28   27
ATOM    122  H18 UNL A   1      20.347  40.731  52.943  1.00  0.00    +0.000 H 
ATOM     27  C16 UNL A   1      20.417  39.698  52.676  1.00  0.00    +0.000 C 
ATOM    123  H19 UNL A   1      20.422  39.521  51.621  1.00  0.00    +0.000 H 
BRANCH   27   26
ATOM    121  H17 UNL A   1      19.328  38.845  54.259  1.00  0.00    +0.000 H 
ATOM     26  C15 UNL A   1      19.171  38.990  53.210  1.00  0.00    +0.000 C 
ATOM    120  H16 UNL A   1      19.052  38.072  52.675  1.00  0.00    +0.000 H 
BRANCH   26   25
ATOM     25  C14 UNL A   1      17.886  39.793  53.071  1.00  0.00    +0.000 C 
ATOM    118  H14 UNL A   1      17.296  39.359  52.290  1.00  0.00    +0.000 H 
ATOM    119  H15 UNL A   1      17.387  39.760  54.017  1.00  0.00    +0.000 H 
BRANCH   25   24
ATOM    117  H13 UNL A   1      18.875  41.609  53.209  1.00  0.00    +0.000 H 
ATOM     24  N4  UNL A   1      18.113  41.183  52.754  1.00  0.00    +0.000 N 
BRANCH   24   22
ATOM     22  C13 UNL A   1      17.402  41.981  51.904  1.00  0.00    +0.000 C 
ATOM     23  O6  UNL A   1      16.428  42.582  52.364  1.00  0.00    +0.000 O 
BRANCH   22   21
ATOM    115  H11 UNL A   1      18.768  41.915  50.270  1.00  0.00    +0.000 H 
ATOM    116  H12 UNL A   1      17.136  41.251  49.947  1.00  0.00    +0.000 H 
ATOM     21  C12 UNL A   1      17.712  42.034  50.394  1.00  0.00    +0.000 C 
BRANCH   21   20
ATOM    114  H10 UNL A   1      16.371  43.291  49.445  1.00  0.00    +0.000 H 
ATOM     20  N3  UNL A   1      17.315  43.261  49.720  1.00  0.00    +0.000 N 
BRANCH   20   18
ATOM     18  C11 UNL A   1      18.038  44.373  49.405  1.00  0.00    +0.000 C 
ATOM     19  O5  UNL A   1      18.416  45.093  50.332  1.00  0.00    +0.000 O 
BRANCH   18   17
ATOM     17  C10 UNL A   1      18.372  44.732  47.947  1.00  0.00    +0.000 C 
ATOM    113  H9  UNL A   1      17.508  45.225  47.555  1.00  0.00    +0.000 H 
ATOM    112  H8  UNL A   1      18.617  43.828  47.430  1.00  0.00    +0.000 H 
BRANCH   17   16
ATOM    111  H7  UNL A   1      19.256  46.607  47.959  1.00  0.00    +0.000 H 
ATOM     16  N2  UNL A   1      19.488  45.667  47.780  1.00  0.00    +0.000 N 
BRANCH   16   14
ATOM     14  C9  UNL A   1      20.807  45.469  47.419  1.00  0.00    +0.000 C 
ATOM     15  O4  UNL A   1      21.054  45.137  46.265  1.00  0.00    +0.000 O 
BRANCH   14   12
ATOM     12  C8  UNL A   1      21.942  45.661  48.447  1.00  0.00    +0.000 C 
ATOM     13  O3  UNL A   1      22.065  46.778  48.942  1.00  0.00    +0.000 O 
BRANCH   12   11
ATOM     97  C65 UNL A   1      22.474  43.212  49.056  1.00  0.00    +0.000 C 
ATOM     98  C66 UNL A   1      21.242  42.527  48.952  1.00  0.00    +0.000 C 
ATOM     99  C67 UNL A   1      21.181  41.151  49.166  1.00  0.00    +0.000 C 
ATOM    100  C68 UNL A   1      22.327  40.444  49.502  1.00  0.00    +0.000 C 
ATOM    101  C69 UNL A   1      23.557  41.091  49.642  1.00  0.00    +0.000 C 
ATOM    102  C70 UNL A   1      23.614  42.478  49.407  1.00  0.00    +0.000 C 
ATOM      9  N1  UNL A   1      24.656  43.381  49.407  1.00  0.00    +0.000 N 
ATOM     10  C6  UNL A   1      24.221  44.646  49.085  1.00  0.00    +0.000 C 
ATOM     11  C7  UNL A   1      22.859  44.586  48.850  1.00  0.00    +0.000 C 
ATOM    110  H6  UNL A   1      24.809  45.493  49.028  1.00  0.00    +0.000 H 
ATOM    145  H41 UNL A   1      20.383  43.050  48.716  1.00  0.00    +0.000 H 
ATOM    146  H42 UNL A   1      20.280  40.656  49.074  1.00  0.00    +0.000 H 
ATOM    147  H43 UNL A   1      22.268  39.424  49.652  1.00  0.00    +0.000 H 
ATOM    148  H44 UNL A   1      24.404  40.565  49.911  1.00  0.00    +0.000 H 
BRANCH    9    6
ATOM      6  S1  UNL A   1      26.292  42.970  49.661  1.00  0.00    +0.000 S 
ATOM      7  O1  UNL A   1      26.267  41.854  50.578  1.00  0.00    +0.000 O 
ATOM      8  O2  UNL A   1      26.965  44.221  49.985  1.00  0.00    +0.000 O 
BRANCH    6    5
ATOM      2  C2  UNL A   1      27.823  41.394  45.649  1.00  0.00    +0.000 C 
ATOM      3  C3  UNL A   1      27.122  40.572  46.538  1.00  0.00    +0.000 C 
ATOM      4  C4  UNL A   1      26.686  41.071  47.767  1.00  0.00    +0.000 C 
ATOM      5  C5  UNL A   1      26.961  42.397  48.121  1.00  0.00    +0.000 C 
ATOM    103  C71 UNL A   1      27.695  43.213  47.258  1.00  0.00    +0.000 C 
ATOM    104  C72 UNL A   1      28.112  42.713  46.021  1.00  0.00    +0.000 C 
ATOM    108  H4  UNL A   1      26.926  39.591  46.284  1.00  0.00    +0.000 H 
ATOM    109  H5  UNL A   1      26.161  40.462  48.414  1.00  0.00    +0.000 H 
ATOM    149  H45 UNL A   1      27.928  44.181  47.532  1.00  0.00    +0.000 H 
ATOM    150  H46 UNL A   1      28.639  43.321  45.375  1.00  0.00    +0.000 H 
BRANCH    2    1
ATOM      1  C1  UNL A   1      28.256  40.859  44.316  1.00  0.00    +0.000 C 
ATOM    106  H2  UNL A   1      29.272  40.528  44.377  1.00  0.00    +0.000 H 
ATOM    107  H3  UNL A   1      28.177  41.630  43.577  1.00  0.00    +0.000 H 
ATOM    105  H1  UNL A   1      27.629  40.035  44.041  1.00  0.00    +0.000 H 
ENDBRANCH    2    1
ENDBRANCH    6    5
ENDBRANCH    9    6
ENDBRANCH   12   11
ENDBRANCH   14   12
ENDBRANCH   16   14
ENDBRANCH   17   16
ENDBRANCH   18   17
ENDBRANCH   20   18
ENDBRANCH   21   20
ENDBRANCH   22   21
ENDBRANCH   24   22
ENDBRANCH   25   24
ENDBRANCH   26   25
ENDBRANCH   27   26
ENDBRANCH   28   27
ENDBRANCH   29   28
ENDBRANCH   30   29
ENDBRANCH   31   30
ENDBRANCH   32   31
ENDBRANCH   34   32
ENDBRANCH   38   37
BRANCH   42   43
ATOM     43  C29 UNL A   1      16.796  36.776  48.674  1.00  0.00    +0.000 C 
ATOM     44  C30 UNL A   1      16.734  37.882  49.554  1.00  0.00    +0.000 C 
ATOM     45  F1  UNL A   1      17.842  38.503  49.980  1.00  0.00    +0.000 F 
ATOM     46  C31 UNL A   1      15.530  38.402  50.033  1.00  0.00    +0.000 C 
ATOM     47  F2  UNL A   1      15.545  39.444  50.874  1.00  0.00    +0.000 F 
ATOM     48  C32 UNL A   1      14.329  37.843  49.652  1.00  0.00    +0.000 C 
ATOM     49  F3  UNL A   1      13.174  38.327  50.128  1.00  0.00    +0.000 F 
ATOM     50  C33 UNL A   1      14.336  36.799  48.752  1.00  0.00    +0.000 C 
ATOM     51  F4  UNL A   1      13.175  36.259  48.352  1.00  0.00    +0.000 F 
ATOM     52  C34 UNL A   1      15.542  36.303  48.244  1.00  0.00    +0.000 C 
ATOM     53  F5  UNL A   1      15.431  35.387  47.278  1.00  0.00    +0.000 F 
ENDBRANCH   42   43
BRANCH   59   60
ATOM     65  C43 UNL A   1      17.870  30.194  43.437  1.00  0.00    +0.000 C 
ATOM     66  F8  UNL A   1      17.150  29.150  43.008  1.00  0.00    +0.000 F 
ATOM     67  C44 UNL A   1      18.822  30.025  44.417  1.00  0.00    +0.000 C 
ATOM     68  F9  UNL A   1      19.069  28.804  44.911  1.00  0.00    +0.000 F 
ATOM     69  C45 UNL A   1      19.546  31.120  44.885  1.00  0.00    +0.000 C 
ATOM     70  F10 UNL A   1      20.421  30.850  45.864  1.00  0.00    +0.000 F 
ATOM     60  C40 UNL A   1      19.399  32.424  44.344  1.00  0.00    +0.000 C 
ATOM     61  C41 UNL A   1      18.470  32.530  43.296  1.00  0.00    +0.000 C 
ATOM     62  F6  UNL A   1      18.331  33.658  42.590  1.00  0.00    +0.000 F 
ATOM     63  C42 UNL A   1      17.687  31.447  42.887  1.00  0.00    +0.000 C 
ATOM     64  F7  UNL A   1      16.768  31.624  41.926  1.00  0.00    +0.000 F 
ENDBRANCH   59   60
BRANCH   74   75
ATOM     75  C49 UNL A   1      25.985  34.664  46.232  1.00  0.00    +0.000 C 
ATOM     76  C50 UNL A   1      25.770  33.510  47.016  1.00  0.00    +0.000 C 
ATOM     77  F11 UNL A   1      24.526  33.196  47.414  1.00  0.00    +0.000 F 
ATOM     78  C51 UNL A   1      26.797  32.603  47.264  1.00  0.00    +0.000 C 
ATOM     79  F12 UNL A   1      26.528  31.441  47.877  1.00  0.00    +0.000 F 
ATOM     80  C52 UNL A   1      28.074  32.862  46.797  1.00  0.00    +0.000 C 
ATOM     81  F13 UNL A   1      29.039  31.943  46.936  1.00  0.00    +0.000 F 
ATOM     82  C53 UNL A   1      28.337  34.061  46.148  1.00  0.00    +0.000 C 
ATOM     83  F14 UNL A   1      29.576  34.310  45.698  1.00  0.00    +0.000 F 
ATOM     84  C54 UNL A   1      27.304  34.959  45.868  1.00  0.00    +0.000 C 
ATOM     85  F15 UNL A   1      27.579  36.048  45.136  1.00  0.00    +0.000 F 
ENDBRANCH   74   75
TORSDOF 25
ENDMDL
MODEL 2
REMARK VINA RESULT:      -9.1      1.138      2.089
ROOT
ATOM    133  H29 UNL A   1      18.664  38.006  45.779  1.00  0.00    +0.000 H 
ATOM    134  H30 UNL A   1      20.207  36.747  44.065  1.00  0.00    +0.000 H 
ATOM    135  H31 UNL A   1      19.296  34.147  47.153  1.00  0.00    +0.000 H 
ATOM    136  H32 UNL A   1      23.026  37.969  44.532  1.00  0.00    +0.000 H 
ATOM    137  H33 UNL A   1      21.502  38.141  46.585  1.00  0.00    +0.000 H 
ATOM    138  H34 UNL A   1      25.445  37.834  47.841  1.00  0.00    +0.000 H 
ATOM    139  H35 UNL A   1      25.206  33.812  43.531  1.00  0.00    +0.000 H 
ATOM    140  H36 UNL A   1      22.888  32.758  43.151  1.00  0.00    +0.000 H 
ATOM    141  H37 UNL A   1      18.876  36.938  51.195  1.00  0.00    +0.000 H 
ATOM    142  H38 UNL A   1      21.365  37.503  51.517  1.00  0.00    +0.000 H 
ATOM     38  C25 UNL A   1      22.852  37.205  49.001  1.00  0.00    +0.000 C 
ATOM     39  C26 UNL A   1      21.453  36.913  49.336  1.00  0.00    +0.000 C 
ATOM     40  N6  UNL A   1      20.618  36.360  48.536  1.00  0.00    +0.000 N 
ATOM     41  C27 UNL A   1      19.367  36.488  49.102  1.00  0.00    +0.000 C 
ATOM     42  C28 UNL A   1      18.282  36.417  48.280  1.00  0.00    +0.000 C 
ATOM     54  C35 UNL A   1      18.729  36.168  46.911  1.00  0.00    +0.000 C 
ATOM     55  C36 UNL A   1      19.003  37.035  45.867  1.00  0.00    +0.000 C 
ATOM     56  C37 UNL A   1      19.829  36.353  44.940  1.00  0.00    +0.000 C 
ATOM     57  C38 UNL A   1      20.040  35.068  45.412  1.00  0.00    +0.000 C 
ATOM     58  N7  UNL A   1      19.346  34.962  46.602  1.00  0.00    +0.000 N 
ATOM     59  C39 UNL A   1      20.754  33.930  44.855  1.00  0.00    +0.000 C 
ATOM     71  C46 UNL A   1      22.094  34.131  44.675  1.00  0.00    +0.000 C 
ATOM     72  N8  UNL A   1      22.788  35.083  45.376  1.00  0.00    +0.000 N 
ATOM     73  C47 UNL A   1      24.040  35.062  45.007  1.00  0.00    +0.000 C 
ATOM     74  C48 UNL A   1      25.085  36.004  45.551  1.00  0.00    +0.000 C 
ATOM     86  C55 UNL A   1      24.547  37.191  45.964  1.00  0.00    +0.000 C 
ATOM     87  C56 UNL A   1      23.279  37.733  45.505  1.00  0.00    +0.000 C 
ATOM     88  C57 UNL A   1      22.498  37.869  46.591  1.00  0.00    +0.000 C 
ATOM     89  C58 UNL A   1      23.289  37.567  47.776  1.00  0.00    +0.000 C 
ATOM     90  N9  UNL A   1      24.639  37.593  47.329  1.00  0.00    +0.000 N 
ATOM     91  C59 UNL A   1      24.314  34.053  43.992  1.00  0.00    +0.000 C 
ATOM     92  C60 UNL A   1      23.093  33.518  43.818  1.00  0.00    +0.000 C 
ATOM     93  C61 UNL A   1      19.604  36.885  50.466  1.00  0.00    +0.000 C 
ATOM     94  C62 UNL A   1      20.892  37.178  50.659  1.00  0.00    +0.000 C 
ENDROOT
BRANCH   38   37
ATOM     34  C21 UNL A   1      25.099  37.222  52.456  1.00  0.00    +0.000 C 
ATOM     35  C22 UNL A   1      24.786  38.476  51.909  1.00  0.00    +0.000 C 
ATOM     36  C23 UNL A   1      24.132  38.533  50.690  1.00  0.00    +0.000 C 
ATOM    131  H27 UNL A   1      25.040  39.343  52.408  1.00  0.00    +0.000 H 
ATOM    132  H28 UNL A   1      23.921  39.434  50.235  1.00  0.00    +0.000 H 
ATOM     37  C24 UNL A   1      23.772  37.326  50.106  1.00  0.00    +0.000 C 
ATOM    143  H39 UNL A   1      24.099  35.238  50.025  1.00  0.00    +0.000 H 
ATOM    144  H40 UNL A   1      25.630  35.246  51.917  1.00  0.00    +0.000 H 
ATOM     95  C63 UNL A   1      24.297  36.109  50.543  1.00  0.00    +0.000 C 
ATOM     96  C64 UNL A   1      25.078  36.081  51.667  1.00  0.00    +0.000 C 
BRANCH   34   32
ATOM     33  O7  UNL A   1      25.770  37.706  54.651  1.00  0.00    +0.000 O 
ATOM     32  C20 UNL A   1      24.972  37.119  53.929  1.00  0.00    +0.000 C 
BRANCH   32   31
ATOM    130  H26 UNL A   1      23.937  35.602  54.752  1.00  0.00    +0.000 H 
ATOM     31  N5  UNL A   1      23.840  36.542  54.473  1.00  0.00    +0.000 N 
BRANCH   31   30
ATOM    129  H25 UNL A   1      22.498  38.058  54.173  1.00  0.00    +0.000 H 
ATOM     30  C19 UNL A   1      22.524  37.124  54.695  1.00  0.00    +0.000 C 
ATOM    128  H24 UNL A   1      22.380  37.249  55.748  1.00  0.00    +0.000 H 
BRANCH   30   29
ATOM     29  C18 UNL A   1      21.394  36.271  54.150  1.00  0.00    +0.000 C 
ATOM    126  H22 UNL A   1      21.519  36.186  53.091  1.00  0.00    +0.000 H 
ATOM    127  H23 UNL A   1      21.451  35.329  54.654  1.00  0.00    +0.000 H 
BRANCH   29   28
ATOM    124  H20 UNL A   1      19.404  36.663  53.548  1.00  0.00    +0.000 H 
ATOM     28  C17 UNL A   1      19.997  36.828  54.423  1.00  0.00    +0.000 C 
ATOM    125  H21 UNL A   1      19.648  36.313  55.293  1.00  0.00    +0.000 H 
BRANCH   28   27
ATOM    122  H18 UNL A   1      19.291  38.430  55.625  1.00  0.00    +0.000 H 
ATOM     27  C16 UNL A   1      19.921  38.322  54.768  1.00  0.00    +0.000 C 
ATOM    123  H19 UNL A   1      20.932  38.635  54.929  1.00  0.00    +0.000 H 
BRANCH   27   26
ATOM    121  H17 UNL A   1      20.025  39.116  52.824  1.00  0.00    +0.000 H 
ATOM     26  C15 UNL A   1      19.375  39.232  53.667  1.00  0.00    +0.000 C 
ATOM    120  H16 UNL A   1      19.352  40.234  54.041  1.00  0.00    +0.000 H 
BRANCH   26   25
ATOM     25  C14 UNL A   1      17.977  38.869  53.189  1.00  0.00    +0.000 C 
ATOM    118  H14 UNL A   1      17.849  39.244  52.195  1.00  0.00    +0.000 H 
ATOM    119  H15 UNL A   1      17.893  37.804  53.232  1.00  0.00    +0.000 H 
BRANCH   25   24
ATOM    117  H13 UNL A   1      16.676  38.873  54.803  1.00  0.00    +0.000 H 
ATOM     24  N4  UNL A   1      16.931  39.414  54.022  1.00  0.00    +0.000 N 
BRANCH   24   22
ATOM     22  C13 UNL A   1      16.250  40.588  53.861  1.00  0.00    +0.000 C 
ATOM     23  O6  UNL A   1      15.025  40.563  54.010  1.00  0.00    +0.000 O 
BRANCH   22   21
ATOM    115  H11 UNL A   1      16.565  42.693  53.945  1.00  0.00    +0.000 H 
ATOM    116  H12 UNL A   1      18.000  41.708  53.524  1.00  0.00    +0.000 H 
ATOM     21  C12 UNL A   1      16.953  41.872  53.379  1.00  0.00    +0.000 C 
BRANCH   21   20
ATOM    114  H10 UNL A   1      15.876  42.451  51.710  1.00  0.00    +0.000 H 
ATOM     20  N3  UNL A   1      16.786  42.181  51.967  1.00  0.00    +0.000 N 
BRANCH   20   18
ATOM     18  C11 UNL A   1      17.685  42.156  50.942  1.00  0.00    +0.000 C 
ATOM     19  O5  UNL A   1      18.797  41.672  51.166  1.00  0.00    +0.000 O 
BRANCH   18   17
ATOM     17  C10 UNL A   1      17.339  42.715  49.551  1.00  0.00    +0.000 C 
ATOM    113  H9  UNL A   1      16.815  43.632  49.719  1.00  0.00    +0.000 H 
ATOM    112  H8  UNL A   1      16.756  41.982  49.034  1.00  0.00    +0.000 H 
BRANCH   17   16
ATOM    111  H7  UNL A   1      18.815  42.304  48.157  1.00  0.00    +0.000 H 
ATOM     16  N2  UNL A   1      18.494  43.050  48.714  1.00  0.00    +0.000 N 
BRANCH   16   14
ATOM     14  C9  UNL A   1      19.214  44.219  48.565  1.00  0.00    +0.000 C 
ATOM     15  O4  UNL A   1      18.922  44.973  47.644  1.00  0.00    +0.000 O 
BRANCH   14   12
ATOM     12  C8  UNL A   1      20.363  44.565  49.537  1.00  0.00    +0.000 C 
ATOM     13  O3  UNL A   1      20.048  44.988  50.645  1.00  0.00    +0.000 O 
BRANCH   12   11
ATOM     97  C65 UNL A   1      22.510  45.258  48.286  1.00  0.00    +0.000 C 
ATOM     98  C66 UNL A   1      22.141  46.382  47.512  1.00  0.00    +0.000 C 
ATOM     99  C67 UNL A   1      23.094  47.049  46.742  1.00  0.00    +0.000 C 
ATOM    100  C68 UNL A   1      24.408  46.604  46.715  1.00  0.00    +0.000 C 
ATOM    101  C69 UNL A   1      24.802  45.479  47.444  1.00  0.00    +0.000 C 
ATOM    102  C70 UNL A   1      23.839  44.822  48.232  1.00  0.00    +0.000 C 
ATOM      9  N1  UNL A   1      23.915  43.745  49.091  1.00  0.00    +0.000 N 
ATOM     10  C6  UNL A   1      22.695  43.479  49.669  1.00  0.00    +0.000 C 
ATOM     11  C7  UNL A   1      21.784  44.409  49.198  1.00  0.00    +0.000 C 
ATOM    110  H6  UNL A   1      22.493  42.720  50.338  1.00  0.00    +0.000 H 
ATOM    145  H41 UNL A   1      21.162  46.710  47.518  1.00  0.00    +0.000 H 
ATOM    146  H42 UNL A   1      22.820  47.878  46.191  1.00  0.00    +0.000 H 
ATOM    147  H43 UNL A   1      25.104  47.111  46.146  1.00  0.00    +0.000 H 
ATOM    148  H44 UNL A   1      25.776  45.139  47.406  1.00  0.00    +0.000 H 
BRANCH    9    6
ATOM      6  S1  UNL A   1      25.354  42.916  49.478  1.00  0.00    +0.000 S 
ATOM      7  O1  UNL A   1      24.943  41.803  50.302  1.00  0.00    +0.000 O 
ATOM      8  O2  UNL A   1      26.276  43.935  49.961  1.00  0.00    +0.000 O 
BRANCH    6    5
ATOM      2  C2  UNL A   1      27.304  41.218  45.704  1.00  0.00    +0.000 C 
ATOM      3  C3  UNL A   1      27.904  42.248  46.438  1.00  0.00    +0.000 C 
ATOM      4  C4  UNL A   1      27.277  42.765  47.573  1.00  0.00    +0.000 C 
ATOM      5  C5  UNL A   1      26.034  42.262  47.975  1.00  0.00    +0.000 C 
ATOM    103  C71 UNL A   1      25.408  41.264  47.227  1.00  0.00    +0.000 C 
ATOM    104  C72 UNL A   1      26.050  40.737  46.102  1.00  0.00    +0.000 C 
ATOM    108  H4  UNL A   1      28.816  42.627  46.138  1.00  0.00    +0.000 H 
ATOM    109  H5  UNL A   1      27.730  43.518  48.115  1.00  0.00    +0.000 H 
ATOM    149  H45 UNL A   1      24.476  40.916  47.503  1.00  0.00    +0.000 H 
ATOM    150  H46 UNL A   1      25.596  39.986  45.559  1.00  0.00    +0.000 H 
BRANCH    2    1
ATOM      1  C1  UNL A   1      28.002  40.645  44.506  1.00  0.00    +0.000 C 
ATOM    106  H2  UNL A   1      28.581  41.409  44.030  1.00  0.00    +0.000 H 
ATOM    107  H3  UNL A   1      27.277  40.267  43.816  1.00  0.00    +0.000 H 
ATOM    105  H1  UNL A   1      28.648  39.850  44.816  1.00  0.00    +0.000 H 
ENDBRANCH    2    1
ENDBRANCH    6    5
ENDBRANCH    9    6
ENDBRANCH   12   11
ENDBRANCH   14   12
ENDBRANCH   16   14
ENDBRANCH   17   16
ENDBRANCH   18   17
ENDBRANCH   20   18
ENDBRANCH   21   20
ENDBRANCH   22   21
ENDBRANCH   24   22
ENDBRANCH   25   24
ENDBRANCH   26   25
ENDBRANCH   27   26
ENDBRANCH   28   27
ENDBRANCH   29   28
ENDBRANCH   30   29
ENDBRANCH   31   30
ENDBRANCH   32   31
ENDBRANCH   34   32
ENDBRANCH   38   37
BRANCH   42   43
ATOM     43  C29 UNL A   1      16.884  36.888  48.616  1.00  0.00    +0.000 C 
ATOM     44  C30 UNL A   1      16.702  38.001  49.469  1.00  0.00    +0.000 C 
ATOM     45  F1  UNL A   1      17.738  38.734  49.897  1.00  0.00    +0.000 F 
ATOM     46  C31 UNL A   1      15.445  38.414  49.917  1.00  0.00    +0.000 C 
ATOM     47  F2  UNL A   1      15.347  39.471  50.735  1.00  0.00    +0.000 F 
ATOM     48  C32 UNL A   1      14.310  37.735  49.532  1.00  0.00    +0.000 C 
ATOM     49  F3  UNL A   1      13.106  38.115  49.979  1.00  0.00    +0.000 F 
ATOM     50  C33 UNL A   1      14.432  36.676  48.656  1.00  0.00    +0.000 C 
ATOM     51  F4  UNL A   1      13.335  36.020  48.252  1.00  0.00    +0.000 F 
ATOM     52  C34 UNL A   1      15.689  36.287  48.178  1.00  0.00    +0.000 C 
ATOM     53  F5  UNL A   1      15.681  35.344  47.232  1.00  0.00    +0.000 F 
ENDBRANCH   42   43
BRANCH   59   60
ATOM     65  C43 UNL A   1      18.289  30.522  43.702  1.00  0.00    +0.000 C 
ATOM     66  F8  UNL A   1      17.505  29.489  43.365  1.00  0.00    +0.000 F 
ATOM     67  C44 UNL A   1      18.079  31.763  43.146  1.00  0.00    +0.000 C 
ATOM     68  F9  UNL A   1      17.057  31.958  42.302  1.00  0.00    +0.000 F 
ATOM     69  C45 UNL A   1      18.918  32.826  43.474  1.00  0.00    +0.000 C 
ATOM     70  F10 UNL A   1      18.647  33.981  42.848  1.00  0.00    +0.000 F 
ATOM     60  C40 UNL A   1      19.963  32.713  44.427  1.00  0.00    +0.000 C 
ATOM     61  C41 UNL A   1      20.088  31.447  45.021  1.00  0.00    +0.000 C 
ATOM     62  F6  UNL A   1      20.927  31.228  46.041  1.00  0.00    +0.000 F 
ATOM     63  C42 UNL A   1      19.299  30.361  44.629  1.00  0.00    +0.000 C 
ATOM     64  F7  UNL A   1      19.510  29.159  45.184  1.00  0.00    +0.000 F 
ENDBRANCH   59   60
BRANCH   74   75
ATOM     75  C49 UNL A   1      26.273  35.612  46.362  1.00  0.00    +0.000 C 
ATOM     76  C50 UNL A   1      26.129  34.511  47.233  1.00  0.00    +0.000 C 
ATOM     77  F11 UNL A   1      24.906  34.155  47.663  1.00  0.00    +0.000 F 
ATOM     78  C51 UNL A   1      27.208  33.687  47.543  1.00  0.00    +0.000 C 
ATOM     79  F12 UNL A   1      27.009  32.561  48.244  1.00  0.00    +0.000 F 
ATOM     80  C52 UNL A   1      28.466  33.984  47.047  1.00  0.00    +0.000 C 
ATOM     81  F13 UNL A   1      29.484  33.136  47.250  1.00  0.00    +0.000 F 
ATOM     82  C53 UNL A   1      28.656  35.142  46.307  1.00  0.00    +0.000 C 
ATOM     83  F14 UNL A   1      29.877  35.429  45.830  1.00  0.00    +0.000 F 
ATOM     84  C54 UNL A   1      27.572  35.955  45.967  1.00  0.00    +0.000 C 
ATOM     85  F15 UNL A   1      27.780  36.999  45.152  1.00  0.00    +0.000 F 
ENDBRANCH   74   75
TORSDOF 25
ENDMDL
MODEL 3
REMARK VINA RESULT:      -8.9     42.201     46.011
ROOT
ATOM    133  H29 UNL A   1       9.897  44.988   7.455  1.00  0.00    +0.000 H 
ATOM    134  H30 UNL A   1      12.316  44.964   8.481  1.00  0.00    +0.000 H 
ATOM    135  H31 UNL A   1      10.492  48.527   9.529  1.00  0.00    +0.000 H 
ATOM    136  H32 UNL A   1      14.186  45.431   6.043  1.00  0.00    +0.000 H 
ATOM    137  H33 UNL A   1      11.827  46.368   5.695  1.00  0.00    +0.000 H 
ATOM    138  H34 UNL A   1      14.536  48.685   3.572  1.00  0.00    +0.000 H 
ATOM    139  H35 UNL A   1      17.350  47.879   8.695  1.00  0.00    +0.000 H 
ATOM    140  H36 UNL A   1      15.820  47.527  10.735  1.00  0.00    +0.000 H 
ATOM    141  H37 UNL A   1       7.510  49.679   5.776  1.00  0.00    +0.000 H 
ATOM    142  H38 UNL A   1       9.311  50.336   4.059  1.00  0.00    +0.000 H 
ATOM     38  C25 UNL A   1      11.902  49.124   4.727  1.00  0.00    +0.000 C 
ATOM     39  C26 UNL A   1      10.620  49.118   5.442  1.00  0.00    +0.000 C 
ATOM     40  N6  UNL A   1      10.443  48.609   6.606  1.00  0.00    +0.000 N 
ATOM     41  C27 UNL A   1       9.083  48.563   6.827  1.00  0.00    +0.000 C 
ATOM     42  C28 UNL A   1       8.613  47.671   7.743  1.00  0.00    +0.000 C 
ATOM     54  C35 UNL A   1       9.738  46.953   8.339  1.00  0.00    +0.000 C 
ATOM     55  C36 UNL A   1      10.329  45.744   8.009  1.00  0.00    +0.000 C 
ATOM     56  C37 UNL A   1      11.630  45.729   8.568  1.00  0.00    +0.000 C 
ATOM     57  C38 UNL A   1      11.821  46.918   9.253  1.00  0.00    +0.000 C 
ATOM     58  N7  UNL A   1      10.653  47.644   9.123  1.00  0.00    +0.000 N 
ATOM     59  C39 UNL A   1      12.930  47.417  10.051  1.00  0.00    +0.000 C 
ATOM     71  C46 UNL A   1      14.101  47.573   9.364  1.00  0.00    +0.000 C 
ATOM     72  N8  UNL A   1      14.131  47.725   8.001  1.00  0.00    +0.000 N 
ATOM     73  C47 UNL A   1      15.369  47.850   7.609  1.00  0.00    +0.000 C 
ATOM     74  C48 UNL A   1      15.775  47.999   6.163  1.00  0.00    +0.000 C 
ATOM     86  C55 UNL A   1      14.877  47.420   5.312  1.00  0.00    +0.000 C 
ATOM     87  C56 UNL A   1      13.945  46.366   5.677  1.00  0.00    +0.000 C 
ATOM     88  C57 UNL A   1      12.709  46.842   5.448  1.00  0.00    +0.000 C 
ATOM     89  C58 UNL A   1      12.823  48.138   4.792  1.00  0.00    +0.000 C 
ATOM     90  N9  UNL A   1      14.173  48.207   4.353  1.00  0.00    +0.000 N 
ATOM     91  C59 UNL A   1      16.321  47.799   8.712  1.00  0.00    +0.000 C 
ATOM     92  C60 UNL A   1      15.497  47.621   9.759  1.00  0.00    +0.000 C 
ATOM     93  C61 UNL A   1       8.502  49.398   5.807  1.00  0.00    +0.000 C 
ATOM     94  C62 UNL A   1       9.421  49.758   4.907  1.00  0.00    +0.000 C 
ENDROOT
BRANCH   38   37
ATOM     34  C21 UNL A   1      12.735  51.643   1.573  1.00  0.00    +0.000 C 
ATOM     35  C22 UNL A   1      13.031  52.130   2.855  1.00  0.00    +0.000 C 
ATOM     36  C23 UNL A   1      12.669  51.377   3.960  1.00  0.00    +0.000 C 
ATOM    131  H27 UNL A   1      13.511  53.036   2.974  1.00  0.00    +0.000 H 
ATOM    132  H28 UNL A   1      12.832  51.719   4.920  1.00  0.00    +0.000 H 
ATOM     37  C24 UNL A   1      12.079  50.144   3.722  1.00  0.00    +0.000 C 
ATOM    143  H39 UNL A   1      11.053  48.916   2.338  1.00  0.00    +0.000 H 
ATOM    144  H40 UNL A   1      11.312  50.496   0.505  1.00  0.00    +0.000 H 
ATOM     95  C63 UNL A   1      11.584  49.793   2.465  1.00  0.00    +0.000 C 
ATOM     96  C64 UNL A   1      11.810  50.623   1.400  1.00  0.00    +0.000 C 
BRANCH   34   32
ATOM     33  O7  UNL A   1      14.071  53.069   0.276  1.00  0.00    +0.000 O 
ATOM     32  C20 UNL A   1      13.758  51.912   0.537  1.00  0.00    +0.000 C 
BRANCH   32   31
ATOM    130  H26 UNL A   1      14.704  50.917  -0.935  1.00  0.00    +0.000 H 
ATOM     31  N5  UNL A   1      14.500  50.862   0.027  1.00  0.00    +0.000 N 
BRANCH   31   30
ATOM    129  H25 UNL A   1      14.418  49.528   1.576  1.00  0.00    +0.000 H 
ATOM     30  C19 UNL A   1      15.024  49.688   0.708  1.00  0.00    +0.000 C 
ATOM    128  H24 UNL A   1      16.047  49.870   0.962  1.00  0.00    +0.000 H 
BRANCH   30   29
ATOM     29  C18 UNL A   1      14.951  48.427  -0.133  1.00  0.00    +0.000 C 
ATOM    126  H22 UNL A   1      15.417  47.634   0.414  1.00  0.00    +0.000 H 
ATOM    127  H23 UNL A   1      13.914  48.248  -0.326  1.00  0.00    +0.000 H 
BRANCH   29   28
ATOM    124  H20 UNL A   1      14.879  48.711  -2.228  1.00  0.00    +0.000 H 
ATOM     28  C17 UNL A   1      15.637  48.537  -1.494  1.00  0.00    +0.000 C 
ATOM    125  H21 UNL A   1      16.344  49.334  -1.396  1.00  0.00    +0.000 H 
BRANCH   28   27
ATOM    122  H18 UNL A   1      16.104  46.468  -1.387  1.00  0.00    +0.000 H 
ATOM     27  C16 UNL A   1      16.452  47.314  -1.940  1.00  0.00    +0.000 C 
ATOM    123  H19 UNL A   1      16.301  47.235  -2.997  1.00  0.00    +0.000 H 
BRANCH   27   26
ATOM    121  H17 UNL A   1      18.374  46.470  -2.037  1.00  0.00    +0.000 H 
ATOM     26  C15 UNL A   1      17.965  47.414  -1.742  1.00  0.00    +0.000 C 
ATOM    120  H16 UNL A   1      18.153  47.648  -0.716  1.00  0.00    +0.000 H 
BRANCH   26   25
ATOM     25  C14 UNL A   1      18.642  48.470  -2.604  1.00  0.00    +0.000 C 
ATOM    118  H14 UNL A   1      19.442  48.007  -3.144  1.00  0.00    +0.000 H 
ATOM    119  H15 UNL A   1      17.896  48.873  -3.257  1.00  0.00    +0.000 H 
BRANCH   25   24
ATOM    117  H13 UNL A   1      19.976  49.367  -1.296  1.00  0.00    +0.000 H 
ATOM     24  N4  UNL A   1      19.181  49.569  -1.840  1.00  0.00    +0.000 N 
BRANCH   24   22
ATOM     22  C13 UNL A   1      18.725  50.856  -1.776  1.00  0.00    +0.000 C 
ATOM     23  O6  UNL A   1      18.928  51.583  -2.751  1.00  0.00    +0.000 O 
BRANCH   22   21
ATOM    115  H11 UNL A   1      17.380  50.725  -0.129  1.00  0.00    +0.000 H 
ATOM    116  H12 UNL A   1      18.913  51.596   0.186  1.00  0.00    +0.000 H 
ATOM     21  C12 UNL A   1      18.100  51.430  -0.490  1.00  0.00    +0.000 C 
BRANCH   21   20
ATOM    114  H10 UNL A   1      16.504  52.660  -0.958  1.00  0.00    +0.000 H 
ATOM     20  N3  UNL A   1      17.433  52.715  -0.641  1.00  0.00    +0.000 N 
BRANCH   20   18
ATOM     18  C11 UNL A   1      17.887  53.981  -0.416  1.00  0.00    +0.000 C 
ATOM     19  O5  UNL A   1      18.997  54.108   0.107  1.00  0.00    +0.000 O 
BRANCH   18   17
ATOM     17  C10 UNL A   1      17.050  55.216  -0.789  1.00  0.00    +0.000 C 
ATOM    113  H9  UNL A   1      16.336  54.886  -1.512  1.00  0.00    +0.000 H 
ATOM    112  H8  UNL A   1      17.716  55.967  -1.161  1.00  0.00    +0.000 H 
BRANCH   17   16
ATOM    111  H7  UNL A   1      15.304  55.713   0.211  1.00  0.00    +0.000 H 
ATOM     16  N2  UNL A   1      16.280  55.798   0.313  1.00  0.00    +0.000 N 
BRANCH   16   14
ATOM     14  C9  UNL A   1      16.673  56.444   1.469  1.00  0.00    +0.000 C 
ATOM     15  O4  UNL A   1      17.002  57.623   1.399  1.00  0.00    +0.000 O 
BRANCH   14   12
ATOM     12  C8  UNL A   1      16.698  55.695   2.820  1.00  0.00    +0.000 C 
ATOM     13  O3  UNL A   1      17.661  54.966   3.035  1.00  0.00    +0.000 O 
BRANCH   12   11
ATOM     97  C65 UNL A   1      14.228  55.810   3.553  1.00  0.00    +0.000 C 
ATOM     98  C66 UNL A   1      13.480  55.691   2.359  1.00  0.00    +0.000 C 
ATOM     99  C67 UNL A   1      12.087  55.661   2.402  1.00  0.00    +0.000 C 
ATOM    100  C68 UNL A   1      11.421  55.766   3.614  1.00  0.00    +0.000 C 
ATOM    101  C69 UNL A   1      12.126  55.914   4.812  1.00  0.00    +0.000 C 
ATOM    102  C70 UNL A   1      13.533  55.926   4.764  1.00  0.00    +0.000 C 
ATOM      9  N1  UNL A   1      14.499  55.998   5.745  1.00  0.00    +0.000 N 
ATOM     10  C6  UNL A   1      15.764  55.945   5.206  1.00  0.00    +0.000 C 
ATOM     11  C7  UNL A   1      15.642  55.820   3.833  1.00  0.00    +0.000 C 
ATOM    110  H6  UNL A   1      16.650  55.990   5.734  1.00  0.00    +0.000 H 
ATOM    145  H41 UNL A   1      13.969  55.626   1.452  1.00  0.00    +0.000 H 
ATOM    146  H42 UNL A   1      11.549  55.560   1.527  1.00  0.00    +0.000 H 
ATOM    147  H43 UNL A   1      10.390  55.736   3.632  1.00  0.00    +0.000 H 
ATOM    148  H44 UNL A   1      11.627  56.012   5.711  1.00  0.00    +0.000 H 
BRANCH    9    6
ATOM      6  S1  UNL A   1      14.176  56.034   7.419  1.00  0.00    +0.000 S 
ATOM      7  O1  UNL A   1      13.520  57.300   7.654  1.00  0.00    +0.000 O 
ATOM      8  O2  UNL A   1      15.432  55.682   8.068  1.00  0.00    +0.000 O 
BRANCH    6    5
ATOM      2  C2  UNL A   1      11.355  52.574   8.419  1.00  0.00    +0.000 C 
ATOM      3  C3  UNL A   1      12.526  52.373   7.678  1.00  0.00    +0.000 C 
ATOM      4  C4  UNL A   1      13.358  53.449   7.366  1.00  0.00    +0.000 C 
ATOM      5  C5  UNL A   1      13.016  54.742   7.784  1.00  0.00    +0.000 C 
ATOM    103  C71 UNL A   1      11.830  54.958   8.487  1.00  0.00    +0.000 C 
ATOM    104  C72 UNL A   1      11.011  53.873   8.812  1.00  0.00    +0.000 C 
ATOM    108  H4  UNL A   1      12.775  51.423   7.361  1.00  0.00    +0.000 H 
ATOM    109  H5  UNL A   1      14.224  53.293   6.828  1.00  0.00    +0.000 H 
ATOM    149  H45 UNL A   1      11.559  55.915   8.765  1.00  0.00    +0.000 H 
ATOM    150  H46 UNL A   1      10.143  54.030   9.348  1.00  0.00    +0.000 H 
BRANCH    2    1
ATOM      1  C1  UNL A   1      10.486  51.405   8.779  1.00  0.00    +0.000 C 
ATOM    106  H2  UNL A   1      10.420  50.738   7.945  1.00  0.00    +0.000 H 
ATOM    107  H3  UNL A   1       9.507  51.753   9.034  1.00  0.00    +0.000 H 
ATOM    105  H1  UNL A   1      10.910  50.889   9.615  1.00  0.00    +0.000 H 
ENDBRANCH    2    1
ENDBRANCH    6    5
ENDBRANCH    9    6
ENDBRANCH   12   11
ENDBRANCH   14   12
ENDBRANCH   16   14
ENDBRANCH   17   16
ENDBRANCH   18   17
ENDBRANCH   20   18
ENDBRANCH   21   20
ENDBRANCH   22   21
ENDBRANCH   24   22
ENDBRANCH   25   24
ENDBRANCH   26   25
ENDBRANCH   27   26
ENDBRANCH   28   27
ENDBRANCH   29   28
ENDBRANCH   30   29
ENDBRANCH   31   30
ENDBRANCH   32   31
ENDBRANCH   34   32
ENDBRANCH   38   37
BRANCH   42   43
ATOM     43  C29 UNL A   1       7.180  47.204   7.870  1.00  0.00    +0.000 C 
ATOM     44  C30 UNL A   1       6.258  47.957   8.635  1.00  0.00    +0.000 C 
ATOM     45  F1  UNL A   1       6.586  49.146   9.156  1.00  0.00    +0.000 F 
ATOM     46  C31 UNL A   1       4.957  47.523   8.894  1.00  0.00    +0.000 C 
ATOM     47  F2  UNL A   1       4.140  48.282   9.638  1.00  0.00    +0.000 F 
ATOM     48  C32 UNL A   1       4.512  46.316   8.399  1.00  0.00    +0.000 C 
ATOM     49  F3  UNL A   1       3.271  45.888   8.665  1.00  0.00    +0.000 F 
ATOM     50  C33 UNL A   1       5.356  45.572   7.601  1.00  0.00    +0.000 C 
ATOM     51  F4  UNL A   1       4.931  44.407   7.091  1.00  0.00    +0.000 F 
ATOM     52  C34 UNL A   1       6.648  46.026   7.311  1.00  0.00    +0.000 C 
ATOM     53  F5  UNL A   1       7.331  45.300   6.421  1.00  0.00    +0.000 F 
ENDBRANCH   42   43
BRANCH   59   60
ATOM     65  C43 UNL A   1      12.151  47.855  14.319  1.00  0.00    +0.000 C 
ATOM     66  F8  UNL A   1      11.878  47.982  15.624  1.00  0.00    +0.000 F 
ATOM     67  C44 UNL A   1      12.130  46.615  13.723  1.00  0.00    +0.000 C 
ATOM     68  F9  UNL A   1      11.786  45.532  14.434  1.00  0.00    +0.000 F 
ATOM     69  C45 UNL A   1      12.447  46.484  12.373  1.00  0.00    +0.000 C 
ATOM     70  F10 UNL A   1      12.431  45.228  11.903  1.00  0.00    +0.000 F 
ATOM     60  C40 UNL A   1      12.733  47.596  11.540  1.00  0.00    +0.000 C 
ATOM     61  C41 UNL A   1      12.668  48.845  12.178  1.00  0.00    +0.000 C 
ATOM     62  F6  UNL A   1      12.765  49.992  11.493  1.00  0.00    +0.000 F 
ATOM     63  C42 UNL A   1      12.431  48.967  13.550  1.00  0.00    +0.000 C 
ATOM     64  F7  UNL A   1      12.447  50.182  14.117  1.00  0.00    +0.000 F 
ENDBRANCH   59   60
BRANCH   74   75
ATOM     75  C49 UNL A   1      16.430  49.197   5.562  1.00  0.00    +0.000 C 
ATOM     76  C50 UNL A   1      17.187  48.999   4.388  1.00  0.00    +0.000 C 
ATOM     77  F11 UNL A   1      17.682  47.782   4.109  1.00  0.00    +0.000 F 
ATOM     78  C51 UNL A   1      17.310  50.003   3.429  1.00  0.00    +0.000 C 
ATOM     79  F12 UNL A   1      17.901  49.737   2.256  1.00  0.00    +0.000 F 
ATOM     80  C52 UNL A   1      16.741  51.244   3.655  1.00  0.00    +0.000 C 
ATOM     81  F13 UNL A   1      16.760  52.176   2.692  1.00  0.00    +0.000 F 
ATOM     82  C53 UNL A   1      16.116  51.503   4.867  1.00  0.00    +0.000 C 
ATOM     83  F14 UNL A   1      15.567  52.708   5.084  1.00  0.00    +0.000 F 
ATOM     84  C54 UNL A   1      15.962  50.491   5.818  1.00  0.00    +0.000 C 
ATOM     85  F15 UNL A   1      15.249  50.749   6.923  1.00  0.00    +0.000 F 
ENDBRANCH   74   75
TORSDOF 25
ENDMDL
MODEL 4
REMARK VINA RESULT:      -8.8      1.586      2.446
ROOT
ATOM    133  H29 UNL A   1      18.424  38.106  45.968  1.00  0.00    +0.000 H 
ATOM    134  H30 UNL A   1      20.059  36.933  44.279  1.00  0.00    +0.000 H 
ATOM    135  H31 UNL A   1      19.165  34.252  47.301  1.00  0.00    +0.000 H 
ATOM    136  H32 UNL A   1      22.816  38.252  44.841  1.00  0.00    +0.000 H 
ATOM    137  H33 UNL A   1      21.232  38.335  46.853  1.00  0.00    +0.000 H 
ATOM    138  H34 UNL A   1      25.148  38.156  48.212  1.00  0.00    +0.000 H 
ATOM    139  H35 UNL A   1      25.178  34.197  43.838  1.00  0.00    +0.000 H 
ATOM    140  H36 UNL A   1      22.913  33.063  43.379  1.00  0.00    +0.000 H 
ATOM    141  H37 UNL A   1      18.531  36.960  51.372  1.00  0.00    +0.000 H 
ATOM    142  H38 UNL A   1      20.987  37.614  51.769  1.00  0.00    +0.000 H 
ATOM     38  C25 UNL A   1      22.551  37.412  49.291  1.00  0.00    +0.000 C 
ATOM     39  C26 UNL A   1      21.156  37.062  49.584  1.00  0.00    +0.000 C 
ATOM     40  N6  UNL A   1      20.364  36.491  48.753  1.00  0.00    +0.000 N 
ATOM     41  C27 UNL A   1      19.094  36.563  49.286  1.00  0.00    +0.000 C 
ATOM     42  C28 UNL A   1      18.035  36.464  48.434  1.00  0.00    +0.000 C 
ATOM     54  C35 UNL A   1      18.528  36.253  47.074  1.00  0.00    +0.000 C 
ATOM     55  C36 UNL A   1      18.797  37.147  46.051  1.00  0.00    +0.000 C 
ATOM     56  C37 UNL A   1      19.673  36.512  45.137  1.00  0.00    +0.000 C 
ATOM     57  C38 UNL A   1      19.920  35.228  45.595  1.00  0.00    +0.000 C 
ATOM     58  N7  UNL A   1      19.199  35.077  46.764  1.00  0.00    +0.000 N 
ATOM     59  C39 UNL A   1      20.691  34.127  45.041  1.00  0.00    +0.000 C 
ATOM     71  C46 UNL A   1      22.027  34.381  44.900  1.00  0.00    +0.000 C 
ATOM     72  N8  UNL A   1      22.665  35.347  45.634  1.00  0.00    +0.000 N 
ATOM     73  C47 UNL A   1      23.926  35.379  45.300  1.00  0.00    +0.000 C 
ATOM     74  C48 UNL A   1      24.920  36.351  45.886  1.00  0.00    +0.000 C 
ATOM     86  C55 UNL A   1      24.326  37.510  46.301  1.00  0.00    +0.000 C 
ATOM     87  C56 UNL A   1      23.051  38.011  45.816  1.00  0.00    +0.000 C 
ATOM     88  C57 UNL A   1      22.237  38.100  46.882  1.00  0.00    +0.000 C 
ATOM     89  C58 UNL A   1      23.007  37.809  48.084  1.00  0.00    +0.000 C 
ATOM     90  N9  UNL A   1      24.366  37.894  47.675  1.00  0.00    +0.000 N 
ATOM     91  C59 UNL A   1      24.266  34.397  44.277  1.00  0.00    +0.000 C 
ATOM     92  C60 UNL A   1      23.071  33.820  44.063  1.00  0.00    +0.000 C 
ATOM     93  C61 UNL A   1      19.279  36.947  50.661  1.00  0.00    +0.000 C 
ATOM     94  C62 UNL A   1      20.550  37.284  50.895  1.00  0.00    +0.000 C 
ENDROOT
BRANCH   38   37
ATOM     34  C21 UNL A   1      24.671  37.512  52.824  1.00  0.00    +0.000 C 
ATOM     35  C22 UNL A   1      24.439  38.748  52.201  1.00  0.00    +0.000 C 
ATOM     36  C23 UNL A   1      23.833  38.768  50.956  1.00  0.00    +0.000 C 
ATOM    131  H27 UNL A   1      24.717  39.627  52.663  1.00  0.00    +0.000 H 
ATOM    132  H28 UNL A   1      23.682  39.653  50.447  1.00  0.00    +0.000 H 
ATOM     37  C24 UNL A   1      23.436  37.550  50.423  1.00  0.00    +0.000 C 
ATOM    143  H39 UNL A   1      23.664  35.448  50.464  1.00  0.00    +0.000 H 
ATOM    144  H40 UNL A   1      25.125  35.487  52.410  1.00  0.00    +0.000 H 
ATOM     95  C63 UNL A   1      23.886  36.335  50.943  1.00  0.00    +0.000 C 
ATOM     96  C64 UNL A   1      24.623  36.332  52.095  1.00  0.00    +0.000 C 
BRANCH   34   32
ATOM     33  O7  UNL A   1      25.343  37.988  55.021  1.00  0.00    +0.000 O 
ATOM     32  C20 UNL A   1      24.488  37.495  54.294  1.00  0.00    +0.000 C 
BRANCH   32   31
ATOM    130  H26 UNL A   1      23.197  36.175  55.096  1.00  0.00    +0.000 H 
ATOM     31  N5  UNL A   1      23.265  37.118  54.820  1.00  0.00    +0.000 N 
BRANCH   31   30
ATOM    129  H25 UNL A   1      22.215  38.850  54.526  1.00  0.00    +0.000 H 
ATOM     30  C19 UNL A   1      22.066  37.915  55.026  1.00  0.00    +0.000 C 
ATOM    128  H24 UNL A   1      21.918  38.043  56.078  1.00  0.00    +0.000 H 
BRANCH   30   29
ATOM     29  C18 UNL A   1      20.819  37.282  54.437  1.00  0.00    +0.000 C 
ATOM    126  H22 UNL A   1      21.017  37.044  53.412  1.00  0.00    +0.000 H 
ATOM    127  H23 UNL A   1      20.604  36.420  55.032  1.00  0.00    +0.000 H 
BRANCH   29   28
ATOM    124  H20 UNL A   1      19.218  38.291  53.489  1.00  0.00    +0.000 H 
ATOM     28  C17 UNL A   1      19.576  38.170  54.490  1.00  0.00    +0.000 C 
ATOM    125  H21 UNL A   1      18.893  37.670  55.143  1.00  0.00    +0.000 H 
BRANCH   28   27
ATOM    122  H18 UNL A   1      19.187  39.629  55.984  1.00  0.00    +0.000 H 
ATOM     27  C16 UNL A   1      19.772  39.570  55.090  1.00  0.00    +0.000 C 
ATOM    123  H19 UNL A   1      20.825  39.672  55.253  1.00  0.00    +0.000 H 
BRANCH   27   26
ATOM    121  H17 UNL A   1      20.268  41.304  54.011  1.00  0.00    +0.000 H 
ATOM     26  C15 UNL A   1      19.375  40.741  54.192  1.00  0.00    +0.000 C 
ATOM    120  H16 UNL A   1      18.620  41.308  54.693  1.00  0.00    +0.000 H 
BRANCH   26   25
ATOM     25  C14 UNL A   1      18.837  40.332  52.828  1.00  0.00    +0.000 C 
ATOM    118  H14 UNL A   1      18.615  39.285  52.851  1.00  0.00    +0.000 H 
ATOM    119  H15 UNL A   1      17.966  40.924  52.640  1.00  0.00    +0.000 H 
BRANCH   25   24
ATOM    117  H13 UNL A   1      20.590  40.044  51.761  1.00  0.00    +0.000 H 
ATOM     24  N4  UNL A   1      19.766  40.581  51.751  1.00  0.00    +0.000 N 
BRANCH   24   22
ATOM     22  C13 UNL A   1      19.643  41.469  50.720  1.00  0.00    +0.000 C 
ATOM     23  O6  UNL A   1      19.152  41.057  49.666  1.00  0.00    +0.000 O 
BRANCH   22   21
ATOM    115  H11 UNL A   1      19.955  43.297  51.769  1.00  0.00    +0.000 H 
ATOM    116  H12 UNL A   1      21.269  42.805  50.655  1.00  0.00    +0.000 H 
ATOM     21  C12 UNL A   1      20.214  42.898  50.810  1.00  0.00    +0.000 C 
BRANCH   21   20
ATOM    114  H10 UNL A   1      18.967  44.371  50.066  1.00  0.00    +0.000 H 
ATOM     20  N3  UNL A   1      19.738  43.824  49.794  1.00  0.00    +0.000 N 
BRANCH   20   18
ATOM     18  C11 UNL A   1      20.185  44.057  48.527  1.00  0.00    +0.000 C 
ATOM     19  O5  UNL A   1      21.076  43.324  48.090  1.00  0.00    +0.000 O 
BRANCH   18   17
ATOM     17  C10 UNL A   1      19.613  45.195  47.666  1.00  0.00    +0.000 C 
ATOM    113  H9  UNL A   1      18.964  45.756  48.304  1.00  0.00    +0.000 H 
ATOM    112  H8  UNL A   1      19.111  44.757  46.828  1.00  0.00    +0.000 H 
BRANCH   17   16
ATOM    111  H7  UNL A   1      20.423  47.082  47.388  1.00  0.00    +0.000 H 
ATOM     16  N2  UNL A   1      20.607  46.143  47.155  1.00  0.00    +0.000 N 
BRANCH   16   14
ATOM     14  C9  UNL A   1      21.752  45.960  46.405  1.00  0.00    +0.000 C 
ATOM     15  O4  UNL A   1      21.641  45.542  45.258  1.00  0.00    +0.000 O 
BRANCH   14   12
ATOM     12  C8  UNL A   1      23.142  46.273  47.002  1.00  0.00    +0.000 C 
ATOM     13  O3  UNL A   1      23.726  47.261  46.568  1.00  0.00    +0.000 O 
BRANCH   12   11
ATOM     97  C65 UNL A   1      23.471  45.538  49.453  1.00  0.00    +0.000 C 
ATOM     98  C66 UNL A   1      22.572  46.331  50.202  1.00  0.00    +0.000 C 
ATOM     99  C67 UNL A   1      22.454  46.150  51.579  1.00  0.00    +0.000 C 
ATOM    100  C68 UNL A   1      23.230  45.202  52.230  1.00  0.00    +0.000 C 
ATOM    101  C69 UNL A   1      24.150  44.420  51.526  1.00  0.00    +0.000 C 
ATOM    102  C70 UNL A   1      24.252  44.596  50.134  1.00  0.00    +0.000 C 
ATOM      9  N1  UNL A   1      25.001  43.961  49.166  1.00  0.00    +0.000 N 
ATOM     10  C6  UNL A   1      24.736  44.468  47.914  1.00  0.00    +0.000 C 
ATOM     11  C7  UNL A   1      23.776  45.457  48.046  1.00  0.00    +0.000 C 
ATOM    110  H6  UNL A   1      25.175  44.165  47.031  1.00  0.00    +0.000 H 
ATOM    145  H41 UNL A   1      22.001  47.048  49.726  1.00  0.00    +0.000 H 
ATOM    146  H42 UNL A   1      21.785  46.724  52.117  1.00  0.00    +0.000 H 
ATOM    147  H43 UNL A   1      23.128  45.073  53.248  1.00  0.00    +0.000 H 
ATOM    148  H44 UNL A   1      24.740  43.728  52.016  1.00  0.00    +0.000 H 
BRANCH    9    6
ATOM      6  S1  UNL A   1      26.040  42.640  49.458  1.00  0.00    +0.000 S 
ATOM      7  O1  UNL A   1      25.195  41.606  50.011  1.00  0.00    +0.000 O 
ATOM      8  O2  UNL A   1      27.172  43.187  50.194  1.00  0.00    +0.000 O 
BRANCH    6    5
ATOM      2  C2  UNL A   1      27.829  41.160  45.517  1.00  0.00    +0.000 C 
ATOM      3  C3  UNL A   1      28.412  42.209  46.237  1.00  0.00    +0.000 C 
ATOM      4  C4  UNL A   1      27.834  42.657  47.426  1.00  0.00    +0.000 C 
ATOM      5  C5  UNL A   1      26.655  42.066  47.896  1.00  0.00    +0.000 C 
ATOM    103  C71 UNL A   1      26.043  41.048  47.163  1.00  0.00    +0.000 C 
ATOM    104  C72 UNL A   1      26.638  40.591  45.984  1.00  0.00    +0.000 C 
ATOM    108  H4  UNL A   1      29.276  42.653  45.888  1.00  0.00    +0.000 H 
ATOM    109  H5  UNL A   1      28.274  43.425  47.957  1.00  0.00    +0.000 H 
ATOM    149  H45 UNL A   1      25.155  40.635  47.491  1.00  0.00    +0.000 H 
ATOM    150  H46 UNL A   1      26.195  39.825  45.452  1.00  0.00    +0.000 H 
BRANCH    2    1
ATOM      1  C1  UNL A   1      28.478  40.662  44.259  1.00  0.00    +0.000 C 
ATOM    106  H2  UNL A   1      27.733  40.253  43.610  1.00  0.00    +0.000 H 
ATOM    107  H3  UNL A   1      29.194  39.904  44.503  1.00  0.00    +0.000 H 
ATOM    105  H1  UNL A   1      28.973  41.474  43.767  1.00  0.00    +0.000 H 
ENDBRANCH    2    1
ENDBRANCH    6    5
ENDBRANCH    9    6
ENDBRANCH   12   11
ENDBRANCH   14   12
ENDBRANCH   16   14
ENDBRANCH   17   16
ENDBRANCH   18   17
ENDBRANCH   20   18
ENDBRANCH   21   20
ENDBRANCH   22   21
ENDBRANCH   24   22
ENDBRANCH   25   24
ENDBRANCH   26   25
ENDBRANCH   27   26
ENDBRANCH   28   27
ENDBRANCH   29   28
ENDBRANCH   30   29
ENDBRANCH   31   30
ENDBRANCH   32   31
ENDBRANCH   34   32
ENDBRANCH   38   37
BRANCH   42   43
ATOM     43  C29 UNL A   1      16.612  36.877  48.738  1.00  0.00    +0.000 C 
ATOM     44  C30 UNL A   1      16.362  37.900  49.682  1.00  0.00    +0.000 C 
ATOM     45  F1  UNL A   1      17.358  38.606  50.232  1.00  0.00    +0.000 F 
ATOM     46  C31 UNL A   1      15.075  38.246  50.100  1.00  0.00    +0.000 C 
ATOM     47  F2  UNL A   1      14.912  39.218  51.008  1.00  0.00    +0.000 F 
ATOM     48  C32 UNL A   1      13.976  37.588  49.592  1.00  0.00    +0.000 C 
ATOM     49  F3  UNL A   1      12.743  37.903  50.009  1.00  0.00    +0.000 F 
ATOM     50  C33 UNL A   1      14.166  36.620  48.628  1.00  0.00    +0.000 C 
ATOM     51  F4  UNL A   1      13.106  35.987  48.106  1.00  0.00    +0.000 F 
ATOM     52  C34 UNL A   1      15.454  36.300  48.183  1.00  0.00    +0.000 C 
ATOM     53  F5  UNL A   1      15.516  35.452  47.152  1.00  0.00    +0.000 F 
ENDBRANCH   42   43
BRANCH   59   60
ATOM     65  C43 UNL A   1      18.393  30.640  43.785  1.00  0.00    +0.000 C 
ATOM     66  F8  UNL A   1      17.660  29.581  43.417  1.00  0.00    +0.000 F 
ATOM     67  C44 UNL A   1      18.093  31.893  43.300  1.00  0.00    +0.000 C 
ATOM     68  F9  UNL A   1      17.035  32.069  42.497  1.00  0.00    +0.000 F 
ATOM     69  C45 UNL A   1      18.879  32.986  43.658  1.00  0.00    +0.000 C 
ATOM     70  F10 UNL A   1      18.522  34.152  43.101  1.00  0.00    +0.000 F 
ATOM     60  C40 UNL A   1      19.959  32.888  44.573  1.00  0.00    +0.000 C 
ATOM     61  C41 UNL A   1      20.176  31.603  45.097  1.00  0.00    +0.000 C 
ATOM     62  F6  UNL A   1      21.059  31.383  46.080  1.00  0.00    +0.000 F 
ATOM     63  C42 UNL A   1      19.440  30.494  44.672  1.00  0.00    +0.000 C 
ATOM     64  F7  UNL A   1      19.737  29.279  45.158  1.00  0.00    +0.000 F 
ENDBRANCH   59   60
BRANCH   74   75
ATOM     75  C49 UNL A   1      26.100  35.991  46.723  1.00  0.00    +0.000 C 
ATOM     76  C50 UNL A   1      27.267  36.769  46.566  1.00  0.00    +0.000 C 
ATOM     77  F11 UNL A   1      27.466  37.452  45.426  1.00  0.00    +0.000 F 
ATOM     78  C51 UNL A   1      28.152  36.968  47.623  1.00  0.00    +0.000 C 
ATOM     79  F12 UNL A   1      29.166  37.835  47.492  1.00  0.00    +0.000 F 
ATOM     80  C52 UNL A   1      27.929  36.339  48.836  1.00  0.00    +0.000 C 
ATOM     81  F13 UNL A   1      28.712  36.612  49.888  1.00  0.00    +0.000 F 
ATOM     82  C53 UNL A   1      26.866  35.455  48.965  1.00  0.00    +0.000 C 
ATOM     83  F14 UNL A   1      26.653  34.845  50.142  1.00  0.00    +0.000 F 
ATOM     84  C54 UNL A   1      25.958  35.277  47.919  1.00  0.00    +0.000 C 
ATOM     85  F15 UNL A   1      24.879  34.508  48.126  1.00  0.00    +0.000 F 
ENDBRANCH   74   75
TORSDOF 25
ENDMDL
MODEL 5
REMARK VINA RESULT:      -8.8     42.149     47.906
ROOT
ATOM    133  H29 UNL A   1      18.711  15.324   7.258  1.00  0.00    +0.000 H 
ATOM    134  H30 UNL A   1      21.295  14.852   7.340  1.00  0.00    +0.000 H 
ATOM    135  H31 UNL A   1      20.598  18.582   8.990  1.00  0.00    +0.000 H 
ATOM    136  H32 UNL A   1      22.227  15.175   4.394  1.00  0.00    +0.000 H 
ATOM    137  H33 UNL A   1      20.095  16.493   4.925  1.00  0.00    +0.000 H 
ATOM    138  H34 UNL A   1      22.225  18.486   1.974  1.00  0.00    +0.000 H 
ATOM    139  H35 UNL A   1      26.495  16.916   5.732  1.00  0.00    +0.000 H 
ATOM    140  H36 UNL A   1      25.753  16.678   8.186  1.00  0.00    +0.000 H 
ATOM    141  H37 UNL A   1      16.721  20.432   6.571  1.00  0.00    +0.000 H 
ATOM    142  H38 UNL A   1      17.878  20.906   4.322  1.00  0.00    +0.000 H 
ATOM     38  C25 UNL A   1      20.290  19.260   4.004  1.00  0.00    +0.000 C 
ATOM     39  C26 UNL A   1      19.365  19.410   5.134  1.00  0.00    +0.000 C 
ATOM     40  N6  UNL A   1      19.529  18.861   6.281  1.00  0.00    +0.000 N 
ATOM     41  C27 UNL A   1      18.350  19.016   6.979  1.00  0.00    +0.000 C 
ATOM     42  C28 UNL A   1      18.092  18.151   8.000  1.00  0.00    +0.000 C 
ATOM     54  C35 UNL A   1      19.215  17.228   8.146  1.00  0.00    +0.000 C 
ATOM     55  C36 UNL A   1      19.434  15.965   7.621  1.00  0.00    +0.000 C 
ATOM     56  C37 UNL A   1      20.826  15.708   7.673  1.00  0.00    +0.000 C 
ATOM     57  C38 UNL A   1      21.448  16.805   8.246  1.00  0.00    +0.000 C 
ATOM     58  N7  UNL A   1      20.452  17.714   8.549  1.00  0.00    +0.000 N 
ATOM     59  C39 UNL A   1      22.835  17.070   8.591  1.00  0.00    +0.000 C 
ATOM     71  C46 UNL A   1      23.695  17.084   7.528  1.00  0.00    +0.000 C 
ATOM     72  N8  UNL A   1      23.264  17.317   6.248  1.00  0.00    +0.000 N 
ATOM     73  C47 UNL A   1      24.283  17.270   5.434  1.00  0.00    +0.000 C 
ATOM     74  C48 UNL A   1      24.168  17.447   3.941  1.00  0.00    +0.000 C 
ATOM     86  C55 UNL A   1      22.942  17.073   3.469  1.00  0.00    +0.000 C 
ATOM     87  C56 UNL A   1      22.035  16.158   4.143  1.00  0.00    +0.000 C 
ATOM     88  C57 UNL A   1      20.899  16.837   4.377  1.00  0.00    +0.000 C 
ATOM     89  C58 UNL A   1      20.991  18.139   3.729  1.00  0.00    +0.000 C 
ATOM     90  N9  UNL A   1      22.088  18.023   2.832  1.00  0.00    +0.000 N 
ATOM     91  C59 UNL A   1      25.541  16.998   6.120  1.00  0.00    +0.000 C 
ATOM     92  C60 UNL A   1      25.126  16.885   7.393  1.00  0.00    +0.000 C 
ATOM     93  C61 UNL A   1      17.596  19.996   6.241  1.00  0.00    +0.000 C 
ATOM     94  C62 UNL A   1      18.182  20.264   5.071  1.00  0.00    +0.000 C 
ENDROOT
BRANCH   38   37
ATOM     34  C21 UNL A   1      20.013  22.579   1.577  1.00  0.00    +0.000 C 
ATOM     35  C22 UNL A   1      19.386  21.413   1.112  1.00  0.00    +0.000 C 
ATOM     36  C23 UNL A   1      19.541  20.236   1.828  1.00  0.00    +0.000 C 
ATOM    131  H27 UNL A   1      18.820  21.430   0.250  1.00  0.00    +0.000 H 
ATOM    132  H28 UNL A   1      19.131  19.349   1.497  1.00  0.00    +0.000 H 
ATOM     37  C24 UNL A   1      20.269  20.302   3.007  1.00  0.00    +0.000 C 
ATOM    143  H39 UNL A   1      21.687  21.380   4.148  1.00  0.00    +0.000 H 
ATOM    144  H40 UNL A   1      21.735  23.260   2.602  1.00  0.00    +0.000 H 
ATOM     95  C63 UNL A   1      21.071  21.401   3.319  1.00  0.00    +0.000 C 
ATOM     96  C64 UNL A   1      21.033  22.508   2.515  1.00  0.00    +0.000 C 
BRANCH   34   32
ATOM     33  O7  UNL A   1      19.710  24.895   1.789  1.00  0.00    +0.000 O 
ATOM     32  C20 UNL A   1      19.242  23.831   1.400  1.00  0.00    +0.000 C 
BRANCH   32   31
ATOM    130  H26 UNL A   1      18.236  24.105  -0.322  1.00  0.00    +0.000 H 
ATOM     31  N5  UNL A   1      18.105  23.822   0.612  1.00  0.00    +0.000 N 
BRANCH   31   30
ATOM    129  H25 UNL A   1      16.138  24.331   0.865  1.00  0.00    +0.000 H 
ATOM     30  C19 UNL A   1      16.742  23.452   0.966  1.00  0.00    +0.000 C 
ATOM    128  H24 UNL A   1      16.741  23.077   1.968  1.00  0.00    +0.000 H 
BRANCH   30   29
ATOM     29  C18 UNL A   1      16.154  22.393   0.052  1.00  0.00    +0.000 C 
ATOM    126  H22 UNL A   1      16.954  21.946  -0.501  1.00  0.00    +0.000 H 
ATOM    127  H23 UNL A   1      15.642  21.696   0.682  1.00  0.00    +0.000 H 
BRANCH   29   28
ATOM    124  H20 UNL A   1      14.239  22.326  -0.845  1.00  0.00    +0.000 H 
ATOM     28  C17 UNL A   1      15.122  22.922  -0.943  1.00  0.00    +0.000 C 
ATOM    125  H21 UNL A   1      14.986  23.953  -0.695  1.00  0.00    +0.000 H 
BRANCH   28   27
ATOM    122  H18 UNL A   1      15.573  21.885  -2.741  1.00  0.00    +0.000 H 
ATOM     27  C16 UNL A   1      15.539  22.905  -2.421  1.00  0.00    +0.000 C 
ATOM    123  H19 UNL A   1      14.811  23.497  -2.935  1.00  0.00    +0.000 H 
BRANCH   27   26
ATOM    121  H17 UNL A   1      17.219  24.026  -1.841  1.00  0.00    +0.000 H 
ATOM     26  C15 UNL A   1      16.892  23.542  -2.738  1.00  0.00    +0.000 C 
ATOM    120  H16 UNL A   1      16.759  24.221  -3.554  1.00  0.00    +0.000 H 
BRANCH   26   25
ATOM     25  C14 UNL A   1      17.980  22.548  -3.118  1.00  0.00    +0.000 C 
ATOM    118  H14 UNL A   1      17.608  21.558  -2.954  1.00  0.00    +0.000 H 
ATOM    119  H15 UNL A   1      18.225  22.722  -4.144  1.00  0.00    +0.000 H 
BRANCH   25   24
ATOM    117  H13 UNL A   1      19.078  22.849  -1.386  1.00  0.00    +0.000 H 
ATOM     24  N4  UNL A   1      19.194  22.713  -2.354  1.00  0.00    +0.000 N 
BRANCH   24   22
ATOM     22  C13 UNL A   1      20.482  22.704  -2.807  1.00  0.00    +0.000 C 
ATOM     23  O6  UNL A   1      20.942  21.629  -3.202  1.00  0.00    +0.000 O 
BRANCH   22   21
ATOM    115  H11 UNL A   1      22.398  23.636  -2.840  1.00  0.00    +0.000 H 
ATOM    116  H12 UNL A   1      21.041  24.623  -3.467  1.00  0.00    +0.000 H 
ATOM     21  C12 UNL A   1      21.384  23.950  -2.708  1.00  0.00    +0.000 C 
BRANCH   21   20
ATOM    114  H10 UNL A   1      21.612  24.183  -0.665  1.00  0.00    +0.000 H 
ATOM     20  N3  UNL A   1      21.300  24.682  -1.453  1.00  0.00    +0.000 N 
BRANCH   20   18
ATOM     18  C11 UNL A   1      20.859  25.946  -1.192  1.00  0.00    +0.000 C 
ATOM     19  O5  UNL A   1      21.646  26.727  -0.651  1.00  0.00    +0.000 O 
BRANCH   18   17
ATOM     17  C10 UNL A   1      19.431  26.392  -1.547  1.00  0.00    +0.000 C 
ATOM    113  H9  UNL A   1      18.999  26.762  -0.642  1.00  0.00    +0.000 H 
ATOM    112  H8  UNL A   1      18.911  25.549  -1.952  1.00  0.00    +0.000 H 
BRANCH   17   16
ATOM    111  H7  UNL A   1      19.747  27.276  -3.394  1.00  0.00    +0.000 H 
ATOM     16  N2  UNL A   1      19.348  27.486  -2.519  1.00  0.00    +0.000 N 
BRANCH   16   14
ATOM     14  C9  UNL A   1      18.814  28.756  -2.430  1.00  0.00    +0.000 C 
ATOM     15  O4  UNL A   1      18.532  29.347  -3.467  1.00  0.00    +0.000 O 
BRANCH   14   12
ATOM     12  C8  UNL A   1      18.580  29.418  -1.055  1.00  0.00    +0.000 C 
ATOM     13  O3  UNL A   1      19.517  29.405  -0.262  1.00  0.00    +0.000 O 
BRANCH   12   11
ATOM     97  C65 UNL A   1      17.184  31.123   0.287  1.00  0.00    +0.000 C 
ATOM     98  C66 UNL A   1      18.122  31.837   1.067  1.00  0.00    +0.000 C 
ATOM     99  C67 UNL A   1      17.703  32.888   1.883  1.00  0.00    +0.000 C 
ATOM    100  C68 UNL A   1      16.360  33.229   1.950  1.00  0.00    +0.000 C 
ATOM    101  C69 UNL A   1      15.402  32.527   1.215  1.00  0.00    +0.000 C 
ATOM    102  C70 UNL A   1      15.833  31.479   0.380  1.00  0.00    +0.000 C 
ATOM      9  N1  UNL A   1      15.166  30.648  -0.495  1.00  0.00    +0.000 N 
ATOM     10  C6  UNL A   1      16.031  29.782  -1.122  1.00  0.00    +0.000 C 
ATOM     11  C7  UNL A   1      17.311  30.049  -0.667  1.00  0.00    +0.000 C 
ATOM    110  H6  UNL A   1      15.773  29.060  -1.812  1.00  0.00    +0.000 H 
ATOM    145  H41 UNL A   1      19.121  31.579   1.032  1.00  0.00    +0.000 H 
ATOM    146  H42 UNL A   1      18.396  33.413   2.440  1.00  0.00    +0.000 H 
ATOM    147  H43 UNL A   1      16.065  34.012   2.553  1.00  0.00    +0.000 H 
ATOM    148  H44 UNL A   1      14.400  32.770   1.282  1.00  0.00    +0.000 H 
BRANCH    9    6
ATOM      6  S1  UNL A   1      13.499  30.751  -0.845  1.00  0.00    +0.000 S 
ATOM      7  O1  UNL A   1      13.302  29.917  -2.008  1.00  0.00    +0.000 O 
ATOM      8  O2  UNL A   1      13.187  32.174  -0.853  1.00  0.00    +0.000 O 
BRANCH    6    5
ATOM      2  C2  UNL A   1      11.045  29.036   2.613  1.00  0.00    +0.000 C 
ATOM      3  C3  UNL A   1      11.286  30.409   2.498  1.00  0.00    +0.000 C 
ATOM      4  C4  UNL A   1      12.058  30.906   1.447  1.00  0.00    +0.000 C 
ATOM      5  C5  UNL A   1      12.607  30.025   0.506  1.00  0.00    +0.000 C 
ATOM    103  C71 UNL A   1      12.407  28.650   0.636  1.00  0.00    +0.000 C 
ATOM    104  C72 UNL A   1      11.617  28.162   1.681  1.00  0.00    +0.000 C 
ATOM    108  H4  UNL A   1      10.890  31.060   3.196  1.00  0.00    +0.000 H 
ATOM    109  H5  UNL A   1      12.224  31.921   1.362  1.00  0.00    +0.000 H 
ATOM    149  H45 UNL A   1      12.839  27.997  -0.037  1.00  0.00    +0.000 H 
ATOM    150  H46 UNL A   1      11.453  27.146   1.766  1.00  0.00    +0.000 H 
BRANCH    2    1
ATOM      1  C1  UNL A   1      10.184  28.516   3.728  1.00  0.00    +0.000 C 
ATOM    106  H2  UNL A   1       9.163  28.772   3.540  1.00  0.00    +0.000 H 
ATOM    107  H3  UNL A   1      10.497  28.953   4.654  1.00  0.00    +0.000 H 
ATOM    105  H1  UNL A   1      10.281  27.451   3.786  1.00  0.00    +0.000 H 
ENDBRANCH    2    1
ENDBRANCH    6    5
ENDBRANCH    9    6
ENDBRANCH   12   11
ENDBRANCH   14   12
ENDBRANCH   16   14
ENDBRANCH   17   16
ENDBRANCH   18   17
ENDBRANCH   20   18
ENDBRANCH   21   20
ENDBRANCH   22   21
ENDBRANCH   24   22
ENDBRANCH   25   24
ENDBRANCH   26   25
ENDBRANCH   27   26
ENDBRANCH   28   27
ENDBRANCH   29   28
ENDBRANCH   30   29
ENDBRANCH   31   30
ENDBRANCH   32   31
ENDBRANCH   34   32
ENDBRANCH   38   37
BRANCH   42   43
ATOM     43  C29 UNL A   1      16.740  17.909   8.634  1.00  0.00    +0.000 C 
ATOM     44  C30 UNL A   1      16.436  18.488   9.888  1.00  0.00    +0.000 C 
ATOM     45  F1  UNL A   1      17.269  19.351  10.483  1.00  0.00    +0.000 F 
ATOM     46  C31 UNL A   1      15.259  18.209  10.586  1.00  0.00    +0.000 C 
ATOM     47  F2  UNL A   1      15.041  18.784  11.777  1.00  0.00    +0.000 F 
ATOM     48  C32 UNL A   1      14.327  17.339  10.062  1.00  0.00    +0.000 C 
ATOM     49  F3  UNL A   1      13.208  17.053  10.740  1.00  0.00    +0.000 F 
ATOM     50  C33 UNL A   1      14.553  16.793   8.816  1.00  0.00    +0.000 C 
ATOM     51  F4  UNL A   1      13.645  15.963   8.281  1.00  0.00    +0.000 F 
ATOM     52  C34 UNL A   1      15.716  17.103   8.101  1.00  0.00    +0.000 C 
ATOM     53  F5  UNL A   1      15.771  16.631   6.853  1.00  0.00    +0.000 F 
ENDBRANCH   42   43
BRANCH   59   60
ATOM     65  C43 UNL A   1      24.139  17.446  12.736  1.00  0.00    +0.000 C 
ATOM     66  F8  UNL A   1      24.572  17.565  13.998  1.00  0.00    +0.000 F 
ATOM     67  C44 UNL A   1      24.154  18.533  11.892  1.00  0.00    +0.000 C 
ATOM     68  F9  UNL A   1      24.651  19.704  12.312  1.00  0.00    +0.000 F 
ATOM     69  C45 UNL A   1      23.671  18.412  10.590  1.00  0.00    +0.000 C 
ATOM     70  F10 UNL A   1      23.699  19.540   9.865  1.00  0.00    +0.000 F 
ATOM     60  C40 UNL A   1      23.214  17.181  10.052  1.00  0.00    +0.000 C 
ATOM     61  C41 UNL A   1      23.289  16.088  10.929  1.00  0.00    +0.000 C 
ATOM     62  F6  UNL A   1      23.036  14.838  10.519  1.00  0.00    +0.000 F 
ATOM     63  C42 UNL A   1      23.696  16.229  12.259  1.00  0.00    +0.000 C 
ATOM     64  F7  UNL A   1      23.682  15.160  13.069  1.00  0.00    +0.000 F 
ENDBRANCH   59   60
BRANCH   74   75
ATOM     75  C49 UNL A   1      24.761  18.562   3.148  1.00  0.00    +0.000 C 
ATOM     76  C50 UNL A   1      24.699  19.858   3.705  1.00  0.00    +0.000 C 
ATOM     77  F11 UNL A   1      23.764  20.145   4.626  1.00  0.00    +0.000 F 
ATOM     78  C51 UNL A   1      25.679  20.810   3.434  1.00  0.00    +0.000 C 
ATOM     79  F12 UNL A   1      25.680  21.975   4.097  1.00  0.00    +0.000 F 
ATOM     80  C52 UNL A   1      26.701  20.513   2.549  1.00  0.00    +0.000 C 
ATOM     81  F13 UNL A   1      27.705  21.382   2.369  1.00  0.00    +0.000 F 
ATOM     82  C53 UNL A   1      26.699  19.297   1.881  1.00  0.00    +0.000 C 
ATOM     83  F14 UNL A   1      27.690  19.013   1.022  1.00  0.00    +0.000 F 
ATOM     84  C54 UNL A   1      25.737  18.327   2.173  1.00  0.00    +0.000 C 
ATOM     85  F15 UNL A   1      25.840  17.122   1.593  1.00  0.00    +0.000 F 
ENDBRANCH   74   75
TORSDOF 25
ENDMDL
MODEL 6
REMARK VINA RESULT:      -8.8     55.806     61.530
ROOT
ATOM    133  H29 UNL A   1      28.576  26.147  -7.662  1.00  0.00    +0.000 H 
ATOM    134  H30 UNL A   1      26.418  27.610  -7.985  1.00  0.00    +0.000 H 
ATOM    135  H31 UNL A   1      25.363  24.160  -5.958  1.00  0.00    +0.000 H 
ATOM    136  H32 UNL A   1      25.725  27.299 -10.998  1.00  0.00    +0.000 H 
ATOM    137  H33 UNL A   1      27.069  25.326 -10.066  1.00  0.00    +0.000 H 
ATOM    138  H34 UNL A   1      24.606  23.971 -13.118  1.00  0.00    +0.000 H 
ATOM    139  H35 UNL A   1      21.012  27.582 -10.143  1.00  0.00    +0.000 H 
ATOM    140  H36 UNL A   1      21.543  27.827  -7.636  1.00  0.00    +0.000 H 
ATOM    141  H37 UNL A   1      28.358  20.627  -7.645  1.00  0.00    +0.000 H 
ATOM    142  H38 UNL A   1      27.332  20.359  -9.990  1.00  0.00    +0.000 H 
ATOM     38  C25 UNL A   1      25.849  22.768 -10.778  1.00  0.00    +0.000 C 
ATOM     39  C26 UNL A   1      26.516  22.414  -9.521  1.00  0.00    +0.000 C 
ATOM     40  N6  UNL A   1      26.481  23.129  -8.456  1.00  0.00    +0.000 N 
ATOM     41  C27 UNL A   1      27.420  22.612  -7.588  1.00  0.00    +0.000 C 
ATOM     42  C28 UNL A   1      27.909  23.430  -6.614  1.00  0.00    +0.000 C 
ATOM     54  C35 UNL A   1      27.254  24.733  -6.703  1.00  0.00    +0.000 C 
ATOM     55  C36 UNL A   1      27.623  25.899  -7.354  1.00  0.00    +0.000 C 
ATOM     56  C37 UNL A   1      26.460  26.689  -7.522  1.00  0.00    +0.000 C 
ATOM     57  C38 UNL A   1      25.391  26.014  -6.956  1.00  0.00    +0.000 C 
ATOM     58  N7  UNL A   1      25.894  24.834  -6.442  1.00  0.00    +0.000 N 
ATOM     59  C39 UNL A   1      23.991  26.368  -6.791  1.00  0.00    +0.000 C 
ATOM     71  C46 UNL A   1      23.309  26.557  -7.960  1.00  0.00    +0.000 C 
ATOM     72  N8  UNL A   1      23.729  26.006  -9.144  1.00  0.00    +0.000 N 
ATOM     73  C47 UNL A   1      22.901  26.346 -10.094  1.00  0.00    +0.000 C 
ATOM     74  C48 UNL A   1      23.078  25.943 -11.537  1.00  0.00    +0.000 C 
ATOM     86  C55 UNL A   1      24.390  25.736 -11.859  1.00  0.00    +0.000 C 
ATOM     87  C56 UNL A   1      25.522  26.297 -11.139  1.00  0.00    +0.000 C 
ATOM     88  C57 UNL A   1      26.251  25.260 -10.693  1.00  0.00    +0.000 C 
ATOM     89  C58 UNL A   1      25.698  24.029 -11.240  1.00  0.00    +0.000 C 
ATOM     90  N9  UNL A   1      24.837  24.451 -12.290  1.00  0.00    +0.000 N 
ATOM     91  C59 UNL A   1      21.805  27.181  -9.619  1.00  0.00    +0.000 C 
ATOM     92  C60 UNL A   1      22.105  27.286  -8.313  1.00  0.00    +0.000 C 
ATOM     93  C61 UNL A   1      27.774  21.326  -8.130  1.00  0.00    +0.000 C 
ATOM     94  C62 UNL A   1      27.246  21.160  -9.346  1.00  0.00    +0.000 C 
ENDROOT
BRANCH   38   37
ATOM     34  C21 UNL A   1      25.073  19.313 -12.887  1.00  0.00    +0.000 C 
ATOM     35  C22 UNL A   1      26.011  20.191 -13.452  1.00  0.00    +0.000 C 
ATOM     36  C23 UNL A   1      26.230  21.419 -12.849  1.00  0.00    +0.000 C 
ATOM    131  H27 UNL A   1      26.530  19.926 -14.303  1.00  0.00    +0.000 H 
ATOM    132  H28 UNL A   1      26.881  22.108 -13.255  1.00  0.00    +0.000 H 
ATOM     37  C24 UNL A   1      25.537  21.682 -11.675  1.00  0.00    +0.000 C 
ATOM    143  H39 UNL A   1      23.884  21.187 -10.454  1.00  0.00    +0.000 H 
ATOM    144  H40 UNL A   1      23.246  19.276 -11.820  1.00  0.00    +0.000 H 
ATOM     95  C63 UNL A   1      24.449  20.907 -11.271  1.00  0.00    +0.000 C 
ATOM     96  C64 UNL A   1      24.139  19.772 -11.969  1.00  0.00    +0.000 C 
BRANCH   34   32
ATOM     33  O7  UNL A   1      24.812  17.123 -13.685  1.00  0.00    +0.000 O 
ATOM     32  C20 UNL A   1      25.430  17.877 -12.942  1.00  0.00    +0.000 C 
BRANCH   32   31
ATOM    130  H26 UNL A   1      26.586  17.502 -11.337  1.00  0.00    +0.000 H 
ATOM     31  N5  UNL A   1      26.587  17.441 -12.320  1.00  0.00    +0.000 N 
BRANCH   31   30
ATOM    129  H25 UNL A   1      27.852  17.263 -13.919  1.00  0.00    +0.000 H 
ATOM     30  C19 UNL A   1      27.804  16.906 -12.911  1.00  0.00    +0.000 C 
ATOM    128  H24 UNL A   1      27.764  15.838 -12.866  1.00  0.00    +0.000 H 
BRANCH   30   29
ATOM     29  C18 UNL A   1      29.065  17.372 -12.207  1.00  0.00    +0.000 C 
ATOM    126  H22 UNL A   1      28.931  18.395 -11.921  1.00  0.00    +0.000 H 
ATOM    127  H23 UNL A   1      29.207  16.721 -11.370  1.00  0.00    +0.000 H 
BRANCH   29   28
ATOM    124  H20 UNL A   1      30.123  16.633 -13.884  1.00  0.00    +0.000 H 
ATOM     28  C17 UNL A   1      30.333  17.275 -13.055  1.00  0.00    +0.000 C 
ATOM    125  H21 UNL A   1      30.573  18.281 -13.329  1.00  0.00    +0.000 H 
BRANCH   28   27
ATOM    122  H18 UNL A   1      31.333  16.582 -11.314  1.00  0.00    +0.000 H 
ATOM     27  C16 UNL A   1      31.581  16.732 -12.344  1.00  0.00    +0.000 C 
ATOM    123  H19 UNL A   1      31.843  15.834 -12.863  1.00  0.00    +0.000 H 
BRANCH   27   26
ATOM    121  H17 UNL A   1      33.554  17.170 -11.767  1.00  0.00    +0.000 H 
ATOM     26  C15 UNL A   1      32.822  17.623 -12.403  1.00  0.00    +0.000 C 
ATOM    120  H16 UNL A   1      32.544  18.606 -12.084  1.00  0.00    +0.000 H 
BRANCH   26   25
ATOM     25  C14 UNL A   1      33.452  17.731 -13.784  1.00  0.00    +0.000 C 
ATOM    118  H14 UNL A   1      34.310  17.092 -13.817  1.00  0.00    +0.000 H 
ATOM    119  H15 UNL A   1      32.708  17.442 -14.496  1.00  0.00    +0.000 H 
BRANCH   25   24
ATOM    117  H13 UNL A   1      34.546  19.149 -14.826  1.00  0.00    +0.000 H 
ATOM     24  N4  UNL A   1      33.866  19.072 -14.118  1.00  0.00    +0.000 N 
BRANCH   24   22
ATOM     22  C13 UNL A   1      33.434  20.249 -13.574  1.00  0.00    +0.000 C 
ATOM     23  O6  UNL A   1      32.346  20.689 -13.955  1.00  0.00    +0.000 O 
BRANCH   22   21
ATOM    115  H11 UNL A   1      33.761  21.930 -12.307  1.00  0.00    +0.000 H 
ATOM    116  H12 UNL A   1      34.585  20.417 -11.820  1.00  0.00    +0.000 H 
ATOM     21  C12 UNL A   1      34.321  21.074 -12.621  1.00  0.00    +0.000 C 
BRANCH   21   20
ATOM    114  H10 UNL A   1      36.332  20.922 -13.082  1.00  0.00    +0.000 H 
ATOM     20  N3  UNL A   1      35.577  21.543 -13.188  1.00  0.00    +0.000 N 
BRANCH   20   18
ATOM     18  C11 UNL A   1      35.877  22.702 -13.840  1.00  0.00    +0.000 C 
ATOM     19  O5  UNL A   1      36.204  23.676 -13.158  1.00  0.00    +0.000 O 
BRANCH   18   17
ATOM     17  C10 UNL A   1      35.809  22.807 -15.373  1.00  0.00    +0.000 C 
ATOM    113  H9  UNL A   1      36.455  22.046 -15.755  1.00  0.00    +0.000 H 
ATOM    112  H8  UNL A   1      36.106  23.796 -15.652  1.00  0.00    +0.000 H 
BRANCH   17   16
ATOM    111  H7  UNL A   1      34.053  21.732 -15.616  1.00  0.00    +0.000 H 
ATOM     16  N2  UNL A   1      34.487  22.550 -15.952  1.00  0.00    +0.000 N 
BRANCH   16   14
ATOM     14  C9  UNL A   1      33.740  23.246 -16.882  1.00  0.00    +0.000 C 
ATOM     15  O4  UNL A   1      33.836  22.932 -18.064  1.00  0.00    +0.000 O 
BRANCH   14   12
ATOM     12  C8  UNL A   1      32.806  24.394 -16.443  1.00  0.00    +0.000 C 
ATOM     13  O3  UNL A   1      32.656  25.324 -17.229  1.00  0.00    +0.000 O 
BRANCH   12   11
ATOM     97  C65 UNL A   1      30.671  24.383 -14.994  1.00  0.00    +0.000 C 
ATOM     98  C66 UNL A   1      29.599  24.327 -15.914  1.00  0.00    +0.000 C 
ATOM     99  C67 UNL A   1      28.284  24.253 -15.458  1.00  0.00    +0.000 C 
ATOM    100  C68 UNL A   1      28.014  24.253 -14.097  1.00  0.00    +0.000 C 
ATOM    101  C69 UNL A   1      29.047  24.337 -13.159  1.00  0.00    +0.000 C 
ATOM    102  C70 UNL A   1      30.373  24.393 -13.626  1.00  0.00    +0.000 C 
ATOM      9  N1  UNL A   1      31.590  24.425 -12.978  1.00  0.00    +0.000 N 
ATOM     10  C6  UNL A   1      32.634  24.447 -13.874  1.00  0.00    +0.000 C 
ATOM     11  C7  UNL A   1      32.104  24.416 -15.152  1.00  0.00    +0.000 C 
ATOM    110  H6  UNL A   1      33.637  24.481 -13.635  1.00  0.00    +0.000 H 
ATOM    145  H41 UNL A   1      29.792  24.340 -16.928  1.00  0.00    +0.000 H 
ATOM    146  H42 UNL A   1      27.507  24.198 -16.136  1.00  0.00    +0.000 H 
ATOM    147  H43 UNL A   1      27.037  24.191 -13.772  1.00  0.00    +0.000 H 
ATOM    148  H44 UNL A   1      28.842  24.356 -12.147  1.00  0.00    +0.000 H 
BRANCH    9    6
ATOM      6  S1  UNL A   1      31.787  24.333 -11.286  1.00  0.00    +0.000 S 
ATOM      7  O1  UNL A   1      30.714  25.129 -10.734  1.00  0.00    +0.000 O 
ATOM      8  O2  UNL A   1      33.187  24.646 -11.037  1.00  0.00    +0.000 O 
BRANCH    6    5
ATOM      2  C2  UNL A   1      31.138  20.055  -9.803  1.00  0.00    +0.000 C 
ATOM      3  C3  UNL A   1      32.154  20.864  -9.281  1.00  0.00    +0.000 C 
ATOM      4  C4  UNL A   1      32.346  22.158  -9.767  1.00  0.00    +0.000 C 
ATOM      5  C5  UNL A   1      31.528  22.649 -10.792  1.00  0.00    +0.000 C 
ATOM    103  C71 UNL A   1      30.539  21.835 -11.347  1.00  0.00    +0.000 C 
ATOM    104  C72 UNL A   1      30.340  20.547 -10.843  1.00  0.00    +0.000 C 
ATOM    108  H4  UNL A   1      32.764  20.501  -8.532  1.00  0.00    +0.000 H 
ATOM    109  H5  UNL A   1      33.091  22.753  -9.372  1.00  0.00    +0.000 H 
ATOM    149  H45 UNL A   1      29.958  22.183 -12.127  1.00  0.00    +0.000 H 
ATOM    150  H46 UNL A   1      29.597  19.952 -11.240  1.00  0.00    +0.000 H 
BRANCH    2    1
ATOM      1  C1  UNL A   1      30.917  18.678  -9.248  1.00  0.00    +0.000 C 
ATOM    106  H2  UNL A   1      30.094  18.695  -8.566  1.00  0.00    +0.000 H 
ATOM    107  H3  UNL A   1      31.799  18.354  -8.735  1.00  0.00    +0.000 H 
ATOM    105  H1  UNL A   1      30.702  18.001 -10.050  1.00  0.00    +0.000 H 
ENDBRANCH    2    1
ENDBRANCH    6    5
ENDBRANCH    9    6
ENDBRANCH   12   11
ENDBRANCH   14   12
ENDBRANCH   16   14
ENDBRANCH   17   16
ENDBRANCH   18   17
ENDBRANCH   20   18
ENDBRANCH   21   20
ENDBRANCH   22   21
ENDBRANCH   24   22
ENDBRANCH   25   24
ENDBRANCH   26   25
ENDBRANCH   27   26
ENDBRANCH   28   27
ENDBRANCH   29   28
ENDBRANCH   30   29
ENDBRANCH   31   30
ENDBRANCH   32   31
ENDBRANCH   34   32
ENDBRANCH   38   37
BRANCH   42   43
ATOM     43  C29 UNL A   1      29.173  23.197  -5.816  1.00  0.00    +0.000 C 
ATOM     44  C30 UNL A   1      30.433  23.255  -6.458  1.00  0.00    +0.000 C 
ATOM     45  F1  UNL A   1      30.551  23.631  -7.737  1.00  0.00    +0.000 F 
ATOM     46  C31 UNL A   1      31.628  22.931  -5.811  1.00  0.00    +0.000 C 
ATOM     47  F2  UNL A   1      32.784  22.996  -6.485  1.00  0.00    +0.000 F 
ATOM     48  C32 UNL A   1      31.621  22.538  -4.491  1.00  0.00    +0.000 C 
ATOM     49  F3  UNL A   1      32.764  22.206  -3.875  1.00  0.00    +0.000 F 
ATOM     50  C33 UNL A   1      30.424  22.520  -3.806  1.00  0.00    +0.000 C 
ATOM     51  F4  UNL A   1      30.403  22.162  -2.514  1.00  0.00    +0.000 F 
ATOM     52  C34 UNL A   1      29.232  22.880  -4.446  1.00  0.00    +0.000 C 
ATOM     53  F5  UNL A   1      28.155  22.962  -3.659  1.00  0.00    +0.000 F 
ENDBRANCH   42   43
BRANCH   59   60
ATOM     65  C43 UNL A   1      22.250  27.029  -2.846  1.00  0.00    +0.000 C 
ATOM     66  F8  UNL A   1      21.684  27.231  -1.650  1.00  0.00    +0.000 F 
ATOM     67  C44 UNL A   1      22.123  25.812  -3.478  1.00  0.00    +0.000 C 
ATOM     68  F9  UNL A   1      21.388  24.839  -2.922  1.00  0.00    +0.000 F 
ATOM     69  C45 UNL A   1      22.742  25.596  -4.707  1.00  0.00    +0.000 C 
ATOM     70  F10 UNL A   1      22.584  24.365  -5.216  1.00  0.00    +0.000 F 
ATOM     60  C40 UNL A   1      23.460  26.609  -5.394  1.00  0.00    +0.000 C 
ATOM     61  C41 UNL A   1      23.497  27.853  -4.744  1.00  0.00    +0.000 C 
ATOM     62  F6  UNL A   1      24.006  28.941  -5.335  1.00  0.00    +0.000 F 
ATOM     63  C42 UNL A   1      22.946  28.043  -3.473  1.00  0.00    +0.000 C 
ATOM     64  F7  UNL A   1      23.071  29.235  -2.872  1.00  0.00    +0.000 F 
ENDBRANCH   59   60
BRANCH   74   75
ATOM     75  C49 UNL A   1      22.161  25.060 -12.313  1.00  0.00    +0.000 C 
ATOM     76  C50 UNL A   1      21.845  25.454 -13.631  1.00  0.00    +0.000 C 
ATOM     77  F11 UNL A   1      21.957  26.744 -13.989  1.00  0.00    +0.000 F 
ATOM     78  C51 UNL A   1      21.560  24.513 -14.619  1.00  0.00    +0.000 C 
ATOM     79  F12 UNL A   1      21.418  24.905 -15.893  1.00  0.00    +0.000 F 
ATOM     80  C52 UNL A   1      21.516  23.168 -14.296  1.00  0.00    +0.000 C 
ATOM     81  F13 UNL A   1      21.353  22.252 -15.260  1.00  0.00    +0.000 F 
ATOM     82  C53 UNL A   1      21.682  22.773 -12.976  1.00  0.00    +0.000 C 
ATOM     83  F14 UNL A   1      21.637  21.468 -12.666  1.00  0.00    +0.000 F 
ATOM     84  C54 UNL A   1      21.999  23.709 -11.988  1.00  0.00    +0.000 C 
ATOM     85  F15 UNL A   1      22.268  23.272 -10.750  1.00  0.00    +0.000 F 
ENDBRANCH   74   75
TORSDOF 25
ENDMDL
MODEL 7
REMARK VINA RESULT:      -8.8      6.194     10.384
ROOT
ATOM    133  H29 UNL A   1      18.511  37.664  45.661  1.00  0.00    +0.000 H 
ATOM    134  H30 UNL A   1      19.867  36.272  43.893  1.00  0.00    +0.000 H 
ATOM    135  H31 UNL A   1      18.785  33.748  46.987  1.00  0.00    +0.000 H 
ATOM    136  H32 UNL A   1      22.809  37.195  44.284  1.00  0.00    +0.000 H 
ATOM    137  H33 UNL A   1      21.371  37.501  46.382  1.00  0.00    +0.000 H 
ATOM    138  H34 UNL A   1      25.296  36.781  47.518  1.00  0.00    +0.000 H 
ATOM    139  H35 UNL A   1      24.522  32.848  43.188  1.00  0.00    +0.000 H 
ATOM    140  H36 UNL A   1      22.098  32.040  42.870  1.00  0.00    +0.000 H 
ATOM    141  H37 UNL A   1      18.769  36.525  51.061  1.00  0.00    +0.000 H 
ATOM    142  H38 UNL A   1      21.312  36.830  51.311  1.00  0.00    +0.000 H 
ATOM     38  C25 UNL A   1      22.687  36.407  48.751  1.00  0.00    +0.000 C 
ATOM     39  C26 UNL A   1      21.276  36.256  49.125  1.00  0.00    +0.000 C 
ATOM     40  N6  UNL A   1      20.365  35.799  48.347  1.00  0.00    +0.000 N 
ATOM     41  C27 UNL A   1      19.151  36.049  48.951  1.00  0.00    +0.000 C 
ATOM     42  C28 UNL A   1      18.041  36.097  48.161  1.00  0.00    +0.000 C 
ATOM     54  C35 UNL A   1      18.421  35.818  46.778  1.00  0.00    +0.000 C 
ATOM     55  C36 UNL A   1      18.751  36.663  45.732  1.00  0.00    +0.000 C 
ATOM     56  C37 UNL A   1      19.476  35.910  44.776  1.00  0.00    +0.000 C 
ATOM     57  C38 UNL A   1      19.568  34.605  45.232  1.00  0.00    +0.000 C 
ATOM     58  N7  UNL A   1      18.902  34.559  46.441  1.00  0.00    +0.000 N 
ATOM     59  C39 UNL A   1      20.145  33.406  44.646  1.00  0.00    +0.000 C 
ATOM     71  C46 UNL A   1      21.493  33.471  44.427  1.00  0.00    +0.000 C 
ATOM     72  N8  UNL A   1      22.301  34.340  45.114  1.00  0.00    +0.000 N 
ATOM     73  C47 UNL A   1      23.533  34.196  44.708  1.00  0.00    +0.000 C 
ATOM     74  C48 UNL A   1      24.684  35.021  45.227  1.00  0.00    +0.000 C 
ATOM     86  C55 UNL A   1      24.283  36.251  45.664  1.00  0.00    +0.000 C 
ATOM     87  C56 UNL A   1      23.064  36.925  45.247  1.00  0.00    +0.000 C 
ATOM     88  C57 UNL A   1      22.333  37.128  46.356  1.00  0.00    +0.000 C 
ATOM     89  C58 UNL A   1      23.123  36.735  47.515  1.00  0.00    +0.000 C 
ATOM     90  N9  UNL A   1      24.455  36.629  47.029  1.00  0.00    +0.000 N 
ATOM     91  C59 UNL A   1      23.673  33.174  43.677  1.00  0.00    +0.000 C 
ATOM     92  C60 UNL A   1      22.399  32.768  43.537  1.00  0.00    +0.000 C 
ATOM     93  C61 UNL A   1      19.467  36.406  50.309  1.00  0.00    +0.000 C 
ATOM     94  C62 UNL A   1      20.784  36.563  50.466  1.00  0.00    +0.000 C 
ENDROOT
BRANCH   38   37
ATOM     34  C21 UNL A   1      25.038  36.128  52.124  1.00  0.00    +0.000 C 
ATOM     35  C22 UNL A   1      24.777  37.424  51.651  1.00  0.00    +0.000 C 
ATOM     36  C23 UNL A   1      24.089  37.577  50.459  1.00  0.00    +0.000 C 
ATOM    131  H27 UNL A   1      25.093  38.249  52.183  1.00  0.00    +0.000 H 
ATOM    132  H28 UNL A   1      23.913  38.511  50.057  1.00  0.00    +0.000 H 
ATOM     37  C24 UNL A   1      23.646  36.423  49.828  1.00  0.00    +0.000 C 
ATOM    143  H39 UNL A   1      23.856  34.328  49.632  1.00  0.00    +0.000 H 
ATOM    144  H40 UNL A   1      25.444  34.157  51.469  1.00  0.00    +0.000 H 
ATOM     95  C63 UNL A   1      24.118  35.159  50.186  1.00  0.00    +0.000 C 
ATOM     96  C64 UNL A   1      24.930  35.032  51.280  1.00  0.00    +0.000 C 
BRANCH   34   32
ATOM     33  O7  UNL A   1      23.964  36.360  54.197  1.00  0.00    +0.000 O 
ATOM     32  C20 UNL A   1      24.952  35.956  53.593  1.00  0.00    +0.000 C 
BRANCH   32   31
ATOM    130  H26 UNL A   1      26.823  35.388  54.070  1.00  0.00    +0.000 H 
ATOM     31  N5  UNL A   1      25.880  35.159  54.238  1.00  0.00    +0.000 N 
BRANCH   31   30
ATOM    129  H25 UNL A   1      24.667  33.678  54.961  1.00  0.00    +0.000 H 
ATOM     30  C19 UNL A   1      25.663  34.030  55.130  1.00  0.00    +0.000 C 
ATOM    128  H24 UNL A   1      25.806  34.361  56.138  1.00  0.00    +0.000 H 
BRANCH   30   29
ATOM     29  C18 UNL A   1      26.604  32.869  54.865  1.00  0.00    +0.000 C 
ATOM    126  H22 UNL A   1      27.553  33.101  55.302  1.00  0.00    +0.000 H 
ATOM    127  H23 UNL A   1      26.147  32.002  55.294  1.00  0.00    +0.000 H 
BRANCH   29   28
ATOM    124  H20 UNL A   1      26.391  31.602  53.184  1.00  0.00    +0.000 H 
ATOM     28  C17 UNL A   1      26.821  32.561  53.384  1.00  0.00    +0.000 C 
ATOM    125  H21 UNL A   1      26.363  33.367  52.852  1.00  0.00    +0.000 H 
BRANCH   28   27
ATOM    122  H18 UNL A   1      28.568  33.529  52.661  1.00  0.00    +0.000 H 
ATOM     27  C16 UNL A   1      28.281  32.529  52.908  1.00  0.00    +0.000 C 
ATOM    123  H19 UNL A   1      28.840  32.103  53.715  1.00  0.00    +0.000 H 
BRANCH   27   26
ATOM    121  H17 UNL A   1      29.565  31.870  51.381  1.00  0.00    +0.000 H 
ATOM     26  C15 UNL A   1      28.566  31.646  51.693  1.00  0.00    +0.000 C 
ATOM    120  H16 UNL A   1      27.836  31.862  50.943  1.00  0.00    +0.000 H 
BRANCH   26   25
ATOM     25  C14 UNL A   1      28.526  30.152  51.981  1.00  0.00    +0.000 C 
ATOM    118  H14 UNL A   1      29.531  29.786  52.023  1.00  0.00    +0.000 H 
ATOM    119  H15 UNL A   1      28.010  30.021  52.909  1.00  0.00    +0.000 H 
BRANCH   25   24
ATOM    117  H13 UNL A   1      27.053  29.864  50.551  1.00  0.00    +0.000 H 
ATOM     24  N4  UNL A   1      27.806  29.399  50.981  1.00  0.00    +0.000 N 
BRANCH   24   22
ATOM     22  C13 UNL A   1      28.039  28.121  50.559  1.00  0.00    +0.000 C 
ATOM     23  O6  UNL A   1      27.813  27.205  51.354  1.00  0.00    +0.000 O 
BRANCH   22   21
ATOM    115  H11 UNL A   1      29.321  26.972  49.304  1.00  0.00    +0.000 H 
ATOM    116  H12 UNL A   1      27.876  27.670  48.508  1.00  0.00    +0.000 H 
ATOM     21  C12 UNL A   1      28.686  27.825  49.191  1.00  0.00    +0.000 C 
BRANCH   21   20
ATOM    114  H10 UNL A   1      29.146  29.810  48.832  1.00  0.00    +0.000 H 
ATOM     20  N3  UNL A   1      29.482  28.907  48.632  1.00  0.00    +0.000 N 
BRANCH   20   18
ATOM     18  C11 UNL A   1      30.616  28.874  47.875  1.00  0.00    +0.000 C 
ATOM     19  O5  UNL A   1      30.870  27.830  47.268  1.00  0.00    +0.000 O 
BRANCH   18   17
ATOM     17  C10 UNL A   1      31.558  30.086  47.779  1.00  0.00    +0.000 C 
ATOM    113  H9  UNL A   1      31.781  30.372  48.784  1.00  0.00    +0.000 H 
ATOM    112  H8  UNL A   1      31.059  30.850  47.220  1.00  0.00    +0.000 H 
BRANCH   17   16
ATOM    111  H7  UNL A   1      33.538  29.475  47.742  1.00  0.00    +0.000 H 
ATOM     16  N2  UNL A   1      32.845  29.819  47.132  1.00  0.00    +0.000 N 
BRANCH   16   14
ATOM     14  C9  UNL A   1      33.265  29.962  45.824  1.00  0.00    +0.000 C 
ATOM     15  O4  UNL A   1      33.064  29.040  45.040  1.00  0.00    +0.000 O 
BRANCH   14   12
ATOM     12  C8  UNL A   1      33.972  31.253  45.360  1.00  0.00    +0.000 C 
ATOM     13  O3  UNL A   1      33.801  32.259  46.043  1.00  0.00    +0.000 O 
BRANCH   12   11
ATOM     97  C65 UNL A   1      36.142  30.751  44.059  1.00  0.00    +0.000 C 
ATOM     98  C66 UNL A   1      36.953  30.021  44.958  1.00  0.00    +0.000 C 
ATOM     99  C67 UNL A   1      38.196  29.538  44.551  1.00  0.00    +0.000 C 
ATOM    100  C68 UNL A   1      38.656  29.786  43.266  1.00  0.00    +0.000 C 
ATOM    101  C69 UNL A   1      37.895  30.528  42.359  1.00  0.00    +0.000 C 
ATOM    102  C70 UNL A   1      36.634  30.998  42.771  1.00  0.00    +0.000 C 
ATOM      9  N1  UNL A   1      35.639  31.694  42.118  1.00  0.00    +0.000 N 
ATOM     10  C6  UNL A   1      34.554  31.905  42.938  1.00  0.00    +0.000 C 
ATOM     11  C7  UNL A   1      34.823  31.324  44.165  1.00  0.00    +0.000 C 
ATOM    110  H6  UNL A   1      33.690  32.408  42.683  1.00  0.00    +0.000 H 
ATOM    145  H41 UNL A   1      36.623  29.846  45.920  1.00  0.00    +0.000 H 
ATOM    146  H42 UNL A   1      38.776  28.994  45.209  1.00  0.00    +0.000 H 
ATOM    147  H43 UNL A   1      39.575  29.417  42.975  1.00  0.00    +0.000 H 
ATOM    148  H44 UNL A   1      38.248  30.727  41.410  1.00  0.00    +0.000 H 
BRANCH    9    6
ATOM      6  S1  UNL A   1      35.691  32.139  40.472  1.00  0.00    +0.000 S 
ATOM      7  O1  UNL A   1      34.498  32.925  40.252  1.00  0.00    +0.000 O 
ATOM      8  O2  UNL A   1      35.949  30.906  39.740  1.00  0.00    +0.000 O 
BRANCH    6    5
ATOM      2  C2  UNL A   1      39.232  34.916  39.652  1.00  0.00    +0.000 C 
ATOM      3  C3  UNL A   1      38.791  33.992  38.698  1.00  0.00    +0.000 C 
ATOM      4  C4  UNL A   1      37.723  33.139  38.981  1.00  0.00    +0.000 C 
ATOM      5  C5  UNL A   1      37.095  33.196  40.232  1.00  0.00    +0.000 C 
ATOM    103  C71 UNL A   1      37.555  34.086  41.204  1.00  0.00    +0.000 C 
ATOM    104  C72 UNL A   1      38.612  34.950  40.907  1.00  0.00    +0.000 C 
ATOM    108  H4  UNL A   1      39.258  33.941  37.779  1.00  0.00    +0.000 H 
ATOM    109  H5  UNL A   1      37.396  32.467  38.270  1.00  0.00    +0.000 H 
ATOM    149  H45 UNL A   1      37.115  34.105  42.139  1.00  0.00    +0.000 H 
ATOM    150  H46 UNL A   1      38.940  35.620  41.620  1.00  0.00    +0.000 H 
BRANCH    2    1
ATOM      1  C1  UNL A   1      40.358  35.852  39.325  1.00  0.00    +0.000 C 
ATOM    106  H2  UNL A   1      39.961  36.772  38.950  1.00  0.00    +0.000 H 
ATOM    107  H3  UNL A   1      40.988  35.407  38.582  1.00  0.00    +0.000 H 
ATOM    105  H1  UNL A   1      40.931  36.044  40.209  1.00  0.00    +0.000 H 
ENDBRANCH    2    1
ENDBRANCH    6    5
ENDBRANCH    9    6
ENDBRANCH   12   11
ENDBRANCH   14   12
ENDBRANCH   16   14
ENDBRANCH   17   16
ENDBRANCH   18   17
ENDBRANCH   20   18
ENDBRANCH   21   20
ENDBRANCH   22   21
ENDBRANCH   24   22
ENDBRANCH   25   24
ENDBRANCH   26   25
ENDBRANCH   27   26
ENDBRANCH   28   27
ENDBRANCH   29   28
ENDBRANCH   30   29
ENDBRANCH   31   30
ENDBRANCH   32   31
ENDBRANCH   34   32
ENDBRANCH   38   37
BRANCH   42   43
ATOM     43  C29 UNL A   1      16.709  36.705  48.542  1.00  0.00    +0.000 C 
ATOM     44  C30 UNL A   1      16.661  37.773  49.467  1.00  0.00    +0.000 C 
ATOM     45  F1  UNL A   1      17.777  38.350  49.931  1.00  0.00    +0.000 F 
ATOM     46  C31 UNL A   1      15.463  38.299  49.955  1.00  0.00    +0.000 C 
ATOM     47  F2  UNL A   1      15.492  39.304  50.841  1.00  0.00    +0.000 F 
ATOM     48  C32 UNL A   1      14.255  37.784  49.538  1.00  0.00    +0.000 C 
ATOM     49  F3  UNL A   1      13.105  38.272  50.022  1.00  0.00    +0.000 F 
ATOM     50  C33 UNL A   1      14.249  36.779  48.594  1.00  0.00    +0.000 C 
ATOM     51  F4  UNL A   1      13.081  36.283  48.160  1.00  0.00    +0.000 F 
ATOM     52  C34 UNL A   1      15.450  36.278  48.078  1.00  0.00    +0.000 C 
ATOM     53  F5  UNL A   1      15.330  35.407  47.073  1.00  0.00    +0.000 F 
ENDBRANCH   42   43
BRANCH   59   60
ATOM     65  C43 UNL A   1      17.666  30.054  43.367  1.00  0.00    +0.000 C 
ATOM     66  F8  UNL A   1      16.932  29.011  42.957  1.00  0.00    +0.000 F 
ATOM     67  C44 UNL A   1      18.664  29.877  44.298  1.00  0.00    +0.000 C 
ATOM     68  F9  UNL A   1      18.942  28.650  44.762  1.00  0.00    +0.000 F 
ATOM     69  C45 UNL A   1      19.403  30.970  44.746  1.00  0.00    +0.000 C 
ATOM     70  F10 UNL A   1      20.325  30.691  45.679  1.00  0.00    +0.000 F 
ATOM     60  C40 UNL A   1      19.223  32.280  44.233  1.00  0.00    +0.000 C 
ATOM     61  C41 UNL A   1      18.245  32.395  43.232  1.00  0.00    +0.000 C 
ATOM     62  F6  UNL A   1      18.066  33.533  42.549  1.00  0.00    +0.000 F 
ATOM     63  C42 UNL A   1      17.449  31.313  42.844  1.00  0.00    +0.000 C 
ATOM     64  F7  UNL A   1      16.484  31.498  41.931  1.00  0.00    +0.000 F 
ENDBRANCH   59   60
BRANCH   74   75
ATOM     75  C49 UNL A   1      25.849  34.500  45.999  1.00  0.00    +0.000 C 
ATOM     76  C50 UNL A   1      25.641  33.352  46.792  1.00  0.00    +0.000 C 
ATOM     77  F11 UNL A   1      24.400  33.042  47.205  1.00  0.00    +0.000 F 
ATOM     78  C51 UNL A   1      26.668  32.444  47.034  1.00  0.00    +0.000 C 
ATOM     79  F12 UNL A   1      26.404  31.286  47.657  1.00  0.00    +0.000 F 
ATOM     80  C52 UNL A   1      27.941  32.698  46.551  1.00  0.00    +0.000 C 
ATOM     81  F13 UNL A   1      28.906  31.778  46.686  1.00  0.00    +0.000 F 
ATOM     82  C53 UNL A   1      28.199  33.892  45.893  1.00  0.00    +0.000 C 
ATOM     83  F14 UNL A   1      29.434  34.137  45.428  1.00  0.00    +0.000 F 
ATOM     84  C54 UNL A   1      27.165  34.791  45.619  1.00  0.00    +0.000 C 
ATOM     85  F15 UNL A   1      27.434  35.875  44.878  1.00  0.00    +0.000 F 
ENDBRANCH   74   75
TORSDOF 25
ENDMDL
MODEL 8
REMARK VINA RESULT:      -8.7      1.537      2.583
ROOT
ATOM    133  H29 UNL A   1      18.569  37.684  45.610  1.00  0.00    +0.000 H 
ATOM    134  H30 UNL A   1      20.001  36.348  43.858  1.00  0.00    +0.000 H 
ATOM    135  H31 UNL A   1      19.017  33.791  46.959  1.00  0.00    +0.000 H 
ATOM    136  H32 UNL A   1      22.893  37.409  44.264  1.00  0.00    +0.000 H 
ATOM    137  H33 UNL A   1      21.428  37.659  46.351  1.00  0.00    +0.000 H 
ATOM    138  H34 UNL A   1      25.375  37.128  47.516  1.00  0.00    +0.000 H 
ATOM    139  H35 UNL A   1      24.815  33.142  43.202  1.00  0.00    +0.000 H 
ATOM    140  H36 UNL A   1      22.433  32.220  42.872  1.00  0.00    +0.000 H 
ATOM    141  H37 UNL A   1      18.845  36.585  51.018  1.00  0.00    +0.000 H 
ATOM    142  H38 UNL A   1      21.368  37.010  51.283  1.00  0.00    +0.000 H 
ATOM     38  C25 UNL A   1      22.779  36.639  48.734  1.00  0.00    +0.000 C 
ATOM     39  C26 UNL A   1      21.374  36.424  49.100  1.00  0.00    +0.000 C 
ATOM     40  N6  UNL A   1      20.491  35.921  48.318  1.00  0.00    +0.000 N 
ATOM     41  C27 UNL A   1      19.262  36.117  48.913  1.00  0.00    +0.000 C 
ATOM     42  C28 UNL A   1      18.157  36.109  48.116  1.00  0.00    +0.000 C 
ATOM     54  C35 UNL A   1      18.558  35.841  46.736  1.00  0.00    +0.000 C 
ATOM     55  C36 UNL A   1      18.855  36.696  45.688  1.00  0.00    +0.000 C 
ATOM     56  C37 UNL A   1      19.621  35.973  44.741  1.00  0.00    +0.000 C 
ATOM     57  C38 UNL A   1      19.771  34.676  45.204  1.00  0.00    +0.000 C 
ATOM     58  N7  UNL A   1      19.100  34.604  46.410  1.00  0.00    +0.000 N 
ATOM     59  C39 UNL A   1      20.407  33.502  44.628  1.00  0.00    +0.000 C 
ATOM     71  C46 UNL A   1      21.752  33.629  44.417  1.00  0.00    +0.000 C 
ATOM     72  N8  UNL A   1      22.514  34.538  45.105  1.00  0.00    +0.000 N 
ATOM     73  C47 UNL A   1      23.754  34.449  44.708  1.00  0.00    +0.000 C 
ATOM     74  C48 UNL A   1      24.862  35.330  45.230  1.00  0.00    +0.000 C 
ATOM     86  C55 UNL A   1      24.400  36.542  45.658  1.00  0.00    +0.000 C 
ATOM     87  C56 UNL A   1      23.154  37.157  45.230  1.00  0.00    +0.000 C 
ATOM     88  C57 UNL A   1      22.407  37.331  46.333  1.00  0.00    +0.000 C 
ATOM     89  C58 UNL A   1      23.207  36.981  47.499  1.00  0.00    +0.000 C 
ATOM     90  N9  UNL A   1      24.546  36.934  47.022  1.00  0.00    +0.000 N 
ATOM     91  C59 UNL A   1      23.948  33.430  43.683  1.00  0.00    +0.000 C 
ATOM     92  C60 UNL A   1      22.696  32.965  43.537  1.00  0.00    +0.000 C 
ATOM     93  C61 UNL A   1      19.552  36.495  50.271  1.00  0.00    +0.000 C 
ATOM     94  C62 UNL A   1      20.859  36.714  50.436  1.00  0.00    +0.000 C 
ENDROOT
BRANCH   38   37
ATOM     34  C21 UNL A   1      25.063  36.611  52.164  1.00  0.00    +0.000 C 
ATOM     35  C22 UNL A   1      24.981  37.833  51.480  1.00  0.00    +0.000 C 
ATOM     36  C23 UNL A   1      24.322  37.878  50.262  1.00  0.00    +0.000 C 
ATOM    131  H27 UNL A   1      25.404  38.685  51.877  1.00  0.00    +0.000 H 
ATOM    132  H28 UNL A   1      24.275  38.747  49.709  1.00  0.00    +0.000 H 
ATOM     37  C24 UNL A   1      23.729  36.705  49.817  1.00  0.00    +0.000 C 
ATOM    143  H39 UNL A   1      23.654  34.597  49.971  1.00  0.00    +0.000 H 
ATOM    144  H40 UNL A   1      25.201  34.522  51.849  1.00  0.00    +0.000 H 
ATOM     95  C63 UNL A   1      24.025  35.466  50.388  1.00  0.00    +0.000 C 
ATOM     96  C64 UNL A   1      24.810  35.414  51.507  1.00  0.00    +0.000 C 
BRANCH   34   32
ATOM     33  O7  UNL A   1      25.948  36.938  54.311  1.00  0.00    +0.000 O 
ATOM     32  C20 UNL A   1      24.952  36.696  53.638  1.00  0.00    +0.000 C 
BRANCH   32   31
ATOM    130  H26 UNL A   1      23.577  36.098  54.981  1.00  0.00    +0.000 H 
ATOM     31  N5  UNL A   1      23.699  36.715  54.224  1.00  0.00    +0.000 N 
BRANCH   31   30
ATOM    129  H25 UNL A   1      22.286  37.300  52.863  1.00  0.00    +0.000 H 
ATOM     30  C19 UNL A   1      22.534  37.518  53.881  1.00  0.00    +0.000 C 
ATOM    128  H24 UNL A   1      22.778  38.550  54.023  1.00  0.00    +0.000 H 
BRANCH   30   29
ATOM     29  C18 UNL A   1      21.314  37.190  54.722  1.00  0.00    +0.000 C 
ATOM    126  H22 UNL A   1      21.518  36.295  55.273  1.00  0.00    +0.000 H 
ATOM    127  H23 UNL A   1      21.140  38.036  55.352  1.00  0.00    +0.000 H 
BRANCH   29   28
ATOM    124  H20 UNL A   1      20.311  36.827  52.894  1.00  0.00    +0.000 H 
ATOM     28  C17 UNL A   1      20.033  36.974  53.917  1.00  0.00    +0.000 C 
ATOM    125  H21 UNL A   1      19.549  36.133  54.366  1.00  0.00    +0.000 H 
BRANCH   28   27
ATOM    122  H18 UNL A   1      18.489  38.130  53.028  1.00  0.00    +0.000 H 
ATOM     27  C16 UNL A   1      19.006  38.116  53.964  1.00  0.00    +0.000 C 
ATOM    123  H19 UNL A   1      18.378  37.907  54.805  1.00  0.00    +0.000 H 
BRANCH   27   26
ATOM    121  H17 UNL A   1      20.506  39.379  54.720  1.00  0.00    +0.000 H 
ATOM     26  C15 UNL A   1      19.576  39.514  54.207  1.00  0.00    +0.000 C 
ATOM    120  H16 UNL A   1      18.863  40.072  54.775  1.00  0.00    +0.000 H 
BRANCH   26   25
ATOM     25  C14 UNL A   1      19.890  40.292  52.938  1.00  0.00    +0.000 C 
ATOM    118  H14 UNL A   1      20.285  41.248  53.214  1.00  0.00    +0.000 H 
ATOM    119  H15 UNL A   1      20.592  39.714  52.375  1.00  0.00    +0.000 H 
BRANCH   25   24
ATOM    117  H13 UNL A   1      17.867  40.254  52.489  1.00  0.00    +0.000 H 
ATOM     24  N4  UNL A   1      18.735  40.500  52.096  1.00  0.00    +0.000 N 
BRANCH   24   22
ATOM     22  C13 UNL A   1      18.697  40.992  50.823  1.00  0.00    +0.000 C 
ATOM     23  O6  UNL A   1      17.620  41.432  50.411  1.00  0.00    +0.000 O 
BRANCH   22   21
ATOM    115  H11 UNL A   1      20.796  41.026  50.461  1.00  0.00    +0.000 H 
ATOM    116  H12 UNL A   1      19.845  39.921  49.420  1.00  0.00    +0.000 H 
ATOM     21  C12 UNL A   1      19.910  40.887  49.877  1.00  0.00    +0.000 C 
BRANCH   21   20
ATOM    114  H10 UNL A   1      19.615  41.499  47.924  1.00  0.00    +0.000 H 
ATOM     20  N3  UNL A   1      19.935  41.848  48.786  1.00  0.00    +0.000 N 
BRANCH   20   18
ATOM     18  C11 UNL A   1      20.331  43.153  48.762  1.00  0.00    +0.000 C 
ATOM     19  O5  UNL A   1      19.494  44.012  49.048  1.00  0.00    +0.000 O 
BRANCH   18   17
ATOM     17  C10 UNL A   1      21.768  43.553  48.385  1.00  0.00    +0.000 C 
ATOM    113  H9  UNL A   1      21.687  44.446  47.803  1.00  0.00    +0.000 H 
ATOM    112  H8  UNL A   1      22.211  42.737  47.853  1.00  0.00    +0.000 H 
BRANCH   17   16
ATOM    111  H7  UNL A   1      22.227  44.489  50.176  1.00  0.00    +0.000 H 
ATOM     16  N2  UNL A   1      22.636  43.880  49.519  1.00  0.00    +0.000 N 
BRANCH   16   14
ATOM     14  C9  UNL A   1      23.923  43.489  49.835  1.00  0.00    +0.000 C 
ATOM     15  O4  UNL A   1      24.788  44.353  49.941  1.00  0.00    +0.000 O 
BRANCH   14   12
ATOM     12  C8  UNL A   1      24.264  41.999  50.048  1.00  0.00    +0.000 C 
ATOM     13  O3  UNL A   1      23.457  41.327  50.684  1.00  0.00    +0.000 O 
BRANCH   12   11
ATOM     97  C65 UNL A   1      25.623  40.808  48.207  1.00  0.00    +0.000 C 
ATOM     98  C66 UNL A   1      24.742  40.699  47.107  1.00  0.00    +0.000 C 
ATOM     99  C67 UNL A   1      25.181  40.142  45.906  1.00  0.00    +0.000 C 
ATOM    100  C68 UNL A   1      26.481  39.674  45.786  1.00  0.00    +0.000 C 
ATOM    101  C69 UNL A   1      27.372  39.740  46.861  1.00  0.00    +0.000 C 
ATOM    102  C70 UNL A   1      26.927  40.319  48.064  1.00  0.00    +0.000 C 
ATOM      9  N1  UNL A   1      27.558  40.578  49.263  1.00  0.00    +0.000 N 
ATOM     10  C6  UNL A   1      26.708  41.195  50.152  1.00  0.00    +0.000 C 
ATOM     11  C7  UNL A   1      25.484  41.366  49.529  1.00  0.00    +0.000 C 
ATOM    110  H6  UNL A   1      26.942  41.482  51.115  1.00  0.00    +0.000 H 
ATOM    145  H41 UNL A   1      23.769  41.033  47.194  1.00  0.00    +0.000 H 
ATOM    146  H42 UNL A   1      24.535  40.079  45.103  1.00  0.00    +0.000 H 
ATOM    147  H43 UNL A   1      26.795  39.271  44.890  1.00  0.00    +0.000 H 
ATOM    148  H44 UNL A   1      28.333  39.373  46.774  1.00  0.00    +0.000 H 
BRANCH    9    6
ATOM      6  S1  UNL A   1      29.209  40.280  49.572  1.00  0.00    +0.000 S 
ATOM      7  O1  UNL A   1      29.426  38.904  49.185  1.00  0.00    +0.000 O 
ATOM      8  O2  UNL A   1      29.443  40.746  50.932  1.00  0.00    +0.000 O 
BRANCH    6    5
ATOM      2  C2  UNL A   1      31.790  43.007  46.961  1.00  0.00    +0.000 C 
ATOM      3  C3  UNL A   1      31.228  43.460  48.160  1.00  0.00    +0.000 C 
ATOM      4  C4  UNL A   1      30.425  42.615  48.927  1.00  0.00    +0.000 C 
ATOM      5  C5  UNL A   1      30.166  41.310  48.490  1.00  0.00    +0.000 C 
ATOM    103  C71 UNL A   1      30.688  40.863  47.276  1.00  0.00    +0.000 C 
ATOM    104  C72 UNL A   1      31.507  41.708  46.522  1.00  0.00    +0.000 C 
ATOM    108  H4  UNL A   1      31.410  44.425  48.479  1.00  0.00    +0.000 H 
ATOM    109  H5  UNL A   1      30.022  42.952  49.815  1.00  0.00    +0.000 H 
ATOM    149  H45 UNL A   1      30.470  39.912  46.936  1.00  0.00    +0.000 H 
ATOM    150  H46 UNL A   1      31.908  41.371  45.632  1.00  0.00    +0.000 H 
BRANCH    2    1
ATOM      1  C1  UNL A   1      32.681  43.912  46.161  1.00  0.00    +0.000 C 
ATOM    106  H2  UNL A   1      32.447  44.932  46.384  1.00  0.00    +0.000 H 
ATOM    107  H3  UNL A   1      32.530  43.732  45.117  1.00  0.00    +0.000 H 
ATOM    105  H1  UNL A   1      33.704  43.719  46.412  1.00  0.00    +0.000 H 
ENDBRANCH    2    1
ENDBRANCH    6    5
ENDBRANCH    9    6
ENDBRANCH   12   11
ENDBRANCH   14   12
ENDBRANCH   16   14
ENDBRANCH   17   16
ENDBRANCH   18   17
ENDBRANCH   20   18
ENDBRANCH   21   20
ENDBRANCH   22   21
ENDBRANCH   24   22
ENDBRANCH   25   24
ENDBRANCH   26   25
ENDBRANCH   27   26
ENDBRANCH   28   27
ENDBRANCH   29   28
ENDBRANCH   30   29
ENDBRANCH   31   30
ENDBRANCH   32   31
ENDBRANCH   34   32
ENDBRANCH   38   37
BRANCH   42   43
ATOM     43  C29 UNL A   1      16.795  36.656  48.485  1.00  0.00    +0.000 C 
ATOM     44  C30 UNL A   1      16.685  37.667  49.468  1.00  0.00    +0.000 C 
ATOM     45  F1  UNL A   1      17.767  38.247  50.002  1.00  0.00    +0.000 F 
ATOM     46  C31 UNL A   1      15.456  38.129  49.944  1.00  0.00    +0.000 C 
ATOM     47  F2  UNL A   1      15.425  39.081  50.886  1.00  0.00    +0.000 F 
ATOM     48  C32 UNL A   1      14.278  37.605  49.457  1.00  0.00    +0.000 C 
ATOM     49  F3  UNL A   1      13.099  38.032  49.928  1.00  0.00    +0.000 F 
ATOM     50  C33 UNL A   1      14.333  36.657  48.457  1.00  0.00    +0.000 C 
ATOM     51  F4  UNL A   1      13.196  36.154  47.955  1.00  0.00    +0.000 F 
ATOM     52  C34 UNL A   1      15.565  36.221  47.955  1.00  0.00    +0.000 C 
ATOM     53  F5  UNL A   1      15.504  35.407  46.898  1.00  0.00    +0.000 F 
ENDBRANCH   42   43
BRANCH   59   60
ATOM     65  C43 UNL A   1      17.734  30.234  43.536  1.00  0.00    +0.000 C 
ATOM     66  F8  UNL A   1      16.888  29.245  43.220  1.00  0.00    +0.000 F 
ATOM     67  C44 UNL A   1      17.533  31.503  43.043  1.00  0.00    +0.000 C 
ATOM     68  F9  UNL A   1      16.460  31.769  42.286  1.00  0.00    +0.000 F 
ATOM     69  C45 UNL A   1      18.434  32.521  43.347  1.00  0.00    +0.000 C 
ATOM     70  F10 UNL A   1      18.163  33.709  42.787  1.00  0.00    +0.000 F 
ATOM     60  C40 UNL A   1      19.541  32.332  44.215  1.00  0.00    +0.000 C 
ATOM     61  C41 UNL A   1      19.659  31.040  44.751  1.00  0.00    +0.000 C 
ATOM     62  F6  UNL A   1      20.562  30.750  45.697  1.00  0.00    +0.000 F 
ATOM     63  C42 UNL A   1      18.802  30.000  44.378  1.00  0.00    +0.000 C 
ATOM     64  F7  UNL A   1      19.006  28.770  44.871  1.00  0.00    +0.000 F 
ENDBRANCH   59   60
BRANCH   74   75
ATOM     75  C49 UNL A   1      26.045  34.869  46.012  1.00  0.00    +0.000 C 
ATOM     76  C50 UNL A   1      25.870  33.748  46.852  1.00  0.00    +0.000 C 
ATOM     77  F11 UNL A   1      24.640  33.426  47.287  1.00  0.00    +0.000 F 
ATOM     78  C51 UNL A   1      26.921  32.875  47.122  1.00  0.00    +0.000 C 
ATOM     79  F12 UNL A   1      26.689  31.737  47.792  1.00  0.00    +0.000 F 
ATOM     80  C52 UNL A   1      28.183  33.139  46.618  1.00  0.00    +0.000 C 
ATOM     81  F13 UNL A   1      29.170  32.249  46.781  1.00  0.00    +0.000 F 
ATOM     82  C53 UNL A   1      28.407  34.312  45.911  1.00  0.00    +0.000 C 
ATOM     83  F14 UNL A   1      29.632  34.567  45.426  1.00  0.00    +0.000 F 
ATOM     84  C54 UNL A   1      27.350  35.175  45.610  1.00  0.00    +0.000 C 
ATOM     85  F15 UNL A   1      27.588  36.235  44.824  1.00  0.00    +0.000 F 
ENDBRANCH   74   75
TORSDOF 25
ENDMDL
MODEL 9
REMARK VINA RESULT:      -8.7      2.035      5.451
ROOT
ATOM    133  H29 UNL A   1      18.737  37.961  46.182  1.00  0.00    +0.000 H 
ATOM    134  H30 UNL A   1      20.213  36.778  44.358  1.00  0.00    +0.000 H 
ATOM    135  H31 UNL A   1      19.437  34.055  47.375  1.00  0.00    +0.000 H 
ATOM    136  H32 UNL A   1      23.045  37.993  44.757  1.00  0.00    +0.000 H 
ATOM    137  H33 UNL A   1      21.606  38.078  46.876  1.00  0.00    +0.000 H 
ATOM    138  H34 UNL A   1      25.597  37.740  47.957  1.00  0.00    +0.000 H 
ATOM    139  H35 UNL A   1      25.194  33.889  43.505  1.00  0.00    +0.000 H 
ATOM    140  H36 UNL A   1      22.866  32.841  43.179  1.00  0.00    +0.000 H 
ATOM    141  H37 UNL A   1      19.174  36.682  51.539  1.00  0.00    +0.000 H 
ATOM    142  H38 UNL A   1      21.673  37.246  51.780  1.00  0.00    +0.000 H 
ATOM     38  C25 UNL A   1      23.056  37.054  49.196  1.00  0.00    +0.000 C 
ATOM     39  C26 UNL A   1      21.674  36.742  49.577  1.00  0.00    +0.000 C 
ATOM     40  N6  UNL A   1      20.807  36.217  48.790  1.00  0.00    +0.000 N 
ATOM     41  C27 UNL A   1      19.580  36.318  49.411  1.00  0.00    +0.000 C 
ATOM     42  C28 UNL A   1      18.463  36.273  48.632  1.00  0.00    +0.000 C 
ATOM     54  C35 UNL A   1      18.854  36.080  47.237  1.00  0.00    +0.000 C 
ATOM     55  C36 UNL A   1      19.082  36.989  46.217  1.00  0.00    +0.000 C 
ATOM     56  C37 UNL A   1      19.872  36.348  45.232  1.00  0.00    +0.000 C 
ATOM     57  C38 UNL A   1      20.106  35.046  45.643  1.00  0.00    +0.000 C 
ATOM     58  N7  UNL A   1      19.462  34.891  46.856  1.00  0.00    +0.000 N 
ATOM     59  C39 UNL A   1      20.800  33.935  45.014  1.00  0.00    +0.000 C 
ATOM     71  C46 UNL A   1      22.131  34.148  44.787  1.00  0.00    +0.000 C 
ATOM     72  N8  UNL A   1      22.850  35.075  45.496  1.00  0.00    +0.000 N 
ATOM     73  C47 UNL A   1      24.086  35.075  45.076  1.00  0.00    +0.000 C 
ATOM     74  C48 UNL A   1      25.149  36.000  45.613  1.00  0.00    +0.000 C 
ATOM     86  C55 UNL A   1      24.625  37.167  46.094  1.00  0.00    +0.000 C 
ATOM     87  C56 UNL A   1      23.338  37.721  45.709  1.00  0.00    +0.000 C 
ATOM     88  C57 UNL A   1      22.602  37.810  46.830  1.00  0.00    +0.000 C 
ATOM     89  C58 UNL A   1      23.442  37.466  47.969  1.00  0.00    +0.000 C 
ATOM     90  N9  UNL A   1      24.772  37.516  47.470  1.00  0.00    +0.000 N 
ATOM     91  C59 UNL A   1      24.321  34.108  44.011  1.00  0.00    +0.000 C 
ATOM     92  C60 UNL A   1      23.096  33.575  43.867  1.00  0.00    +0.000 C 
ATOM     93  C61 UNL A   1      19.872  36.662  50.779  1.00  0.00    +0.000 C 
ATOM     94  C62 UNL A   1      21.166  36.952  50.931  1.00  0.00    +0.000 C 
ENDROOT
BRANCH   38   37
ATOM     34  C21 UNL A   1      26.166  37.534  51.859  1.00  0.00    +0.000 C 
ATOM     35  C22 UNL A   1      25.640  36.238  51.741  1.00  0.00    +0.000 C 
ATOM     36  C23 UNL A   1      24.522  36.037  50.949  1.00  0.00    +0.000 C 
ATOM    131  H27 UNL A   1      26.079  35.448  52.238  1.00  0.00    +0.000 H 
ATOM    132  H28 UNL A   1      24.081  35.107  50.869  1.00  0.00    +0.000 H 
ATOM     37  C24 UNL A   1      24.020  37.136  50.267  1.00  0.00    +0.000 C 
ATOM    143  H39 UNL A   1      23.940  39.245  50.136  1.00  0.00    +0.000 H 
ATOM    144  H40 UNL A   1      25.601  39.574  51.885  1.00  0.00    +0.000 H 
ATOM     95  C63 UNL A   1      24.407  38.440  50.583  1.00  0.00    +0.000 C 
ATOM     96  C64 UNL A   1      25.412  38.640  51.489  1.00  0.00    +0.000 C 
BRANCH   34   32
ATOM     33  O7  UNL A   1      28.314  36.594  51.895  1.00  0.00    +0.000 O 
ATOM     32  C20 UNL A   1      27.643  37.620  51.921  1.00  0.00    +0.000 C 
BRANCH   32   31
ATOM    130  H26 UNL A   1      28.832  39.117  52.548  1.00  0.00    +0.000 H 
ATOM     31  N5  UNL A   1      28.257  38.853  51.794  1.00  0.00    +0.000 N 
BRANCH   31   30
ATOM    129  H25 UNL A   1      28.460  40.768  51.101  1.00  0.00    +0.000 H 
ATOM     30  C19 UNL A   1      28.176  39.814  50.705  1.00  0.00    +0.000 C 
ATOM    128  H24 UNL A   1      27.174  39.819  50.330  1.00  0.00    +0.000 H 
BRANCH   30   29
ATOM     29  C18 UNL A   1      29.120  39.501  49.559  1.00  0.00    +0.000 C 
ATOM    126  H22 UNL A   1      30.089  39.876  49.813  1.00  0.00    +0.000 H 
ATOM    127  H23 UNL A   1      29.104  38.439  49.432  1.00  0.00    +0.000 H 
BRANCH   29   28
ATOM    124  H20 UNL A   1      28.815  41.170  48.295  1.00  0.00    +0.000 H 
ATOM     28  C17 UNL A   1      28.707  40.109  48.219  1.00  0.00    +0.000 C 
ATOM    125  H21 UNL A   1      29.343  39.654  47.490  1.00  0.00    +0.000 H 
BRANCH   28   27
ATOM    122  H18 UNL A   1      27.316  39.481  46.742  1.00  0.00    +0.000 H 
ATOM     27  C16 UNL A   1      27.272  39.814  47.757  1.00  0.00    +0.000 C 
ATOM    123  H19 UNL A   1      26.893  39.081  48.439  1.00  0.00    +0.000 H 
BRANCH   27   26
ATOM    121  H17 UNL A   1      26.464  41.471  48.766  1.00  0.00    +0.000 H 
ATOM     26  C15 UNL A   1      26.297  40.989  47.825  1.00  0.00    +0.000 C 
ATOM    120  H16 UNL A   1      25.303  40.606  47.724  1.00  0.00    +0.000 H 
BRANCH   26   25
ATOM     25  C14 UNL A   1      26.512  42.045  46.751  1.00  0.00    +0.000 C 
ATOM    118  H14 UNL A   1      27.198  41.659  46.026  1.00  0.00    +0.000 H 
ATOM    119  H15 UNL A   1      25.556  42.263  46.324  1.00  0.00    +0.000 H 
BRANCH   25   24
ATOM    117  H13 UNL A   1      27.997  43.448  47.101  1.00  0.00    +0.000 H 
ATOM     24  N4  UNL A   1      27.041  43.285  47.269  1.00  0.00    +0.000 N 
BRANCH   24   22
ATOM     22  C13 UNL A   1      26.382  44.259  47.964  1.00  0.00    +0.000 C 
ATOM     23  O6  UNL A   1      26.754  44.490  49.117  1.00  0.00    +0.000 O 
BRANCH   22   21
ATOM    115  H11 UNL A   1      25.097  45.949  47.789  1.00  0.00    +0.000 H 
ATOM    116  H12 UNL A   1      25.237  44.924  46.327  1.00  0.00    +0.000 H 
ATOM     21  C12 UNL A   1      25.132  44.956  47.391  1.00  0.00    +0.000 C 
BRANCH   21   20
ATOM    114  H10 UNL A   1      23.925  43.564  48.332  1.00  0.00    +0.000 H 
ATOM     20  N3  UNL A   1      23.864  44.308  47.691  1.00  0.00    +0.000 N 
BRANCH   20   18
ATOM     18  C11 UNL A   1      22.608  44.561  47.226  1.00  0.00    +0.000 C 
ATOM     19  O5  UNL A   1      22.466  45.497  46.435  1.00  0.00    +0.000 O 
BRANCH   18   17
ATOM     17  C10 UNL A   1      21.398  43.720  47.671  1.00  0.00    +0.000 C 
ATOM    113  H9  UNL A   1      21.248  42.986  46.908  1.00  0.00    +0.000 H 
ATOM    112  H8  UNL A   1      20.565  44.380  47.796  1.00  0.00    +0.000 H 
BRANCH   17   16
ATOM    111  H7  UNL A   1      21.515  43.538  49.731  1.00  0.00    +0.000 H 
ATOM     16  N2  UNL A   1      21.585  42.982  48.922  1.00  0.00    +0.000 N 
BRANCH   16   14
ATOM     14  C9  UNL A   1      21.842  41.648  49.173  1.00  0.00    +0.000 C 
ATOM     15  O4  UNL A   1      22.998  41.248  49.090  1.00  0.00    +0.000 O 
BRANCH   14   12
ATOM     12  C8  UNL A   1      20.696  40.683  49.548  1.00  0.00    +0.000 C 
ATOM     13  O3  UNL A   1      20.295  39.924  48.671  1.00  0.00    +0.000 O 
BRANCH   12   11
ATOM     97  C65 UNL A   1      18.873  41.326  51.257  1.00  0.00    +0.000 C 
ATOM     98  C66 UNL A   1      17.986  42.172  50.552  1.00  0.00    +0.000 C 
ATOM     99  C67 UNL A   1      16.840  42.665  51.175  1.00  0.00    +0.000 C 
ATOM    100  C68 UNL A   1      16.570  42.345  52.497  1.00  0.00    +0.000 C 
ATOM    101  C69 UNL A   1      17.439  41.535  53.234  1.00  0.00    +0.000 C 
ATOM    102  C70 UNL A   1      18.584  41.027  52.594  1.00  0.00    +0.000 C 
ATOM      9  N1  UNL A   1      19.587  40.177  53.012  1.00  0.00    +0.000 N 
ATOM     10  C6  UNL A   1      20.494  39.940  52.005  1.00  0.00    +0.000 C 
ATOM     11  C7  UNL A   1      20.083  40.636  50.882  1.00  0.00    +0.000 C 
ATOM    110  H6  UNL A   1      21.335  39.346  52.075  1.00  0.00    +0.000 H 
ATOM    145  H41 UNL A   1      18.189  42.425  49.572  1.00  0.00    +0.000 H 
ATOM    146  H42 UNL A   1      16.190  43.270  50.649  1.00  0.00    +0.000 H 
ATOM    147  H43 UNL A   1      15.715  42.711  52.944  1.00  0.00    +0.000 H 
ATOM    148  H44 UNL A   1      17.245  41.315  54.224  1.00  0.00    +0.000 H 
BRANCH    9    6
ATOM      6  S1  UNL A   1      19.640  39.423  54.541  1.00  0.00    +0.000 S 
ATOM      7  O1  UNL A   1      18.328  38.845  54.726  1.00  0.00    +0.000 O 
ATOM      8  O2  UNL A   1      20.179  40.423  55.453  1.00  0.00    +0.000 O 
BRANCH    6    5
ATOM      2  C2  UNL A   1      22.791  36.108  54.486  1.00  0.00    +0.000 C 
ATOM      3  C3  UNL A   1      23.151  37.460  54.458  1.00  0.00    +0.000 C 
ATOM      4  C4  UNL A   1      22.170  38.452  54.452  1.00  0.00    +0.000 C 
ATOM      5  C5  UNL A   1      20.815  38.096  54.460  1.00  0.00    +0.000 C 
ATOM    103  C71 UNL A   1      20.446  36.750  54.447  1.00  0.00    +0.000 C 
ATOM    104  C72 UNL A   1      21.434  35.762  54.472  1.00  0.00    +0.000 C 
ATOM    108  H4  UNL A   1      24.149  37.725  54.442  1.00  0.00    +0.000 H 
ATOM    109  H5  UNL A   1      22.442  39.448  54.440  1.00  0.00    +0.000 H 
ATOM    149  H45 UNL A   1      19.448  36.487  54.418  1.00  0.00    +0.000 H 
ATOM    150  H46 UNL A   1      21.161  34.767  54.481  1.00  0.00    +0.000 H 
BRANCH    2    1
ATOM      1  C1  UNL A   1      23.854  35.049  54.528  1.00  0.00    +0.000 C 
ATOM    106  H2  UNL A   1      24.741  35.414  54.054  1.00  0.00    +0.000 H 
ATOM    107  H3  UNL A   1      23.509  34.176  54.015  1.00  0.00    +0.000 H 
ATOM    105  H1  UNL A   1      24.071  34.802  55.547  1.00  0.00    +0.000 H 
ENDBRANCH    2    1
ENDBRANCH    6    5
ENDBRANCH    9    6
ENDBRANCH   12   11
ENDBRANCH   14   12
ENDBRANCH   16   14
ENDBRANCH   17   16
ENDBRANCH   18   17
ENDBRANCH   20   18
ENDBRANCH   21   20
ENDBRANCH   22   21
ENDBRANCH   24   22
ENDBRANCH   25   24
ENDBRANCH   26   25
ENDBRANCH   27   26
ENDBRANCH   28   27
ENDBRANCH   29   28
ENDBRANCH   30   29
ENDBRANCH   31   30
ENDBRANCH   32   31
ENDBRANCH   34   32
ENDBRANCH   38   37
BRANCH   42   43
ATOM     43  C29 UNL A   1      17.079  36.724  49.043  1.00  0.00    +0.000 C 
ATOM     44  C30 UNL A   1      15.942  36.187  48.396  1.00  0.00    +0.000 C 
ATOM     45  F1  UNL A   1      16.046  35.193  47.504  1.00  0.00    +0.000 F 
ATOM     46  C31 UNL A   1      14.645  36.647  48.638  1.00  0.00    +0.000 C 
ATOM     47  F2  UNL A   1      13.614  36.100  47.979  1.00  0.00    +0.000 F 
ATOM     48  C32 UNL A   1      14.423  37.662  49.542  1.00  0.00    +0.000 C 
ATOM     49  F3  UNL A   1      13.183  38.119  49.760  1.00  0.00    +0.000 F 
ATOM     50  C33 UNL A   1      15.494  38.179  50.240  1.00  0.00    +0.000 C 
ATOM     51  F4  UNL A   1      15.293  39.152  51.141  1.00  0.00    +0.000 F 
ATOM     52  C34 UNL A   1      16.789  37.693  50.022  1.00  0.00    +0.000 C 
ATOM     53  F5  UNL A   1      17.730  38.164  50.845  1.00  0.00    +0.000 F 
ENDBRANCH   42   43
BRANCH   59   60
ATOM     65  C43 UNL A   1      18.301  30.562  43.829  1.00  0.00    +0.000 C 
ATOM     66  F8  UNL A   1      17.507  29.540  43.484  1.00  0.00    +0.000 F 
ATOM     67  C44 UNL A   1      18.064  31.824  43.331  1.00  0.00    +0.000 C 
ATOM     68  F9  UNL A   1      17.007  32.047  42.538  1.00  0.00    +0.000 F 
ATOM     69  C45 UNL A   1      18.912  32.877  43.666  1.00  0.00    +0.000 C 
ATOM     70  F10 UNL A   1      18.612  34.054  43.098  1.00  0.00    +0.000 F 
ATOM     60  C40 UNL A   1      19.997  32.731  44.570  1.00  0.00    +0.000 C 
ATOM     61  C41 UNL A   1      20.150  31.444  45.108  1.00  0.00    +0.000 C 
ATOM     62  F6  UNL A   1      21.031  31.188  46.084  1.00  0.00    +0.000 F 
ATOM     63  C42 UNL A   1      19.349  30.371  44.706  1.00  0.00    +0.000 C 
ATOM     64  F7  UNL A   1      19.586  29.148  45.204  1.00  0.00    +0.000 F 
ENDBRANCH   59   60
BRANCH   74   75
ATOM     75  C49 UNL A   1      26.372  35.582  46.359  1.00  0.00    +0.000 C 
ATOM     76  C50 UNL A   1      27.578  36.247  46.051  1.00  0.00    +0.000 C 
ATOM     77  F11 UNL A   1      27.721  36.853  44.860  1.00  0.00    +0.000 F 
ATOM     78  C51 UNL A   1      28.573  36.422  47.009  1.00  0.00    +0.000 C 
ATOM     79  F12 UNL A   1      29.636  37.191  46.736  1.00  0.00    +0.000 F 
ATOM     80  C52 UNL A   1      28.416  35.876  48.272  1.00  0.00    +0.000 C 
ATOM     81  F13 UNL A   1      29.317  36.133  49.230  1.00  0.00    +0.000 F 
ATOM     82  C53 UNL A   1      27.302  35.096  48.549  1.00  0.00    +0.000 C 
ATOM     83  F14 UNL A   1      27.154  34.567  49.773  1.00  0.00    +0.000 F 
ATOM     84  C54 UNL A   1      26.287  34.944  47.602  1.00  0.00    +0.000 C 
ATOM     85  F15 UNL A   1      25.174  34.283  47.951  1.00  0.00    +0.000 F 
ENDBRANCH   74   75
TORSDOF 25
ENDMDL
MODEL 10
REMARK VINA RESULT:      -8.7     42.193     48.921
ROOT
ATOM    133  H29 UNL A   1      22.558  18.607   6.792  1.00  0.00    +0.000 H 
ATOM    134  H30 UNL A   1      20.197  18.549   5.639  1.00  0.00    +0.000 H 
ATOM    135  H31 UNL A   1      19.870  16.787   9.369  1.00  0.00    +0.000 H 
ATOM    136  H32 UNL A   1      20.460  16.342   3.467  1.00  0.00    +0.000 H 
ATOM    137  H33 UNL A   1      22.095  16.035   5.416  1.00  0.00    +0.000 H 
ATOM    138  H34 UNL A   1      21.115  12.314   3.864  1.00  0.00    +0.000 H 
ATOM    139  H35 UNL A   1      15.874  15.022   3.978  1.00  0.00    +0.000 H 
ATOM    140  H36 UNL A   1      15.621  16.829   5.794  1.00  0.00    +0.000 H 
ATOM    141  H37 UNL A   1      24.206  14.602  10.222  1.00  0.00    +0.000 H 
ATOM    142  H38 UNL A   1      23.978  12.660   8.549  1.00  0.00    +0.000 H 
ATOM     38  C25 UNL A   1      22.033  13.300   6.443  1.00  0.00    +0.000 C 
ATOM     39  C26 UNL A   1      22.429  14.037   7.648  1.00  0.00    +0.000 C 
ATOM     40  N6  UNL A   1      21.880  15.127   8.042  1.00  0.00    +0.000 N 
ATOM     41  C27 UNL A   1      22.677  15.646   9.041  1.00  0.00    +0.000 C 
ATOM     42  C28 UNL A   1      22.592  16.982   9.299  1.00  0.00    +0.000 C 
ATOM     54  C35 UNL A   1      21.585  17.579   8.424  1.00  0.00    +0.000 C 
ATOM     55  C36 UNL A   1      21.698  18.199   7.190  1.00  0.00    +0.000 C 
ATOM     56  C37 UNL A   1      20.424  18.173   6.573  1.00  0.00    +0.000 C 
ATOM     57  C38 UNL A   1      19.535  17.557   7.438  1.00  0.00    +0.000 C 
ATOM     58  N7  UNL A   1      20.251  17.220   8.571  1.00  0.00    +0.000 N 
ATOM     59  C39 UNL A   1      18.105  17.306   7.353  1.00  0.00    +0.000 C 
ATOM     71  C46 UNL A   1      17.729  16.494   6.320  1.00  0.00    +0.000 C 
ATOM     72  N8  UNL A   1      18.602  15.617   5.730  1.00  0.00    +0.000 N 
ATOM     73  C47 UNL A   1      17.987  14.974   4.775  1.00  0.00    +0.000 C 
ATOM     74  C48 UNL A   1      18.659  13.953   3.891  1.00  0.00    +0.000 C 
ATOM     86  C55 UNL A   1      19.999  14.182   3.762  1.00  0.00    +0.000 C 
ATOM     87  C56 UNL A   1      20.649  15.465   3.977  1.00  0.00    +0.000 C 
ATOM     88  C57 UNL A   1      21.540  15.289   4.967  1.00  0.00    +0.000 C 
ATOM     89  C58 UNL A   1      21.594  13.872   5.301  1.00  0.00    +0.000 C 
ATOM     90  N9  UNL A   1      20.947  13.217   4.217  1.00  0.00    +0.000 N 
ATOM     91  C59 UNL A   1      16.591  15.369   4.635  1.00  0.00    +0.000 C 
ATOM     92  C60 UNL A   1      16.487  16.304   5.595  1.00  0.00    +0.000 C 
ATOM     93  C61 UNL A   1      23.570  14.579   9.410  1.00  0.00    +0.000 C 
ATOM     94  C62 UNL A   1      23.464  13.555   8.559  1.00  0.00    +0.000 C 
ENDROOT
BRANCH   38   37
ATOM     34  C21 UNL A   1      22.672   9.274   5.829  1.00  0.00    +0.000 C 
ATOM     35  C22 UNL A   1      22.030   9.629   7.026  1.00  0.00    +0.000 C 
ATOM     36  C23 UNL A   1      21.890  10.971   7.341  1.00  0.00    +0.000 C 
ATOM    131  H27 UNL A   1      21.669   8.901   7.662  1.00  0.00    +0.000 H 
ATOM    132  H28 UNL A   1      21.461  11.271   8.230  1.00  0.00    +0.000 H 
ATOM     37  C24 UNL A   1      22.349  11.892   6.411  1.00  0.00    +0.000 C 
ATOM    143  H39 UNL A   1      23.601  12.241   4.743  1.00  0.00    +0.000 H 
ATOM    144  H40 UNL A   1      24.199   9.894   4.501  1.00  0.00    +0.000 H 
ATOM     95  C63 UNL A   1      23.186  11.522   5.357  1.00  0.00    +0.000 C 
ATOM     96  C64 UNL A   1      23.450  10.197   5.144  1.00  0.00    +0.000 C 
BRANCH   34   32
ATOM     33  O7  UNL A   1      21.468   7.263   5.756  1.00  0.00    +0.000 O 
ATOM     32  C20 UNL A   1      22.107   8.099   5.127  1.00  0.00    +0.000 C 
BRANCH   32   31
ATOM    130  H26 UNL A   1      22.996   7.865   3.337  1.00  0.00    +0.000 H 
ATOM     31  N5  UNL A   1      22.122   8.063   3.744  1.00  0.00    +0.000 N 
BRANCH   31   30
ATOM    129  H25 UNL A   1      20.170   7.776   3.199  1.00  0.00    +0.000 H 
ATOM     30  C19 UNL A   1      21.031   8.277   2.805  1.00  0.00    +0.000 C 
ATOM    128  H24 UNL A   1      21.320   7.886   1.852  1.00  0.00    +0.000 H 
BRANCH   30   29
ATOM     29  C18 UNL A   1      20.664   9.739   2.637  1.00  0.00    +0.000 C 
ATOM    126  H22 UNL A   1      19.686   9.888   3.045  1.00  0.00    +0.000 H 
ATOM    127  H23 UNL A   1      21.418  10.304   3.144  1.00  0.00    +0.000 H 
BRANCH   29   28
ATOM    124  H20 UNL A   1      21.021   9.426   0.575  1.00  0.00    +0.000 H 
ATOM     28  C17 UNL A   1      20.657  10.224   1.187  1.00  0.00    +0.000 C 
ATOM    125  H21 UNL A   1      19.646  10.507   0.984  1.00  0.00    +0.000 H 
BRANCH   28   27
ATOM    122  H18 UNL A   1      21.667  11.511  -0.168  1.00  0.00    +0.000 H 
ATOM     27  C16 UNL A   1      21.503  11.470   0.888  1.00  0.00    +0.000 C 
ATOM    123  H19 UNL A   1      20.947  12.299   1.274  1.00  0.00    +0.000 H 
BRANCH   27   26
ATOM    121  H17 UNL A   1      23.470  10.768   1.125  1.00  0.00    +0.000 H 
ATOM     26  C15 UNL A   1      22.868  11.529   1.576  1.00  0.00    +0.000 C 
ATOM    120  H16 UNL A   1      22.721  11.378   2.625  1.00  0.00    +0.000 H 
BRANCH   26   25
ATOM     25  C14 UNL A   1      23.611  12.843   1.384  1.00  0.00    +0.000 C 
ATOM    118  H14 UNL A   1      24.230  13.012   2.241  1.00  0.00    +0.000 H 
ATOM    119  H15 UNL A   1      24.183  12.755   0.485  1.00  0.00    +0.000 H 
BRANCH   25   24
ATOM    117  H13 UNL A   1      22.037  14.084   1.912  1.00  0.00    +0.000 H 
ATOM     24  N4  UNL A   1      22.731  13.977   1.223  1.00  0.00    +0.000 N 
BRANCH   24   22
ATOM     22  C13 UNL A   1      22.742  14.918   0.233  1.00  0.00    +0.000 C 
ATOM     23  O6  UNL A   1      21.967  14.761  -0.714  1.00  0.00    +0.000 O 
BRANCH   22   21
ATOM    115  H11 UNL A   1      23.495  16.767   0.976  1.00  0.00    +0.000 H 
ATOM    116  H12 UNL A   1      24.725  15.609   0.383  1.00  0.00    +0.000 H 
ATOM     21  C12 UNL A   1      23.771  16.065   0.218  1.00  0.00    +0.000 C 
BRANCH   21   20
ATOM    114  H10 UNL A   1      23.519  16.309  -1.821  1.00  0.00    +0.000 H 
ATOM     20  N3  UNL A   1      23.883  16.786  -1.042  1.00  0.00    +0.000 N 
BRANCH   20   18
ATOM     18  C11 UNL A   1      24.411  18.012  -1.318  1.00  0.00    +0.000 C 
ATOM     19  O5  UNL A   1      24.861  18.201  -2.451  1.00  0.00    +0.000 O 
BRANCH   18   17
ATOM     17  C10 UNL A   1      24.457  19.128  -0.260  1.00  0.00    +0.000 C 
ATOM    113  H9  UNL A   1      23.549  19.047   0.299  1.00  0.00    +0.000 H 
ATOM    112  H8  UNL A   1      24.561  20.063  -0.769  1.00  0.00    +0.000 H 
BRANCH   17   16
ATOM    111  H7  UNL A   1      26.447  19.104   0.317  1.00  0.00    +0.000 H 
ATOM     16  N2  UNL A   1      25.548  19.015   0.711  1.00  0.00    +0.000 N 
BRANCH   16   14
ATOM     14  C9  UNL A   1      25.547  18.806   2.076  1.00  0.00    +0.000 C 
ATOM     15  O4  UNL A   1      26.621  18.640   2.644  1.00  0.00    +0.000 O 
BRANCH   14   12
ATOM     12  C8  UNL A   1      24.222  18.782   2.867  1.00  0.00    +0.000 C 
ATOM     13  O3  UNL A   1      23.947  17.745   3.465  1.00  0.00    +0.000 O 
BRANCH   12   11
ATOM     97  C65 UNL A   1      23.702  21.301   3.065  1.00  0.00    +0.000 C 
ATOM     98  C66 UNL A   1      24.963  21.933   3.160  1.00  0.00    +0.000 C 
ATOM     99  C67 UNL A   1      25.050  23.323   3.227  1.00  0.00    +0.000 C 
ATOM    100  C68 UNL A   1      23.898  24.097   3.220  1.00  0.00    +0.000 C 
ATOM    101  C69 UNL A   1      22.634  23.506   3.156  1.00  0.00    +0.000 C 
ATOM    102  C70 UNL A   1      22.555  22.103   3.071  1.00  0.00    +0.000 C 
ATOM      9  N1  UNL A   1      21.491  21.236   2.942  1.00  0.00    +0.000 N 
ATOM     10  C6  UNL A   1      21.916  19.929   2.868  1.00  0.00    +0.000 C 
ATOM     11  C7  UNL A   1      23.299  19.923   2.934  1.00  0.00    +0.000 C 
ATOM    110  H6  UNL A   1      21.311  19.099   2.777  1.00  0.00    +0.000 H 
ATOM    145  H41 UNL A   1      25.823  21.362   3.180  1.00  0.00    +0.000 H 
ATOM    146  H42 UNL A   1      25.975  23.778   3.283  1.00  0.00    +0.000 H 
ATOM    147  H43 UNL A   1      23.977  25.125   3.264  1.00  0.00    +0.000 H 
ATOM    148  H44 UNL A   1      21.778  24.084   3.170  1.00  0.00    +0.000 H 
BRANCH    9    6
ATOM      6  S1  UNL A   1      19.863  21.719   2.779  1.00  0.00    +0.000 S 
ATOM      7  O1  UNL A   1      19.833  22.571   1.612  1.00  0.00    +0.000 O 
ATOM      8  O2  UNL A   1      19.463  22.198   4.096  1.00  0.00    +0.000 O 
BRANCH    6    5
ATOM      2  C2  UNL A   1      17.431  18.009   1.662  1.00  0.00    +0.000 C 
ATOM      3  C3  UNL A   1      17.427  19.156   0.859  1.00  0.00    +0.000 C 
ATOM      4  C4  UNL A   1      18.159  20.283   1.234  1.00  0.00    +0.000 C 
ATOM      5  C5  UNL A   1      18.893  20.276   2.427  1.00  0.00    +0.000 C 
ATOM    103  C71 UNL A   1      18.869  19.152   3.255  1.00  0.00    +0.000 C 
ATOM    104  C72 UNL A   1      18.150  18.020   2.864  1.00  0.00    +0.000 C 
ATOM    108  H4  UNL A   1      16.880  19.167  -0.016  1.00  0.00    +0.000 H 
ATOM    109  H5  UNL A   1      18.160  21.122   0.633  1.00  0.00    +0.000 H 
ATOM    149  H45 UNL A   1      19.382  19.158   4.151  1.00  0.00    +0.000 H 
ATOM    150  H46 UNL A   1      18.147  17.183   3.467  1.00  0.00    +0.000 H 
BRANCH    2    1
ATOM      1  C1  UNL A   1      16.669  16.790   1.232  1.00  0.00    +0.000 C 
ATOM    106  H2  UNL A   1      16.037  16.464   2.030  1.00  0.00    +0.000 H 
ATOM    107  H3  UNL A   1      17.356  16.009   0.979  1.00  0.00    +0.000 H 
ATOM    105  H1  UNL A   1      16.069  17.027   0.377  1.00  0.00    +0.000 H 
ENDBRANCH    2    1
ENDBRANCH    6    5
ENDBRANCH    9    6
ENDBRANCH   12   11
ENDBRANCH   14   12
ENDBRANCH   16   14
ENDBRANCH   17   16
ENDBRANCH   18   17
ENDBRANCH   20   18
ENDBRANCH   21   20
ENDBRANCH   22   21
ENDBRANCH   24   22
ENDBRANCH   25   24
ENDBRANCH   26   25
ENDBRANCH   27   26
ENDBRANCH   28   27
ENDBRANCH   29   28
ENDBRANCH   30   29
ENDBRANCH   31   30
ENDBRANCH   32   31
ENDBRANCH   34   32
ENDBRANCH   38   37
BRANCH   42   43
ATOM     43  C29 UNL A   1      23.606  17.801  10.066  1.00  0.00    +0.000 C 
ATOM     44  C30 UNL A   1      24.843  18.134   9.465  1.00  0.00    +0.000 C 
ATOM     45  F1  UNL A   1      25.099  17.847   8.182  1.00  0.00    +0.000 F 
ATOM     46  C31 UNL A   1      25.871  18.780  10.155  1.00  0.00    +0.000 C 
ATOM     47  F2  UNL A   1      27.022  19.054   9.526  1.00  0.00    +0.000 F 
ATOM     48  C32 UNL A   1      25.710  19.128  11.479  1.00  0.00    +0.000 C 
ATOM     49  F3  UNL A   1      26.703  19.728  12.149  1.00  0.00    +0.000 F 
ATOM     50  C33 UNL A   1      24.501  18.874  12.092  1.00  0.00    +0.000 C 
ATOM     51  F4  UNL A   1      24.320  19.228  13.373  1.00  0.00    +0.000 F 
ATOM     52  C34 UNL A   1      23.459  18.260  11.388  1.00  0.00    +0.000 C 
ATOM     53  F5  UNL A   1      22.291  18.186  12.032  1.00  0.00    +0.000 F 
ENDBRANCH   42   43
BRANCH   59   60
ATOM     65  C43 UNL A   1      15.617  19.528  10.163  1.00  0.00    +0.000 C 
ATOM     66  F8  UNL A   1      14.881  20.225  11.039  1.00  0.00    +0.000 F 
ATOM     67  C44 UNL A   1      16.257  20.171   9.128  1.00  0.00    +0.000 C 
ATOM     68  F9  UNL A   1      16.191  21.506   9.021  1.00  0.00    +0.000 F 
ATOM     69  C45 UNL A   1      16.994  19.439   8.199  1.00  0.00    +0.000 C 
ATOM     70  F10 UNL A   1      17.546  20.159   7.213  1.00  0.00    +0.000 F 
ATOM     60  C40 UNL A   1      17.180  18.036   8.303  1.00  0.00    +0.000 C 
ATOM     61  C41 UNL A   1      16.569  17.438   9.417  1.00  0.00    +0.000 C 
ATOM     62  F6  UNL A   1      16.779  16.153   9.730  1.00  0.00    +0.000 F 
ATOM     63  C42 UNL A   1      15.763  18.162  10.300  1.00  0.00    +0.000 C 
ATOM     64  F7  UNL A   1      15.149  17.525  11.308  1.00  0.00    +0.000 F 
ENDBRANCH   59   60
BRANCH   74   75
ATOM     75  C49 UNL A   1      18.326  12.500   3.830  1.00  0.00    +0.000 C 
ATOM     76  C50 UNL A   1      18.111  11.833   5.055  1.00  0.00    +0.000 C 
ATOM     77  F11 UNL A   1      18.637  12.330   6.187  1.00  0.00    +0.000 F 
ATOM     78  C51 UNL A   1      17.240  10.750   5.145  1.00  0.00    +0.000 C 
ATOM     79  F12 UNL A   1      16.935  10.236   6.346  1.00  0.00    +0.000 F 
ATOM     80  C52 UNL A   1      16.621  10.266   4.005  1.00  0.00    +0.000 C 
ATOM     81  F13 UNL A   1      15.700   9.298   4.102  1.00  0.00    +0.000 F 
ATOM     82  C53 UNL A   1      16.931  10.818   2.770  1.00  0.00    +0.000 C 
ATOM     83  F14 UNL A   1      16.331  10.345   1.666  1.00  0.00    +0.000 F 
ATOM     84  C54 UNL A   1      17.779  11.924   2.677  1.00  0.00    +0.000 C 
ATOM     85  F15 UNL A   1      17.958  12.500   1.480  1.00  0.00    +0.000 F 
ENDBRANCH   74   75
TORSDOF 25
ENDMDL
