MODEL 1
REMARK VINA RESULT:      -8.0      0.000      0.000
ROOT
ATOM    153  H43 UNL A   1      42.573  24.442  30.012  1.00  0.00    +0.000 H 
ATOM    154  H44 UNL A   1      44.072  24.888  32.160  1.00  0.00    +0.000 H 
ATOM    155  H45 UNL A   1      46.452  24.829  28.861  1.00  0.00    +0.000 H 
ATOM    156  H46 UNL A   1      47.996  32.090  31.500  1.00  0.00    +0.000 H 
ATOM    157  H47 UNL A   1      45.455  32.049  31.345  1.00  0.00    +0.000 H 
ATOM    158  H48 UNL A   1      46.820  28.437  29.814  1.00  0.00    +0.000 H 
ATOM    159  H49 UNL A   1      49.585  27.814  28.286  1.00  0.00    +0.000 H 
ATOM    160  H50 UNL A   1      47.992  25.823  28.667  1.00  0.00    +0.000 H 
ATOM    161  H51 UNL A   1      43.148  27.810  25.872  1.00  0.00    +0.000 H 
ATOM    162  H52 UNL A   1      44.024  30.050  26.822  1.00  0.00    +0.000 H 
ATOM     42  C29 UNL A   1      44.445  29.903  29.675  1.00  0.00    +0.000 C 
ATOM     43  C30 UNL A   1      44.176  28.805  28.716  1.00  0.00    +0.000 C 
ATOM     44  N8  UNL A   1      43.935  27.570  29.006  1.00  0.00    +0.000 N 
ATOM     45  C31 UNL A   1      43.777  26.926  27.784  1.00  0.00    +0.000 C 
ATOM     46  C32 UNL A   1      44.182  25.633  27.646  1.00  0.00    +0.000 C 
ATOM     58  C39 UNL A   1      44.366  25.027  28.946  1.00  0.00    +0.000 C 
ATOM     59  C40 UNL A   1      43.560  24.744  30.029  1.00  0.00    +0.000 C 
ATOM     60  C41 UNL A   1      44.380  24.958  31.178  1.00  0.00    +0.000 C 
ATOM     61  C42 UNL A   1      45.670  25.276  30.750  1.00  0.00    +0.000 C 
ATOM     62  N9  UNL A   1      45.655  25.008  29.410  1.00  0.00    +0.000 N 
ATOM     63  C43 UNL A   1      46.806  25.870  31.419  1.00  0.00    +0.000 C 
ATOM     75  C50 UNL A   1      47.895  26.411  30.794  1.00  0.00    +0.000 C 
ATOM     76  N10 UNL A   1      48.660  27.369  31.440  1.00  0.00    +0.000 N 
ATOM     77  C51 UNL A   1      49.120  28.120  30.477  1.00  0.00    +0.000 C 
ATOM     78  C52 UNL A   1      49.217  29.595  30.571  1.00  0.00    +0.000 C 
ATOM     90  C59 UNL A   1      47.940  30.059  30.623  1.00  0.00    +0.000 C 
ATOM     91  C60 UNL A   1      47.429  31.319  31.112  1.00  0.00    +0.000 C 
ATOM     92  C61 UNL A   1      46.087  31.319  30.978  1.00  0.00    +0.000 C 
ATOM     93  C62 UNL A   1      45.656  30.130  30.235  1.00  0.00    +0.000 C 
ATOM     94  N11 UNL A   1      46.800  29.360  30.155  1.00  0.00    +0.000 N 
ATOM     95  C63 UNL A   1      49.109  27.524  29.154  1.00  0.00    +0.000 C 
ATOM     96  C64 UNL A   1      48.299  26.490  29.391  1.00  0.00    +0.000 C 
ATOM     97  C65 UNL A   1      43.549  27.960  26.812  1.00  0.00    +0.000 C 
ATOM     98  C66 UNL A   1      43.928  29.142  27.303  1.00  0.00    +0.000 C 
ENDROOT
BRANCH   42   41
ATOM     99  C67 UNL A   1      42.104  30.315  30.170  1.00  0.00    +0.000 C 
ATOM    164  H54 UNL A   1      40.085  30.781  30.405  1.00  0.00    +0.000 H 
ATOM    100  C68 UNL A   1      41.038  31.163  30.307  1.00  0.00    +0.000 C 
ATOM     38  C25 UNL A   1      41.236  32.543  30.314  1.00  0.00    +0.000 C 
ATOM     39  C26 UNL A   1      42.475  33.086  29.963  1.00  0.00    +0.000 C 
ATOM     40  C27 UNL A   1      43.523  32.222  29.658  1.00  0.00    +0.000 C 
ATOM    163  H53 UNL A   1      41.997  29.306  30.354  1.00  0.00    +0.000 H 
ATOM     41  C28 UNL A   1      43.330  30.834  29.779  1.00  0.00    +0.000 C 
ATOM    151  H41 UNL A   1      42.611  34.109  29.929  1.00  0.00    +0.000 H 
ATOM    152  H42 UNL A   1      44.433  32.595  29.347  1.00  0.00    +0.000 H 
BRANCH   38   36
ATOM     36  C24 UNL A   1      40.108  33.409  30.698  1.00  0.00    +0.000 C 
ATOM     37  O5  UNL A   1      39.697  34.268  29.927  1.00  0.00    +0.000 O 
BRANCH   36   35
ATOM     35  N7  UNL A   1      39.516  33.232  31.932  1.00  0.00    +0.000 N 
ATOM    150  H40 UNL A   1      39.783  33.865  32.636  1.00  0.00    +0.000 H 
BRANCH   35   34
ATOM     34  C23 UNL A   1      38.538  32.214  32.317  1.00  0.00    +0.000 C 
ATOM    148  H38 UNL A   1      37.608  32.694  32.541  1.00  0.00    +0.000 H 
ATOM    149  H39 UNL A   1      38.431  31.531  31.501  1.00  0.00    +0.000 H 
BRANCH   34   33
ATOM     33  C22 UNL A   1      38.992  31.427  33.537  1.00  0.00    +0.000 C 
ATOM    146  H36 UNL A   1      40.035  31.610  33.688  1.00  0.00    +0.000 H 
ATOM    147  H37 UNL A   1      38.395  31.756  34.362  1.00  0.00    +0.000 H 
BRANCH   33   32
ATOM    145  H35 UNL A   1      38.201  29.780  32.513  1.00  0.00    +0.000 H 
ATOM    144  H34 UNL A   1      38.297  29.570  34.296  1.00  0.00    +0.000 H 
ATOM     32  C21 UNL A   1      38.779  29.912  33.404  1.00  0.00    +0.000 C 
BRANCH   32   31
ATOM    143  H33 UNL A   1      40.128  28.441  34.065  1.00  0.00    +0.000 H 
ATOM    142  H32 UNL A   1      40.873  29.733  33.081  1.00  0.00    +0.000 H 
ATOM     31  C20 UNL A   1      40.045  29.067  33.202  1.00  0.00    +0.000 C 
BRANCH   31   30
ATOM    140  H30 UNL A   1      40.624  28.547  31.227  1.00  0.00    +0.000 H 
ATOM    141  H31 UNL A   1      40.351  27.177  32.330  1.00  0.00    +0.000 H 
ATOM     30  C19 UNL A   1      40.004  28.132  31.995  1.00  0.00    +0.000 C 
BRANCH   30   29
ATOM    138  H28 UNL A   1      38.025  27.336  32.108  1.00  0.00    +0.000 H 
ATOM    139  H29 UNL A   1      38.147  28.879  31.270  1.00  0.00    +0.000 H 
ATOM     29  C18 UNL A   1      38.600  27.921  31.420  1.00  0.00    +0.000 C 
BRANCH   29   28
ATOM    137  H27 UNL A   1      37.951  26.557  30.012  1.00  0.00    +0.000 H 
ATOM     28  N6  UNL A   1      38.654  27.234  30.147  1.00  0.00    +0.000 N 
BRANCH   28   26
ATOM     26  C17 UNL A   1      39.520  27.375  29.108  1.00  0.00    +0.000 C 
ATOM     27  O4  UNL A   1      39.451  28.399  28.427  1.00  0.00    +0.000 O 
BRANCH   26   25
ATOM     25  C16 UNL A   1      40.531  26.298  28.781  1.00  0.00    +0.000 C 
ATOM    135  H25 UNL A   1      41.189  26.676  28.026  1.00  0.00    +0.000 H 
ATOM    136  H26 UNL A   1      41.027  26.065  29.700  1.00  0.00    +0.000 H 
BRANCH   25   24
ATOM    133  H23 UNL A   1      40.698  24.234  28.363  1.00  0.00    +0.000 H 
ATOM    134  H24 UNL A   1      39.069  24.827  28.881  1.00  0.00    +0.000 H 
ATOM     24  C15 UNL A   1      39.938  24.983  28.276  1.00  0.00    +0.000 C 
BRANCH   24   23
ATOM    131  H21 UNL A   1      39.194  25.948  26.541  1.00  0.00    +0.000 H 
ATOM    132  H22 UNL A   1      40.195  24.499  26.251  1.00  0.00    +0.000 H 
ATOM     23  C14 UNL A   1      39.422  24.947  26.839  1.00  0.00    +0.000 C 
BRANCH   23   22
ATOM    129  H19 UNL A   1      37.689  23.959  27.585  1.00  0.00    +0.000 H 
ATOM    130  H20 UNL A   1      37.545  24.603  25.935  1.00  0.00    +0.000 H 
ATOM     22  C13 UNL A   1      38.168  24.089  26.636  1.00  0.00    +0.000 C 
BRANCH   22   21
ATOM     21  C12 UNL A   1      38.460  22.719  26.054  1.00  0.00    +0.000 C 
ATOM    127  H17 UNL A   1      39.418  22.750  25.579  1.00  0.00    +0.000 H 
ATOM    128  H18 UNL A   1      38.431  22.021  26.865  1.00  0.00    +0.000 H 
BRANCH   21   20
ATOM     20  C11 UNL A   1      37.427  22.258  25.030  1.00  0.00    +0.000 C 
ATOM    125  H15 UNL A   1      37.920  21.597  24.349  1.00  0.00    +0.000 H 
ATOM    126  H16 UNL A   1      36.644  21.806  25.602  1.00  0.00    +0.000 H 
BRANCH   20   19
ATOM     19  C10 UNL A   1      36.745  23.356  24.204  1.00  0.00    +0.000 C 
ATOM    124  H14 UNL A   1      37.303  23.418  23.293  1.00  0.00    +0.000 H 
ATOM    123  H13 UNL A   1      36.753  24.254  24.786  1.00  0.00    +0.000 H 
BRANCH   19   18
ATOM    121  H11 UNL A   1      34.715  23.945  24.034  1.00  0.00    +0.000 H 
ATOM     18  C9  UNL A   1      35.297  23.082  23.783  1.00  0.00    +0.000 C 
ATOM    122  H12 UNL A   1      35.338  22.870  22.735  1.00  0.00    +0.000 H 
BRANCH   18   17
ATOM     17  C8  UNL A   1      34.629  21.867  24.422  1.00  0.00    +0.000 C 
ATOM    119  H9  UNL A   1      34.972  20.996  23.904  1.00  0.00    +0.000 H 
ATOM    120  H10 UNL A   1      34.901  21.897  25.456  1.00  0.00    +0.000 H 
BRANCH   17   16
ATOM    117  H7  UNL A   1      32.787  22.732  23.877  1.00  0.00    +0.000 H 
ATOM    118  H8  UNL A   1      32.842  20.933  23.925  1.00  0.00    +0.000 H 
ATOM     16  C7  UNL A   1      33.111  21.855  24.397  1.00  0.00    +0.000 C 
BRANCH   16   15
ATOM    116  H6  UNL A   1      31.814  21.095  25.818  1.00  0.00    +0.000 H 
ATOM     15  N5  UNL A   1      32.446  21.835  25.676  1.00  0.00    +0.000 N 
BRANCH   15   13
ATOM     13  C6  UNL A   1      32.578  22.705  26.708  1.00  0.00    +0.000 C 
ATOM     14  O3  UNL A   1      33.491  22.501  27.514  1.00  0.00    +0.000 O 
BRANCH   13   12
ATOM    115  H5  UNL A   1      31.102  23.793  27.437  1.00  0.00    +0.000 H 
ATOM     12  N4  UNL A   1      31.857  23.849  26.808  1.00  0.00    +0.000 N 
BRANCH   12   11
ATOM    101  C69 UNL A   1      31.121  25.554  25.178  1.00  0.00    +0.000 C 
ATOM    102  C70 UNL A   1      31.487  26.870  24.964  1.00  0.00    +0.000 C 
ATOM    165  H55 UNL A   1      30.373  25.028  24.700  1.00  0.00    +0.000 H 
ATOM      9  N2  UNL A   1      32.478  27.117  25.905  1.00  0.00    +0.000 N 
ATOM     10  N3  UNL A   1      32.954  25.968  26.428  1.00  0.00    +0.000 N 
ATOM     11  C5  UNL A   1      31.987  25.077  26.193  1.00  0.00    +0.000 C 
BRANCH    9    8
ATOM      5  C1  UNL A   1      33.844  30.785  27.445  1.00  0.00    +0.000 C 
ATOM      6  C2  UNL A   1      34.768  29.806  27.075  1.00  0.00    +0.000 C 
ATOM      7  C3  UNL A   1      34.314  28.599  26.548  1.00  0.00    +0.000 C 
ATOM      8  C4  UNL A   1      32.938  28.379  26.374  1.00  0.00    +0.000 C 
ATOM    171  H61 UNL A   1      31.014  29.251  26.494  1.00  0.00    +0.000 H 
ATOM    172  H62 UNL A   1      31.802  31.330  27.494  1.00  0.00    +0.000 H 
ATOM    109  C77 UNL A   1      32.019  29.389  26.679  1.00  0.00    +0.000 C 
ATOM    110  C78 UNL A   1      32.474  30.591  27.237  1.00  0.00    +0.000 C 
ATOM    113  H3  UNL A   1      35.780  29.974  27.190  1.00  0.00    +0.000 H 
ATOM    114  H4  UNL A   1      34.990  27.864  26.286  1.00  0.00    +0.000 H 
BRANCH    5    2
ATOM      2  S1  UNL A   1      34.474  32.288  28.126  1.00  0.00    +0.000 S 
ATOM      3  O1  UNL A   1      33.468  33.310  27.993  1.00  0.00    +0.000 O 
ATOM      4  O2  UNL A   1      35.837  32.459  27.669  1.00  0.00    +0.000 O 
BRANCH    2    1
ATOM      1  N1  UNL A   1      34.572  31.992  29.775  1.00  0.00    +0.000 N 
ATOM    111  H1  UNL A   1      33.894  31.276  30.033  1.00  0.00    +0.000 H 
ATOM    112  H2  UNL A   1      34.372  32.851  30.287  1.00  0.00    +0.000 H 
ENDBRANCH    2    1
ENDBRANCH    5    2
ENDBRANCH    9    8
BRANCH  102  103
ATOM    166  H56 UNL A   1      29.020  27.805  24.646  1.00  0.00    +0.000 H 
ATOM    103  C71 UNL A   1      31.034  27.872  24.000  1.00  0.00    +0.000 C 
ATOM    104  C72 UNL A   1      29.666  28.196  23.943  1.00  0.00    +0.000 C 
ATOM    105  C73 UNL A   1      29.174  29.038  22.950  1.00  0.00    +0.000 C 
ATOM    170  H60 UNL A   1      32.920  28.248  23.129  1.00  0.00    +0.000 H 
ATOM    107  C75 UNL A   1      31.414  29.309  22.092  1.00  0.00    +0.000 C 
ATOM    108  C76 UNL A   1      31.909  28.452  23.080  1.00  0.00    +0.000 C 
ATOM    167  H57 UNL A   1      28.164  29.250  22.903  1.00  0.00    +0.000 H 
ATOM    169  H59 UNL A   1      32.062  29.735  21.411  1.00  0.00    +0.000 H 
ATOM    106  C74 UNL A   1      30.049  29.592  22.022  1.00  0.00    +0.000 C 
ATOM    168  H58 UNL A   1      29.688  30.212  21.280  1.00  0.00    +0.000 H 
ENDBRANCH  102  103
ENDBRANCH   12   11
ENDBRANCH   13   12
ENDBRANCH   15   13
ENDBRANCH   16   15
ENDBRANCH   17   16
ENDBRANCH   18   17
ENDBRANCH   19   18
ENDBRANCH   20   19
ENDBRANCH   21   20
ENDBRANCH   22   21
ENDBRANCH   23   22
ENDBRANCH   24   23
ENDBRANCH   25   24
ENDBRANCH   26   25
ENDBRANCH   28   26
ENDBRANCH   29   28
ENDBRANCH   30   29
ENDBRANCH   31   30
ENDBRANCH   32   31
ENDBRANCH   33   32
ENDBRANCH   34   33
ENDBRANCH   35   34
ENDBRANCH   36   35
ENDBRANCH   38   36
ENDBRANCH   42   41
BRANCH   46   47
ATOM     47  C33 UNL A   1      44.880  25.087  26.413  1.00  0.00    +0.000 C 
ATOM     48  C34 UNL A   1      44.420  23.869  25.868  1.00  0.00    +0.000 C 
ATOM     49  F1  UNL A   1      43.245  23.349  26.252  1.00  0.00    +0.000 F 
ATOM     50  C35 UNL A   1      45.204  23.101  25.001  1.00  0.00    +0.000 C 
ATOM     51  F2  UNL A   1      44.783  21.884  24.628  1.00  0.00    +0.000 F 
ATOM     52  C36 UNL A   1      46.446  23.548  24.594  1.00  0.00    +0.000 C 
ATOM     53  F3  UNL A   1      47.226  22.782  23.821  1.00  0.00    +0.000 F 
ATOM     54  C37 UNL A   1      46.902  24.768  25.042  1.00  0.00    +0.000 C 
ATOM     55  F4  UNL A   1      48.122  25.198  24.690  1.00  0.00    +0.000 F 
ATOM     56  C38 UNL A   1      46.147  25.512  25.949  1.00  0.00    +0.000 C 
ATOM     57  F5  UNL A   1      46.771  26.586  26.440  1.00  0.00    +0.000 F 
ENDBRANCH   46   47
BRANCH   63   64
ATOM     65  C45 UNL A   1      47.408  25.318  33.868  1.00  0.00    +0.000 C 
ATOM     66  F6  UNL A   1      48.243  24.338  33.499  1.00  0.00    +0.000 F 
ATOM     67  C46 UNL A   1      47.307  25.612  35.229  1.00  0.00    +0.000 C 
ATOM     68  F7  UNL A   1      47.983  24.880  36.128  1.00  0.00    +0.000 F 
ATOM     69  C47 UNL A   1      46.533  26.680  35.655  1.00  0.00    +0.000 C 
ATOM     70  F8  UNL A   1      46.467  26.989  36.957  1.00  0.00    +0.000 F 
ATOM     71  C48 UNL A   1      45.846  27.443  34.725  1.00  0.00    +0.000 C 
ATOM     72  F9  UNL A   1      45.134  28.506  35.124  1.00  0.00    +0.000 F 
ATOM     73  C49 UNL A   1      45.913  27.127  33.372  1.00  0.00    +0.000 C 
ATOM     74  F10 UNL A   1      45.246  27.898  32.498  1.00  0.00    +0.000 F 
ATOM     64  C44 UNL A   1      46.695  26.060  32.909  1.00  0.00    +0.000 C 
ENDBRANCH   63   64
BRANCH   78   79
ATOM     79  C53 UNL A   1      50.487  30.314  30.308  1.00  0.00    +0.000 C 
ATOM     80  C54 UNL A   1      50.627  31.160  29.193  1.00  0.00    +0.000 C 
ATOM     81  F11 UNL A   1      49.713  31.141  28.211  1.00  0.00    +0.000 F 
ATOM     82  C55 UNL A   1      51.663  32.098  29.103  1.00  0.00    +0.000 C 
ATOM     83  F12 UNL A   1      51.723  32.934  28.056  1.00  0.00    +0.000 F 
ATOM     84  C56 UNL A   1      52.591  32.213  30.124  1.00  0.00    +0.000 C 
ATOM     85  F13 UNL A   1      53.541  33.157  30.074  1.00  0.00    +0.000 F 
ATOM     86  C57 UNL A   1      52.503  31.372  31.218  1.00  0.00    +0.000 C 
ATOM     87  F14 UNL A   1      53.371  31.501  32.232  1.00  0.00    +0.000 F 
ATOM     88  C58 UNL A   1      51.468  30.437  31.309  1.00  0.00    +0.000 C 
ATOM     89  F15 UNL A   1      51.384  29.723  32.441  1.00  0.00    +0.000 F 
ENDBRANCH   78   79
TORSDOF 32
ENDMDL
MODEL 2
REMARK VINA RESULT:      -7.7      6.199     13.748
ROOT
ATOM    153  H43 UNL A   1      46.205  27.362  31.520  1.00  0.00    +0.000 H 
ATOM    154  H44 UNL A   1      44.587  27.456  29.414  1.00  0.00    +0.000 H 
ATOM    155  H45 UNL A   1      42.358  27.042  32.792  1.00  0.00    +0.000 H 
ATOM    156  H46 UNL A   1      39.391  33.805  30.046  1.00  0.00    +0.000 H 
ATOM    157  H47 UNL A   1      41.897  34.247  30.116  1.00  0.00    +0.000 H 
ATOM    158  H48 UNL A   1      41.286  30.488  31.772  1.00  0.00    +0.000 H 
ATOM    159  H49 UNL A   1      38.734  29.399  33.407  1.00  0.00    +0.000 H 
ATOM    160  H50 UNL A   1      40.663  27.733  33.016  1.00  0.00    +0.000 H 
ATOM    161  H51 UNL A   1      45.122  30.676  35.601  1.00  0.00    +0.000 H 
ATOM    162  H52 UNL A   1      43.812  32.683  34.632  1.00  0.00    +0.000 H 
ATOM     42  C29 UNL A   1      43.342  32.379  31.798  1.00  0.00    +0.000 C 
ATOM     43  C30 UNL A   1      43.843  31.379  32.772  1.00  0.00    +0.000 C 
ATOM     44  N8  UNL A   1      44.304  30.203  32.502  1.00  0.00    +0.000 N 
ATOM     45  C31 UNL A   1      44.617  29.636  33.732  1.00  0.00    +0.000 C 
ATOM     46  C32 UNL A   1      44.468  28.294  33.911  1.00  0.00    +0.000 C 
ATOM     58  C39 UNL A   1      44.365  27.628  32.633  1.00  0.00    +0.000 C 
ATOM     59  C40 UNL A   1      45.178  27.471  31.529  1.00  0.00    +0.000 C 
ATOM     60  C41 UNL A   1      44.299  27.494  30.404  1.00  0.00    +0.000 C 
ATOM     61  C42 UNL A   1      42.986  27.575  30.869  1.00  0.00    +0.000 C 
ATOM     62  N9  UNL A   1      43.090  27.353  32.213  1.00  0.00    +0.000 N 
ATOM     63  C43 UNL A   1      41.738  27.925  30.226  1.00  0.00    +0.000 C 
ATOM     75  C50 UNL A   1      40.586  28.269  30.875  1.00  0.00    +0.000 C 
ATOM     76  N10 UNL A   1      39.635  29.047  30.233  1.00  0.00    +0.000 N 
ATOM     77  C51 UNL A   1      39.069  29.724  31.194  1.00  0.00    +0.000 C 
ATOM     78  C52 UNL A   1      38.692  31.151  31.071  1.00  0.00    +0.000 C 
ATOM     90  C59 UNL A   1      39.856  31.846  30.966  1.00  0.00    +0.000 C 
ATOM     91  C60 UNL A   1      40.104  33.166  30.432  1.00  0.00    +0.000 C 
ATOM     92  C61 UNL A   1      41.425  33.422  30.520  1.00  0.00    +0.000 C 
ATOM     93  C62 UNL A   1      42.095  32.357  31.275  1.00  0.00    +0.000 C 
ATOM     94  N11 UNL A   1      41.121  31.388  31.411  1.00  0.00    +0.000 N 
ATOM     95  C63 UNL A   1      39.231  29.179  32.529  1.00  0.00    +0.000 C 
ATOM     96  C64 UNL A   1      40.215  28.310  32.288  1.00  0.00    +0.000 C 
ATOM     97  C65 UNL A   1      44.674  30.721  34.672  1.00  0.00    +0.000 C 
ATOM     98  C66 UNL A   1      44.063  31.796  34.168  1.00  0.00    +0.000 C 
ENDROOT
BRANCH   42   41
ATOM     99  C67 UNL A   1      44.083  34.589  32.477  1.00  0.00    +0.000 C 
ATOM    164  H54 UNL A   1      44.718  36.542  32.846  1.00  0.00    +0.000 H 
ATOM    100  C68 UNL A   1      44.941  35.652  32.374  1.00  0.00    +0.000 C 
ATOM     38  C25 UNL A   1      46.116  35.534  31.634  1.00  0.00    +0.000 C 
ATOM     39  C26 UNL A   1      46.330  34.426  30.810  1.00  0.00    +0.000 C 
ATOM     40  C27 UNL A   1      45.374  33.414  30.785  1.00  0.00    +0.000 C 
ATOM    163  H53 UNL A   1      43.318  34.599  33.169  1.00  0.00    +0.000 H 
ATOM     41  C28 UNL A   1      44.258  33.500  31.635  1.00  0.00    +0.000 C 
ATOM    151  H41 UNL A   1      47.182  34.358  30.231  1.00  0.00    +0.000 H 
ATOM    152  H42 UNL A   1      45.482  32.610  30.149  1.00  0.00    +0.000 H 
BRANCH   38   36
ATOM     36  C24 UNL A   1      47.120  36.607  31.741  1.00  0.00    +0.000 C 
ATOM     37  O5  UNL A   1      47.748  36.765  32.781  1.00  0.00    +0.000 O 
BRANCH   36   35
ATOM     35  N7  UNL A   1      47.349  37.423  30.652  1.00  0.00    +0.000 N 
ATOM    150  H40 UNL A   1      47.295  36.992  29.769  1.00  0.00    +0.000 H 
BRANCH   35   34
ATOM     34  C23 UNL A   1      47.662  38.852  30.655  1.00  0.00    +0.000 C 
ATOM    148  H38 UNL A   1      48.135  39.101  31.582  1.00  0.00    +0.000 H 
ATOM    149  H39 UNL A   1      48.310  39.052  29.828  1.00  0.00    +0.000 H 
BRANCH   34   33
ATOM     33  C22 UNL A   1      46.414  39.705  30.495  1.00  0.00    +0.000 C 
ATOM    146  H36 UNL A   1      45.961  39.825  31.457  1.00  0.00    +0.000 H 
ATOM    147  H37 UNL A   1      46.723  40.638  30.072  1.00  0.00    +0.000 H 
BRANCH   33   32
ATOM    145  H35 UNL A   1      45.762  38.143  29.263  1.00  0.00    +0.000 H 
ATOM    144  H34 UNL A   1      45.248  39.779  28.722  1.00  0.00    +0.000 H 
ATOM     32  C21 UNL A   1      45.374  39.101  29.541  1.00  0.00    +0.000 C 
BRANCH   32   31
ATOM    143  H33 UNL A   1      43.876  39.499  30.962  1.00  0.00    +0.000 H 
ATOM    142  H32 UNL A   1      43.948  37.795  30.426  1.00  0.00    +0.000 H 
ATOM     31  C20 UNL A   1      43.987  38.825  30.138  1.00  0.00    +0.000 C 
BRANCH   31   30
ATOM    140  H30 UNL A   1      41.907  38.983  29.746  1.00  0.00    +0.000 H 
ATOM    141  H31 UNL A   1      42.946  40.096  28.824  1.00  0.00    +0.000 H 
ATOM     30  C19 UNL A   1      42.818  39.101  29.196  1.00  0.00    +0.000 C 
BRANCH   30   29
ATOM    138  H28 UNL A   1      43.768  37.965  27.657  1.00  0.00    +0.000 H 
ATOM    139  H29 UNL A   1      42.269  37.270  28.260  1.00  0.00    +0.000 H 
ATOM     29  C18 UNL A   1      42.769  38.173  27.978  1.00  0.00    +0.000 C 
BRANCH   29   28
ATOM    137  H27 UNL A   1      41.323  38.221  26.505  1.00  0.00    +0.000 H 
ATOM     28  N6  UNL A   1      42.039  38.780  26.886  1.00  0.00    +0.000 N 
BRANCH   28   26
ATOM     26  C17 UNL A   1      42.183  40.001  26.302  1.00  0.00    +0.000 C 
ATOM     27  O4  UNL A   1      41.169  40.586  25.920  1.00  0.00    +0.000 O 
BRANCH   26   25
ATOM     25  C16 UNL A   1      43.550  40.619  26.109  1.00  0.00    +0.000 C 
ATOM    135  H25 UNL A   1      44.144  40.388  26.969  1.00  0.00    +0.000 H 
ATOM    136  H26 UNL A   1      43.938  40.208  25.201  1.00  0.00    +0.000 H 
BRANCH   25   24
ATOM    133  H23 UNL A   1      43.554  42.331  24.872  1.00  0.00    +0.000 H 
ATOM    134  H24 UNL A   1      42.692  42.478  26.456  1.00  0.00    +0.000 H 
ATOM     24  C15 UNL A   1      43.556  42.136  25.924  1.00  0.00    +0.000 C 
BRANCH   24   23
ATOM    131  H21 UNL A   1      45.554  42.844  25.867  1.00  0.00    +0.000 H 
ATOM    132  H22 UNL A   1      44.374  43.920  26.664  1.00  0.00    +0.000 H 
ATOM     23  C14 UNL A   1      44.719  42.917  26.532  1.00  0.00    +0.000 C 
BRANCH   23   22
ATOM    129  H19 UNL A   1      44.566  41.575  28.178  1.00  0.00    +0.000 H 
ATOM    130  H20 UNL A   1      46.203  42.181  27.843  1.00  0.00    +0.000 H 
ATOM     22  C13 UNL A   1      45.164  42.424  27.913  1.00  0.00    +0.000 C 
BRANCH   22   21
ATOM     21  C12 UNL A   1      45.022  43.469  29.003  1.00  0.00    +0.000 C 
ATOM    127  H17 UNL A   1      45.988  43.884  29.202  1.00  0.00    +0.000 H 
ATOM    128  H18 UNL A   1      44.330  44.203  28.645  1.00  0.00    +0.000 H 
BRANCH   21   20
ATOM     20  C11 UNL A   1      44.455  42.917  30.307  1.00  0.00    +0.000 C 
ATOM    125  H15 UNL A   1      44.297  41.867  30.174  1.00  0.00    +0.000 H 
ATOM    126  H16 UNL A   1      45.176  43.167  31.057  1.00  0.00    +0.000 H 
BRANCH   20   19
ATOM     19  C10 UNL A   1      43.135  43.529  30.793  1.00  0.00    +0.000 C 
ATOM    124  H14 UNL A   1      42.682  43.960  29.925  1.00  0.00    +0.000 H 
ATOM    123  H13 UNL A   1      43.367  44.235  31.563  1.00  0.00    +0.000 H 
BRANCH   19   18
ATOM    121  H11 UNL A   1      41.407  43.105  31.946  1.00  0.00    +0.000 H 
ATOM     18  C9  UNL A   1      42.101  42.546  31.353  1.00  0.00    +0.000 C 
ATOM    122  H12 UNL A   1      41.665  42.070  30.500  1.00  0.00    +0.000 H 
BRANCH   18   17
ATOM     17  C8  UNL A   1      42.649  41.414  32.219  1.00  0.00    +0.000 C 
ATOM    119  H9  UNL A   1      41.991  40.577  32.117  1.00  0.00    +0.000 H 
ATOM    120  H10 UNL A   1      43.643  41.235  31.865  1.00  0.00    +0.000 H 
BRANCH   17   16
ATOM    117  H7  UNL A   1      42.309  42.656  33.885  1.00  0.00    +0.000 H 
ATOM    118  H8  UNL A   1      42.346  40.885  34.203  1.00  0.00    +0.000 H 
ATOM     16  C7  UNL A   1      42.789  41.719  33.700  1.00  0.00    +0.000 C 
BRANCH   16   15
ATOM    116  H6  UNL A   1      44.465  42.715  34.389  1.00  0.00    +0.000 H 
ATOM     15  N5  UNL A   1      44.132  41.806  34.215  1.00  0.00    +0.000 N 
BRANCH   15   13
ATOM     13  C6  UNL A   1      44.996  40.798  34.492  1.00  0.00    +0.000 C 
ATOM     14  O3  UNL A   1      45.934  41.044  35.257  1.00  0.00    +0.000 O 
BRANCH   13   12
ATOM    115  H5  UNL A   1      45.215  39.299  33.227  1.00  0.00    +0.000 H 
ATOM     12  N4  UNL A   1      44.795  39.519  34.089  1.00  0.00    +0.000 N 
BRANCH   12   11
ATOM    101  C69 UNL A   1      42.829  38.031  34.250  1.00  0.00    +0.000 C 
ATOM    102  C70 UNL A   1      42.586  36.867  34.955  1.00  0.00    +0.000 C 
ATOM    165  H55 UNL A   1      42.207  38.486  33.563  1.00  0.00    +0.000 H 
ATOM      9  N2  UNL A   1      43.752  36.642  35.675  1.00  0.00    +0.000 N 
ATOM     10  N3  UNL A   1      44.528  37.745  35.708  1.00  0.00    +0.000 N 
ATOM     11  C5  UNL A   1      44.111  38.469  34.665  1.00  0.00    +0.000 C 
BRANCH    9    8
ATOM      5  C1  UNL A   1      45.097  33.125  37.552  1.00  0.00    +0.000 C 
ATOM      6  C2  UNL A   1      43.816  33.608  37.828  1.00  0.00    +0.000 C 
ATOM      7  C3  UNL A   1      43.366  34.763  37.192  1.00  0.00    +0.000 C 
ATOM      8  C4  UNL A   1      44.189  35.424  36.265  1.00  0.00    +0.000 C 
ATOM    171  H61 UNL A   1      46.023  35.348  35.212  1.00  0.00    +0.000 H 
ATOM    172  H62 UNL A   1      46.844  33.377  36.387  1.00  0.00    +0.000 H 
ATOM    109  C77 UNL A   1      45.444  34.898  35.937  1.00  0.00    +0.000 C 
ATOM    110  C78 UNL A   1      45.908  33.754  36.600  1.00  0.00    +0.000 C 
ATOM    113  H3  UNL A   1      43.207  33.113  38.498  1.00  0.00    +0.000 H 
ATOM    114  H4  UNL A   1      42.426  35.134  37.402  1.00  0.00    +0.000 H 
BRANCH    5    2
ATOM      2  S1  UNL A   1      45.624  31.670  38.402  1.00  0.00    +0.000 S 
ATOM      3  O1  UNL A   1      47.008  31.429  38.087  1.00  0.00    +0.000 O 
ATOM      4  O2  UNL A   1      44.596  30.661  38.256  1.00  0.00    +0.000 O 
BRANCH    2    1
ATOM      1  N1  UNL A   1      45.619  32.105  40.022  1.00  0.00    +0.000 N 
ATOM    111  H1  UNL A   1      46.579  32.219  40.347  1.00  0.00    +0.000 H 
ATOM    112  H2  UNL A   1      45.158  31.377  40.568  1.00  0.00    +0.000 H 
ENDBRANCH    2    1
ENDBRANCH    5    2
ENDBRANCH    9    8
BRANCH  102  103
ATOM    166  H56 UNL A   1      41.981  34.839  33.347  1.00  0.00    +0.000 H 
ATOM    103  C71 UNL A   1      41.418  35.989  35.031  1.00  0.00    +0.000 C 
ATOM    104  C72 UNL A   1      41.239  35.002  34.046  1.00  0.00    +0.000 C 
ATOM    105  C73 UNL A   1      40.075  34.240  34.002  1.00  0.00    +0.000 C 
ATOM    170  H60 UNL A   1      40.566  36.861  36.755  1.00  0.00    +0.000 H 
ATOM    107  C75 UNL A   1      39.273  35.386  35.970  1.00  0.00    +0.000 C 
ATOM    108  C76 UNL A   1      40.435  36.162  36.007  1.00  0.00    +0.000 C 
ATOM    167  H57 UNL A   1      39.944  33.535  33.260  1.00  0.00    +0.000 H 
ATOM    169  H59 UNL A   1      38.546  35.516  36.691  1.00  0.00    +0.000 H 
ATOM    106  C74 UNL A   1      39.089  34.436  34.963  1.00  0.00    +0.000 C 
ATOM    168  H58 UNL A   1      38.222  33.879  34.932  1.00  0.00    +0.000 H 
ENDBRANCH  102  103
ENDBRANCH   12   11
ENDBRANCH   13   12
ENDBRANCH   15   13
ENDBRANCH   16   15
ENDBRANCH   17   16
ENDBRANCH   18   17
ENDBRANCH   19   18
ENDBRANCH   20   19
ENDBRANCH   21   20
ENDBRANCH   22   21
ENDBRANCH   23   22
ENDBRANCH   24   23
ENDBRANCH   25   24
ENDBRANCH   26   25
ENDBRANCH   28   26
ENDBRANCH   29   28
ENDBRANCH   30   29
ENDBRANCH   31   30
ENDBRANCH   32   31
ENDBRANCH   33   32
ENDBRANCH   34   33
ENDBRANCH   35   34
ENDBRANCH   36   35
ENDBRANCH   38   36
ENDBRANCH   42   41
BRANCH   46   47
ATOM     47  C33 UNL A   1      43.923  27.661  35.180  1.00  0.00    +0.000 C 
ATOM     48  C34 UNL A   1      44.613  26.560  35.729  1.00  0.00    +0.000 C 
ATOM     49  F1  UNL A   1      45.849  26.250  35.310  1.00  0.00    +0.000 F 
ATOM     50  C35 UNL A   1      44.011  25.684  36.637  1.00  0.00    +0.000 C 
ATOM     51  F2  UNL A   1      44.657  24.572  37.016  1.00  0.00    +0.000 F 
ATOM     52  C36 UNL A   1      42.723  25.910  37.083  1.00  0.00    +0.000 C 
ATOM     53  F3  UNL A   1      42.120  25.035  37.898  1.00  0.00    +0.000 F 
ATOM     54  C37 UNL A   1      42.039  27.017  36.630  1.00  0.00    +0.000 C 
ATOM     55  F4  UNL A   1      40.774  27.229  37.021  1.00  0.00    +0.000 F 
ATOM     56  C38 UNL A   1      42.616  27.862  35.683  1.00  0.00    +0.000 C 
ATOM     57  F5  UNL A   1      41.792  28.795  35.197  1.00  0.00    +0.000 F 
ENDBRANCH   46   47
BRANCH   63   64
ATOM     65  C45 UNL A   1      42.245  29.230  28.056  1.00  0.00    +0.000 C 
ATOM     66  F6  UNL A   1      42.694  30.293  28.737  1.00  0.00    +0.000 F 
ATOM     67  C46 UNL A   1      42.312  29.270  26.663  1.00  0.00    +0.000 C 
ATOM     68  F7  UNL A   1      42.754  30.375  26.042  1.00  0.00    +0.000 F 
ATOM     69  C47 UNL A   1      41.952  28.160  25.916  1.00  0.00    +0.000 C 
ATOM     70  F8  UNL A   1      42.054  28.183  24.580  1.00  0.00    +0.000 F 
ATOM     71  C48 UNL A   1      41.510  27.016  26.558  1.00  0.00    +0.000 C 
ATOM     72  F9  UNL A   1      41.205  25.922  25.847  1.00  0.00    +0.000 F 
ATOM     73  C49 UNL A   1      41.403  26.987  27.946  1.00  0.00    +0.000 C 
ATOM     74  F10 UNL A   1      40.984  25.856  28.534  1.00  0.00    +0.000 F 
ATOM     64  C44 UNL A   1      41.768  28.090  28.729  1.00  0.00    +0.000 C 
ENDBRANCH   63   64
BRANCH   78   79
ATOM     79  C53 UNL A   1      37.317  31.625  31.361  1.00  0.00    +0.000 C 
ATOM     80  C54 UNL A   1      36.935  32.002  32.662  1.00  0.00    +0.000 C 
ATOM     81  F11 UNL A   1      37.720  31.705  33.709  1.00  0.00    +0.000 F 
ATOM     82  C55 UNL A   1      35.783  32.759  32.903  1.00  0.00    +0.000 C 
ATOM     83  F12 UNL A   1      35.490  33.158  34.150  1.00  0.00    +0.000 F 
ATOM     84  C56 UNL A   1      34.976  33.158  31.850  1.00  0.00    +0.000 C 
ATOM     85  F13 UNL A   1      33.912  33.943  32.070  1.00  0.00    +0.000 F 
ATOM     86  C57 UNL A   1      35.304  32.775  30.563  1.00  0.00    +0.000 C 
ATOM     87  F14 UNL A   1      34.554  33.189  29.532  1.00  0.00    +0.000 F 
ATOM     88  C58 UNL A   1      36.455  32.020  30.321  1.00  0.00    +0.000 C 
ATOM     89  F15 UNL A   1      36.766  31.768  29.042  1.00  0.00    +0.000 F 
ENDBRANCH   78   79
TORSDOF 32
ENDMDL
MODEL 3
REMARK VINA RESULT:      -7.6     24.559     32.021
ROOT
ATOM    153  H43 UNL A   1      41.570  12.235  50.635  1.00  0.00    +0.000 H 
ATOM    154  H44 UNL A   1      42.930  12.533  48.372  1.00  0.00    +0.000 H 
ATOM    155  H45 UNL A   1      44.584  14.894  51.244  1.00  0.00    +0.000 H 
ATOM    156  H46 UNL A   1      50.809  10.416  49.438  1.00  0.00    +0.000 H 
ATOM    157  H47 UNL A   1      48.991   8.712  49.959  1.00  0.00    +0.000 H 
ATOM    158  H48 UNL A   1      47.398  12.464  50.757  1.00  0.00    +0.000 H 
ATOM    159  H49 UNL A   1      48.913  15.123  51.759  1.00  0.00    +0.000 H 
ATOM    160  H50 UNL A   1      46.375  15.316  51.345  1.00  0.00    +0.000 H 
ATOM    161  H51 UNL A   1      44.389  11.145  55.072  1.00  0.00    +0.000 H 
ATOM    162  H52 UNL A   1      46.590  10.014  54.323  1.00  0.00    +0.000 H 
ATOM     42  C29 UNL A   1      46.767   9.831  51.446  1.00  0.00    +0.000 C 
ATOM     43  C30 UNL A   1      45.803  10.596  52.272  1.00  0.00    +0.000 C 
ATOM     44  N8  UNL A   1      44.755  11.224  51.853  1.00  0.00    +0.000 N 
ATOM     45  C31 UNL A   1      44.193  11.806  52.984  1.00  0.00    +0.000 C 
ATOM     46  C32 UNL A   1      43.562  13.008  52.880  1.00  0.00    +0.000 C 
ATOM     58  C39 UNL A   1      43.255  13.291  51.496  1.00  0.00    +0.000 C 
ATOM     59  C40 UNL A   1      42.480  12.708  50.515  1.00  0.00    +0.000 C 
ATOM     60  C41 UNL A   1      43.203  12.898  49.298  1.00  0.00    +0.000 C 
ATOM     61  C42 UNL A   1      44.340  13.660  49.572  1.00  0.00    +0.000 C 
ATOM     62  N9  UNL A   1      44.147  14.105  50.849  1.00  0.00    +0.000 N 
ATOM     63  C43 UNL A   1      45.558  13.903  48.831  1.00  0.00    +0.000 C 
ATOM     75  C50 UNL A   1      46.713  14.411  49.358  1.00  0.00    +0.000 C 
ATOM     76  N10 UNL A   1      47.928  14.150  48.745  1.00  0.00    +0.000 N 
ATOM     77  C51 UNL A   1      48.790  14.146  49.724  1.00  0.00    +0.000 C 
ATOM     78  C52 UNL A   1      49.904  13.175  49.823  1.00  0.00    +0.000 C 
ATOM     90  C59 UNL A   1      49.334  11.957  50.024  1.00  0.00    +0.000 C 
ATOM     91  C60 UNL A   1      49.866  10.633  49.795  1.00  0.00    +0.000 C 
ATOM     92  C61 UNL A   1      48.921   9.729  50.124  1.00  0.00    +0.000 C 
ATOM     93  C62 UNL A   1      47.778  10.402  50.751  1.00  0.00    +0.000 C 
ATOM     94  N11 UNL A   1      48.037  11.743  50.554  1.00  0.00    +0.000 N 
ATOM     95  C63 UNL A   1      48.367  14.817  50.939  1.00  0.00    +0.000 C 
ATOM     96  C64 UNL A   1      47.061  14.921  50.683  1.00  0.00    +0.000 C 
ATOM     97  C65 UNL A   1      44.772  11.130  54.113  1.00  0.00    +0.000 C 
ATOM     98  C66 UNL A   1      45.875  10.477  53.739  1.00  0.00    +0.000 C 
ENDROOT
BRANCH   42   41
ATOM     99  C67 UNL A   1      46.313   7.631  50.525  1.00  0.00    +0.000 C 
ATOM    164  H54 UNL A   1      45.786   5.710  49.905  1.00  0.00    +0.000 H 
ATOM    100  C68 UNL A   1      46.213   6.271  50.658  1.00  0.00    +0.000 C 
ATOM     38  C25 UNL A   1      46.687   5.643  51.809  1.00  0.00    +0.000 C 
ATOM     39  C26 UNL A   1      47.061   6.394  52.927  1.00  0.00    +0.000 C 
ATOM     40  C27 UNL A   1      47.004   7.783  52.851  1.00  0.00    +0.000 C 
ATOM    163  H53 UNL A   1      46.146   8.080  49.612  1.00  0.00    +0.000 H 
ATOM     41  C28 UNL A   1      46.641   8.392  51.637  1.00  0.00    +0.000 C 
ATOM    151  H41 UNL A   1      47.374   5.927  53.793  1.00  0.00    +0.000 H 
ATOM    152  H42 UNL A   1      47.226   8.359  53.677  1.00  0.00    +0.000 H 
BRANCH   38   36
ATOM     36  C24 UNL A   1      46.779   4.173  51.815  1.00  0.00    +0.000 C 
ATOM     37  O5  UNL A   1      47.849   3.621  52.043  1.00  0.00    +0.000 O 
BRANCH   36   35
ATOM     35  N7  UNL A   1      45.644   3.428  51.571  1.00  0.00    +0.000 N 
ATOM    150  H40 UNL A   1      45.675   2.834  50.787  1.00  0.00    +0.000 H 
BRANCH   35   34
ATOM     34  C23 UNL A   1      44.399   3.417  52.340  1.00  0.00    +0.000 C 
ATOM    148  H38 UNL A   1      44.332   2.494  52.877  1.00  0.00    +0.000 H 
ATOM    149  H39 UNL A   1      44.414   4.251  53.009  1.00  0.00    +0.000 H 
BRANCH   34   33
ATOM     33  C22 UNL A   1      43.179   3.553  51.443  1.00  0.00    +0.000 C 
ATOM    146  H36 UNL A   1      43.357   3.000  50.544  1.00  0.00    +0.000 H 
ATOM    147  H37 UNL A   1      42.341   3.178  51.993  1.00  0.00    +0.000 H 
BRANCH   33   32
ATOM    145  H35 UNL A   1      41.822   5.004  50.780  1.00  0.00    +0.000 H 
ATOM    144  H34 UNL A   1      43.524   5.296  50.279  1.00  0.00    +0.000 H 
ATOM     32  C21 UNL A   1      42.855   5.005  51.062  1.00  0.00    +0.000 C 
BRANCH   32   31
ATOM    143  H33 UNL A   1      44.008   6.304  52.247  1.00  0.00    +0.000 H 
ATOM    142  H32 UNL A   1      42.595   5.600  53.087  1.00  0.00    +0.000 H 
ATOM     31  C20 UNL A   1      42.972   6.041  52.188  1.00  0.00    +0.000 C 
BRANCH   31   30
ATOM    140  H30 UNL A   1      42.385   7.648  50.930  1.00  0.00    +0.000 H 
ATOM    141  H31 UNL A   1      41.180   7.143  52.139  1.00  0.00    +0.000 H 
ATOM     30  C19 UNL A   1      42.213   7.343  51.942  1.00  0.00    +0.000 C 
BRANCH   30   29
ATOM    138  H28 UNL A   1      43.247   9.173  52.324  1.00  0.00    +0.000 H 
ATOM    139  H29 UNL A   1      41.746   8.980  53.221  1.00  0.00    +0.000 H 
ATOM     29  C18 UNL A   1      42.630   8.490  52.869  1.00  0.00    +0.000 C 
BRANCH   29   28
ATOM    137  H27 UNL A   1      44.261   7.639  53.805  1.00  0.00    +0.000 H 
ATOM     28  N6  UNL A   1      43.367   7.996  54.012  1.00  0.00    +0.000 N 
BRANCH   28   26
ATOM     26  C17 UNL A   1      43.023   7.948  55.328  1.00  0.00    +0.000 C 
ATOM     27  O4  UNL A   1      41.853   7.692  55.614  1.00  0.00    +0.000 O 
BRANCH   26   25
ATOM     25  C16 UNL A   1      44.042   8.218  56.413  1.00  0.00    +0.000 C 
ATOM    135  H25 UNL A   1      44.999   8.333  55.950  1.00  0.00    +0.000 H 
ATOM    136  H26 UNL A   1      43.707   9.096  56.925  1.00  0.00    +0.000 H 
BRANCH   25   24
ATOM    133  H23 UNL A   1      43.821   7.543  58.402  1.00  0.00    +0.000 H 
ATOM    134  H24 UNL A   1      43.578   6.313  57.098  1.00  0.00    +0.000 H 
ATOM     24  C15 UNL A   1      44.161   7.127  57.477  1.00  0.00    +0.000 C 
BRANCH   24   23
ATOM    131  H21 UNL A   1      46.135   7.259  58.239  1.00  0.00    +0.000 H 
ATOM    132  H22 UNL A   1      45.392   5.637  58.293  1.00  0.00    +0.000 H 
ATOM     23  C14 UNL A   1      45.544   6.530  57.725  1.00  0.00    +0.000 C 
BRANCH   23   22
ATOM    129  H19 UNL A   1      46.004   5.116  56.200  1.00  0.00    +0.000 H 
ATOM    130  H20 UNL A   1      46.037   6.818  55.691  1.00  0.00    +0.000 H 
ATOM     22  C13 UNL A   1      46.295   6.115  56.454  1.00  0.00    +0.000 C 
BRANCH   22   21
ATOM     21  C12 UNL A   1      47.804   6.151  56.604  1.00  0.00    +0.000 C 
ATOM    127  H17 UNL A   1      48.051   5.892  57.612  1.00  0.00    +0.000 H 
ATOM    128  H18 UNL A   1      48.206   5.457  55.896  1.00  0.00    +0.000 H 
BRANCH   21   20
ATOM     20  C11 UNL A   1      48.415   7.514  56.292  1.00  0.00    +0.000 C 
ATOM    125  H15 UNL A   1      49.192   7.363  55.571  1.00  0.00    +0.000 H 
ATOM    126  H16 UNL A   1      47.600   8.117  55.949  1.00  0.00    +0.000 H 
BRANCH   20   19
ATOM     19  C10 UNL A   1      49.019   8.280  57.475  1.00  0.00    +0.000 C 
ATOM    124  H14 UNL A   1      49.861   8.806  57.076  1.00  0.00    +0.000 H 
ATOM    123  H13 UNL A   1      49.265   7.567  58.234  1.00  0.00    +0.000 H 
BRANCH   19   18
ATOM    121  H11 UNL A   1      47.551   8.883  58.881  1.00  0.00    +0.000 H 
ATOM     18  C9  UNL A   1      48.126   9.352  58.111  1.00  0.00    +0.000 C 
ATOM    122  H12 UNL A   1      48.795  10.111  58.462  1.00  0.00    +0.000 H 
BRANCH   18   17
ATOM     17  C8  UNL A   1      47.157  10.064  57.171  1.00  0.00    +0.000 C 
ATOM    119  H9  UNL A   1      47.552   9.996  56.179  1.00  0.00    +0.000 H 
ATOM    120  H10 UNL A   1      46.215   9.575  57.301  1.00  0.00    +0.000 H 
BRANCH   17   16
ATOM    117  H7  UNL A   1      45.842  11.670  57.532  1.00  0.00    +0.000 H 
ATOM    118  H8  UNL A   1      47.431  11.733  58.375  1.00  0.00    +0.000 H 
ATOM     16  C7  UNL A   1      46.901  11.532  57.468  1.00  0.00    +0.000 C 
BRANCH   16   15
ATOM    116  H6  UNL A   1      46.730  12.999  56.021  1.00  0.00    +0.000 H 
ATOM     15  N5  UNL A   1      47.408  12.481  56.510  1.00  0.00    +0.000 N 
BRANCH   15   13
ATOM     13  C6  UNL A   1      48.699  12.752  56.194  1.00  0.00    +0.000 C 
ATOM     14  O3  UNL A   1      49.376  13.363  57.028  1.00  0.00    +0.000 O 
BRANCH   13   12
ATOM    115  H5  UNL A   1      49.282  12.869  54.313  1.00  0.00    +0.000 H 
ATOM     12  N4  UNL A   1      49.308  12.262  55.086  1.00  0.00    +0.000 N 
BRANCH   12   11
ATOM    101  C69 UNL A   1      49.661  10.207  53.761  1.00  0.00    +0.000 C 
ATOM    102  C70 UNL A   1      50.641   9.232  53.780  1.00  0.00    +0.000 C 
ATOM    165  H55 UNL A   1      48.875  10.289  53.096  1.00  0.00    +0.000 H 
ATOM      9  N2  UNL A   1      51.495   9.612  54.806  1.00  0.00    +0.000 N 
ATOM     10  N3  UNL A   1      50.923  10.540  55.602  1.00  0.00    +0.000 N 
ATOM     11  C5  UNL A   1      49.959  11.070  54.844  1.00  0.00    +0.000 C 
BRANCH    9    8
ATOM      5  C1  UNL A   1      55.456   8.285  55.303  1.00  0.00    +0.000 C 
ATOM      6  C2  UNL A   1      55.199   9.413  54.521  1.00  0.00    +0.000 C 
ATOM      7  C3  UNL A   1      53.889   9.861  54.373  1.00  0.00    +0.000 C 
ATOM      8  C4  UNL A   1      52.838   9.193  55.021  1.00  0.00    +0.000 C 
ATOM    171  H61 UNL A   1      52.341   7.654  56.386  1.00  0.00    +0.000 H 
ATOM    172  H62 UNL A   1      54.623   6.818  56.578  1.00  0.00    +0.000 H 
ATOM    109  C77 UNL A   1      53.105   8.106  55.861  1.00  0.00    +0.000 C 
ATOM    110  C78 UNL A   1      54.420   7.637  55.986  1.00  0.00    +0.000 C 
ATOM    113  H3  UNL A   1      55.975   9.912  54.057  1.00  0.00    +0.000 H 
ATOM    114  H4  UNL A   1      53.690  10.686  53.784  1.00  0.00    +0.000 H 
BRANCH    5    2
ATOM      2  S1  UNL A   1      57.133   7.748  55.441  1.00  0.00    +0.000 S 
ATOM      3  O1  UNL A   1      57.423   7.497  56.828  1.00  0.00    +0.000 O 
ATOM      4  O2  UNL A   1      57.953   8.601  54.606  1.00  0.00    +0.000 O 
BRANCH    2    1
ATOM      1  N1  UNL A   1      57.150   6.236  54.715  1.00  0.00    +0.000 N 
ATOM    111  H1  UNL A   1      56.251   5.777  54.863  1.00  0.00    +0.000 H 
ATOM    112  H2  UNL A   1      57.892   5.670  55.125  1.00  0.00    +0.000 H 
ENDBRANCH    2    1
ENDBRANCH    5    2
ENDBRANCH    9    8
BRANCH  102  103
ATOM    166  H56 UNL A   1      49.916   6.749  54.390  1.00  0.00    +0.000 H 
ATOM    103  C71 UNL A   1      50.842   8.024  52.979  1.00  0.00    +0.000 C 
ATOM    104  C72 UNL A   1      50.440   6.782  53.502  1.00  0.00    +0.000 C 
ATOM    105  C73 UNL A   1      50.739   5.597  52.836  1.00  0.00    +0.000 C 
ATOM    170  H60 UNL A   1      51.773   8.969  51.336  1.00  0.00    +0.000 H 
ATOM    107  C75 UNL A   1      51.786   6.872  51.074  1.00  0.00    +0.000 C 
ATOM    108  C76 UNL A   1      51.499   8.063  51.748  1.00  0.00    +0.000 C 
ATOM    167  H57 UNL A   1      50.460   4.689  53.241  1.00  0.00    +0.000 H 
ATOM    169  H59 UNL A   1      52.274   6.902  50.165  1.00  0.00    +0.000 H 
ATOM    106  C74 UNL A   1      51.416   5.642  51.623  1.00  0.00    +0.000 C 
ATOM    168  H58 UNL A   1      51.645   4.767  51.128  1.00  0.00    +0.000 H 
ENDBRANCH  102  103
ENDBRANCH   12   11
ENDBRANCH   13   12
ENDBRANCH   15   13
ENDBRANCH   16   15
ENDBRANCH   17   16
ENDBRANCH   18   17
ENDBRANCH   19   18
ENDBRANCH   20   19
ENDBRANCH   21   20
ENDBRANCH   22   21
ENDBRANCH   23   22
ENDBRANCH   24   23
ENDBRANCH   25   24
ENDBRANCH   26   25
ENDBRANCH   28   26
ENDBRANCH   29   28
ENDBRANCH   30   29
ENDBRANCH   31   30
ENDBRANCH   32   31
ENDBRANCH   33   32
ENDBRANCH   34   33
ENDBRANCH   35   34
ENDBRANCH   36   35
ENDBRANCH   38   36
ENDBRANCH   42   41
BRANCH   46   47
ATOM     47  C33 UNL A   1      43.673  14.119  53.909  1.00  0.00    +0.000 C 
ATOM     48  C34 UNL A   1      44.960  14.534  54.310  1.00  0.00    +0.000 C 
ATOM     49  F1  UNL A   1      46.046  14.160  53.617  1.00  0.00    +0.000 F 
ATOM     50  C35 UNL A   1      45.176  15.249  55.493  1.00  0.00    +0.000 C 
ATOM     51  F2  UNL A   1      46.428  15.492  55.904  1.00  0.00    +0.000 F 
ATOM     52  C36 UNL A   1      44.111  15.633  56.285  1.00  0.00    +0.000 C 
ATOM     53  F3  UNL A   1      44.320  16.256  57.453  1.00  0.00    +0.000 F 
ATOM     54  C37 UNL A   1      42.830  15.314  55.892  1.00  0.00    +0.000 C 
ATOM     55  F4  UNL A   1      41.789  15.643  56.670  1.00  0.00    +0.000 F 
ATOM     56  C38 UNL A   1      42.615  14.554  54.742  1.00  0.00    +0.000 C 
ATOM     57  F5  UNL A   1      41.350  14.165  54.563  1.00  0.00    +0.000 F 
ENDBRANCH   46   47
BRANCH   63   64
ATOM     65  C45 UNL A   1      45.599  14.208  46.268  1.00  0.00    +0.000 C 
ATOM     66  F6  UNL A   1      45.518  15.541  46.371  1.00  0.00    +0.000 F 
ATOM     67  C46 UNL A   1      45.727  13.657  44.991  1.00  0.00    +0.000 C 
ATOM     68  F7  UNL A   1      45.700  14.452  43.910  1.00  0.00    +0.000 F 
ATOM     69  C47 UNL A   1      45.913  12.293  44.837  1.00  0.00    +0.000 C 
ATOM     70  F8  UNL A   1      46.076  11.768  43.615  1.00  0.00    +0.000 F 
ATOM     71  C48 UNL A   1      45.954  11.475  45.954  1.00  0.00    +0.000 C 
ATOM     72  F9  UNL A   1      46.181  10.162  45.817  1.00  0.00    +0.000 F 
ATOM     73  C49 UNL A   1      45.786  12.017  47.225  1.00  0.00    +0.000 C 
ATOM     74  F10 UNL A   1      45.846  11.196  48.285  1.00  0.00    +0.000 F 
ATOM     64  C44 UNL A   1      45.606  13.394  47.415  1.00  0.00    +0.000 C 
ENDBRANCH   63   64
BRANCH   78   79
ATOM     79  C53 UNL A   1      51.311  13.613  49.992  1.00  0.00    +0.000 C 
ATOM     80  C54 UNL A   1      52.063  13.229  51.118  1.00  0.00    +0.000 C 
ATOM     81  F11 UNL A   1      51.455  12.674  52.178  1.00  0.00    +0.000 F 
ATOM     82  C55 UNL A   1      53.459  13.333  51.144  1.00  0.00    +0.000 C 
ATOM     83  F12 UNL A   1      54.145  12.891  52.209  1.00  0.00    +0.000 F 
ATOM     84  C56 UNL A   1      54.143  13.828  50.047  1.00  0.00    +0.000 C 
ATOM     85  F13 UNL A   1      55.482  13.862  50.042  1.00  0.00    +0.000 F 
ATOM     86  C57 UNL A   1      53.432  14.247  48.938  1.00  0.00    +0.000 C 
ATOM     87  F14 UNL A   1      54.085  14.691  47.854  1.00  0.00    +0.000 F 
ATOM     88  C58 UNL A   1      52.038  14.142  48.910  1.00  0.00    +0.000 C 
ATOM     89  F15 UNL A   1      51.420  14.475  47.768  1.00  0.00    +0.000 F 
ENDBRANCH   78   79
TORSDOF 32
ENDMDL
MODEL 4
REMARK VINA RESULT:      -7.6     41.349     50.747
ROOT
ATOM    153  H43 UNL A   1      10.055  -8.845  26.031  1.00  0.00    +0.000 H 
ATOM    154  H44 UNL A   1       9.855 -10.976  24.457  1.00  0.00    +0.000 H 
ATOM    155  H45 UNL A   1       6.534 -10.726  26.794  1.00  0.00    +0.000 H 
ATOM    156  H46 UNL A   1       3.187 -10.414  19.669  1.00  0.00    +0.000 H 
ATOM    157  H47 UNL A   1       4.931  -8.561  19.581  1.00  0.00    +0.000 H 
ATOM    158  H48 UNL A   1       4.974 -10.081  23.446  1.00  0.00    +0.000 H 
ATOM    159  H49 UNL A   1       2.549 -11.370  25.129  1.00  0.00    +0.000 H 
ATOM    160  H50 UNL A   1       4.854 -11.287  26.284  1.00  0.00    +0.000 H 
ATOM    161  H51 UNL A   1       5.900  -5.447  26.108  1.00  0.00    +0.000 H 
ATOM    162  H52 UNL A   1       4.653  -5.710  23.859  1.00  0.00    +0.000 H 
ATOM     42  C29 UNL A   1       5.864  -7.743  22.202  1.00  0.00    +0.000 C 
ATOM     43  C30 UNL A   1       6.114  -7.435  23.631  1.00  0.00    +0.000 C 
ATOM     44  N8  UNL A   1       7.039  -7.938  24.378  1.00  0.00    +0.000 N 
ATOM     45  C31 UNL A   1       6.854  -7.370  25.633  1.00  0.00    +0.000 C 
ATOM     46  C32 UNL A   1       7.135  -8.097  26.749  1.00  0.00    +0.000 C 
ATOM     58  C39 UNL A   1       7.958  -9.236  26.409  1.00  0.00    +0.000 C 
ATOM     59  C40 UNL A   1       9.215  -9.423  25.872  1.00  0.00    +0.000 C 
ATOM     60  C41 UNL A   1       9.107 -10.587  25.051  1.00  0.00    +0.000 C 
ATOM     61  C42 UNL A   1       7.819 -11.108  25.187  1.00  0.00    +0.000 C 
ATOM     62  N9  UNL A   1       7.287 -10.419  26.240  1.00  0.00    +0.000 N 
ATOM     63  C43 UNL A   1       7.058 -12.056  24.405  1.00  0.00    +0.000 C 
ATOM     75  C50 UNL A   1       5.704 -12.231  24.477  1.00  0.00    +0.000 C 
ATOM     76  N10 UNL A   1       5.014 -12.758  23.396  1.00  0.00    +0.000 N 
ATOM     77  C51 UNL A   1       3.833 -12.209  23.468  1.00  0.00    +0.000 C 
ATOM     78  C52 UNL A   1       3.084 -11.734  22.282  1.00  0.00    +0.000 C 
ATOM     90  C59 UNL A   1       3.786 -10.682  21.782  1.00  0.00    +0.000 C 
ATOM     91  C60 UNL A   1       3.774 -10.101  20.459  1.00  0.00    +0.000 C 
ATOM     92  C61 UNL A   1       4.658  -9.083  20.429  1.00  0.00    +0.000 C 
ATOM     93  C62 UNL A   1       5.175  -8.827  21.777  1.00  0.00    +0.000 C 
ATOM     94  N11 UNL A   1       4.704  -9.893  22.518  1.00  0.00    +0.000 N 
ATOM     95  C63 UNL A   1       3.468 -11.665  24.762  1.00  0.00    +0.000 C 
ATOM     96  C64 UNL A   1       4.672 -11.656  25.339  1.00  0.00    +0.000 C 
ATOM     97  C65 UNL A   1       6.016  -6.220  25.433  1.00  0.00    +0.000 C 
ATOM     98  C66 UNL A   1       5.412  -6.295  24.245  1.00  0.00    +0.000 C 
ENDROOT
BRANCH   42   41
ATOM     99  C67 UNL A   1       7.408  -6.805  20.580  1.00  0.00    +0.000 C 
ATOM    164  H54 UNL A   1       8.733  -5.816  19.308  1.00  0.00    +0.000 H 
ATOM    100  C68 UNL A   1       7.788  -5.808  19.721  1.00  0.00    +0.000 C 
ATOM     38  C25 UNL A   1       6.900  -4.781  19.404  1.00  0.00    +0.000 C 
ATOM     39  C26 UNL A   1       5.707  -4.626  20.114  1.00  0.00    +0.000 C 
ATOM     40  C27 UNL A   1       5.395  -5.549  21.109  1.00  0.00    +0.000 C 
ATOM    163  H53 UNL A   1       7.976  -7.661  20.671  1.00  0.00    +0.000 H 
ATOM     41  C28 UNL A   1       6.248  -6.646  21.324  1.00  0.00    +0.000 C 
ATOM    151  H41 UNL A   1       5.068  -3.843  19.906  1.00  0.00    +0.000 H 
ATOM    152  H42 UNL A   1       4.546  -5.430  21.683  1.00  0.00    +0.000 H 
BRANCH   38   36
ATOM     36  C24 UNL A   1       7.254  -3.866  18.304  1.00  0.00    +0.000 C 
ATOM     37  O5  UNL A   1       7.168  -4.236  17.139  1.00  0.00    +0.000 O 
BRANCH   36   35
ATOM     35  N7  UNL A   1       7.673  -2.587  18.605  1.00  0.00    +0.000 N 
ATOM    150  H40 UNL A   1       7.172  -1.855  18.180  1.00  0.00    +0.000 H 
BRANCH   35   34
ATOM     34  C23 UNL A   1       8.776  -2.190  19.481  1.00  0.00    +0.000 C 
ATOM    148  H38 UNL A   1       8.623  -1.179  19.795  1.00  0.00    +0.000 H 
ATOM    149  H39 UNL A   1       8.791  -2.854  20.319  1.00  0.00    +0.000 H 
BRANCH   34   33
ATOM     33  C22 UNL A   1      10.121  -2.287  18.777  1.00  0.00    +0.000 C 
ATOM    146  H36 UNL A   1      10.554  -3.238  19.007  1.00  0.00    +0.000 H 
ATOM    147  H37 UNL A   1       9.937  -2.166  17.730  1.00  0.00    +0.000 H 
BRANCH   33   32
ATOM    145  H35 UNL A   1      12.059  -1.680  19.286  1.00  0.00    +0.000 H 
ATOM    144  H34 UNL A   1      10.752  -0.748  20.096  1.00  0.00    +0.000 H 
ATOM     32  C21 UNL A   1      11.112  -1.190  19.190  1.00  0.00    +0.000 C 
BRANCH   32   31
ATOM    143  H33 UNL A   1      10.401   0.458  18.094  1.00  0.00    +0.000 H 
ATOM    142  H32 UNL A   1      11.653  -0.501  17.252  1.00  0.00    +0.000 H 
ATOM     31  C20 UNL A   1      11.333  -0.061  18.174  1.00  0.00    +0.000 C 
BRANCH   31   30
ATOM    140  H30 UNL A   1      13.138   0.486  19.148  1.00  0.00    +0.000 H 
ATOM    141  H31 UNL A   1      12.741   1.426  17.690  1.00  0.00    +0.000 H 
ATOM     30  C19 UNL A   1      12.370   0.980  18.589  1.00  0.00    +0.000 C 
BRANCH   30   29
ATOM    138  H28 UNL A   1      12.374   3.002  19.278  1.00  0.00    +0.000 H 
ATOM    139  H29 UNL A   1      10.779   2.267  19.175  1.00  0.00    +0.000 H 
ATOM     29  C18 UNL A   1      11.802   2.114  19.449  1.00  0.00    +0.000 C 
BRANCH   29   28
ATOM    137  H27 UNL A   1      12.735   1.474  21.176  1.00  0.00    +0.000 H 
ATOM     28  N6  UNL A   1      11.855   1.781  20.856  1.00  0.00    +0.000 N 
BRANCH   28   26
ATOM     26  C17 UNL A   1      10.884   1.822  21.808  1.00  0.00    +0.000 C 
ATOM     27  O4  UNL A   1      10.677   2.892  22.381  1.00  0.00    +0.000 O 
BRANCH   26   25
ATOM     25  C16 UNL A   1      10.089   0.587  22.169  1.00  0.00    +0.000 C 
ATOM    135  H25 UNL A   1       9.187   0.900  22.651  1.00  0.00    +0.000 H 
ATOM    136  H26 UNL A   1       9.922   0.061  21.252  1.00  0.00    +0.000 H 
BRANCH   25   24
ATOM    133  H23 UNL A   1      11.606   0.132  23.567  1.00  0.00    +0.000 H 
ATOM    134  H24 UNL A   1      10.038  -0.751  23.756  1.00  0.00    +0.000 H 
ATOM     24  C15 UNL A   1      10.803  -0.396  23.096  1.00  0.00    +0.000 C 
BRANCH   24   23
ATOM    131  H21 UNL A   1      10.626  -2.407  22.447  1.00  0.00    +0.000 H 
ATOM    132  H22 UNL A   1      11.738  -1.381  21.498  1.00  0.00    +0.000 H 
ATOM     23  C14 UNL A   1      11.391  -1.659  22.471  1.00  0.00    +0.000 C 
BRANCH   23   22
ATOM    129  H19 UNL A   1      12.558  -3.303  23.156  1.00  0.00    +0.000 H 
ATOM    130  H20 UNL A   1      13.477  -1.837  22.750  1.00  0.00    +0.000 H 
ATOM     22  C13 UNL A   1      12.600  -2.234  23.216  1.00  0.00    +0.000 C 
BRANCH   22   21
ATOM     21  C12 UNL A   1      12.653  -1.838  24.679  1.00  0.00    +0.000 C 
ATOM    127  H17 UNL A   1      11.874  -1.130  24.867  1.00  0.00    +0.000 H 
ATOM    128  H18 UNL A   1      12.534  -2.735  25.251  1.00  0.00    +0.000 H 
BRANCH   21   20
ATOM     20  C11 UNL A   1      13.982  -1.216  25.095  1.00  0.00    +0.000 C 
ATOM    125  H15 UNL A   1      14.068  -1.313  26.157  1.00  0.00    +0.000 H 
ATOM    126  H16 UNL A   1      14.728  -1.744  24.538  1.00  0.00    +0.000 H 
BRANCH   20   19
ATOM     19  C10 UNL A   1      14.185   0.263  24.744  1.00  0.00    +0.000 C 
ATOM    124  H14 UNL A   1      14.082   0.323  23.681  1.00  0.00    +0.000 H 
ATOM    123  H13 UNL A   1      15.148   0.556  25.109  1.00  0.00    +0.000 H 
BRANCH   19   18
ATOM    121  H11 UNL A   1      13.488   2.234  25.104  1.00  0.00    +0.000 H 
ATOM     18  C9  UNL A   1      13.151   1.240  25.315  1.00  0.00    +0.000 C 
ATOM    122  H12 UNL A   1      12.223   0.983  24.847  1.00  0.00    +0.000 H 
BRANCH   18   17
ATOM     17  C8  UNL A   1      12.892   1.144  26.817  1.00  0.00    +0.000 C 
ATOM    119  H9  UNL A   1      12.056   0.493  26.964  1.00  0.00    +0.000 H 
ATOM    120  H10 UNL A   1      13.805   0.787  27.246  1.00  0.00    +0.000 H 
BRANCH   17   16
ATOM    117  H7  UNL A   1      13.208   2.502  28.396  1.00  0.00    +0.000 H 
ATOM    118  H8  UNL A   1      12.784   3.217  26.800  1.00  0.00    +0.000 H 
ATOM     16  C7  UNL A   1      12.591   2.454  27.524  1.00  0.00    +0.000 C 
BRANCH   16   15
ATOM    116  H6  UNL A   1      11.110   3.104  28.813  1.00  0.00    +0.000 H 
ATOM     15  N5  UNL A   1      11.228   2.661  27.943  1.00  0.00    +0.000 N 
BRANCH   15   13
ATOM     13  C6  UNL A   1      10.086   2.323  27.294  1.00  0.00    +0.000 C 
ATOM     14  O3  UNL A   1       9.823   2.924  26.248  1.00  0.00    +0.000 O 
BRANCH   13   12
ATOM    115  H5  UNL A   1       9.114   1.235  28.623  1.00  0.00    +0.000 H 
ATOM     12  N4  UNL A   1       9.311   1.272  27.660  1.00  0.00    +0.000 N 
BRANCH   12   11
ATOM    101  C69 UNL A   1       9.490  -0.756  26.259  1.00  0.00    +0.000 C 
ATOM    102  C70 UNL A   1       8.559  -1.673  25.808  1.00  0.00    +0.000 C 
ATOM    165  H55 UNL A   1      10.514  -0.793  26.133  1.00  0.00    +0.000 H 
ATOM      9  N2  UNL A   1       7.344  -1.212  26.299  1.00  0.00    +0.000 N 
ATOM     10  N3  UNL A   1       7.439   0.068  26.717  1.00  0.00    +0.000 N 
ATOM     11  C5  UNL A   1       8.746   0.246  26.930  1.00  0.00    +0.000 C 
BRANCH    9    8
ATOM      5  C1  UNL A   1       3.838  -3.504  26.687  1.00  0.00    +0.000 C 
ATOM      6  C2  UNL A   1       4.812  -3.557  27.687  1.00  0.00    +0.000 C 
ATOM      7  C3  UNL A   1       5.963  -2.784  27.565  1.00  0.00    +0.000 C 
ATOM      8  C4  UNL A   1       6.134  -1.942  26.453  1.00  0.00    +0.000 C 
ATOM    171  H61 UNL A   1       5.222  -1.174  24.705  1.00  0.00    +0.000 H 
ATOM    172  H62 UNL A   1       3.246  -2.590  24.874  1.00  0.00    +0.000 H 
ATOM    109  C77 UNL A   1       5.125  -1.837  25.489  1.00  0.00    +0.000 C 
ATOM    110  C78 UNL A   1       3.980  -2.638  25.596  1.00  0.00    +0.000 C 
ATOM    113  H3  UNL A   1       4.679  -4.165  28.510  1.00  0.00    +0.000 H 
ATOM    114  H4  UNL A   1       6.694  -2.829  28.293  1.00  0.00    +0.000 H 
BRANCH    5    2
ATOM      2  S1  UNL A   1       2.407  -4.520  26.881  1.00  0.00    +0.000 S 
ATOM      3  O1  UNL A   1       2.770  -5.682  27.650  1.00  0.00    +0.000 O 
ATOM      4  O2  UNL A   1       1.729  -4.599  25.605  1.00  0.00    +0.000 O 
BRANCH    2    1
ATOM      1  N1  UNL A   1       1.398  -3.634  27.887  1.00  0.00    +0.000 N 
ATOM    111  H1  UNL A   1       0.473  -3.562  27.463  1.00  0.00    +0.000 H 
ATOM    112  H2  UNL A   1       1.785  -2.700  28.019  1.00  0.00    +0.000 H 
ENDBRANCH    2    1
ENDBRANCH    5    2
ENDBRANCH    9    8
BRANCH  102  103
ATOM    166  H56 UNL A   1       9.811  -3.932  26.431  1.00  0.00    +0.000 H 
ATOM    103  C71 UNL A   1       8.682  -2.877  24.986  1.00  0.00    +0.000 C 
ATOM    104  C72 UNL A   1       9.441  -3.958  25.468  1.00  0.00    +0.000 C 
ATOM    105  C73 UNL A   1       9.699  -5.063  24.663  1.00  0.00    +0.000 C 
ATOM    170  H60 UNL A   1       7.552  -2.175  23.347  1.00  0.00    +0.000 H 
ATOM    107  C75 UNL A   1       8.385  -4.064  22.901  1.00  0.00    +0.000 C 
ATOM    108  C76 UNL A   1       8.137  -2.946  23.703  1.00  0.00    +0.000 C 
ATOM    167  H57 UNL A   1      10.277  -5.841  25.018  1.00  0.00    +0.000 H 
ATOM    169  H59 UNL A   1       7.984  -4.114  21.951  1.00  0.00    +0.000 H 
ATOM    106  C74 UNL A   1       9.173  -5.115  23.376  1.00  0.00    +0.000 C 
ATOM    168  H58 UNL A   1       9.366  -5.929  22.773  1.00  0.00    +0.000 H 
ENDBRANCH  102  103
ENDBRANCH   12   11
ENDBRANCH   13   12
ENDBRANCH   15   13
ENDBRANCH   16   15
ENDBRANCH   17   16
ENDBRANCH   18   17
ENDBRANCH   19   18
ENDBRANCH   20   19
ENDBRANCH   21   20
ENDBRANCH   22   21
ENDBRANCH   23   22
ENDBRANCH   24   23
ENDBRANCH   25   24
ENDBRANCH   26   25
ENDBRANCH   28   26
ENDBRANCH   29   28
ENDBRANCH   30   29
ENDBRANCH   31   30
ENDBRANCH   32   31
ENDBRANCH   33   32
ENDBRANCH   34   33
ENDBRANCH   35   34
ENDBRANCH   36   35
ENDBRANCH   38   36
ENDBRANCH   42   41
BRANCH   46   47
ATOM     47  C33 UNL A   1       6.288  -8.081  28.010  1.00  0.00    +0.000 C 
ATOM     48  C34 UNL A   1       6.946  -8.049  29.258  1.00  0.00    +0.000 C 
ATOM     49  F1  UNL A   1       8.256  -7.768  29.333  1.00  0.00    +0.000 F 
ATOM     50  C35 UNL A   1       6.304  -8.414  30.445  1.00  0.00    +0.000 C 
ATOM     51  F2  UNL A   1       7.010  -8.508  31.581  1.00  0.00    +0.000 F 
ATOM     52  C36 UNL A   1       4.966  -8.759  30.443  1.00  0.00    +0.000 C 
ATOM     53  F3  UNL A   1       4.368  -9.176  31.567  1.00  0.00    +0.000 F 
ATOM     54  C37 UNL A   1       4.266  -8.731  29.258  1.00  0.00    +0.000 C 
ATOM     55  F4  UNL A   1       2.978  -9.103  29.232  1.00  0.00    +0.000 F 
ATOM     56  C38 UNL A   1       4.916  -8.421  28.063  1.00  0.00    +0.000 C 
ATOM     57  F5  UNL A   1       4.174  -8.596  26.966  1.00  0.00    +0.000 F 
ENDBRANCH   46   47
BRANCH   63   64
ATOM     65  C45 UNL A   1       7.952 -12.294  21.995  1.00  0.00    +0.000 C 
ATOM     66  F6  UNL A   1       7.412 -11.127  21.621  1.00  0.00    +0.000 F 
ATOM     67  C46 UNL A   1       8.719 -12.989  21.058  1.00  0.00    +0.000 C 
ATOM     68  F7  UNL A   1       8.842 -12.518  19.807  1.00  0.00    +0.000 F 
ATOM     69  C47 UNL A   1       9.380 -14.151  21.423  1.00  0.00    +0.000 C 
ATOM     70  F8  UNL A   1      10.148 -14.797  20.536  1.00  0.00    +0.000 F 
ATOM     71  C48 UNL A   1       9.263 -14.629  22.717  1.00  0.00    +0.000 C 
ATOM     72  F9  UNL A   1       9.936 -15.725  23.092  1.00  0.00    +0.000 F 
ATOM     73  C49 UNL A   1       8.467 -13.960  23.642  1.00  0.00    +0.000 C 
ATOM     74  F10 UNL A   1       8.388 -14.444  24.891  1.00  0.00    +0.000 F 
ATOM     64  C44 UNL A   1       7.794 -12.777  23.306  1.00  0.00    +0.000 C 
ENDBRANCH   63   64
BRANCH   78   79
ATOM     79  C53 UNL A   1       1.696 -12.176  22.003  1.00  0.00    +0.000 C 
ATOM     80  C54 UNL A   1       0.594 -11.363  22.325  1.00  0.00    +0.000 C 
ATOM     81  F11 UNL A   1       0.754 -10.289  23.114  1.00  0.00    +0.000 F 
ATOM     82  C55 UNL A   1      -0.675 -11.590  21.779  1.00  0.00    +0.000 C 
ATOM     83  F12 UNL A   1      -1.684 -10.751  22.056  1.00  0.00    +0.000 F 
ATOM     84  C56 UNL A   1      -0.880 -12.639  20.899  1.00  0.00    +0.000 C 
ATOM     85  F13 UNL A   1      -2.075 -12.815  20.320  1.00  0.00    +0.000 F 
ATOM     86  C57 UNL A   1       0.174 -13.479  20.589  1.00  0.00    +0.000 C 
ATOM     87  F14 UNL A   1      -0.001 -14.473  19.707  1.00  0.00    +0.000 F 
ATOM     88  C58 UNL A   1       1.442 -13.252  21.133  1.00  0.00    +0.000 C 
ATOM     89  F15 UNL A   1       2.439 -14.044  20.713  1.00  0.00    +0.000 F 
ENDBRANCH   78   79
TORSDOF 32
ENDMDL
MODEL 5
REMARK VINA RESULT:      -7.5     39.168     44.470
ROOT
ATOM    153  H43 UNL A   1      14.470  53.595  14.363  1.00  0.00    +0.000 H 
ATOM    154  H44 UNL A   1      15.686  52.511  12.264  1.00  0.00    +0.000 H 
ATOM    155  H45 UNL A   1      13.149  49.780  13.894  1.00  0.00    +0.000 H 
ATOM    156  H46 UNL A   1      10.174  50.196   6.610  1.00  0.00    +0.000 H 
ATOM    157  H47 UNL A   1      10.223  52.626   7.365  1.00  0.00    +0.000 H 
ATOM    158  H48 UNL A   1      11.427  50.328  10.609  1.00  0.00    +0.000 H 
ATOM    159  H49 UNL A   1      10.559  47.324  11.379  1.00  0.00    +0.000 H 
ATOM    160  H50 UNL A   1      12.258  48.481  12.937  1.00  0.00    +0.000 H 
ATOM    161  H51 UNL A   1       9.116  53.250  14.551  1.00  0.00    +0.000 H 
ATOM    162  H52 UNL A   1       8.278  53.009  12.117  1.00  0.00    +0.000 H 
ATOM     42  C29 UNL A   1      10.471  52.928  10.239  1.00  0.00    +0.000 C 
ATOM     43  C30 UNL A   1      10.508  52.829  11.718  1.00  0.00    +0.000 C 
ATOM     44  N8  UNL A   1      11.560  52.830  12.466  1.00  0.00    +0.000 N 
ATOM     45  C31 UNL A   1      11.092  52.690  13.767  1.00  0.00    +0.000 C 
ATOM     46  C32 UNL A   1      11.832  51.999  14.678  1.00  0.00    +0.000 C 
ATOM     58  C39 UNL A   1      13.191  51.853  14.209  1.00  0.00    +0.000 C 
ATOM     59  C40 UNL A   1      14.228  52.708  13.895  1.00  0.00    +0.000 C 
ATOM     60  C41 UNL A   1      14.894  52.104  12.785  1.00  0.00    +0.000 C 
ATOM     61  C42 UNL A   1      14.294  50.871  12.524  1.00  0.00    +0.000 C 
ATOM     62  N9  UNL A   1      13.480  50.659  13.600  1.00  0.00    +0.000 N 
ATOM     63  C43 UNL A   1      14.333  49.984  11.383  1.00  0.00    +0.000 C 
ATOM     75  C50 UNL A   1      13.449  48.970  11.142  1.00  0.00    +0.000 C 
ATOM     76  N10 UNL A   1      13.248  48.519   9.847  1.00  0.00    +0.000 N 
ATOM     77  C51 UNL A   1      12.007  48.116   9.833  1.00  0.00    +0.000 C 
ATOM     78  C52 UNL A   1      11.086  48.355   8.698  1.00  0.00    +0.000 C 
ATOM     90  C59 UNL A   1      10.883  49.698   8.647  1.00  0.00    +0.000 C 
ATOM     91  C60 UNL A   1      10.432  50.528   7.553  1.00  0.00    +0.000 C 
ATOM     92  C61 UNL A   1      10.404  51.810   7.971  1.00  0.00    +0.000 C 
ATOM     93  C62 UNL A   1      10.670  51.875   9.412  1.00  0.00    +0.000 C 
ATOM     94  N11 UNL A   1      11.064  50.591   9.732  1.00  0.00    +0.000 N 
ATOM     95  C63 UNL A   1      11.423  47.831  11.131  1.00  0.00    +0.000 C 
ATOM     96  C64 UNL A   1      12.334  48.420  11.910  1.00  0.00    +0.000 C 
ATOM     97  C65 UNL A   1       9.693  53.013  13.727  1.00  0.00    +0.000 C 
ATOM     98  C66 UNL A   1       9.247  52.965  12.469  1.00  0.00    +0.000 C 
ENDROOT
BRANCH   42   41
ATOM     99  C67 UNL A   1      10.639  55.349  10.260  1.00  0.00    +0.000 C 
ATOM    164  H54 UNL A   1      10.565  57.434  10.313  1.00  0.00    +0.000 H 
ATOM    100  C68 UNL A   1      10.230  56.585   9.831  1.00  0.00    +0.000 C 
ATOM     38  C25 UNL A   1       9.365  56.698   8.745  1.00  0.00    +0.000 C 
ATOM     39  C26 UNL A   1       8.728  55.570   8.221  1.00  0.00    +0.000 C 
ATOM     40  C27 UNL A   1       9.016  54.323   8.769  1.00  0.00    +0.000 C 
ATOM    163  H53 UNL A   1      11.419  55.259  10.929  1.00  0.00    +0.000 H 
ATOM     41  C28 UNL A   1       9.986  54.223   9.781  1.00  0.00    +0.000 C 
ATOM    151  H41 UNL A   1       8.056  55.659   7.443  1.00  0.00    +0.000 H 
ATOM    152  H42 UNL A   1       8.523  53.481   8.436  1.00  0.00    +0.000 H 
BRANCH   38   36
ATOM     36  C24 UNL A   1       9.139  58.035   8.168  1.00  0.00    +0.000 C 
ATOM     37  O5  UNL A   1       8.483  58.870   8.780  1.00  0.00    +0.000 O 
BRANCH   36   35
ATOM     35  N7  UNL A   1       9.683  58.335   6.937  1.00  0.00    +0.000 N 
ATOM    150  H40 UNL A   1       9.368  57.791   6.179  1.00  0.00    +0.000 H 
BRANCH   35   34
ATOM     34  C23 UNL A   1      10.673  59.366   6.623  1.00  0.00    +0.000 C 
ATOM    148  H38 UNL A   1      10.247  60.328   6.822  1.00  0.00    +0.000 H 
ATOM    149  H39 UNL A   1      11.535  59.195   7.232  1.00  0.00    +0.000 H 
BRANCH   34   33
ATOM     33  C22 UNL A   1      11.105  59.311   5.166  1.00  0.00    +0.000 C 
ATOM    146  H36 UNL A   1      10.332  59.745   4.568  1.00  0.00    +0.000 H 
ATOM    147  H37 UNL A   1      12.028  59.848   5.092  1.00  0.00    +0.000 H 
BRANCH   33   32
ATOM    145  H35 UNL A   1      10.424  57.523   4.315  1.00  0.00    +0.000 H 
ATOM    144  H34 UNL A   1      11.792  57.325   5.464  1.00  0.00    +0.000 H 
ATOM     32  C21 UNL A   1      11.371  57.887   4.657  1.00  0.00    +0.000 C 
BRANCH   32   31
ATOM    143  H33 UNL A   1      12.579  58.763   3.176  1.00  0.00    +0.000 H 
ATOM    142  H32 UNL A   1      11.807  57.229   2.683  1.00  0.00    +0.000 H 
ATOM     31  C20 UNL A   1      12.318  57.764   3.456  1.00  0.00    +0.000 C 
BRANCH   31   30
ATOM    140  H30 UNL A   1      13.417  56.184   4.351  1.00  0.00    +0.000 H 
ATOM    141  H31 UNL A   1      14.059  56.781   2.802  1.00  0.00    +0.000 H 
ATOM     30  C19 UNL A   1      13.631  57.042   3.747  1.00  0.00    +0.000 C 
BRANCH   30   29
ATOM    138  H28 UNL A   1      15.385  58.261   3.778  1.00  0.00    +0.000 H 
ATOM    139  H29 UNL A   1      14.153  58.721   4.947  1.00  0.00    +0.000 H 
ATOM     29  C18 UNL A   1      14.664  57.903   4.482  1.00  0.00    +0.000 C 
BRANCH   29   28
ATOM    137  H27 UNL A   1      15.983  56.474   5.173  1.00  0.00    +0.000 H 
ATOM     28  N6  UNL A   1      15.343  57.143   5.509  1.00  0.00    +0.000 N 
BRANCH   28   26
ATOM     26  C17 UNL A   1      15.239  57.205   6.864  1.00  0.00    +0.000 C 
ATOM     27  O4  UNL A   1      16.245  56.976   7.536  1.00  0.00    +0.000 O 
BRANCH   26   25
ATOM     25  C16 UNL A   1      13.921  57.528   7.533  1.00  0.00    +0.000 C 
ATOM    135  H25 UNL A   1      14.117  57.762   8.559  1.00  0.00    +0.000 H 
ATOM    136  H26 UNL A   1      13.500  58.344   6.984  1.00  0.00    +0.000 H 
BRANCH   25   24
ATOM    133  H23 UNL A   1      12.119  56.654   8.203  1.00  0.00    +0.000 H 
ATOM    134  H24 UNL A   1      12.562  56.371   6.473  1.00  0.00    +0.000 H 
ATOM     24  C15 UNL A   1      12.881  56.409   7.494  1.00  0.00    +0.000 C 
BRANCH   24   23
ATOM    131  H21 UNL A   1      14.416  54.955   7.658  1.00  0.00    +0.000 H 
ATOM    132  H22 UNL A   1      13.064  54.788   8.813  1.00  0.00    +0.000 H 
ATOM     23  C14 UNL A   1      13.357  54.992   7.804  1.00  0.00    +0.000 C 
BRANCH   23   22
ATOM    129  H19 UNL A   1      13.181  52.966   7.172  1.00  0.00    +0.000 H 
ATOM    130  H20 UNL A   1      11.669  53.900   7.154  1.00  0.00    +0.000 H 
ATOM     22  C13 UNL A   1      12.717  53.902   6.937  1.00  0.00    +0.000 C 
BRANCH   22   21
ATOM     21  C12 UNL A   1      12.864  54.149   5.448  1.00  0.00    +0.000 C 
ATOM    127  H17 UNL A   1      11.907  54.025   4.987  1.00  0.00    +0.000 H 
ATOM    128  H18 UNL A   1      13.245  55.143   5.331  1.00  0.00    +0.000 H 
BRANCH   21   20
ATOM     20  C11 UNL A   1      13.853  53.207   4.768  1.00  0.00    +0.000 C 
ATOM    125  H15 UNL A   1      14.487  53.800   4.141  1.00  0.00    +0.000 H 
ATOM    126  H16 UNL A   1      14.361  52.706   5.566  1.00  0.00    +0.000 H 
BRANCH   20   19
ATOM     19  C10 UNL A   1      13.253  52.092   3.904  1.00  0.00    +0.000 C 
ATOM    124  H14 UNL A   1      14.052  51.754   3.277  1.00  0.00    +0.000 H 
ATOM    123  H13 UNL A   1      12.421  52.504   3.371  1.00  0.00    +0.000 H 
BRANCH   19   18
ATOM    121  H11 UNL A   1      11.737  51.011   4.918  1.00  0.00    +0.000 H 
ATOM     18  C9  UNL A   1      12.761  50.849   4.653  1.00  0.00    +0.000 C 
ATOM    122  H12 UNL A   1      12.916  50.029   3.982  1.00  0.00    +0.000 H 
BRANCH   18   17
ATOM     17  C8  UNL A   1      13.521  50.485   5.926  1.00  0.00    +0.000 C 
ATOM    119  H9  UNL A   1      14.441  51.032   5.925  1.00  0.00    +0.000 H 
ATOM    120  H10 UNL A   1      12.866  50.733   6.735  1.00  0.00    +0.000 H 
BRANCH   17   16
ATOM    117  H7  UNL A   1      14.490  48.926   6.959  1.00  0.00    +0.000 H 
ATOM    118  H8  UNL A   1      12.910  48.519   6.198  1.00  0.00    +0.000 H 
ATOM     16  C7  UNL A   1      13.854  49.014   6.104  1.00  0.00    +0.000 C 
BRANCH   16   15
ATOM    116  H6  UNL A   1      15.466  48.590   4.879  1.00  0.00    +0.000 H 
ATOM     15  N5  UNL A   1      14.515  48.366   4.999  1.00  0.00    +0.000 N 
BRANCH   15   13
ATOM     13  C6  UNL A   1      13.998  47.489   4.104  1.00  0.00    +0.000 C 
ATOM     14  O3  UNL A   1      12.830  47.123   4.271  1.00  0.00    +0.000 O 
BRANCH   13   12
ATOM    115  H5  UNL A   1      14.882  46.164   2.938  1.00  0.00    +0.000 H 
ATOM     12  N4  UNL A   1      14.646  47.119   2.972  1.00  0.00    +0.000 N 
BRANCH   12   11
ATOM    101  C69 UNL A   1      16.273  48.515   1.741  1.00  0.00    +0.000 C 
ATOM    102  C70 UNL A   1      16.341  48.944   0.429  1.00  0.00    +0.000 C 
ATOM    165  H55 UNL A   1      16.976  48.659   2.483  1.00  0.00    +0.000 H 
ATOM      9  N2  UNL A   1      15.196  48.432  -0.168  1.00  0.00    +0.000 N 
ATOM     10  N3  UNL A   1      14.303  48.021   0.756  1.00  0.00    +0.000 N 
ATOM     11  C5  UNL A   1      15.036  47.834   1.857  1.00  0.00    +0.000 C 
BRANCH    9    8
ATOM      5  C1  UNL A   1      14.601  47.969  -4.307  1.00  0.00    +0.000 C 
ATOM      6  C2  UNL A   1      15.298  46.989  -3.596  1.00  0.00    +0.000 C 
ATOM      7  C3  UNL A   1      15.478  47.135  -2.223  1.00  0.00    +0.000 C 
ATOM      8  C4  UNL A   1      14.946  48.252  -1.557  1.00  0.00    +0.000 C 
ATOM    171  H61 UNL A   1      13.745  49.982  -1.760  1.00  0.00    +0.000 H 
ATOM    172  H62 UNL A   1      13.501  49.770  -4.176  1.00  0.00    +0.000 H 
ATOM    109  C77 UNL A   1      14.187  49.196  -2.259  1.00  0.00    +0.000 C 
ATOM    110  C78 UNL A   1      14.032  49.063  -3.645  1.00  0.00    +0.000 C 
ATOM    113  H3  UNL A   1      15.676  46.162  -4.084  1.00  0.00    +0.000 H 
ATOM    114  H4  UNL A   1      16.005  46.423  -1.693  1.00  0.00    +0.000 H 
BRANCH    5    2
ATOM      2  S1  UNL A   1      14.419  47.743  -6.049  1.00  0.00    +0.000 S 
ATOM      3  O1  UNL A   1      14.295  49.036  -6.670  1.00  0.00    +0.000 O 
ATOM      4  O2  UNL A   1      13.476  46.668  -6.272  1.00  0.00    +0.000 O 
BRANCH    2    1
ATOM      1  N1  UNL A   1      15.910  47.162  -6.554  1.00  0.00    +0.000 N 
ATOM    111  H1  UNL A   1      16.483  47.938  -6.885  1.00  0.00    +0.000 H 
ATOM    112  H2  UNL A   1      15.775  46.491  -7.310  1.00  0.00    +0.000 H 
ENDBRANCH    2    1
ENDBRANCH    5    2
ENDBRANCH    9    8
BRANCH  102  103
ATOM    166  H56 UNL A   1      16.479  51.597   0.350  1.00  0.00    +0.000 H 
ATOM    103  C71 UNL A   1      17.317  49.763  -0.288  1.00  0.00    +0.000 C 
ATOM    104  C72 UNL A   1      17.190  51.163  -0.259  1.00  0.00    +0.000 C 
ATOM    105  C73 UNL A   1      18.012  51.971  -1.038  1.00  0.00    +0.000 C 
ATOM    170  H60 UNL A   1      18.447  48.163  -1.078  1.00  0.00    +0.000 H 
ATOM    107  C75 UNL A   1      19.155  50.002  -1.842  1.00  0.00    +0.000 C 
ATOM    108  C76 UNL A   1      18.321  49.188  -1.070  1.00  0.00    +0.000 C 
ATOM    167  H57 UNL A   1      17.894  52.997  -1.027  1.00  0.00    +0.000 H 
ATOM    169  H59 UNL A   1      19.895  49.576  -2.422  1.00  0.00    +0.000 H 
ATOM    106  C74 UNL A   1      18.993  51.389  -1.834  1.00  0.00    +0.000 C 
ATOM    168  H58 UNL A   1      19.601  51.983  -2.419  1.00  0.00    +0.000 H 
ENDBRANCH  102  103
ENDBRANCH   12   11
ENDBRANCH   13   12
ENDBRANCH   15   13
ENDBRANCH   16   15
ENDBRANCH   17   16
ENDBRANCH   18   17
ENDBRANCH   19   18
ENDBRANCH   20   19
ENDBRANCH   21   20
ENDBRANCH   22   21
ENDBRANCH   23   22
ENDBRANCH   24   23
ENDBRANCH   25   24
ENDBRANCH   26   25
ENDBRANCH   28   26
ENDBRANCH   29   28
ENDBRANCH   30   29
ENDBRANCH   31   30
ENDBRANCH   32   31
ENDBRANCH   33   32
ENDBRANCH   34   33
ENDBRANCH   35   34
ENDBRANCH   36   35
ENDBRANCH   38   36
ENDBRANCH   42   41
BRANCH   46   47
ATOM     47  C33 UNL A   1      11.244  51.050  15.708  1.00  0.00    +0.000 C 
ATOM     48  C34 UNL A   1      10.482  49.955  15.250  1.00  0.00    +0.000 C 
ATOM     49  F1  UNL A   1      10.499  49.603  13.955  1.00  0.00    +0.000 F 
ATOM     50  C35 UNL A   1       9.598  49.264  16.086  1.00  0.00    +0.000 C 
ATOM     51  F2  UNL A   1       8.790  48.328  15.569  1.00  0.00    +0.000 F 
ATOM     52  C36 UNL A   1       9.491  49.596  17.422  1.00  0.00    +0.000 C 
ATOM     53  F3  UNL A   1       8.595  48.983  18.207  1.00  0.00    +0.000 F 
ATOM     54  C37 UNL A   1      10.273  50.611  17.929  1.00  0.00    +0.000 C 
ATOM     55  F4  UNL A   1      10.151  50.973  19.214  1.00  0.00    +0.000 F 
ATOM     56  C38 UNL A   1      11.115  51.338  17.087  1.00  0.00    +0.000 C 
ATOM     57  F5  UNL A   1      11.686  52.401  17.658  1.00  0.00    +0.000 F 
ENDBRANCH   46   47
BRANCH   63   64
ATOM     65  C45 UNL A   1      15.073  51.217   9.238  1.00  0.00    +0.000 C 
ATOM     66  F6  UNL A   1      13.888  51.831   9.118  1.00  0.00    +0.000 F 
ATOM     67  C46 UNL A   1      16.070  51.534   8.314  1.00  0.00    +0.000 C 
ATOM     68  F7  UNL A   1      15.809  52.379   7.305  1.00  0.00    +0.000 F 
ATOM     69  C47 UNL A   1      17.342  51.002   8.453  1.00  0.00    +0.000 C 
ATOM     70  F8  UNL A   1      18.311  51.337   7.590  1.00  0.00    +0.000 F 
ATOM     71  C48 UNL A   1      17.615  50.141   9.502  1.00  0.00    +0.000 C 
ATOM     72  F9  UNL A   1      18.854  49.659   9.671  1.00  0.00    +0.000 F 
ATOM     73  C49 UNL A   1      16.611  49.792  10.401  1.00  0.00    +0.000 C 
ATOM     74  F10 UNL A   1      16.916  48.966  11.414  1.00  0.00    +0.000 F 
ATOM     64  C44 UNL A   1      15.318  50.321  10.294  1.00  0.00    +0.000 C 
ENDBRANCH   63   64
BRANCH   78   79
ATOM     79  C53 UNL A   1      10.342  47.249   8.048  1.00  0.00    +0.000 C 
ATOM     80  C54 UNL A   1       8.948  47.316   7.867  1.00  0.00    +0.000 C 
ATOM     81  F11 UNL A   1       8.230  48.257   8.498  1.00  0.00    +0.000 F 
ATOM     82  C55 UNL A   1       8.278  46.471   6.974  1.00  0.00    +0.000 C 
ATOM     83  F12 UNL A   1       6.959  46.613   6.777  1.00  0.00    +0.000 F 
ATOM     84  C56 UNL A   1       8.982  45.531   6.240  1.00  0.00    +0.000 C 
ATOM     85  F13 UNL A   1       8.355  44.770   5.333  1.00  0.00    +0.000 F 
ATOM     86  C57 UNL A   1      10.348  45.415   6.420  1.00  0.00    +0.000 C 
ATOM     87  F14 UNL A   1      11.046  44.538   5.685  1.00  0.00    +0.000 F 
ATOM     88  C58 UNL A   1      11.018  46.260   7.310  1.00  0.00    +0.000 C 
ATOM     89  F15 UNL A   1      12.354  46.160   7.362  1.00  0.00    +0.000 F 
ENDBRANCH   78   79
TORSDOF 32
ENDMDL
MODEL 6
REMARK VINA RESULT:      -7.4     20.848     27.271
ROOT
ATOM    153  H43 UNL A   1      33.472  33.530  47.680  1.00  0.00    +0.000 H 
ATOM    154  H44 UNL A   1      32.518  34.732  45.511  1.00  0.00    +0.000 H 
ATOM    155  H45 UNL A   1      30.140  31.563  46.436  1.00  0.00    +0.000 H 
ATOM    156  H46 UNL A   1      24.837  37.378  46.818  1.00  0.00    +0.000 H 
ATOM    157  H47 UNL A   1      26.698  38.177  48.360  1.00  0.00    +0.000 H 
ATOM    158  H48 UNL A   1      27.726  34.353  47.105  1.00  0.00    +0.000 H 
ATOM    159  H49 UNL A   1      25.788  31.901  46.328  1.00  0.00    +0.000 H 
ATOM    160  H50 UNL A   1      28.325  31.492  46.118  1.00  0.00    +0.000 H 
ATOM    161  H51 UNL A   1      30.029  32.606  51.693  1.00  0.00    +0.000 H 
ATOM    162  H52 UNL A   1      28.128  34.346  51.488  1.00  0.00    +0.000 H 
ATOM     42  C29 UNL A   1      28.491  36.053  49.186  1.00  0.00    +0.000 C 
ATOM     43  C30 UNL A   1      29.206  34.803  49.541  1.00  0.00    +0.000 C 
ATOM     44  N8  UNL A   1      30.241  34.311  48.947  1.00  0.00    +0.000 N 
ATOM     45  C31 UNL A   1      30.527  33.127  49.617  1.00  0.00    +0.000 C 
ATOM     46  C32 UNL A   1      31.039  32.071  48.927  1.00  0.00    +0.000 C 
ATOM     58  C39 UNL A   1      31.560  32.511  47.653  1.00  0.00    +0.000 C 
ATOM     59  C40 UNL A   1      32.555  33.370  47.234  1.00  0.00    +0.000 C 
ATOM     60  C41 UNL A   1      32.047  33.991  46.052  1.00  0.00    +0.000 C 
ATOM     61  C42 UNL A   1      30.807  33.425  45.752  1.00  0.00    +0.000 C 
ATOM     62  N9  UNL A   1      30.720  32.344  46.583  1.00  0.00    +0.000 N 
ATOM     63  C43 UNL A   1      29.723  33.840  44.889  1.00  0.00    +0.000 C 
ATOM     75  C50 UNL A   1      28.446  33.354  44.937  1.00  0.00    +0.000 C 
ATOM     76  N10 UNL A   1      27.395  34.120  44.457  1.00  0.00    +0.000 N 
ATOM     77  C51 UNL A   1      26.376  33.764  45.190  1.00  0.00    +0.000 C 
ATOM     78  C52 UNL A   1      25.368  34.722  45.702  1.00  0.00    +0.000 C 
ATOM     90  C59 UNL A   1      26.016  35.518  46.594  1.00  0.00    +0.000 C 
ATOM     91  C60 UNL A   1      25.674  36.834  47.083  1.00  0.00    +0.000 C 
ATOM     92  C61 UNL A   1      26.632  37.235  47.943  1.00  0.00    +0.000 C 
ATOM     93  C62 UNL A   1      27.568  36.135  48.200  1.00  0.00    +0.000 C 
ATOM     94  N11 UNL A   1      27.211  35.176  47.273  1.00  0.00    +0.000 N 
ATOM     95  C63 UNL A   1      26.502  32.488  45.868  1.00  0.00    +0.000 C 
ATOM     96  C64 UNL A   1      27.815  32.295  45.722  1.00  0.00    +0.000 C 
ATOM     97  C65 UNL A   1      29.828  33.197  50.870  1.00  0.00    +0.000 C 
ATOM     98  C66 UNL A   1      28.884  34.139  50.816  1.00  0.00    +0.000 C 
ENDROOT
BRANCH   42   41
ATOM     99  C67 UNL A   1      27.689  37.438  51.011  1.00  0.00    +0.000 C 
ATOM    164  H54 UNL A   1      27.076  38.802  52.466  1.00  0.00    +0.000 H 
ATOM    100  C68 UNL A   1      27.882  38.417  51.950  1.00  0.00    +0.000 C 
ATOM     38  C25 UNL A   1      29.165  38.893  52.211  1.00  0.00    +0.000 C 
ATOM     39  C26 UNL A   1      30.235  38.553  51.378  1.00  0.00    +0.000 C 
ATOM     40  C27 UNL A   1      30.005  37.683  50.315  1.00  0.00    +0.000 C 
ATOM    163  H53 UNL A   1      26.784  36.947  50.947  1.00  0.00    +0.000 H 
ATOM     41  C28 UNL A   1      28.728  37.120  50.149  1.00  0.00    +0.000 C 
ATOM    151  H41 UNL A   1      31.177  38.938  51.547  1.00  0.00    +0.000 H 
ATOM    152  H42 UNL A   1      30.764  37.455  49.655  1.00  0.00    +0.000 H 
BRANCH   38   36
ATOM     36  C24 UNL A   1      29.363  39.766  53.382  1.00  0.00    +0.000 C 
ATOM     37  O5  UNL A   1      30.253  39.526  54.189  1.00  0.00    +0.000 O 
BRANCH   36   35
ATOM     35  N7  UNL A   1      28.539  40.859  53.551  1.00  0.00    +0.000 N 
ATOM    150  H40 UNL A   1      28.140  40.968  54.444  1.00  0.00    +0.000 H 
BRANCH   35   34
ATOM     34  C23 UNL A   1      28.187  41.875  52.559  1.00  0.00    +0.000 C 
ATOM    148  H38 UNL A   1      28.553  42.824  52.891  1.00  0.00    +0.000 H 
ATOM    149  H39 UNL A   1      28.630  41.597  51.626  1.00  0.00    +0.000 H 
BRANCH   34   33
ATOM     33  C22 UNL A   1      26.683  41.972  52.357  1.00  0.00    +0.000 C 
ATOM    146  H36 UNL A   1      26.312  41.000  52.108  1.00  0.00    +0.000 H 
ATOM    147  H37 UNL A   1      26.267  42.345  53.270  1.00  0.00    +0.000 H 
BRANCH   33   32
ATOM    145  H35 UNL A   1      27.180  43.190  50.728  1.00  0.00    +0.000 H 
ATOM    144  H34 UNL A   1      25.790  43.784  51.703  1.00  0.00    +0.000 H 
ATOM     32  C21 UNL A   1      26.273  42.947  51.244  1.00  0.00    +0.000 C 
BRANCH   32   31
ATOM    143  H33 UNL A   1      24.533  41.902  50.697  1.00  0.00    +0.000 H 
ATOM    142  H32 UNL A   1      25.887  41.730  49.543  1.00  0.00    +0.000 H 
ATOM     31  C20 UNL A   1      25.327  42.390  50.172  1.00  0.00    +0.000 C 
BRANCH   31   30
ATOM    140  H30 UNL A   1      23.842  43.865  49.819  1.00  0.00    +0.000 H 
ATOM    141  H31 UNL A   1      25.422  44.174  49.060  1.00  0.00    +0.000 H 
ATOM     30  C19 UNL A   1      24.670  43.446  49.286  1.00  0.00    +0.000 C 
BRANCH   30   29
ATOM    138  H28 UNL A   1      23.316  42.269  48.127  1.00  0.00    +0.000 H 
ATOM    139  H29 UNL A   1      23.880  43.732  47.330  1.00  0.00    +0.000 H 
ATOM     29  C18 UNL A   1      24.158  42.904  47.948  1.00  0.00    +0.000 C 
BRANCH   29   28
ATOM    137  H27 UNL A   1      26.006  42.649  47.062  1.00  0.00    +0.000 H 
ATOM     28  N6  UNL A   1      25.184  42.145  47.264  1.00  0.00    +0.000 N 
BRANCH   28   26
ATOM     26  C17 UNL A   1      25.194  40.848  46.855  1.00  0.00    +0.000 C 
ATOM     27  O4  UNL A   1      24.336  40.088  47.307  1.00  0.00    +0.000 O 
BRANCH   26   25
ATOM     25  C16 UNL A   1      26.240  40.341  45.886  1.00  0.00    +0.000 C 
ATOM    135  H25 UNL A   1      26.183  39.273  45.863  1.00  0.00    +0.000 H 
ATOM    136  H26 UNL A   1      26.021  40.800  44.945  1.00  0.00    +0.000 H 
BRANCH   25   24
ATOM    133  H23 UNL A   1      28.317  40.241  45.516  1.00  0.00    +0.000 H 
ATOM    134  H24 UNL A   1      27.687  41.800  46.185  1.00  0.00    +0.000 H 
ATOM     24  C15 UNL A   1      27.679  40.730  46.223  1.00  0.00    +0.000 C 
BRANCH   24   23
ATOM    131  H21 UNL A   1      28.141  41.271  48.220  1.00  0.00    +0.000 H 
ATOM    132  H22 UNL A   1      27.580  39.592  47.982  1.00  0.00    +0.000 H 
ATOM     23  C14 UNL A   1      28.195  40.388  47.618  1.00  0.00    +0.000 C 
BRANCH   23   22
ATOM    129  H19 UNL A   1      30.114  40.259  48.533  1.00  0.00    +0.000 H 
ATOM    130  H20 UNL A   1      29.593  38.804  47.655  1.00  0.00    +0.000 H 
ATOM     22  C13 UNL A   1      29.639  39.873  47.654  1.00  0.00    +0.000 C 
BRANCH   22   21
ATOM     21  C12 UNL A   1      30.458  40.284  46.446  1.00  0.00    +0.000 C 
ATOM    127  H17 UNL A   1      29.963  39.931  45.565  1.00  0.00    +0.000 H 
ATOM    128  H18 UNL A   1      30.536  41.351  46.468  1.00  0.00    +0.000 H 
BRANCH   21   20
ATOM     20  C11 UNL A   1      31.879  39.731  46.455  1.00  0.00    +0.000 C 
ATOM    125  H15 UNL A   1      32.408  40.209  47.253  1.00  0.00    +0.000 H 
ATOM    126  H16 UNL A   1      31.770  38.672  46.565  1.00  0.00    +0.000 H 
BRANCH   20   19
ATOM     19  C10 UNL A   1      32.697  39.923  45.173  1.00  0.00    +0.000 C 
ATOM    124  H14 UNL A   1      31.980  39.977  44.380  1.00  0.00    +0.000 H 
ATOM    123  H13 UNL A   1      33.378  39.101  45.093  1.00  0.00    +0.000 H 
BRANCH   19   18
ATOM    121  H11 UNL A   1      32.921  41.941  44.558  1.00  0.00    +0.000 H 
ATOM     18  C9  UNL A   1      33.513  41.218  45.081  1.00  0.00    +0.000 C 
ATOM    122  H12 UNL A   1      33.742  41.486  46.091  1.00  0.00    +0.000 H 
BRANCH   18   17
ATOM     17  C8  UNL A   1      34.860  41.115  44.370  1.00  0.00    +0.000 C 
ATOM    119  H9  UNL A   1      34.866  40.202  43.810  1.00  0.00    +0.000 H 
ATOM    120  H10 UNL A   1      34.939  41.996  43.769  1.00  0.00    +0.000 H 
BRANCH   17   16
ATOM    117  H7  UNL A   1      36.837  40.522  44.792  1.00  0.00    +0.000 H 
ATOM    118  H8  UNL A   1      36.347  42.149  45.386  1.00  0.00    +0.000 H 
ATOM     16  C7  UNL A   1      36.086  41.118  45.266  1.00  0.00    +0.000 C 
BRANCH   16   15
ATOM    116  H6  UNL A   1      35.425  39.758  46.677  1.00  0.00    +0.000 H 
ATOM     15  N5  UNL A   1      35.907  40.613  46.604  1.00  0.00    +0.000 N 
BRANCH   15   13
ATOM     13  C6  UNL A   1      36.314  41.162  47.775  1.00  0.00    +0.000 C 
ATOM     14  O3  UNL A   1      37.418  40.823  48.212  1.00  0.00    +0.000 O 
BRANCH   13   12
ATOM    115  H5  UNL A   1      36.048  42.453  49.243  1.00  0.00    +0.000 H 
ATOM     12  N4  UNL A   1      35.639  42.160  48.398  1.00  0.00    +0.000 N 
BRANCH   12   11
ATOM    101  C69 UNL A   1      33.184  42.434  48.446  1.00  0.00    +0.000 C 
ATOM    102  C70 UNL A   1      32.345  43.465  48.068  1.00  0.00    +0.000 C 
ATOM    165  H55 UNL A   1      32.917  41.551  48.911  1.00  0.00    +0.000 H 
ATOM      9  N2  UNL A   1      33.194  44.443  47.565  1.00  0.00    +0.000 N 
ATOM     10  N3  UNL A   1      34.421  43.943  47.312  1.00  0.00    +0.000 N 
ATOM     11  C5  UNL A   1      34.486  42.841  48.064  1.00  0.00    +0.000 C 
BRANCH    9    8
ATOM      5  C1  UNL A   1      32.216  48.497  47.019  1.00  0.00    +0.000 C 
ATOM      6  C2  UNL A   1      32.199  47.951  48.304  1.00  0.00    +0.000 C 
ATOM      7  C3  UNL A   1      32.540  46.613  48.485  1.00  0.00    +0.000 C 
ATOM      8  C4  UNL A   1      32.917  45.826  47.384  1.00  0.00    +0.000 C 
ATOM    171  H61 UNL A   1      33.338  45.834  45.310  1.00  0.00    +0.000 H 
ATOM    172  H62 UNL A   1      32.659  48.152  44.980  1.00  0.00    +0.000 H 
ATOM    109  C77 UNL A   1      33.002  46.395  46.108  1.00  0.00    +0.000 C 
ATOM    110  C78 UNL A   1      32.629  47.733  45.922  1.00  0.00    +0.000 C 
ATOM    113  H3  UNL A   1      31.936  48.534  49.114  1.00  0.00    +0.000 H 
ATOM    114  H4  UNL A   1      32.516  46.198  49.430  1.00  0.00    +0.000 H 
BRANCH    5    2
ATOM      2  S1  UNL A   1      31.754  50.193  46.844  1.00  0.00    +0.000 S 
ATOM      3  O1  UNL A   1      32.232  50.671  45.573  1.00  0.00    +0.000 O 
ATOM      4  O2  UNL A   1      32.027  50.869  48.095  1.00  0.00    +0.000 O 
BRANCH    2    1
ATOM      1  N1  UNL A   1      30.083  50.159  46.692  1.00  0.00    +0.000 N 
ATOM    111  H1  UNL A   1      29.660  50.651  47.480  1.00  0.00    +0.000 H 
ATOM    112  H2  UNL A   1      29.763  49.191  46.683  1.00  0.00    +0.000 H 
ENDBRANCH    2    1
ENDBRANCH    5    2
ENDBRANCH    9    8
BRANCH  102  103
ATOM    166  H56 UNL A   1      30.667  43.579  46.010  1.00  0.00    +0.000 H 
ATOM    103  C71 UNL A   1      30.891  43.618  48.113  1.00  0.00    +0.000 C 
ATOM    104  C72 UNL A   1      30.176  43.718  46.907  1.00  0.00    +0.000 C 
ATOM    105  C73 UNL A   1      28.813  44.003  46.906  1.00  0.00    +0.000 C 
ATOM    170  H60 UNL A   1      30.711  43.648  50.217  1.00  0.00    +0.000 H 
ATOM    107  C75 UNL A   1      28.835  44.022  49.320  1.00  0.00    +0.000 C 
ATOM    108  C76 UNL A   1      30.206  43.750  49.323  1.00  0.00    +0.000 C 
ATOM    167  H57 UNL A   1      28.303  44.098  46.014  1.00  0.00    +0.000 H 
ATOM    169  H59 UNL A   1      28.330  44.122  50.215  1.00  0.00    +0.000 H 
ATOM    106  C74 UNL A   1      28.143  44.158  48.114  1.00  0.00    +0.000 C 
ATOM    168  H58 UNL A   1      27.135  44.375  48.120  1.00  0.00    +0.000 H 
ENDBRANCH  102  103
ENDBRANCH   12   11
ENDBRANCH   13   12
ENDBRANCH   15   13
ENDBRANCH   16   15
ENDBRANCH   17   16
ENDBRANCH   18   17
ENDBRANCH   19   18
ENDBRANCH   20   19
ENDBRANCH   21   20
ENDBRANCH   22   21
ENDBRANCH   23   22
ENDBRANCH   24   23
ENDBRANCH   25   24
ENDBRANCH   26   25
ENDBRANCH   28   26
ENDBRANCH   29   28
ENDBRANCH   30   29
ENDBRANCH   31   30
ENDBRANCH   32   31
ENDBRANCH   33   32
ENDBRANCH   34   33
ENDBRANCH   35   34
ENDBRANCH   36   35
ENDBRANCH   38   36
ENDBRANCH   42   41
BRANCH   46   47
ATOM     47  C33 UNL A   1      30.631  30.626  49.158  1.00  0.00    +0.000 C 
ATOM     48  C34 UNL A   1      31.644  29.647  49.233  1.00  0.00    +0.000 C 
ATOM     49  F1  UNL A   1      32.931  30.004  49.368  1.00  0.00    +0.000 F 
ATOM     50  C35 UNL A   1      31.377  28.286  49.058  1.00  0.00    +0.000 C 
ATOM     51  F2  UNL A   1      32.391  27.413  48.991  1.00  0.00    +0.000 F 
ATOM     52  C36 UNL A   1      30.082  27.844  48.869  1.00  0.00    +0.000 C 
ATOM     53  F3  UNL A   1      29.832  26.549  48.631  1.00  0.00    +0.000 F 
ATOM     54  C37 UNL A   1      29.052  28.758  48.865  1.00  0.00    +0.000 C 
ATOM     55  F4  UNL A   1      27.795  28.350  48.642  1.00  0.00    +0.000 F 
ATOM     56  C38 UNL A   1      29.321  30.122  48.984  1.00  0.00    +0.000 C 
ATOM     57  F5  UNL A   1      28.263  30.914  48.793  1.00  0.00    +0.000 F 
ENDBRANCH   46   47
BRANCH   63   64
ATOM     65  C45 UNL A   1      29.800  36.366  44.359  1.00  0.00    +0.000 C 
ATOM     66  F6  UNL A   1      29.336  36.690  45.573  1.00  0.00    +0.000 F 
ATOM     67  C46 UNL A   1      30.142  37.405  43.491  1.00  0.00    +0.000 C 
ATOM     68  F7  UNL A   1      29.942  38.680  43.857  1.00  0.00    +0.000 F 
ATOM     69  C47 UNL A   1      30.718  37.125  42.263  1.00  0.00    +0.000 C 
ATOM     70  F8  UNL A   1      31.083  38.122  41.446  1.00  0.00    +0.000 F 
ATOM     71  C48 UNL A   1      30.937  35.809  41.891  1.00  0.00    +0.000 C 
ATOM     72  F9  UNL A   1      31.536  35.531  40.726  1.00  0.00    +0.000 F 
ATOM     73  C49 UNL A   1      30.559  34.770  42.738  1.00  0.00    +0.000 C 
ATOM     74  F10 UNL A   1      30.800  33.507  42.351  1.00  0.00    +0.000 F 
ATOM     64  C44 UNL A   1      29.984  35.021  43.991  1.00  0.00    +0.000 C 
ENDBRANCH   63   64
BRANCH   78   79
ATOM     79  C53 UNL A   1      23.916  34.530  45.468  1.00  0.00    +0.000 C 
ATOM     80  C54 UNL A   1      23.125  33.794  46.371  1.00  0.00    +0.000 C 
ATOM     81  F11 UNL A   1      23.704  33.044  47.320  1.00  0.00    +0.000 F 
ATOM     82  C55 UNL A   1      21.728  33.880  46.365  1.00  0.00    +0.000 C 
ATOM     83  F12 UNL A   1      21.012  33.218  47.286  1.00  0.00    +0.000 F 
ATOM     84  C56 UNL A   1      21.081  34.699  45.456  1.00  0.00    +0.000 C 
ATOM     85  F13 UNL A   1      19.749  34.838  45.495  1.00  0.00    +0.000 F 
ATOM     86  C57 UNL A   1      21.827  35.408  44.532  1.00  0.00    +0.000 C 
ATOM     87  F14 UNL A   1      21.216  36.235  43.673  1.00  0.00    +0.000 F 
ATOM     88  C58 UNL A   1      23.223  35.324  44.538  1.00  0.00    +0.000 C 
ATOM     89  F15 UNL A   1      23.887  36.113  43.681  1.00  0.00    +0.000 F 
ENDBRANCH   78   79
TORSDOF 32
ENDMDL
MODEL 7
REMARK VINA RESULT:      -7.4     38.947     45.220
ROOT
ATOM    153  H43 UNL A   1      13.762  -2.893  23.043  1.00  0.00    +0.000 H 
ATOM    154  H44 UNL A   1      11.506  -4.295  23.098  1.00  0.00    +0.000 H 
ATOM    155  H45 UNL A   1      11.115  -1.042  25.510  1.00  0.00    +0.000 H 
ATOM    156  H46 UNL A   1       5.192   0.290  20.487  1.00  0.00    +0.000 H 
ATOM    157  H47 UNL A   1       7.200  -0.034  18.956  1.00  0.00    +0.000 H 
ATOM    158  H48 UNL A   1       8.624  -0.138  22.857  1.00  0.00    +0.000 H 
ATOM    159  H49 UNL A   1       7.483   1.382  25.457  1.00  0.00    +0.000 H 
ATOM    160  H50 UNL A   1       9.531  -0.147  25.806  1.00  0.00    +0.000 H 
ATOM    161  H51 UNL A   1      13.365   2.365  22.036  1.00  0.00    +0.000 H 
ATOM    162  H52 UNL A   1      11.179   2.727  20.703  1.00  0.00    +0.000 H 
ATOM     42  C29 UNL A   1       9.741   0.251  20.325  1.00  0.00    +0.000 C 
ATOM     43  C30 UNL A   1      10.898   0.530  21.209  1.00  0.00    +0.000 C 
ATOM     44  N8  UNL A   1      11.580  -0.335  21.883  1.00  0.00    +0.000 N 
ATOM     45  C31 UNL A   1      12.534   0.402  22.575  1.00  0.00    +0.000 C 
ATOM     46  C32 UNL A   1      12.935  -0.006  23.811  1.00  0.00    +0.000 C 
ATOM     58  C39 UNL A   1      12.557  -1.384  24.027  1.00  0.00    +0.000 C 
ATOM     59  C40 UNL A   1      12.857  -2.597  23.440  1.00  0.00    +0.000 C 
ATOM     60  C41 UNL A   1      11.648  -3.355  23.500  1.00  0.00    +0.000 C 
ATOM     61  C42 UNL A   1      10.691  -2.613  24.193  1.00  0.00    +0.000 C 
ATOM     62  N9  UNL A   1      11.398  -1.574  24.732  1.00  0.00    +0.000 N 
ATOM     63  C43 UNL A   1       9.254  -2.723  24.300  1.00  0.00    +0.000 C 
ATOM     75  C50 UNL A   1       8.419  -1.740  24.756  1.00  0.00    +0.000 C 
ATOM     76  N10 UNL A   1       7.088  -1.727  24.369  1.00  0.00    +0.000 N 
ATOM     77  C51 UNL A   1       6.765  -0.463  24.364  1.00  0.00    +0.000 C 
ATOM     78  C52 UNL A   1       5.912   0.155  23.323  1.00  0.00    +0.000 C 
ATOM     90  C59 UNL A   1       6.622   0.104  22.165  1.00  0.00    +0.000 C 
ATOM     91  C60 UNL A   1       6.171   0.173  20.795  1.00  0.00    +0.000 C 
ATOM     92  C61 UNL A   1       7.242   0.057  19.984  1.00  0.00    +0.000 C 
ATOM     93  C62 UNL A   1       8.477   0.079  20.776  1.00  0.00    +0.000 C 
ATOM     94  N11 UNL A   1       8.032  -0.010  22.080  1.00  0.00    +0.000 N 
ATOM     95  C63 UNL A   1       7.627   0.410  25.140  1.00  0.00    +0.000 C 
ATOM     96  C64 UNL A   1       8.660  -0.415  25.322  1.00  0.00    +0.000 C 
ATOM     97  C65 UNL A   1      12.594   1.686  21.932  1.00  0.00    +0.000 C 
ATOM     98  C66 UNL A   1      11.507   1.871  21.179  1.00  0.00    +0.000 C 
ENDROOT
BRANCH   42   41
ATOM     99  C67 UNL A   1      10.763  -0.644  18.313  1.00  0.00    +0.000 C 
ATOM    164  H54 UNL A   1      11.740  -1.218  16.562  1.00  0.00    +0.000 H 
ATOM    100  C68 UNL A   1      11.069  -0.556  16.981  1.00  0.00    +0.000 C 
ATOM     38  C25 UNL A   1      10.475   0.426  16.190  1.00  0.00    +0.000 C 
ATOM     39  C26 UNL A   1       9.742   1.463  16.772  1.00  0.00    +0.000 C 
ATOM     40  C27 UNL A   1       9.569   1.467  18.153  1.00  0.00    +0.000 C 
ATOM    163  H53 UNL A   1      11.041  -1.473  18.860  1.00  0.00    +0.000 H 
ATOM     41  C28 UNL A   1      10.073   0.398  18.914  1.00  0.00    +0.000 C 
ATOM    151  H41 UNL A   1       9.336   2.212  16.189  1.00  0.00    +0.000 H 
ATOM    152  H42 UNL A   1       9.076   2.247  18.614  1.00  0.00    +0.000 H 
BRANCH   38   36
ATOM     36  C24 UNL A   1      10.644   0.342  14.728  1.00  0.00    +0.000 C 
ATOM     37  O5  UNL A   1      11.763   0.249  14.239  1.00  0.00    +0.000 O 
BRANCH   36   35
ATOM     35  N7  UNL A   1       9.525   0.358  13.922  1.00  0.00    +0.000 N 
ATOM    150  H40 UNL A   1       8.907   1.113  14.053  1.00  0.00    +0.000 H 
BRANCH   35   34
ATOM     34  C23 UNL A   1       9.148  -0.613  12.894  1.00  0.00    +0.000 C 
ATOM    148  H38 UNL A   1       8.925  -0.090  11.988  1.00  0.00    +0.000 H 
ATOM    149  H39 UNL A   1       9.967  -1.287  12.757  1.00  0.00    +0.000 H 
BRANCH   34   33
ATOM     33  C22 UNL A   1       7.930  -1.427  13.305  1.00  0.00    +0.000 C 
ATOM    146  H36 UNL A   1       7.123  -0.753  13.498  1.00  0.00    +0.000 H 
ATOM    147  H37 UNL A   1       7.716  -2.099  12.500  1.00  0.00    +0.000 H 
BRANCH   33   32
ATOM    145  H35 UNL A   1       7.225  -2.774  14.744  1.00  0.00    +0.000 H 
ATOM    144  H34 UNL A   1       8.477  -1.633  15.346  1.00  0.00    +0.000 H 
ATOM     32  C21 UNL A   1       8.158  -2.284  14.559  1.00  0.00    +0.000 C 
BRANCH   32   31
ATOM    143  H33 UNL A   1       9.921  -3.234  15.197  1.00  0.00    +0.000 H 
ATOM    142  H32 UNL A   1       9.606  -3.370  13.443  1.00  0.00    +0.000 H 
ATOM     31  C20 UNL A   1       9.196  -3.407  14.430  1.00  0.00    +0.000 C 
BRANCH   31   30
ATOM    140  H30 UNL A   1       7.593  -4.742  14.826  1.00  0.00    +0.000 H 
ATOM    141  H31 UNL A   1       8.893  -5.392  13.799  1.00  0.00    +0.000 H 
ATOM     30  C19 UNL A   1       8.649  -4.813  14.666  1.00  0.00    +0.000 C 
BRANCH   30   29
ATOM    138  H28 UNL A   1       9.198  -6.585  15.724  1.00  0.00    +0.000 H 
ATOM    139  H29 UNL A   1      10.296  -5.230  15.948  1.00  0.00    +0.000 H 
ATOM     29  C18 UNL A   1       9.272  -5.528  15.869  1.00  0.00    +0.000 C 
BRANCH   29   28
ATOM    137  H27 UNL A   1       7.808  -5.725  17.313  1.00  0.00    +0.000 H 
ATOM     28  N6  UNL A   1       8.594  -5.172  17.098  1.00  0.00    +0.000 N 
BRANCH   28   26
ATOM     26  C17 UNL A   1       8.870  -4.194  18.003  1.00  0.00    +0.000 C 
ATOM     27  O4  UNL A   1       9.900  -4.293  18.671  1.00  0.00    +0.000 O 
BRANCH   26   25
ATOM     25  C16 UNL A   1       7.930  -3.024  18.201  1.00  0.00    +0.000 C 
ATOM    135  H25 UNL A   1       7.868  -2.821  19.249  1.00  0.00    +0.000 H 
ATOM    136  H26 UNL A   1       8.339  -2.215  17.633  1.00  0.00    +0.000 H 
BRANCH   25   24
ATOM    133  H23 UNL A   1       6.214  -2.335  17.181  1.00  0.00    +0.000 H 
ATOM    134  H24 UNL A   1       6.579  -4.102  17.050  1.00  0.00    +0.000 H 
ATOM     24  C15 UNL A   1       6.511  -3.236  17.676  1.00  0.00    +0.000 C 
BRANCH   24   23
ATOM    131  H21 UNL A   1       4.942  -4.479  18.376  1.00  0.00    +0.000 H 
ATOM    132  H22 UNL A   1       5.915  -3.675  19.638  1.00  0.00    +0.000 H 
ATOM     23  C14 UNL A   1       5.425  -3.578  18.693  1.00  0.00    +0.000 C 
BRANCH   23   22
ATOM    129  H19 UNL A   1       4.817  -1.538  18.749  1.00  0.00    +0.000 H 
ATOM    130  H20 UNL A   1       3.600  -2.676  18.129  1.00  0.00    +0.000 H 
ATOM     22  C13 UNL A   1       4.353  -2.497  18.867  1.00  0.00    +0.000 C 
BRANCH   22   21
ATOM     21  C12 UNL A   1       3.670  -2.535  20.221  1.00  0.00    +0.000 C 
ATOM    127  H17 UNL A   1       3.071  -3.420  20.273  1.00  0.00    +0.000 H 
ATOM    128  H18 UNL A   1       4.442  -2.522  20.962  1.00  0.00    +0.000 H 
BRANCH   21   20
ATOM     20  C11 UNL A   1       2.774  -1.329  20.486  1.00  0.00    +0.000 C 
ATOM    125  H15 UNL A   1       1.761  -1.674  20.497  1.00  0.00    +0.000 H 
ATOM    126  H16 UNL A   1       3.116  -0.922  21.415  1.00  0.00    +0.000 H 
BRANCH   20   19
ATOM     19  C10 UNL A   1       2.863  -0.175  19.480  1.00  0.00    +0.000 C 
ATOM    124  H14 UNL A   1       2.496  -0.571  18.556  1.00  0.00    +0.000 H 
ATOM    123  H13 UNL A   1       3.883   0.149  19.444  1.00  0.00    +0.000 H 
BRANCH   19   18
ATOM    121  H11 UNL A   1       2.622   1.914  19.750  1.00  0.00    +0.000 H 
ATOM     18  C9  UNL A   1       1.992   1.050  19.778  1.00  0.00    +0.000 C 
ATOM    122  H12 UNL A   1       1.222   1.043  19.034  1.00  0.00    +0.000 H 
BRANCH   18   17
ATOM     17  C8  UNL A   1       1.263   1.046  21.120  1.00  0.00    +0.000 C 
ATOM    119  H9  UNL A   1       0.860   0.067  21.271  1.00  0.00    +0.000 H 
ATOM    120  H10 UNL A   1       1.993   1.336  21.846  1.00  0.00    +0.000 H 
BRANCH   17   16
ATOM    117  H7  UNL A   1      -0.357   2.121  20.310  1.00  0.00    +0.000 H 
ATOM    118  H8  UNL A   1      -0.492   1.659  22.045  1.00  0.00    +0.000 H 
ATOM     16  C7  UNL A   1       0.126   2.043  21.261  1.00  0.00    +0.000 C 
BRANCH   16   15
ATOM    116  H6  UNL A   1       0.932   3.444  22.552  1.00  0.00    +0.000 H 
ATOM     15  N5  UNL A   1       0.486   3.375  21.678  1.00  0.00    +0.000 N 
BRANCH   15   13
ATOM     13  C6  UNL A   1       0.289   4.546  21.023  1.00  0.00    +0.000 C 
ATOM     14  O3  UNL A   1       0.174   4.502  19.794  1.00  0.00    +0.000 O 
BRANCH   13   12
ATOM    115  H5  UNL A   1      -0.876   5.884  21.888  1.00  0.00    +0.000 H 
ATOM     12  N4  UNL A   1       0.068   5.722  21.661  1.00  0.00    +0.000 N 
BRANCH   12   11
ATOM    101  C69 UNL A   1       0.569   8.104  22.089  1.00  0.00    +0.000 C 
ATOM    102  C70 UNL A   1       1.632   8.748  22.694  1.00  0.00    +0.000 C 
ATOM    165  H55 UNL A   1      -0.303   8.532  21.737  1.00  0.00    +0.000 H 
ATOM      9  N2  UNL A   1       2.505   7.728  23.048  1.00  0.00    +0.000 N 
ATOM     10  N3  UNL A   1       2.200   6.578  22.410  1.00  0.00    +0.000 N 
ATOM     11  C5  UNL A   1       0.923   6.732  22.052  1.00  0.00    +0.000 C 
BRANCH    9    8
ATOM      5  C1  UNL A   1       5.626   7.704  25.869  1.00  0.00    +0.000 C 
ATOM      6  C2  UNL A   1       5.928   7.716  24.505  1.00  0.00    +0.000 C 
ATOM      7  C3  UNL A   1       4.893   7.742  23.574  1.00  0.00    +0.000 C 
ATOM      8  C4  UNL A   1       3.557   7.775  24.004  1.00  0.00    +0.000 C 
ATOM    171  H61 UNL A   1       2.280   7.921  25.686  1.00  0.00    +0.000 H 
ATOM    172  H62 UNL A   1       4.087   7.790  27.317  1.00  0.00    +0.000 H 
ATOM    109  C77 UNL A   1       3.259   7.835  25.371  1.00  0.00    +0.000 C 
ATOM    110  C78 UNL A   1       4.299   7.777  26.308  1.00  0.00    +0.000 C 
ATOM    113  H3  UNL A   1       6.911   7.706  24.190  1.00  0.00    +0.000 H 
ATOM    114  H4  UNL A   1       5.109   7.737  22.564  1.00  0.00    +0.000 H 
BRANCH    5    2
ATOM      2  S1  UNL A   1       6.976   7.650  27.006  1.00  0.00    +0.000 S 
ATOM      3  O1  UNL A   1       6.551   8.235  28.251  1.00  0.00    +0.000 O 
ATOM      4  O2  UNL A   1       8.175   8.063  26.308  1.00  0.00    +0.000 O 
BRANCH    2    1
ATOM      1  N1  UNL A   1       7.176   6.018  27.342  1.00  0.00    +0.000 N 
ATOM    111  H1  UNL A   1       6.558   5.750  28.108  1.00  0.00    +0.000 H 
ATOM    112  H2  UNL A   1       8.145   5.842  27.608  1.00  0.00    +0.000 H 
ENDBRANCH    2    1
ENDBRANCH    5    2
ENDBRANCH    9    8
BRANCH  102  103
ATOM    166  H56 UNL A   1       0.199  10.434  24.166  1.00  0.00    +0.000 H 
ATOM    103  C71 UNL A   1       1.909  10.161  22.950  1.00  0.00    +0.000 C 
ATOM    104  C72 UNL A   1       0.994  10.910  23.711  1.00  0.00    +0.000 C 
ATOM    105  C73 UNL A   1       1.148  12.285  23.861  1.00  0.00    +0.000 C 
ATOM    170  H60 UNL A   1       3.710  10.262  21.852  1.00  0.00    +0.000 H 
ATOM    107  C75 UNL A   1       3.173  12.183  22.551  1.00  0.00    +0.000 C 
ATOM    108  C76 UNL A   1       3.013  10.804  22.388  1.00  0.00    +0.000 C 
ATOM    167  H57 UNL A   1       0.457  12.829  24.402  1.00  0.00    +0.000 H 
ATOM    169  H59 UNL A   1       3.989  12.658  22.133  1.00  0.00    +0.000 H 
ATOM    106  C74 UNL A   1       2.237  12.923  23.277  1.00  0.00    +0.000 C 
ATOM    168  H58 UNL A   1       2.353  13.942  23.379  1.00  0.00    +0.000 H 
ENDBRANCH  102  103
ENDBRANCH   12   11
ENDBRANCH   13   12
ENDBRANCH   15   13
ENDBRANCH   16   15
ENDBRANCH   17   16
ENDBRANCH   18   17
ENDBRANCH   19   18
ENDBRANCH   20   19
ENDBRANCH   21   20
ENDBRANCH   22   21
ENDBRANCH   23   22
ENDBRANCH   24   23
ENDBRANCH   25   24
ENDBRANCH   26   25
ENDBRANCH   28   26
ENDBRANCH   29   28
ENDBRANCH   30   29
ENDBRANCH   31   30
ENDBRANCH   32   31
ENDBRANCH   33   32
ENDBRANCH   34   33
ENDBRANCH   35   34
ENDBRANCH   36   35
ENDBRANCH   38   36
ENDBRANCH   42   41
BRANCH   46   47
ATOM     47  C33 UNL A   1      13.198   0.934  24.974  1.00  0.00    +0.000 C 
ATOM     48  C34 UNL A   1      14.421   0.817  25.667  1.00  0.00    +0.000 C 
ATOM     49  F1  UNL A   1      15.429   0.094  25.156  1.00  0.00    +0.000 F 
ATOM     50  C35 UNL A   1      14.602   1.345  26.949  1.00  0.00    +0.000 C 
ATOM     51  F2  UNL A   1      15.730   1.081  27.623  1.00  0.00    +0.000 F 
ATOM     52  C36 UNL A   1      13.594   2.065  27.561  1.00  0.00    +0.000 C 
ATOM     53  F3  UNL A   1      13.740   2.510  28.816  1.00  0.00    +0.000 F 
ATOM     54  C37 UNL A   1      12.409   2.268  26.889  1.00  0.00    +0.000 C 
ATOM     55  F4  UNL A   1      11.407   2.929  27.485  1.00  0.00    +0.000 F 
ATOM     56  C38 UNL A   1      12.205   1.697  25.633  1.00  0.00    +0.000 C 
ATOM     57  F5  UNL A   1      10.961   1.820  25.163  1.00  0.00    +0.000 F 
ENDBRANCH   46   47
BRANCH   63   64
ATOM     65  C45 UNL A   1       8.350  -4.125  22.330  1.00  0.00    +0.000 C 
ATOM     66  F6  UNL A   1       8.627  -3.160  21.444  1.00  0.00    +0.000 F 
ATOM     67  C46 UNL A   1       7.832  -5.328  21.845  1.00  0.00    +0.000 C 
ATOM     68  F7  UNL A   1       7.566  -5.467  20.537  1.00  0.00    +0.000 F 
ATOM     69  C47 UNL A   1       7.620  -6.392  22.706  1.00  0.00    +0.000 C 
ATOM     70  F8  UNL A   1       7.162  -7.560  22.236  1.00  0.00    +0.000 F 
ATOM     71  C48 UNL A   1       7.908  -6.253  24.054  1.00  0.00    +0.000 C 
ATOM     72  F9  UNL A   1       7.751  -7.291  24.885  1.00  0.00    +0.000 F 
ATOM     73  C49 UNL A   1       8.385  -5.041  24.546  1.00  0.00    +0.000 C 
ATOM     74  F10 UNL A   1       8.666  -4.947  25.856  1.00  0.00    +0.000 F 
ATOM     64  C44 UNL A   1       8.619  -3.950  23.700  1.00  0.00    +0.000 C 
ENDBRANCH   63   64
BRANCH   78   79
ATOM     79  C53 UNL A   1       4.699   0.936  23.668  1.00  0.00    +0.000 C 
ATOM     80  C54 UNL A   1       3.481   0.296  23.968  1.00  0.00    +0.000 C 
ATOM     81  F11 UNL A   1       3.322  -1.010  23.704  1.00  0.00    +0.000 F 
ATOM     82  C55 UNL A   1       2.436   0.965  24.616  1.00  0.00    +0.000 C 
ATOM     83  F12 UNL A   1       1.318   0.302  24.946  1.00  0.00    +0.000 F 
ATOM     84  C56 UNL A   1       2.576   2.294  24.979  1.00  0.00    +0.000 C 
ATOM     85  F13 UNL A   1       1.605   2.916  25.662  1.00  0.00    +0.000 F 
ATOM     86  C57 UNL A   1       3.746   2.962  24.668  1.00  0.00    +0.000 C 
ATOM     87  F14 UNL A   1       3.909   4.236  25.050  1.00  0.00    +0.000 F 
ATOM     88  C58 UNL A   1       4.791   2.294  24.022  1.00  0.00    +0.000 C 
ATOM     89  F15 UNL A   1       5.932   2.973  23.840  1.00  0.00    +0.000 F 
ENDBRANCH   78   79
TORSDOF 32
ENDMDL
MODEL 8
REMARK VINA RESULT:      -7.4     26.919     34.468
ROOT
ATOM    153  H43 UNL A   1      22.737  14.569  11.105  1.00  0.00    +0.000 H 
ATOM    154  H44 UNL A   1      24.408  16.621  10.867  1.00  0.00    +0.000 H 
ATOM    155  H45 UNL A   1      24.821  14.183   7.636  1.00  0.00    +0.000 H 
ATOM    156  H46 UNL A   1      22.795  20.880   4.014  1.00  0.00    +0.000 H 
ATOM    157  H47 UNL A   1      20.945  20.558   5.733  1.00  0.00    +0.000 H 
ATOM    158  H48 UNL A   1      23.386  17.204   5.941  1.00  0.00    +0.000 H 
ATOM    159  H49 UNL A   1      25.106  15.818   3.598  1.00  0.00    +0.000 H 
ATOM    160  H50 UNL A   1      25.269  14.760   5.944  1.00  0.00    +0.000 H 
ATOM    161  H51 UNL A   1      19.553  13.494   6.919  1.00  0.00    +0.000 H 
ATOM    162  H52 UNL A   1      19.267  15.693   5.589  1.00  0.00    +0.000 H 
ATOM     42  C29 UNL A   1      20.793  17.849   6.757  1.00  0.00    +0.000 C 
ATOM     43  C30 UNL A   1      20.850  16.398   7.059  1.00  0.00    +0.000 C 
ATOM     44  N8  UNL A   1      21.505  15.835   8.018  1.00  0.00    +0.000 N 
ATOM     45  C31 UNL A   1      21.275  14.471   7.874  1.00  0.00    +0.000 C 
ATOM     46  C32 UNL A   1      22.253  13.585   8.206  1.00  0.00    +0.000 C 
ATOM     58  C39 UNL A   1      23.253  14.229   9.028  1.00  0.00    +0.000 C 
ATOM     59  C40 UNL A   1      23.274  14.839  10.265  1.00  0.00    +0.000 C 
ATOM     60  C41 UNL A   1      24.195  15.922  10.138  1.00  0.00    +0.000 C 
ATOM     61  C42 UNL A   1      24.761  15.877   8.863  1.00  0.00    +0.000 C 
ATOM     62  N9  UNL A   1      24.369  14.667   8.364  1.00  0.00    +0.000 N 
ATOM     63  C43 UNL A   1      25.496  16.847   8.082  1.00  0.00    +0.000 C 
ATOM     75  C50 UNL A   1      25.711  16.774   6.734  1.00  0.00    +0.000 C 
ATOM     76  N10 UNL A   1      25.963  17.928   6.009  1.00  0.00    +0.000 N 
ATOM     77  C51 UNL A   1      25.474  17.681   4.825  1.00  0.00    +0.000 C 
ATOM     78  C52 UNL A   1      24.731  18.682   4.026  1.00  0.00    +0.000 C 
ATOM     90  C59 UNL A   1      23.574  18.924   4.697  1.00  0.00    +0.000 C 
ATOM     91  C60 UNL A   1      22.680  20.057   4.627  1.00  0.00    +0.000 C 
ATOM     92  C61 UNL A   1      21.669  19.861   5.498  1.00  0.00    +0.000 C 
ATOM     93  C62 UNL A   1      21.749  18.509   6.064  1.00  0.00    +0.000 C 
ATOM     94  N11 UNL A   1      22.976  18.045   5.634  1.00  0.00    +0.000 N 
ATOM     95  C63 UNL A   1      25.281  16.279   4.505  1.00  0.00    +0.000 C 
ATOM     96  C64 UNL A   1      25.393  15.761   5.730  1.00  0.00    +0.000 C 
ATOM     97  C65 UNL A   1      20.128  14.346   7.017  1.00  0.00    +0.000 C 
ATOM     98  C66 UNL A   1      19.915  15.493   6.368  1.00  0.00    +0.000 C 
ENDROOT
BRANCH   42   41
ATOM     99  C67 UNL A   1      18.736  18.928   6.049  1.00  0.00    +0.000 C 
ATOM    164  H54 UNL A   1      17.005  20.002   5.600  1.00  0.00    +0.000 H 
ATOM    100  C68 UNL A   1      17.505  19.461   6.323  1.00  0.00    +0.000 C 
ATOM     38  C25 UNL A   1      16.924  19.274   7.576  1.00  0.00    +0.000 C 
ATOM     39  C26 UNL A   1      17.666  18.743   8.634  1.00  0.00    +0.000 C 
ATOM     40  C27 UNL A   1      18.982  18.351   8.398  1.00  0.00    +0.000 C 
ATOM    163  H53 UNL A   1      19.087  18.893   5.080  1.00  0.00    +0.000 H 
ATOM     41  C28 UNL A   1      19.503  18.435   7.095  1.00  0.00    +0.000 C 
ATOM    151  H41 UNL A   1      17.249  18.642   9.572  1.00  0.00    +0.000 H 
ATOM    152  H42 UNL A   1      19.568  18.004   9.172  1.00  0.00    +0.000 H 
BRANCH   38   36
ATOM     36  C24 UNL A   1      15.511  19.654   7.755  1.00  0.00    +0.000 C 
ATOM     37  O5  UNL A   1      15.155  20.255   8.762  1.00  0.00    +0.000 O 
BRANCH   36   35
ATOM     35  N7  UNL A   1      14.600  19.333   6.770  1.00  0.00    +0.000 N 
ATOM    150  H40 UNL A   1      14.521  18.378   6.547  1.00  0.00    +0.000 H 
BRANCH   35   34
ATOM     34  C23 UNL A   1      13.738  20.245   6.017  1.00  0.00    +0.000 C 
ATOM    148  H38 UNL A   1      13.239  19.693   5.248  1.00  0.00    +0.000 H 
ATOM    149  H39 UNL A   1      13.035  20.676   6.699  1.00  0.00    +0.000 H 
BRANCH   34   33
ATOM     33  C22 UNL A   1      14.531  21.374   5.377  1.00  0.00    +0.000 C 
ATOM    146  H36 UNL A   1      15.532  21.339   5.753  1.00  0.00    +0.000 H 
ATOM    147  H37 UNL A   1      14.487  21.227   4.318  1.00  0.00    +0.000 H 
BRANCH   33   32
ATOM    145  H35 UNL A   1      12.925  22.607   5.913  1.00  0.00    +0.000 H 
ATOM    144  H34 UNL A   1      14.105  23.369   4.790  1.00  0.00    +0.000 H 
ATOM     32  C21 UNL A   1      13.954  22.768   5.662  1.00  0.00    +0.000 C 
BRANCH   32   31
ATOM    143  H33 UNL A   1      14.621  24.545   6.566  1.00  0.00    +0.000 H 
ATOM    142  H32 UNL A   1      15.507  23.080   7.080  1.00  0.00    +0.000 H 
ATOM     31  C20 UNL A   1      14.557  23.518   6.858  1.00  0.00    +0.000 C 
BRANCH   31   30
ATOM    140  H30 UNL A   1      12.808  22.948   7.917  1.00  0.00    +0.000 H 
ATOM    141  H31 UNL A   1      14.300  23.012   8.884  1.00  0.00    +0.000 H 
ATOM     30  C19 UNL A   1      13.710  23.485   8.128  1.00  0.00    +0.000 C 
BRANCH   30   29
ATOM    138  H28 UNL A   1      13.380  24.861   9.727  1.00  0.00    +0.000 H 
ATOM    139  H29 UNL A   1      14.020  25.587   8.258  1.00  0.00    +0.000 H 
ATOM     29  C18 UNL A   1      13.332  24.872   8.659  1.00  0.00    +0.000 C 
BRANCH   29   28
ATOM    137  H27 UNL A   1      11.564  25.927   8.813  1.00  0.00    +0.000 H 
ATOM     28  N6  UNL A   1      11.995  25.242   8.249  1.00  0.00    +0.000 N 
BRANCH   28   26
ATOM     26  C17 UNL A   1      11.237  24.797   7.211  1.00  0.00    +0.000 C 
ATOM     27  O4  UNL A   1      11.335  25.376   6.128  1.00  0.00    +0.000 O 
BRANCH   26   25
ATOM     25  C16 UNL A   1      10.284  23.634   7.381  1.00  0.00    +0.000 C 
ATOM    135  H25 UNL A   1      10.623  23.044   8.206  1.00  0.00    +0.000 H 
ATOM    136  H26 UNL A   1       9.315  24.062   7.533  1.00  0.00    +0.000 H 
BRANCH   25   24
ATOM    133  H23 UNL A   1      11.027  22.861   5.561  1.00  0.00    +0.000 H 
ATOM    134  H24 UNL A   1      10.040  21.735   6.577  1.00  0.00    +0.000 H 
ATOM     24  C15 UNL A   1      10.156  22.717   6.165  1.00  0.00    +0.000 C 
BRANCH   24   23
ATOM    131  H21 UNL A   1       8.519  21.941   5.064  1.00  0.00    +0.000 H 
ATOM    132  H22 UNL A   1       8.269  23.554   5.789  1.00  0.00    +0.000 H 
ATOM     23  C14 UNL A   1       8.938  22.905   5.264  1.00  0.00    +0.000 C 
BRANCH   23   22
ATOM    129  H19 UNL A   1       8.495  23.278   3.214  1.00  0.00    +0.000 H 
ATOM    130  H20 UNL A   1       9.227  24.639   4.092  1.00  0.00    +0.000 H 
ATOM     22  C13 UNL A   1       9.238  23.583   3.922  1.00  0.00    +0.000 C 
BRANCH   22   21
ATOM     21  C12 UNL A   1      10.604  23.236   3.362  1.00  0.00    +0.000 C 
ATOM    127  H17 UNL A   1      11.289  24.013   3.632  1.00  0.00    +0.000 H 
ATOM    128  H18 UNL A   1      10.882  22.288   3.775  1.00  0.00    +0.000 H 
BRANCH   21   20
ATOM     20  C11 UNL A   1      10.621  23.085   1.844  1.00  0.00    +0.000 C 
ATOM    125  H15 UNL A   1       9.625  22.850   1.531  1.00  0.00    +0.000 H 
ATOM    126  H16 UNL A   1      10.996  24.015   1.471  1.00  0.00    +0.000 H 
BRANCH   20   19
ATOM     19  C10 UNL A   1      11.555  22.011   1.273  1.00  0.00    +0.000 C 
ATOM    124  H14 UNL A   1      12.168  22.516   0.556  1.00  0.00    +0.000 H 
ATOM    123  H13 UNL A   1      10.945  21.235   0.859  1.00  0.00    +0.000 H 
BRANCH   19   18
ATOM    121  H11 UNL A   1      12.761  22.092   3.015  1.00  0.00    +0.000 H 
ATOM     18  C9  UNL A   1      12.527  21.365   2.266  1.00  0.00    +0.000 C 
ATOM    122  H12 UNL A   1      12.022  20.498   2.640  1.00  0.00    +0.000 H 
BRANCH   18   17
ATOM     17  C8  UNL A   1      13.842  20.853   1.684  1.00  0.00    +0.000 C 
ATOM    119  H9  UNL A   1      14.252  21.628   1.071  1.00  0.00    +0.000 H 
ATOM    120  H10 UNL A   1      14.450  20.593   2.525  1.00  0.00    +0.000 H 
BRANCH   17   16
ATOM    117  H7  UNL A   1      12.764  19.552   0.425  1.00  0.00    +0.000 H 
ATOM    118  H8  UNL A   1      14.533  19.677   0.118  1.00  0.00    +0.000 H 
ATOM     16  C7  UNL A   1      13.749  19.593   0.840  1.00  0.00    +0.000 C 
BRANCH   16   15
ATOM    116  H6  UNL A   1      13.911  17.535   0.965  1.00  0.00    +0.000 H 
ATOM     15  N5  UNL A   1      13.988  18.345   1.519  1.00  0.00    +0.000 N 
BRANCH   15   13
ATOM     13  C6  UNL A   1      14.304  18.140   2.822  1.00  0.00    +0.000 C 
ATOM     14  O3  UNL A   1      13.372  18.009   3.622  1.00  0.00    +0.000 O 
BRANCH   13   12
ATOM    115  H5  UNL A   1      16.068  18.754   3.459  1.00  0.00    +0.000 H 
ATOM     12  N4  UNL A   1      15.573  17.929   3.251  1.00  0.00    +0.000 N 
BRANCH   12   11
ATOM    101  C69 UNL A   1      15.737  15.551   3.902  1.00  0.00    +0.000 C 
ATOM    102  C70 UNL A   1      16.749  14.616   3.801  1.00  0.00    +0.000 C 
ATOM    165  H55 UNL A   1      14.772  15.394   4.236  1.00  0.00    +0.000 H 
ATOM      9  N2  UNL A   1      17.810  15.306   3.230  1.00  0.00    +0.000 N 
ATOM     10  N3  UNL A   1      17.617  16.641   3.293  1.00  0.00    +0.000 N 
ATOM     11  C5  UNL A   1      16.297  16.772   3.452  1.00  0.00    +0.000 C 
BRANCH    9    8
ATOM      5  C1  UNL A   1      21.117  13.550   1.313  1.00  0.00    +0.000 C 
ATOM      6  C2  UNL A   1      19.961  13.825   0.580  1.00  0.00    +0.000 C 
ATOM      7  C3  UNL A   1      18.874  14.423   1.213  1.00  0.00    +0.000 C 
ATOM      8  C4  UNL A   1      18.949  14.764   2.573  1.00  0.00    +0.000 C 
ATOM    171  H61 UNL A   1      20.211  14.859   4.269  1.00  0.00    +0.000 H 
ATOM    172  H62 UNL A   1      22.083  13.736   3.185  1.00  0.00    +0.000 H 
ATOM    109  C77 UNL A   1      20.134  14.552   3.287  1.00  0.00    +0.000 C 
ATOM    110  C78 UNL A   1      21.217  13.923   2.659  1.00  0.00    +0.000 C 
ATOM    113  H3  UNL A   1      19.912  13.587  -0.423  1.00  0.00    +0.000 H 
ATOM    114  H4  UNL A   1      18.010  14.616   0.681  1.00  0.00    +0.000 H 
BRANCH    5    2
ATOM      2  S1  UNL A   1      22.458  12.773   0.466  1.00  0.00    +0.000 S 
ATOM      3  O1  UNL A   1      22.427  11.363   0.753  1.00  0.00    +0.000 O 
ATOM      4  O2  UNL A   1      23.641  13.588   0.645  1.00  0.00    +0.000 O 
BRANCH    2    1
ATOM      1  N1  UNL A   1      22.054  12.893  -1.157  1.00  0.00    +0.000 N 
ATOM    111  H1  UNL A   1      21.370  13.639  -1.284  1.00  0.00    +0.000 H 
ATOM    112  H2  UNL A   1      21.657  12.009  -1.475  1.00  0.00    +0.000 H 
ENDBRANCH    2    1
ENDBRANCH    5    2
ENDBRANCH    9    8
BRANCH  102  103
ATOM    166  H56 UNL A   1      17.355  13.618   6.189  1.00  0.00    +0.000 H 
ATOM    103  C71 UNL A   1      16.827  13.206   4.182  1.00  0.00    +0.000 C 
ATOM    104  C72 UNL A   1      17.226  12.871   5.489  1.00  0.00    +0.000 C 
ATOM    105  C73 UNL A   1      17.448  11.546   5.850  1.00  0.00    +0.000 C 
ATOM    170  H60 UNL A   1      16.276  12.412   2.305  1.00  0.00    +0.000 H 
ATOM    107  C75 UNL A   1      16.808  10.852   3.628  1.00  0.00    +0.000 C 
ATOM    108  C76 UNL A   1      16.599  12.184   3.259  1.00  0.00    +0.000 C 
ATOM    167  H57 UNL A   1      17.763  11.314   6.805  1.00  0.00    +0.000 H 
ATOM    169  H59 UNL A   1      16.641  10.098   2.943  1.00  0.00    +0.000 H 
ATOM    106  C74 UNL A   1      17.242  10.535   4.917  1.00  0.00    +0.000 C 
ATOM    168  H58 UNL A   1      17.410   9.552   5.177  1.00  0.00    +0.000 H 
ENDBRANCH  102  103
ENDBRANCH   12   11
ENDBRANCH   13   12
ENDBRANCH   15   13
ENDBRANCH   16   15
ENDBRANCH   17   16
ENDBRANCH   18   17
ENDBRANCH   19   18
ENDBRANCH   20   19
ENDBRANCH   21   20
ENDBRANCH   22   21
ENDBRANCH   23   22
ENDBRANCH   24   23
ENDBRANCH   25   24
ENDBRANCH   26   25
ENDBRANCH   28   26
ENDBRANCH   29   28
ENDBRANCH   30   29
ENDBRANCH   31   30
ENDBRANCH   32   31
ENDBRANCH   33   32
ENDBRANCH   34   33
ENDBRANCH   35   34
ENDBRANCH   36   35
ENDBRANCH   38   36
ENDBRANCH   42   41
BRANCH   46   47
ATOM     47  C33 UNL A   1      22.572  12.332   7.409  1.00  0.00    +0.000 C 
ATOM     48  C34 UNL A   1      22.949  12.477   6.057  1.00  0.00    +0.000 C 
ATOM     49  F1  UNL A   1      23.278  13.681   5.564  1.00  0.00    +0.000 F 
ATOM     50  C35 UNL A   1      22.888  11.414   5.151  1.00  0.00    +0.000 C 
ATOM     51  F2  UNL A   1      23.114  11.636   3.848  1.00  0.00    +0.000 F 
ATOM     52  C36 UNL A   1      22.514  10.152   5.572  1.00  0.00    +0.000 C 
ATOM     53  F3  UNL A   1      22.388   9.149   4.693  1.00  0.00    +0.000 F 
ATOM     54  C37 UNL A   1      22.211   9.949   6.900  1.00  0.00    +0.000 C 
ATOM     55  F4  UNL A   1      21.807   8.741   7.318  1.00  0.00    +0.000 F 
ATOM     56  C38 UNL A   1      22.218  11.018   7.796  1.00  0.00    +0.000 C 
ATOM     57  F5  UNL A   1      21.741  10.729   9.009  1.00  0.00    +0.000 F 
ENDBRANCH   46   47
BRANCH   63   64
ATOM     65  C45 UNL A   1      25.020  19.144   9.159  1.00  0.00    +0.000 C 
ATOM     66  F6  UNL A   1      23.712  19.065   8.879  1.00  0.00    +0.000 F 
ATOM     67  C46 UNL A   1      25.468  20.254   9.878  1.00  0.00    +0.000 C 
ATOM     68  F7  UNL A   1      24.610  21.231  10.211  1.00  0.00    +0.000 F 
ATOM     69  C47 UNL A   1      26.792  20.336  10.277  1.00  0.00    +0.000 C 
ATOM     70  F8  UNL A   1      27.215  21.381  11.002  1.00  0.00    +0.000 F 
ATOM     71  C48 UNL A   1      27.673  19.321   9.945  1.00  0.00    +0.000 C 
ATOM     72  F9  UNL A   1      28.944  19.370  10.367  1.00  0.00    +0.000 F 
ATOM     73  C49 UNL A   1      27.238  18.233   9.193  1.00  0.00    +0.000 C 
ATOM     74  F10 UNL A   1      28.117  17.261   8.902  1.00  0.00    +0.000 F 
ATOM     64  C44 UNL A   1      25.903  18.116   8.783  1.00  0.00    +0.000 C 
ENDBRANCH   63   64
BRANCH   78   79
ATOM     79  C53 UNL A   1      25.118  19.015   2.634  1.00  0.00    +0.000 C 
ATOM     80  C54 UNL A   1      26.345  19.642   2.349  1.00  0.00    +0.000 C 
ATOM     81  F11 UNL A   1      27.075  20.179   3.338  1.00  0.00    +0.000 F 
ATOM     82  C55 UNL A   1      26.882  19.660   1.056  1.00  0.00    +0.000 C 
ATOM     83  F12 UNL A   1      28.088  20.206   0.838  1.00  0.00    +0.000 F 
ATOM     84  C56 UNL A   1      26.207  19.054   0.010  1.00  0.00    +0.000 C 
ATOM     85  F13 UNL A   1      26.752  19.007  -1.213  1.00  0.00    +0.000 F 
ATOM     86  C57 UNL A   1      24.981  18.459   0.249  1.00  0.00    +0.000 C 
ATOM     87  F14 UNL A   1      24.337  17.834  -0.746  1.00  0.00    +0.000 F 
ATOM     88  C58 UNL A   1      24.445  18.440   1.540  1.00  0.00    +0.000 C 
ATOM     89  F15 UNL A   1      23.302  17.761   1.719  1.00  0.00    +0.000 F 
ENDBRANCH   78   79
TORSDOF 32
ENDMDL
MODEL 9
REMARK VINA RESULT:      -7.3      6.496     12.729
ROOT
ATOM    153  H43 UNL A   1      45.416  36.550  39.839  1.00  0.00    +0.000 H 
ATOM    154  H44 UNL A   1      43.114  35.619  40.785  1.00  0.00    +0.000 H 
ATOM    155  H45 UNL A   1      42.426  37.566  37.279  1.00  0.00    +0.000 H 
ATOM    156  H46 UNL A   1      39.673  30.424  35.413  1.00  0.00    +0.000 H 
ATOM    157  H47 UNL A   1      42.024  29.944  36.262  1.00  0.00    +0.000 H 
ATOM    158  H48 UNL A   1      41.574  34.073  36.215  1.00  0.00    +0.000 H 
ATOM    159  H49 UNL A   1      39.778  35.879  34.245  1.00  0.00    +0.000 H 
ATOM    160  H50 UNL A   1      41.099  37.119  36.080  1.00  0.00    +0.000 H 
ATOM    161  H51 UNL A   1      46.619  35.402  34.735  1.00  0.00    +0.000 H 
ATOM    162  H52 UNL A   1      45.351  33.235  34.118  1.00  0.00    +0.000 H 
ATOM     42  C29 UNL A   1      43.725  32.292  36.310  1.00  0.00    +0.000 C 
ATOM     43  C30 UNL A   1      44.419  33.593  36.158  1.00  0.00    +0.000 C 
ATOM     44  N8  UNL A   1      44.544  34.511  37.058  1.00  0.00    +0.000 N 
ATOM     45  C31 UNL A   1      45.241  35.544  36.441  1.00  0.00    +0.000 C 
ATOM     46  C32 UNL A   1      44.974  36.835  36.784  1.00  0.00    +0.000 C 
ATOM     58  C39 UNL A   1      44.256  36.880  38.038  1.00  0.00    +0.000 C 
ATOM     59  C40 UNL A   1      44.513  36.502  39.340  1.00  0.00    +0.000 C 
ATOM     60  C41 UNL A   1      43.266  36.030  39.851  1.00  0.00    +0.000 C 
ATOM     61  C42 UNL A   1      42.286  36.218  38.875  1.00  0.00    +0.000 C 
ATOM     62  N9  UNL A   1      42.895  37.001  37.934  1.00  0.00    +0.000 N 
ATOM     63  C43 UNL A   1      40.955  35.680  38.705  1.00  0.00    +0.000 C 
ATOM     75  C50 UNL A   1      40.236  35.706  37.542  1.00  0.00    +0.000 C 
ATOM     76  N10 UNL A   1      39.238  34.770  37.324  1.00  0.00    +0.000 N 
ATOM     77  C51 UNL A   1      39.226  34.606  36.030  1.00  0.00    +0.000 C 
ATOM     78  C52 UNL A   1      39.055  33.287  35.378  1.00  0.00    +0.000 C 
ATOM     90  C59 UNL A   1      40.166  32.564  35.682  1.00  0.00    +0.000 C 
ATOM     91  C60 UNL A   1      40.374  31.134  35.676  1.00  0.00    +0.000 C 
ATOM     92  C61 UNL A   1      41.638  30.883  36.073  1.00  0.00    +0.000 C 
ATOM     93  C62 UNL A   1      42.385  32.139  36.196  1.00  0.00    +0.000 C 
ATOM     94  N11 UNL A   1      41.415  33.113  36.063  1.00  0.00    +0.000 N 
ATOM     95  C63 UNL A   1      39.833  35.671  35.254  1.00  0.00    +0.000 C 
ATOM     96  C64 UNL A   1      40.487  36.303  36.232  1.00  0.00    +0.000 C 
ATOM     97  C65 UNL A   1      45.842  34.977  35.266  1.00  0.00    +0.000 C 
ATOM     98  C66 UNL A   1      45.252  33.818  34.964  1.00  0.00    +0.000 C 
ENDROOT
BRANCH   42   41
ATOM     99  C67 UNL A   1      45.165  30.846  37.624  1.00  0.00    +0.000 C 
ATOM    164  H54 UNL A   1      46.558  29.639  38.602  1.00  0.00    +0.000 H 
ATOM    100  C68 UNL A   1      46.020  29.781  37.733  1.00  0.00    +0.000 C 
ATOM     38  C25 UNL A   1      46.165  28.888  36.673  1.00  0.00    +0.000 C 
ATOM     39  C26 UNL A   1      45.624  29.179  35.418  1.00  0.00    +0.000 C 
ATOM     40  C27 UNL A   1      44.890  30.352  35.260  1.00  0.00    +0.000 C 
ATOM    163  H53 UNL A   1      44.906  31.395  38.458  1.00  0.00    +0.000 H 
ATOM     41  C28 UNL A   1      44.654  31.172  36.377  1.00  0.00    +0.000 C 
ATOM    151  H41 UNL A   1      45.766  28.537  34.622  1.00  0.00    +0.000 H 
ATOM    152  H42 UNL A   1      44.522  30.616  34.333  1.00  0.00    +0.000 H 
BRANCH   38   36
ATOM     36  C24 UNL A   1      46.904  27.636  36.910  1.00  0.00    +0.000 C 
ATOM     37  O5  UNL A   1      47.888  27.360  36.233  1.00  0.00    +0.000 O 
BRANCH   36   35
ATOM     35  N7  UNL A   1      46.480  26.785  37.909  1.00  0.00    +0.000 N 
ATOM    150  H40 UNL A   1      47.113  26.632  38.647  1.00  0.00    +0.000 H 
BRANCH   35   34
ATOM     34  C23 UNL A   1      45.199  26.085  38.004  1.00  0.00    +0.000 C 
ATOM    148  H38 UNL A   1      45.243  25.389  38.816  1.00  0.00    +0.000 H 
ATOM    149  H39 UNL A   1      44.432  26.813  38.163  1.00  0.00    +0.000 H 
BRANCH   34   33
ATOM     33  C22 UNL A   1      44.873  25.327  36.726  1.00  0.00    +0.000 C 
ATOM    146  H36 UNL A   1      45.748  25.311  36.111  1.00  0.00    +0.000 H 
ATOM    147  H37 UNL A   1      44.559  24.346  37.014  1.00  0.00    +0.000 H 
BRANCH   33   32
ATOM    145  H35 UNL A   1      43.009  25.163  35.786  1.00  0.00    +0.000 H 
ATOM    144  H34 UNL A   1      44.134  26.329  35.006  1.00  0.00    +0.000 H 
ATOM     32  C21 UNL A   1      43.724  25.949  35.919  1.00  0.00    +0.000 C 
BRANCH   32   31
ATOM    143  H33 UNL A   1      43.627  27.927  36.625  1.00  0.00    +0.000 H 
ATOM    142  H32 UNL A   1      42.662  26.759  37.573  1.00  0.00    +0.000 H 
ATOM     31  C20 UNL A   1      42.959  27.091  36.601  1.00  0.00    +0.000 C 
BRANCH   31   30
ATOM    140  H30 UNL A   1      40.854  27.129  36.332  1.00  0.00    +0.000 H 
ATOM    141  H31 UNL A   1      41.708  28.629  35.897  1.00  0.00    +0.000 H 
ATOM     30  C19 UNL A   1      41.711  27.560  35.857  1.00  0.00    +0.000 C 
BRANCH   30   29
ATOM    138  H28 UNL A   1      42.620  26.709  34.121  1.00  0.00    +0.000 H 
ATOM    139  H29 UNL A   1      40.877  26.491  34.216  1.00  0.00    +0.000 H 
ATOM     29  C18 UNL A   1      41.688  27.170  34.375  1.00  0.00    +0.000 C 
BRANCH   29   28
ATOM    137  H27 UNL A   1      42.122  29.068  33.688  1.00  0.00    +0.000 H 
ATOM     28  N6  UNL A   1      41.489  28.329  33.532  1.00  0.00    +0.000 N 
BRANCH   28   26
ATOM     26  C17 UNL A   1      40.568  28.562  32.558  1.00  0.00    +0.000 C 
ATOM     27  O4  UNL A   1      40.908  28.403  31.385  1.00  0.00    +0.000 O 
BRANCH   26   25
ATOM     25  C16 UNL A   1      39.167  29.021  32.901  1.00  0.00    +0.000 C 
ATOM    135  H25 UNL A   1      38.951  28.712  33.902  1.00  0.00    +0.000 H 
ATOM    136  H26 UNL A   1      39.162  30.083  32.771  1.00  0.00    +0.000 H 
BRANCH   25   24
ATOM    133  H23 UNL A   1      38.539  27.902  31.223  1.00  0.00    +0.000 H 
ATOM    134  H24 UNL A   1      37.421  27.927  32.645  1.00  0.00    +0.000 H 
ATOM     24  C15 UNL A   1      38.066  28.477  31.991  1.00  0.00    +0.000 C 
BRANCH   24   23
ATOM    131  H21 UNL A   1      36.170  29.388  31.723  1.00  0.00    +0.000 H 
ATOM    132  H22 UNL A   1      37.582  30.453  31.479  1.00  0.00    +0.000 H 
ATOM     23  C14 UNL A   1      37.151  29.490  31.307  1.00  0.00    +0.000 C 
BRANCH   23   22
ATOM    129  H19 UNL A   1      36.949  28.282  29.565  1.00  0.00    +0.000 H 
ATOM    130  H20 UNL A   1      36.192  29.887  29.467  1.00  0.00    +0.000 H 
ATOM     22  C13 UNL A   1      37.044  29.326  29.787  1.00  0.00    +0.000 C 
BRANCH   22   21
ATOM     21  C12 UNL A   1      38.245  29.868  29.035  1.00  0.00    +0.000 C 
ATOM    127  H17 UNL A   1      37.902  30.593  28.326  1.00  0.00    +0.000 H 
ATOM    128  H18 UNL A   1      38.906  30.292  29.762  1.00  0.00    +0.000 H 
BRANCH   21   20
ATOM     20  C11 UNL A   1      39.031  28.796  28.286  1.00  0.00    +0.000 C 
ATOM    125  H15 UNL A   1      38.951  27.886  28.844  1.00  0.00    +0.000 H 
ATOM    126  H16 UNL A   1      38.597  28.758  27.309  1.00  0.00    +0.000 H 
BRANCH   20   19
ATOM     19  C10 UNL A   1      40.521  29.074  28.059  1.00  0.00    +0.000 C 
ATOM    124  H14 UNL A   1      41.040  28.435  28.743  1.00  0.00    +0.000 H 
ATOM    123  H13 UNL A   1      40.687  30.119  28.223  1.00  0.00    +0.000 H 
BRANCH   19   18
ATOM    121  H11 UNL A   1      40.544  29.319  25.953  1.00  0.00    +0.000 H 
ATOM     18  C9  UNL A   1      41.070  28.725  26.671  1.00  0.00    +0.000 C 
ATOM    122  H12 UNL A   1      42.121  28.922  26.719  1.00  0.00    +0.000 H 
BRANCH   18   17
ATOM     17  C8  UNL A   1      40.947  27.263  26.248  1.00  0.00    +0.000 C 
ATOM    119  H9  UNL A   1      40.612  26.704  27.096  1.00  0.00    +0.000 H 
ATOM    120  H10 UNL A   1      40.266  27.256  25.423  1.00  0.00    +0.000 H 
BRANCH   17   16
ATOM    117  H7  UNL A   1      42.273  26.789  24.681  1.00  0.00    +0.000 H 
ATOM    118  H8  UNL A   1      43.012  27.052  26.302  1.00  0.00    +0.000 H 
ATOM     16  C7  UNL A   1      42.219  26.611  25.735  1.00  0.00    +0.000 C 
BRANCH   16   15
ATOM    116  H6  UNL A   1      42.998  24.730  25.371  1.00  0.00    +0.000 H 
ATOM     15  N5  UNL A   1      42.344  25.191  25.944  1.00  0.00    +0.000 N 
BRANCH   15   13
ATOM     13  C6  UNL A   1      41.678  24.406  26.827  1.00  0.00    +0.000 C 
ATOM     14  O3  UNL A   1      40.664  23.827  26.425  1.00  0.00    +0.000 O 
BRANCH   13   12
ATOM    115  H5  UNL A   1      41.906  23.223  28.390  1.00  0.00    +0.000 H 
ATOM     12  N4  UNL A   1      42.151  24.119  28.065  1.00  0.00    +0.000 N 
BRANCH   12   11
ATOM    101  C69 UNL A   1      44.078  24.359  29.593  1.00  0.00    +0.000 C 
ATOM    102  C70 UNL A   1      44.630  25.444  30.248  1.00  0.00    +0.000 C 
ATOM    165  H55 UNL A   1      44.438  23.391  29.574  1.00  0.00    +0.000 H 
ATOM      9  N2  UNL A   1      43.819  26.516  29.898  1.00  0.00    +0.000 N 
ATOM     10  N3  UNL A   1      42.654  26.095  29.363  1.00  0.00    +0.000 N 
ATOM     11  C5  UNL A   1      42.914  24.851  28.952  1.00  0.00    +0.000 C 
BRANCH    9    8
ATOM      5  C1  UNL A   1      44.565  30.647  30.164  1.00  0.00    +0.000 C 
ATOM      6  C2  UNL A   1      44.511  29.879  31.329  1.00  0.00    +0.000 C 
ATOM      7  C3  UNL A   1      44.281  28.509  31.237  1.00  0.00    +0.000 C 
ATOM      8  C4  UNL A   1      44.126  27.902  29.980  1.00  0.00    +0.000 C 
ATOM    171  H61 UNL A   1      44.200  28.207  27.887  1.00  0.00    +0.000 H 
ATOM    172  H62 UNL A   1      44.517  30.618  28.050  1.00  0.00    +0.000 H 
ATOM    109  C77 UNL A   1      44.253  28.662  28.811  1.00  0.00    +0.000 C 
ATOM    110  C78 UNL A   1      44.453  30.045  28.905  1.00  0.00    +0.000 C 
ATOM    113  H3  UNL A   1      44.639  30.324  32.252  1.00  0.00    +0.000 H 
ATOM    114  H4  UNL A   1      44.225  27.937  32.095  1.00  0.00    +0.000 H 
BRANCH    5    2
ATOM      2  S1  UNL A   1      44.838  32.383  30.339  1.00  0.00    +0.000 S 
ATOM      3  O1  UNL A   1      44.279  32.812  31.594  1.00  0.00    +0.000 O 
ATOM      4  O2  UNL A   1      44.527  33.021  29.078  1.00  0.00    +0.000 O 
BRANCH    2    1
ATOM      1  N1  UNL A   1      46.498  32.529  30.534  1.00  0.00    +0.000 N 
ATOM    111  H1  UNL A   1      46.794  33.461  30.245  1.00  0.00    +0.000 H 
ATOM    112  H2  UNL A   1      46.970  31.829  29.961  1.00  0.00    +0.000 H 
ENDBRANCH    2    1
ENDBRANCH    5    2
ENDBRANCH    9    8
BRANCH  102  103
ATOM    166  H56 UNL A   1      44.684  25.049  32.876  1.00  0.00    +0.000 H 
ATOM    103  C71 UNL A   1      45.780  25.571  31.143  1.00  0.00    +0.000 C 
ATOM    104  C72 UNL A   1      45.597  25.379  32.524  1.00  0.00    +0.000 C 
ATOM    105  C73 UNL A   1      46.630  25.627  33.422  1.00  0.00    +0.000 C 
ATOM    170  H60 UNL A   1      47.193  26.077  29.658  1.00  0.00    +0.000 H 
ATOM    107  C75 UNL A   1      48.075  26.198  31.574  1.00  0.00    +0.000 C 
ATOM    108  C76 UNL A   1      47.034  25.962  30.671  1.00  0.00    +0.000 C 
ATOM    167  H57 UNL A   1      46.477  25.506  34.436  1.00  0.00    +0.000 H 
ATOM    169  H59 UNL A   1      49.002  26.488  31.225  1.00  0.00    +0.000 H 
ATOM    106  C74 UNL A   1      47.870  26.041  32.947  1.00  0.00    +0.000 C 
ATOM    168  H58 UNL A   1      48.638  26.232  33.608  1.00  0.00    +0.000 H 
ENDBRANCH  102  103
ENDBRANCH   12   11
ENDBRANCH   13   12
ENDBRANCH   15   13
ENDBRANCH   16   15
ENDBRANCH   17   16
ENDBRANCH   18   17
ENDBRANCH   19   18
ENDBRANCH   20   19
ENDBRANCH   21   20
ENDBRANCH   22   21
ENDBRANCH   23   22
ENDBRANCH   24   23
ENDBRANCH   25   24
ENDBRANCH   26   25
ENDBRANCH   28   26
ENDBRANCH   29   28
ENDBRANCH   30   29
ENDBRANCH   31   30
ENDBRANCH   32   31
ENDBRANCH   33   32
ENDBRANCH   34   33
ENDBRANCH   35   34
ENDBRANCH   36   35
ENDBRANCH   38   36
ENDBRANCH   42   41
BRANCH   46   47
ATOM     47  C33 UNL A   1      44.904  37.981  35.791  1.00  0.00    +0.000 C 
ATOM     48  C34 UNL A   1      45.550  39.192  36.120  1.00  0.00    +0.000 C 
ATOM     49  F1  UNL A   1      46.420  39.248  37.139  1.00  0.00    +0.000 F 
ATOM     50  C35 UNL A   1      45.236  40.397  35.485  1.00  0.00    +0.000 C 
ATOM     51  F2  UNL A   1      45.769  41.543  35.932  1.00  0.00    +0.000 F 
ATOM     52  C36 UNL A   1      44.316  40.430  34.455  1.00  0.00    +0.000 C 
ATOM     53  F3  UNL A   1      43.962  41.593  33.893  1.00  0.00    +0.000 F 
ATOM     54  C37 UNL A   1      43.717  39.258  34.050  1.00  0.00    +0.000 C 
ATOM     55  F4  UNL A   1      42.792  39.278  33.080  1.00  0.00    +0.000 F 
ATOM     56  C38 UNL A   1      43.987  38.062  34.717  1.00  0.00    +0.000 C 
ATOM     57  F5  UNL A   1      43.218  37.035  34.347  1.00  0.00    +0.000 F 
ENDBRANCH   46   47
BRANCH   63   64
ATOM     65  C45 UNL A   1      40.739  33.543  40.138  1.00  0.00    +0.000 C 
ATOM     66  F6  UNL A   1      41.599  32.871  39.363  1.00  0.00    +0.000 F 
ATOM     67  C46 UNL A   1      40.234  32.896  41.267  1.00  0.00    +0.000 C 
ATOM     68  F7  UNL A   1      40.561  31.618  41.514  1.00  0.00    +0.000 F 
ATOM     69  C47 UNL A   1      39.419  33.580  42.155  1.00  0.00    +0.000 C 
ATOM     70  F8  UNL A   1      38.966  32.972  43.260  1.00  0.00    +0.000 F 
ATOM     71  C48 UNL A   1      39.092  34.903  41.908  1.00  0.00    +0.000 C 
ATOM     72  F9  UNL A   1      38.344  35.585  42.785  1.00  0.00    +0.000 F 
ATOM     73  C49 UNL A   1      39.562  35.538  40.761  1.00  0.00    +0.000 C 
ATOM     74  F10 UNL A   1      39.237  36.824  40.562  1.00  0.00    +0.000 F 
ATOM     64  C44 UNL A   1      40.396  34.877  39.850  1.00  0.00    +0.000 C 
ENDBRANCH   63   64
BRANCH   78   79
ATOM     79  C53 UNL A   1      38.009  33.049  34.354  1.00  0.00    +0.000 C 
ATOM     80  C54 UNL A   1      36.651  33.291  34.631  1.00  0.00    +0.000 C 
ATOM     81  F11 UNL A   1      36.245  33.498  35.893  1.00  0.00    +0.000 F 
ATOM     82  C55 UNL A   1      35.698  33.405  33.611  1.00  0.00    +0.000 C 
ATOM     83  F12 UNL A   1      34.426  33.705  33.912  1.00  0.00    +0.000 F 
ATOM     84  C56 UNL A   1      36.076  33.275  32.286  1.00  0.00    +0.000 C 
ATOM     85  F13 UNL A   1      35.180  33.454  31.305  1.00  0.00    +0.000 F 
ATOM     86  C57 UNL A   1      37.396  33.002  31.980  1.00  0.00    +0.000 C 
ATOM     87  F14 UNL A   1      37.782  32.915  30.699  1.00  0.00    +0.000 F 
ATOM     88  C58 UNL A   1      38.348  32.890  32.998  1.00  0.00    +0.000 C 
ATOM     89  F15 UNL A   1      39.626  32.723  32.627  1.00  0.00    +0.000 F 
ENDBRANCH   78   79
TORSDOF 32
ENDMDL
MODEL 10
REMARK VINA RESULT:      -7.3     39.634     46.636
ROOT
ATOM    153  H43 UNL A   1      18.914  49.911   1.649  1.00  0.00    +0.000 H 
ATOM    154  H44 UNL A   1      18.816  52.472   0.949  1.00  0.00    +0.000 H 
ATOM    155  H45 UNL A   1      17.576  50.186  -2.180  1.00  0.00    +0.000 H 
ATOM    156  H46 UNL A   1      11.145  54.612  -1.116  1.00  0.00    +0.000 H 
ATOM    157  H47 UNL A   1      11.575  53.636   1.195  1.00  0.00    +0.000 H 
ATOM    158  H48 UNL A   1      14.352  51.925  -1.377  1.00  0.00    +0.000 H 
ATOM    159  H49 UNL A   1      14.057  51.284  -4.520  1.00  0.00    +0.000 H 
ATOM    160  H50 UNL A   1      16.319  50.711  -3.422  1.00  0.00    +0.000 H 
ATOM    161  H51 UNL A   1      14.506  46.964   0.810  1.00  0.00    +0.000 H 
ATOM    162  H52 UNL A   1      12.491  48.585   0.803  1.00  0.00    +0.000 H 
ATOM     42  C29 UNL A   1      13.329  51.326   1.153  1.00  0.00    +0.000 C 
ATOM     43  C30 UNL A   1      14.157  50.128   0.873  1.00  0.00    +0.000 C 
ATOM     44  N8  UNL A   1      15.446  50.064   0.873  1.00  0.00    +0.000 N 
ATOM     45  C31 UNL A   1      15.753  48.753   0.529  1.00  0.00    +0.000 C 
ATOM     46  C32 UNL A   1      16.872  48.493  -0.202  1.00  0.00    +0.000 C 
ATOM     58  C39 UNL A   1      17.766  49.628  -0.167  1.00  0.00    +0.000 C 
ATOM     59  C40 UNL A   1      18.464  50.309   0.809  1.00  0.00    +0.000 C 
ATOM     60  C41 UNL A   1      18.433  51.680   0.411  1.00  0.00    +0.000 C 
ATOM     61  C42 UNL A   1      17.795  51.768  -0.827  1.00  0.00    +0.000 C 
ATOM     62  N9  UNL A   1      17.690  50.471  -1.244  1.00  0.00    +0.000 N 
ATOM     63  C43 UNL A   1      17.220  52.876  -1.557  1.00  0.00    +0.000 C 
ATOM     75  C50 UNL A   1      16.352  52.763  -2.607  1.00  0.00    +0.000 C 
ATOM     76  N10 UNL A   1      15.489  53.805  -2.908  1.00  0.00    +0.000 N 
ATOM     77  C51 UNL A   1      14.439  53.219  -3.414  1.00  0.00    +0.000 C 
ATOM     78  C52 UNL A   1      13.050  53.639  -3.117  1.00  0.00    +0.000 C 
ATOM     90  C59 UNL A   1      12.842  53.368  -1.801  1.00  0.00    +0.000 C 
ATOM     91  C60 UNL A   1      11.867  53.912  -0.884  1.00  0.00    +0.000 C 
ATOM     92  C61 UNL A   1      12.059  53.353   0.328  1.00  0.00    +0.000 C 
ATOM     93  C62 UNL A   1      13.059  52.283   0.234  1.00  0.00    +0.000 C 
ATOM     94  N11 UNL A   1      13.572  52.422  -1.040  1.00  0.00    +0.000 N 
ATOM     95  C63 UNL A   1      14.648  51.872  -3.911  1.00  0.00    +0.000 C 
ATOM     96  C64 UNL A   1      15.830  51.615  -3.346  1.00  0.00    +0.000 C 
ATOM     97  C65 UNL A   1      14.550  47.993   0.730  1.00  0.00    +0.000 C 
ATOM     98  C66 UNL A   1      13.498  48.812   0.801  1.00  0.00    +0.000 C 
ENDROOT
BRANCH   42   41
ATOM     99  C67 UNL A   1      11.407  50.667   2.482  1.00  0.00    +0.000 C 
ATOM    164  H54 UNL A   1       9.761  50.303   3.711  1.00  0.00    +0.000 H 
ATOM    100  C68 UNL A   1      10.762  50.552   3.685  1.00  0.00    +0.000 C 
ATOM     38  C25 UNL A   1      11.454  50.771   4.875  1.00  0.00    +0.000 C 
ATOM     39  C26 UNL A   1      12.738  51.322   4.861  1.00  0.00    +0.000 C 
ATOM     40  C27 UNL A   1      13.336  51.597   3.633  1.00  0.00    +0.000 C 
ATOM    163  H53 UNL A   1      10.964  50.324   1.616  1.00  0.00    +0.000 H 
ATOM     41  C28 UNL A   1      12.665  51.251   2.447  1.00  0.00    +0.000 C 
ATOM    151  H41 UNL A   1      13.235  51.522   5.743  1.00  0.00    +0.000 H 
ATOM    152  H42 UNL A   1      14.261  52.051   3.594  1.00  0.00    +0.000 H 
BRANCH   38   36
ATOM     36  C24 UNL A   1      10.796  50.409   6.143  1.00  0.00    +0.000 C 
ATOM     37  O5  UNL A   1       9.576  50.318   6.202  1.00  0.00    +0.000 O 
BRANCH   36   35
ATOM     35  N7  UNL A   1      11.574  50.166   7.256  1.00  0.00    +0.000 N 
ATOM    150  H40 UNL A   1      11.730  50.933   7.852  1.00  0.00    +0.000 H 
BRANCH   35   34
ATOM     34  C23 UNL A   1      12.194  48.902   7.655  1.00  0.00    +0.000 C 
ATOM    148  H38 UNL A   1      11.758  48.107   7.086  1.00  0.00    +0.000 H 
ATOM    149  H39 UNL A   1      13.245  48.975   7.470  1.00  0.00    +0.000 H 
BRANCH   34   33
ATOM     33  C22 UNL A   1      11.992  48.615   9.135  1.00  0.00    +0.000 C 
ATOM    146  H36 UNL A   1      12.793  49.070   9.679  1.00  0.00    +0.000 H 
ATOM    147  H37 UNL A   1      11.037  49.015   9.405  1.00  0.00    +0.000 H 
BRANCH   33   32
ATOM    145  H35 UNL A   1      10.992  46.933   9.880  1.00  0.00    +0.000 H 
ATOM    144  H34 UNL A   1      12.770  46.920  10.150  1.00  0.00    +0.000 H 
ATOM     32  C21 UNL A   1      11.965  47.117   9.472  1.00  0.00    +0.000 C 
BRANCH   32   31
ATOM    143  H33 UNL A   1      12.712  45.342   8.628  1.00  0.00    +0.000 H 
ATOM    142  H32 UNL A   1      12.538  46.692   7.469  1.00  0.00    +0.000 H 
ATOM     31  C20 UNL A   1      12.104  46.154   8.286  1.00  0.00    +0.000 C 
BRANCH   31   30
ATOM    140  H30 UNL A   1      10.519  44.756   8.485  1.00  0.00    +0.000 H 
ATOM    141  H31 UNL A   1      10.070  46.325   7.775  1.00  0.00    +0.000 H 
ATOM     30  C19 UNL A   1      10.793  45.537   7.805  1.00  0.00    +0.000 C 
BRANCH   30   29
ATOM    138  H28 UNL A   1      11.860  44.591   6.215  1.00  0.00    +0.000 H 
ATOM    139  H29 UNL A   1      10.163  44.141   6.327  1.00  0.00    +0.000 H 
ATOM     29  C18 UNL A   1      10.866  44.944   6.394  1.00  0.00    +0.000 C 
BRANCH   29   28
ATOM    137  H27 UNL A   1       9.588  46.225   5.400  1.00  0.00    +0.000 H 
ATOM     28  N6  UNL A   1      10.529  45.934   5.393  1.00  0.00    +0.000 N 
BRANCH   28   26
ATOM     26  C17 UNL A   1      11.304  46.526   4.445  1.00  0.00    +0.000 C 
ATOM     27  O4  UNL A   1      10.748  47.009   3.458  1.00  0.00    +0.000 O 
BRANCH   26   25
ATOM     25  C16 UNL A   1      12.809  46.578   4.586  1.00  0.00    +0.000 C 
ATOM    135  H25 UNL A   1      13.058  46.324   5.595  1.00  0.00    +0.000 H 
ATOM    136  H26 UNL A   1      13.200  45.892   3.865  1.00  0.00    +0.000 H 
BRANCH   25   24
ATOM    133  H23 UNL A   1      13.230  48.156   3.246  1.00  0.00    +0.000 H 
ATOM    134  H24 UNL A   1      13.019  48.605   4.986  1.00  0.00    +0.000 H 
ATOM     24  C15 UNL A   1      13.445  47.932   4.270  1.00  0.00    +0.000 C 
BRANCH   24   23
ATOM    131  H21 UNL A   1      15.411  47.146   4.165  1.00  0.00    +0.000 H 
ATOM    132  H22 UNL A   1      15.261  48.900   3.866  1.00  0.00    +0.000 H 
ATOM     23  C14 UNL A   1      14.953  48.066   4.461  1.00  0.00    +0.000 C 
BRANCH   23   22
ATOM    129  H19 UNL A   1      16.366  48.808   5.872  1.00  0.00    +0.000 H 
ATOM    130  H20 UNL A   1      14.660  49.042   6.312  1.00  0.00    +0.000 H 
ATOM     22  C13 UNL A   1      15.387  48.375   5.899  1.00  0.00    +0.000 C 
BRANCH   22   21
ATOM     21  C12 UNL A   1      15.429  47.151   6.794  1.00  0.00    +0.000 C 
ATOM    127  H17 UNL A   1      14.541  46.578   6.626  1.00  0.00    +0.000 H 
ATOM    128  H18 UNL A   1      16.317  46.608   6.542  1.00  0.00    +0.000 H 
BRANCH   21   20
ATOM     20  C11 UNL A   1      15.515  47.484   8.280  1.00  0.00    +0.000 C 
ATOM    125  H15 UNL A   1      14.559  47.855   8.585  1.00  0.00    +0.000 H 
ATOM    126  H16 UNL A   1      15.811  46.573   8.757  1.00  0.00    +0.000 H 
BRANCH   20   19
ATOM     19  C10 UNL A   1      16.569  48.519   8.689  1.00  0.00    +0.000 C 
ATOM    124  H14 UNL A   1      16.332  49.405   8.138  1.00  0.00    +0.000 H 
ATOM    123  H13 UNL A   1      17.533  48.109   8.467  1.00  0.00    +0.000 H 
BRANCH   19   18
ATOM    121  H11 UNL A   1      17.088  48.185  10.718  1.00  0.00    +0.000 H 
ATOM     18  C9  UNL A   1      16.568  48.938  10.164  1.00  0.00    +0.000 C 
ATOM    122  H12 UNL A   1      17.033  49.902  10.189  1.00  0.00    +0.000 H 
BRANCH   18   17
ATOM     17  C8  UNL A   1      15.196  49.129  10.807  1.00  0.00    +0.000 C 
ATOM    119  H9  UNL A   1      14.457  48.806  10.104  1.00  0.00    +0.000 H 
ATOM    120  H10 UNL A   1      15.219  48.558  11.711  1.00  0.00    +0.000 H 
BRANCH   17   16
ATOM    117  H7  UNL A   1      13.796  50.676  11.101  1.00  0.00    +0.000 H 
ATOM    118  H8  UNL A   1      15.193  50.635  12.236  1.00  0.00    +0.000 H 
ATOM     16  C7  UNL A   1      14.851  50.547  11.226  1.00  0.00    +0.000 C 
BRANCH   16   15
ATOM    116  H6  UNL A   1      16.348  51.937  10.902  1.00  0.00    +0.000 H 
ATOM     15  N5  UNL A   1      15.508  51.609  10.507  1.00  0.00    +0.000 N 
BRANCH   15   13
ATOM     13  C6  UNL A   1      15.121  52.216   9.358  1.00  0.00    +0.000 C 
ATOM     14  O3  UNL A   1      15.257  51.586   8.304  1.00  0.00    +0.000 O 
BRANCH   13   12
ATOM    115  H5  UNL A   1      14.132  53.695  10.211  1.00  0.00    +0.000 H 
ATOM     12  N4  UNL A   1      14.466  53.403   9.333  1.00  0.00    +0.000 N 
BRANCH   12   11
ATOM    101  C69 UNL A   1      13.595  53.894   7.073  1.00  0.00    +0.000 C 
ATOM    102  C70 UNL A   1      13.325  55.073   6.405  1.00  0.00    +0.000 C 
ATOM    165  H55 UNL A   1      13.408  52.933   6.745  1.00  0.00    +0.000 H 
ATOM      9  N2  UNL A   1      13.687  56.074   7.297  1.00  0.00    +0.000 N 
ATOM     10  N3  UNL A   1      14.452  55.586   8.297  1.00  0.00    +0.000 N 
ATOM     11  C5  UNL A   1      14.183  54.278   8.304  1.00  0.00    +0.000 C 
BRANCH    9    8
ATOM      5  C1  UNL A   1      12.479  60.098   7.094  1.00  0.00    +0.000 C 
ATOM      6  C2  UNL A   1      11.521  59.098   7.275  1.00  0.00    +0.000 C 
ATOM      7  C3  UNL A   1      11.925  57.768   7.360  1.00  0.00    +0.000 C 
ATOM      8  C4  UNL A   1      13.288  57.439   7.283  1.00  0.00    +0.000 C 
ATOM    171  H61 UNL A   1      15.255  58.213   7.179  1.00  0.00    +0.000 H 
ATOM    172  H62 UNL A   1      14.543  60.532   6.945  1.00  0.00    +0.000 H 
ATOM    109  C77 UNL A   1      14.251  58.449   7.173  1.00  0.00    +0.000 C 
ATOM    110  C78 UNL A   1      13.842  59.784   7.057  1.00  0.00    +0.000 C 
ATOM    113  H3  UNL A   1      10.521  59.343   7.346  1.00  0.00    +0.000 H 
ATOM    114  H4  UNL A   1      11.221  57.022   7.479  1.00  0.00    +0.000 H 
BRANCH    5    2
ATOM      2  S1  UNL A   1      11.909  61.765   6.972  1.00  0.00    +0.000 S 
ATOM      3  O1  UNL A   1      11.581  62.237   8.292  1.00  0.00    +0.000 O 
ATOM      4  O2  UNL A   1      10.995  61.853   5.853  1.00  0.00    +0.000 O 
BRANCH    2    1
ATOM      1  N1  UNL A   1      13.269  62.641   6.526  1.00  0.00    +0.000 N 
ATOM    111  H1  UNL A   1      13.886  62.052   5.967  1.00  0.00    +0.000 H 
ATOM    112  H2  UNL A   1      13.763  62.952   7.363  1.00  0.00    +0.000 H 
ENDBRANCH    2    1
ENDBRANCH    5    2
ENDBRANCH    9    8
BRANCH  102  103
ATOM    166  H56 UNL A   1      14.498  56.448   4.457  1.00  0.00    +0.000 H 
ATOM    103  C71 UNL A   1      12.798  55.348   5.069  1.00  0.00    +0.000 C 
ATOM    104  C72 UNL A   1      13.546  56.152   4.190  1.00  0.00    +0.000 C 
ATOM    105  C73 UNL A   1      13.021  56.552   2.965  1.00  0.00    +0.000 C 
ATOM    170  H60 UNL A   1      10.986  54.288   5.294  1.00  0.00    +0.000 H 
ATOM    107  C75 UNL A   1      11.014  55.295   3.437  1.00  0.00    +0.000 C 
ATOM    108  C76 UNL A   1      11.535  54.904   4.674  1.00  0.00    +0.000 C 
ATOM    167  H57 UNL A   1      13.570  57.162   2.339  1.00  0.00    +0.000 H 
ATOM    169  H59 UNL A   1      10.079  54.967   3.147  1.00  0.00    +0.000 H 
ATOM    106  C74 UNL A   1      11.751  56.125   2.590  1.00  0.00    +0.000 C 
ATOM    168  H58 UNL A   1      11.354  56.423   1.686  1.00  0.00    +0.000 H 
ENDBRANCH  102  103
ENDBRANCH   12   11
ENDBRANCH   13   12
ENDBRANCH   15   13
ENDBRANCH   16   15
ENDBRANCH   17   16
ENDBRANCH   18   17
ENDBRANCH   19   18
ENDBRANCH   20   19
ENDBRANCH   21   20
ENDBRANCH   22   21
ENDBRANCH   23   22
ENDBRANCH   24   23
ENDBRANCH   25   24
ENDBRANCH   26   25
ENDBRANCH   28   26
ENDBRANCH   29   28
ENDBRANCH   30   29
ENDBRANCH   31   30
ENDBRANCH   32   31
ENDBRANCH   33   32
ENDBRANCH   34   33
ENDBRANCH   35   34
ENDBRANCH   36   35
ENDBRANCH   38   36
ENDBRANCH   42   41
BRANCH   46   47
ATOM     47  C33 UNL A   1      16.937  47.468  -1.321  1.00  0.00    +0.000 C 
ATOM     48  C34 UNL A   1      18.099  46.675  -1.436  1.00  0.00    +0.000 C 
ATOM     49  F1  UNL A   1      18.997  46.630  -0.440  1.00  0.00    +0.000 F 
ATOM     50  C35 UNL A   1      18.422  45.999  -2.616  1.00  0.00    +0.000 C 
ATOM     51  F2  UNL A   1      19.607  45.380  -2.724  1.00  0.00    +0.000 F 
ATOM     52  C36 UNL A   1      17.569  46.033  -3.702  1.00  0.00    +0.000 C 
ATOM     53  F3  UNL A   1      17.910  45.444  -4.856  1.00  0.00    +0.000 F 
ATOM     54  C37 UNL A   1      16.387  46.734  -3.607  1.00  0.00    +0.000 C 
ATOM     55  F4  UNL A   1      15.568  46.811  -4.665  1.00  0.00    +0.000 F 
ATOM     56  C38 UNL A   1      16.087  47.454  -2.451  1.00  0.00    +0.000 C 
ATOM     57  F5  UNL A   1      15.002  48.228  -2.546  1.00  0.00    +0.000 F 
ENDBRANCH   46   47
BRANCH   63   64
ATOM     65  C45 UNL A   1      18.322  55.211  -1.570  1.00  0.00    +0.000 C 
ATOM     66  F6  UNL A   1      19.029  54.931  -2.672  1.00  0.00    +0.000 F 
ATOM     67  C46 UNL A   1      18.428  56.496  -1.035  1.00  0.00    +0.000 C 
ATOM     68  F7  UNL A   1      19.268  57.387  -1.584  1.00  0.00    +0.000 F 
ATOM     69  C47 UNL A   1      17.644  56.867   0.045  1.00  0.00    +0.000 C 
ATOM     70  F8  UNL A   1      17.714  58.112   0.535  1.00  0.00    +0.000 F 
ATOM     71  C48 UNL A   1      16.766  55.952   0.603  1.00  0.00    +0.000 C 
ATOM     72  F9  UNL A   1      15.970  56.317   1.617  1.00  0.00    +0.000 F 
ATOM     73  C49 UNL A   1      16.689  54.658   0.097  1.00  0.00    +0.000 C 
ATOM     74  F10 UNL A   1      15.817  53.802   0.654  1.00  0.00    +0.000 F 
ATOM     64  C44 UNL A   1      17.461  54.255  -1.000  1.00  0.00    +0.000 C 
ENDBRANCH   63   64
BRANCH   78   79
ATOM     79  C53 UNL A   1      12.081  53.956  -4.194  1.00  0.00    +0.000 C 
ATOM     80  C54 UNL A   1      12.105  55.200  -4.852  1.00  0.00    +0.000 C 
ATOM     81  F11 UNL A   1      12.830  56.213  -4.355  1.00  0.00    +0.000 F 
ATOM     82  C55 UNL A   1      11.449  55.402  -6.073  1.00  0.00    +0.000 C 
ATOM     83  F12 UNL A   1      11.553  56.582  -6.703  1.00  0.00    +0.000 F 
ATOM     84  C56 UNL A   1      10.748  54.368  -6.669  1.00  0.00    +0.000 C 
ATOM     85  F13 UNL A   1      10.180  54.537  -7.871  1.00  0.00    +0.000 F 
ATOM     86  C57 UNL A   1      10.676  53.143  -6.032  1.00  0.00    +0.000 C 
ATOM     87  F14 UNL A   1      10.034  52.122  -6.618  1.00  0.00    +0.000 F 
ATOM     88  C58 UNL A   1      11.331  52.940  -4.814  1.00  0.00    +0.000 C 
ATOM     89  F15 UNL A   1      11.302  51.701  -4.301  1.00  0.00    +0.000 F 
ENDBRANCH   78   79
TORSDOF 32
ENDMDL
