MODEL 1
REMARK VINA RESULT:     -11.0      0.000      0.000
ROOT
ATOM    129  H31 UNL A   1      37.449  33.773  34.883  1.00  0.00    +0.000 H 
ATOM    130  H32 UNL A   1      36.405  33.586  32.573  1.00  0.00    +0.000 H 
ATOM    131  H33 UNL A   1      39.711  31.067  32.684  1.00  0.00    +0.000 H 
ATOM    132  H34 UNL A   1      41.586  31.491  37.346  1.00  0.00    +0.000 H 
ATOM    133  H35 UNL A   1      43.375  29.791  36.656  1.00  0.00    +0.000 H 
ATOM    134  H36 UNL A   1      39.259  29.070  27.519  1.00  0.00    +0.000 H 
ATOM    135  H37 UNL A   1      37.562  30.890  28.127  1.00  0.00    +0.000 H 
ATOM     40  C27 UNL A   1      37.751  31.778  30.826  1.00  0.00    +0.000 C 
ATOM     41  C28 UNL A   1      38.622  30.775  30.129  1.00  0.00    +0.000 C 
ATOM     42  N5  UNL A   1      39.645  30.104  30.596  1.00  0.00    +0.000 N 
ATOM     43  C29 UNL A   1      40.067  29.287  29.557  1.00  0.00    +0.000 C 
ATOM     44  C30 UNL A   1      41.090  28.401  29.542  1.00  0.00    +0.000 C 
ATOM     56  C37 UNL A   1      41.987  28.157  30.640  1.00  0.00    +0.000 C 
ATOM     57  C38 UNL A   1      43.073  27.298  30.697  1.00  0.00    +0.000 C 
ATOM     58  C39 UNL A   1      43.647  27.401  31.970  1.00  0.00    +0.000 C 
ATOM     59  C40 UNL A   1      42.924  28.330  32.699  1.00  0.00    +0.000 C 
ATOM     60  N6  UNL A   1      41.909  28.784  31.873  1.00  0.00    +0.000 N 
ATOM     61  C41 UNL A   1      43.138  28.777  34.049  1.00  0.00    +0.000 C 
ATOM     73  C48 UNL A   1      42.377  29.690  34.695  1.00  0.00    +0.000 C 
ATOM     74  N7  UNL A   1      41.265  30.377  34.231  1.00  0.00    +0.000 N 
ATOM     75  C49 UNL A   1      40.873  31.136  35.222  1.00  0.00    +0.000 C 
ATOM     76  C50 UNL A   1      39.717  32.091  35.279  1.00  0.00    +0.000 C 
ATOM     88  C57 UNL A   1      38.943  32.275  34.194  1.00  0.00    +0.000 C 
ATOM     89  C58 UNL A   1      37.789  33.167  34.119  1.00  0.00    +0.000 C 
ATOM     90  C59 UNL A   1      37.240  33.073  32.897  1.00  0.00    +0.000 C 
ATOM     91  C60 UNL A   1      38.016  32.125  32.099  1.00  0.00    +0.000 C 
ATOM     92  N8  UNL A   1      39.013  31.709  32.947  1.00  0.00    +0.000 N 
ATOM     93  C61 UNL A   1      41.692  31.013  36.437  1.00  0.00    +0.000 C 
ATOM     94  C62 UNL A   1      42.604  30.127  36.057  1.00  0.00    +0.000 C 
ATOM     95  C63 UNL A   1      39.193  29.548  28.431  1.00  0.00    +0.000 C 
ATOM     96  C64 UNL A   1      38.296  30.480  28.726  1.00  0.00    +0.000 C 
ATOM    126  H28 UNL A   1      43.401  26.688  29.933  1.00  0.00    +0.000 H 
ATOM    127  H29 UNL A   1      44.468  26.873  32.308  1.00  0.00    +0.000 H 
ATOM    128  H30 UNL A   1      41.232  29.453  32.125  1.00  0.00    +0.000 H 
ENDROOT
BRANCH   40   39
ATOM     97  C65 UNL A   1      36.717  33.560  29.404  1.00  0.00    +0.000 C 
ATOM     98  C66 UNL A   1      35.619  34.114  28.739  1.00  0.00    +0.000 C 
ATOM     36  C23 UNL A   1      34.385  33.456  28.762  1.00  0.00    +0.000 C 
ATOM     37  C24 UNL A   1      34.233  32.286  29.513  1.00  0.00    +0.000 C 
ATOM     38  C25 UNL A   1      35.325  31.745  30.198  1.00  0.00    +0.000 C 
ATOM     39  C26 UNL A   1      36.579  32.370  30.136  1.00  0.00    +0.000 C 
ATOM    136  H38 UNL A   1      37.636  34.029  29.356  1.00  0.00    +0.000 H 
ATOM    137  H39 UNL A   1      35.719  35.008  28.233  1.00  0.00    +0.000 H 
ATOM    124  H26 UNL A   1      33.314  31.820  29.562  1.00  0.00    +0.000 H 
ATOM    125  H27 UNL A   1      35.207  30.883  30.753  1.00  0.00    +0.000 H 
BRANCH   36   34
ATOM     34  C22 UNL A   1      33.194  33.998  28.068  1.00  0.00    +0.000 C 
ATOM     35  O6  UNL A   1      32.714  35.063  28.450  1.00  0.00    +0.000 O 
BRANCH   34   33
ATOM     33  N4  UNL A   1      32.605  33.321  27.029  1.00  0.00    +0.000 N 
ATOM    123  H25 UNL A   1      32.929  33.573  26.134  1.00  0.00    +0.000 H 
BRANCH   33   32
ATOM    121  H23 UNL A   1      31.374  32.030  28.058  1.00  0.00    +0.000 H 
ATOM    122  H24 UNL A   1      30.719  32.689  26.549  1.00  0.00    +0.000 H 
ATOM     32  C21 UNL A   1      31.582  32.292  27.042  1.00  0.00    +0.000 C 
BRANCH   32   31
ATOM    119  H21 UNL A   1      31.318  30.893  25.476  1.00  0.00    +0.000 H 
ATOM     31  C20 UNL A   1      32.002  31.028  26.287  1.00  0.00    +0.000 C 
ATOM    120  H22 UNL A   1      33.017  31.200  25.995  1.00  0.00    +0.000 H 
BRANCH   31   30
ATOM    118  H20 UNL A   1      31.414  29.036  26.548  1.00  0.00    +0.000 H 
ATOM    117  H19 UNL A   1      31.686  29.938  28.081  1.00  0.00    +0.000 H 
ATOM     30  C19 UNL A   1      32.031  29.720  27.093  1.00  0.00    +0.000 C 
BRANCH   30   29
ATOM    115  H17 UNL A   1      34.143  29.786  27.312  1.00  0.00    +0.000 H 
ATOM    116  H18 UNL A   1      33.328  28.389  28.073  1.00  0.00    +0.000 H 
ATOM     29  C18 UNL A   1      33.392  29.029  27.217  1.00  0.00    +0.000 C 
BRANCH   29   28
ATOM    113  H15 UNL A   1      33.172  28.423  25.196  1.00  0.00    +0.000 H 
ATOM    114  H16 UNL A   1      34.816  28.265  25.877  1.00  0.00    +0.000 H 
ATOM     28  C17 UNL A   1      33.767  28.132  26.036  1.00  0.00    +0.000 C 
BRANCH   28   27
ATOM     27  C16 UNL A   1      33.553  26.629  26.275  1.00  0.00    +0.000 C 
ATOM    111  H13 UNL A   1      34.139  26.068  25.578  1.00  0.00    +0.000 H 
ATOM    112  H14 UNL A   1      33.851  26.377  27.271  1.00  0.00    +0.000 H 
BRANCH   27   26
ATOM     26  N3  UNL A   1      32.143  26.315  26.091  1.00  0.00    +0.000 N 
ATOM    110  H12 UNL A   1      31.524  26.963  26.499  1.00  0.00    +0.000 H 
BRANCH   26   24
ATOM     25  O5  UNL A   1      30.469  24.829  25.887  1.00  0.00    +0.000 O 
ATOM     24  C15 UNL A   1      31.529  25.273  25.449  1.00  0.00    +0.000 C 
BRANCH   24   23
ATOM    103  H5  UNL A   1      33.161  24.385  21.160  1.00  0.00    +0.000 H 
ATOM      8  C3  UNL A   1      32.377  24.933  23.049  1.00  0.00    +0.000 C 
ATOM      9  C4  UNL A   1      32.922  24.045  22.105  1.00  0.00    +0.000 C 
ATOM     10  C5  UNL A   1      33.140  22.704  22.436  1.00  0.00    +0.000 C 
ATOM    104  H6  UNL A   1      33.520  22.057  21.728  1.00  0.00    +0.000 H 
ATOM     11  C6  UNL A   1      32.847  22.236  23.721  1.00  0.00    +0.000 C 
ATOM    109  H11 UNL A   1      32.280  22.844  25.657  1.00  0.00    +0.000 H 
ATOM     22  C13 UNL A   1      32.421  23.161  24.685  1.00  0.00    +0.000 C 
ATOM     23  C14 UNL A   1      32.180  24.514  24.364  1.00  0.00    +0.000 C 
BRANCH    8    5
ATOM      5  S1  UNL A   1      31.794  26.492  22.462  1.00  0.00    +0.000 S 
ATOM      6  O2  UNL A   1      31.633  26.358  21.031  1.00  0.00    +0.000 O 
ATOM      7  O3  UNL A   1      32.564  27.562  23.044  1.00  0.00    +0.000 O 
BRANCH    5    4
ATOM      4  N1  UNL A   1      30.259  26.610  23.081  1.00  0.00    +0.000 N 
ATOM    102  H4  UNL A   1      29.906  25.801  23.516  1.00  0.00    +0.000 H 
BRANCH    4    2
ATOM      2  C2  UNL A   1      29.404  27.720  23.060  1.00  0.00    +0.000 C 
ATOM      3  O1  UNL A   1      29.766  28.720  22.455  1.00  0.00    +0.000 O 
BRANCH    2    1
ATOM      1  C1  UNL A   1      28.022  27.594  23.636  1.00  0.00    +0.000 C 
ATOM     99  H1  UNL A   1      27.827  26.570  23.877  1.00  0.00    +0.000 H 
ATOM    100  H2  UNL A   1      27.305  27.934  22.919  1.00  0.00    +0.000 H 
ATOM    101  H3  UNL A   1      27.950  28.189  24.523  1.00  0.00    +0.000 H 
ENDBRANCH    2    1
ENDBRANCH    4    2
ENDBRANCH    5    4
ENDBRANCH    8    5
BRANCH   11   12
ATOM    105  H7  UNL A   1      33.311  20.945  26.122  1.00  0.00    +0.000 H 
ATOM    106  H8  UNL A   1      33.118  18.654  26.617  1.00  0.00    +0.000 H 
ATOM    108  H10 UNL A   1      32.360  20.231  22.097  1.00  0.00    +0.000 H 
ATOM     12  C7  UNL A   1      32.822  20.784  24.024  1.00  0.00    +0.000 C 
ATOM     13  C8  UNL A   1      33.057  20.283  25.372  1.00  0.00    +0.000 C 
ATOM     14  C9  UNL A   1      32.950  18.981  25.653  1.00  0.00    +0.000 C 
ATOM     15  N2  UNL A   1      32.617  18.068  24.674  1.00  0.00    +0.000 N 
ATOM     19  C11 UNL A   1      32.376  18.442  23.362  1.00  0.00    +0.000 C 
ATOM     20  O4  UNL A   1      32.053  17.687  22.451  1.00  0.00    +0.000 O 
ATOM     21  C12 UNL A   1      32.510  19.898  23.062  1.00  0.00    +0.000 C 
BRANCH   15   16
ATOM     17  F1  UNL A   1      33.186  15.891  24.183  1.00  0.00    +0.000 F 
ATOM     18  F2  UNL A   1      32.823  16.421  26.280  1.00  0.00    +0.000 F 
ATOM    107  H9  UNL A   1      31.407  16.454  24.885  1.00  0.00    +0.000 H 
ATOM     16  C10 UNL A   1      32.447  16.675  25.004  1.00  0.00    +0.000 C 
ENDBRANCH   15   16
ENDBRANCH   11   12
ENDBRANCH   24   23
ENDBRANCH   26   24
ENDBRANCH   27   26
ENDBRANCH   28   27
ENDBRANCH   29   28
ENDBRANCH   30   29
ENDBRANCH   31   30
ENDBRANCH   32   31
ENDBRANCH   33   32
ENDBRANCH   34   33
ENDBRANCH   36   34
ENDBRANCH   40   39
BRANCH   44   45
ATOM     45  C31 UNL A   1      41.289  27.610  28.289  1.00  0.00    +0.000 C 
ATOM     46  C32 UNL A   1      42.141  28.062  27.273  1.00  0.00    +0.000 C 
ATOM     47  F3  UNL A   1      42.762  29.245  27.389  1.00  0.00    +0.000 F 
ATOM     48  C33 UNL A   1      42.340  27.303  26.123  1.00  0.00    +0.000 C 
ATOM     49  F4  UNL A   1      43.144  27.758  25.152  1.00  0.00    +0.000 F 
ATOM     50  C34 UNL A   1      41.703  26.079  25.977  1.00  0.00    +0.000 C 
ATOM     51  F5  UNL A   1      41.897  25.349  24.870  1.00  0.00    +0.000 F 
ATOM     52  C35 UNL A   1      40.861  25.613  26.977  1.00  0.00    +0.000 C 
ATOM     53  F6  UNL A   1      40.245  24.430  26.836  1.00  0.00    +0.000 F 
ATOM     54  C36 UNL A   1      40.651  26.373  28.123  1.00  0.00    +0.000 C 
ATOM     55  F7  UNL A   1      39.827  25.905  29.072  1.00  0.00    +0.000 F 
ENDBRANCH   44   45
BRANCH   61   62
ATOM     65  C44 UNL A   1      46.610  28.285  35.515  1.00  0.00    +0.000 C 
ATOM     66  F9  UNL A   1      47.810  28.881  35.477  1.00  0.00    +0.000 F 
ATOM     67  C45 UNL A   1      46.432  27.133  36.269  1.00  0.00    +0.000 C 
ATOM     68  F10 UNL A   1      47.459  26.622  36.964  1.00  0.00    +0.000 F 
ATOM     69  C46 UNL A   1      45.195  26.507  36.295  1.00  0.00    +0.000 C 
ATOM     70  F11 UNL A   1      45.025  25.393  37.019  1.00  0.00    +0.000 F 
ATOM     71  C47 UNL A   1      44.131  27.031  35.567  1.00  0.00    +0.000 C 
ATOM     72  F12 UNL A   1      42.947  26.404  35.600  1.00  0.00    +0.000 F 
ATOM     62  C42 UNL A   1      44.291  28.196  34.803  1.00  0.00    +0.000 C 
ATOM     63  C43 UNL A   1      45.548  28.816  34.791  1.00  0.00    +0.000 C 
ATOM     64  F8  UNL A   1      45.746  29.924  34.061  1.00  0.00    +0.000 F 
ENDBRANCH   61   62
BRANCH   76   77
ATOM     77  C51 UNL A   1      39.424  32.844  36.518  1.00  0.00    +0.000 C 
ATOM     78  C52 UNL A   1      38.507  32.352  37.455  1.00  0.00    +0.000 C 
ATOM     79  F13 UNL A   1      37.860  31.202  37.217  1.00  0.00    +0.000 F 
ATOM     80  C53 UNL A   1      38.238  33.051  38.628  1.00  0.00    +0.000 C 
ATOM     81  F14 UNL A   1      37.344  32.570  39.503  1.00  0.00    +0.000 F 
ATOM     82  C54 UNL A   1      38.887  34.250  38.887  1.00  0.00    +0.000 C 
ATOM     83  F15 UNL A   1      38.629  34.922  40.017  1.00  0.00    +0.000 F 
ATOM     84  C55 UNL A   1      39.801  34.753  37.972  1.00  0.00    +0.000 C 
ATOM     85  F16 UNL A   1      40.431  35.909  38.221  1.00  0.00    +0.000 F 
ATOM     86  C56 UNL A   1      40.064  34.059  36.795  1.00  0.00    +0.000 C 
ATOM     87  F17 UNL A   1      40.947  34.566  35.921  1.00  0.00    +0.000 F 
ENDBRANCH   76   77
TORSDOF 21
ENDMDL
MODEL 2
REMARK VINA RESULT:     -10.9     25.256     35.724
ROOT
ATOM    129  H31 UNL A   1      22.633  24.960   0.265  1.00  0.00    +0.000 H 
ATOM    130  H32 UNL A   1      23.045  22.903   1.699  1.00  0.00    +0.000 H 
ATOM    131  H33 UNL A   1      19.123  22.735   0.331  1.00  0.00    +0.000 H 
ATOM    132  H34 UNL A   1      18.516  26.820  -2.561  1.00  0.00    +0.000 H 
ATOM    133  H35 UNL A   1      16.116  26.025  -2.979  1.00  0.00    +0.000 H 
ATOM    134  H36 UNL A   1      17.746  17.906   2.710  1.00  0.00    +0.000 H 
ATOM    135  H37 UNL A   1      20.092  18.762   3.280  1.00  0.00    +0.000 H 
ATOM     40  C27 UNL A   1      20.795  21.166   1.927  1.00  0.00    +0.000 C 
ATOM     41  C28 UNL A   1      19.488  20.432   1.870  1.00  0.00    +0.000 C 
ATOM     42  N5  UNL A   1      18.402  20.731   1.203  1.00  0.00    +0.000 N 
ATOM     43  C29 UNL A   1      17.503  19.707   1.465  1.00  0.00    +0.000 C 
ATOM     44  C30 UNL A   1      16.239  19.555   1.006  1.00  0.00    +0.000 C 
ATOM     56  C37 UNL A   1      15.554  20.486   0.150  1.00  0.00    +0.000 C 
ATOM     57  C38 UNL A   1      14.258  20.424  -0.335  1.00  0.00    +0.000 C 
ATOM     58  C39 UNL A   1      14.031  21.557  -1.127  1.00  0.00    +0.000 C 
ATOM     59  C40 UNL A   1      15.182  22.326  -1.124  1.00  0.00    +0.000 C 
ATOM     60  N6  UNL A   1      16.108  21.658  -0.340  1.00  0.00    +0.000 N 
ATOM     61  C41 UNL A   1      15.427  23.580  -1.784  1.00  0.00    +0.000 C 
ATOM     73  C48 UNL A   1      16.590  24.269  -1.737  1.00  0.00    +0.000 C 
ATOM     74  N7  UNL A   1      17.763  23.945  -1.072  1.00  0.00    +0.000 N 
ATOM     75  C49 UNL A   1      18.604  24.914  -1.335  1.00  0.00    +0.000 C 
ATOM     76  C50 UNL A   1      20.022  25.082  -0.877  1.00  0.00    +0.000 C 
ATOM     88  C57 UNL A   1      20.576  24.173  -0.055  1.00  0.00    +0.000 C 
ATOM     89  C58 UNL A   1      21.944  24.216   0.457  1.00  0.00    +0.000 C 
ATOM     90  C59 UNL A   1      22.161  23.132   1.220  1.00  0.00    +0.000 C 
ATOM     91  C60 UNL A   1      20.940  22.328   1.261  1.00  0.00    +0.000 C 
ATOM     92  N8  UNL A   1      20.050  23.027   0.485  1.00  0.00    +0.000 N 
ATOM     93  C61 UNL A   1      18.058  25.966  -2.205  1.00  0.00    +0.000 C 
ATOM     94  C62 UNL A   1      16.822  25.530  -2.411  1.00  0.00    +0.000 C 
ATOM     95  C63 UNL A   1      18.169  18.778   2.356  1.00  0.00    +0.000 C 
ATOM     96  C64 UNL A   1      19.393  19.194   2.656  1.00  0.00    +0.000 C 
ATOM    126  H28 UNL A   1      13.577  19.672  -0.147  1.00  0.00    +0.000 H 
ATOM    127  H29 UNL A   1      13.156  21.780  -1.627  1.00  0.00    +0.000 H 
ATOM    128  H30 UNL A   1      17.024  21.969  -0.157  1.00  0.00    +0.000 H 
ENDROOT
BRANCH   40   39
ATOM     97  C65 UNL A   1      22.059  20.846   4.064  1.00  0.00    +0.000 C 
ATOM     98  C66 UNL A   1      23.130  20.312   4.786  1.00  0.00    +0.000 C 
ATOM     36  C23 UNL A   1      24.067  19.496   4.144  1.00  0.00    +0.000 C 
ATOM     37  C24 UNL A   1      23.973  19.281   2.764  1.00  0.00    +0.000 C 
ATOM     38  C25 UNL A   1      22.916  19.836   2.037  1.00  0.00    +0.000 C 
ATOM     39  C26 UNL A   1      21.942  20.610   2.685  1.00  0.00    +0.000 C 
ATOM    136  H38 UNL A   1      21.349  21.419   4.547  1.00  0.00    +0.000 H 
ATOM    137  H39 UNL A   1      23.229  20.519   5.792  1.00  0.00    +0.000 H 
ATOM    124  H26 UNL A   1      24.685  18.710   2.282  1.00  0.00    +0.000 H 
ATOM    125  H27 UNL A   1      22.853  19.675   1.020  1.00  0.00    +0.000 H 
BRANCH   36   34
ATOM     34  C22 UNL A   1      25.215  18.900   4.865  1.00  0.00    +0.000 C 
ATOM     35  O6  UNL A   1      26.342  19.348   4.668  1.00  0.00    +0.000 O 
BRANCH   34   33
ATOM     33  N4  UNL A   1      25.045  17.844   5.726  1.00  0.00    +0.000 N 
ATOM    123  H25 UNL A   1      25.597  17.880   6.540  1.00  0.00    +0.000 H 
BRANCH   33   32
ATOM    121  H23 UNL A   1      23.172  16.992   5.821  1.00  0.00    +0.000 H 
ATOM    122  H24 UNL A   1      24.287  16.284   4.641  1.00  0.00    +0.000 H 
ATOM     32  C21 UNL A   1      24.178  16.685   5.626  1.00  0.00    +0.000 C 
BRANCH   32   31
ATOM    119  H21 UNL A   1      24.569  14.655   6.079  1.00  0.00    +0.000 H 
ATOM     31  C20 UNL A   1      24.550  15.578   6.617  1.00  0.00    +0.000 C 
ATOM    120  H22 UNL A   1      25.492  15.876   7.029  1.00  0.00    +0.000 H 
BRANCH   31   30
ATOM    118  H20 UNL A   1      22.822  14.773   7.480  1.00  0.00    +0.000 H 
ATOM    117  H19 UNL A   1      23.318  16.364   8.157  1.00  0.00    +0.000 H 
ATOM     30  C19 UNL A   1      23.621  15.393   7.827  1.00  0.00    +0.000 C 
BRANCH   30   29
ATOM    115  H17 UNL A   1      23.973  13.617   8.937  1.00  0.00    +0.000 H 
ATOM    116  H18 UNL A   1      25.266  14.849   9.016  1.00  0.00    +0.000 H 
ATOM     29  C18 UNL A   1      24.213  14.656   9.032  1.00  0.00    +0.000 C 
BRANCH   29   28
ATOM    113  H15 UNL A   1      23.293  14.299  10.911  1.00  0.00    +0.000 H 
ATOM    114  H16 UNL A   1      24.549  15.571  10.891  1.00  0.00    +0.000 H 
ATOM     28  C17 UNL A   1      23.707  15.139  10.392  1.00  0.00    +0.000 C 
BRANCH   28   27
ATOM     27  C16 UNL A   1      22.632  16.235  10.326  1.00  0.00    +0.000 C 
ATOM    111  H13 UNL A   1      22.228  16.282   9.336  1.00  0.00    +0.000 H 
ATOM    112  H14 UNL A   1      21.847  16.011  11.017  1.00  0.00    +0.000 H 
BRANCH   27   26
ATOM     26  N3  UNL A   1      23.237  17.515  10.668  1.00  0.00    +0.000 N 
ATOM    110  H12 UNL A   1      23.086  17.801  11.597  1.00  0.00    +0.000 H 
BRANCH   26   24
ATOM     25  O5  UNL A   1      23.463  18.950   8.953  1.00  0.00    +0.000 O 
ATOM     24  C15 UNL A   1      23.978  18.389   9.919  1.00  0.00    +0.000 C 
BRANCH   24   23
ATOM    103  H5  UNL A   1      27.979  20.044  11.679  1.00  0.00    +0.000 H 
ATOM      8  C3  UNL A   1      26.089  19.389  10.987  1.00  0.00    +0.000 C 
ATOM      9  C4  UNL A   1      27.490  19.499  10.952  1.00  0.00    +0.000 C 
ATOM     10  C5  UNL A   1      28.224  18.877   9.938  1.00  0.00    +0.000 C 
ATOM    104  H6  UNL A   1      29.250  18.983   9.909  1.00  0.00    +0.000 H 
ATOM     11  C6  UNL A   1      27.576  18.112   8.961  1.00  0.00    +0.000 C 
ATOM    109  H11 UNL A   1      25.718  17.284   8.416  1.00  0.00    +0.000 H 
ATOM     22  C13 UNL A   1      26.194  17.912   9.083  1.00  0.00    +0.000 C 
ATOM     23  C14 UNL A   1      25.435  18.545  10.090  1.00  0.00    +0.000 C 
BRANCH    8    5
ATOM      5  S1  UNL A   1      25.210  20.482  12.058  1.00  0.00    +0.000 S 
ATOM      6  O2  UNL A   1      24.128  21.040  11.278  1.00  0.00    +0.000 O 
ATOM      7  O3  UNL A   1      26.135  21.317  12.783  1.00  0.00    +0.000 O 
BRANCH    5    4
ATOM      4  N1  UNL A   1      24.496  19.477  13.168  1.00  0.00    +0.000 N 
ATOM    102  H4  UNL A   1      23.595  19.736  13.467  1.00  0.00    +0.000 H 
BRANCH    4    2
ATOM      2  C2  UNL A   1      25.018  18.305  13.732  1.00  0.00    +0.000 C 
ATOM      3  O1  UNL A   1      26.155  18.335  14.186  1.00  0.00    +0.000 O 
BRANCH    2    1
ATOM      1  C1  UNL A   1      24.123  17.110  13.904  1.00  0.00    +0.000 C 
ATOM     99  H1  UNL A   1      24.711  16.216  13.873  1.00  0.00    +0.000 H 
ATOM    100  H2  UNL A   1      23.400  17.089  13.117  1.00  0.00    +0.000 H 
ATOM    101  H3  UNL A   1      23.622  17.173  14.848  1.00  0.00    +0.000 H 
ENDBRANCH    2    1
ENDBRANCH    4    2
ENDBRANCH    5    4
ENDBRANCH    8    5
BRANCH   11   12
ATOM    105  H7  UNL A   1      28.812  19.622   7.003  1.00  0.00    +0.000 H 
ATOM    106  H8  UNL A   1      30.066  18.885   5.154  1.00  0.00    +0.000 H 
ATOM    108  H10 UNL A   1      27.970  15.661   8.105  1.00  0.00    +0.000 H 
ATOM     12  C7  UNL A   1      28.288  17.661   7.740  1.00  0.00    +0.000 C 
ATOM     13  C8  UNL A   1      28.917  18.610   6.832  1.00  0.00    +0.000 C 
ATOM     14  C9  UNL A   1      29.628  18.192   5.780  1.00  0.00    +0.000 C 
ATOM     15  N2  UNL A   1      29.785  16.846   5.519  1.00  0.00    +0.000 N 
ATOM     19  C11 UNL A   1      29.225  15.864   6.320  1.00  0.00    +0.000 C 
ATOM     20  O4  UNL A   1      29.346  14.654   6.159  1.00  0.00    +0.000 O 
ATOM     21  C12 UNL A   1      28.426  16.348   7.484  1.00  0.00    +0.000 C 
BRANCH   15   16
ATOM     17  F1  UNL A   1      29.950  16.565   3.239  1.00  0.00    +0.000 F 
ATOM     18  F2  UNL A   1      31.761  17.108   4.351  1.00  0.00    +0.000 F 
ATOM    107  H9  UNL A   1      30.818  15.373   4.582  1.00  0.00    +0.000 H 
ATOM     16  C10 UNL A   1      30.603  16.408   4.416  1.00  0.00    +0.000 C 
ENDBRANCH   15   16
ENDBRANCH   11   12
ENDBRANCH   24   23
ENDBRANCH   26   24
ENDBRANCH   27   26
ENDBRANCH   28   27
ENDBRANCH   29   28
ENDBRANCH   30   29
ENDBRANCH   31   30
ENDBRANCH   32   31
ENDBRANCH   33   32
ENDBRANCH   34   33
ENDBRANCH   36   34
ENDBRANCH   40   39
BRANCH   44   45
ATOM     45  C31 UNL A   1      15.510  18.316   1.415  1.00  0.00    +0.000 C 
ATOM     46  C32 UNL A   1      14.788  18.261   2.614  1.00  0.00    +0.000 C 
ATOM     47  F3  UNL A   1      14.777  19.313   3.445  1.00  0.00    +0.000 F 
ATOM     48  C33 UNL A   1      14.089  17.110   2.971  1.00  0.00    +0.000 C 
ATOM     49  F4  UNL A   1      13.418  17.068   4.130  1.00  0.00    +0.000 F 
ATOM     50  C34 UNL A   1      14.091  16.006   2.131  1.00  0.00    +0.000 C 
ATOM     51  F5  UNL A   1      13.417  14.900   2.475  1.00  0.00    +0.000 F 
ATOM     52  C35 UNL A   1      14.796  16.045   0.937  1.00  0.00    +0.000 C 
ATOM     53  F6  UNL A   1      14.798  14.978   0.125  1.00  0.00    +0.000 F 
ATOM     54  C36 UNL A   1      15.504  17.189   0.581  1.00  0.00    +0.000 C 
ATOM     55  F7  UNL A   1      16.183  17.200  -0.575  1.00  0.00    +0.000 F 
ENDBRANCH   44   45
BRANCH   61   62
ATOM     65  C44 UNL A   1      13.037  24.327  -4.643  1.00  0.00    +0.000 C 
ATOM     66  F9  UNL A   1      12.848  23.957  -5.917  1.00  0.00    +0.000 F 
ATOM     67  C45 UNL A   1      12.187  25.257  -4.059  1.00  0.00    +0.000 C 
ATOM     68  F10 UNL A   1      11.175  25.777  -4.767  1.00  0.00    +0.000 F 
ATOM     69  C46 UNL A   1      12.392  25.653  -2.745  1.00  0.00    +0.000 C 
ATOM     70  F11 UNL A   1      11.575  26.553  -2.183  1.00  0.00    +0.000 F 
ATOM     71  C47 UNL A   1      13.448  25.120  -2.012  1.00  0.00    +0.000 C 
ATOM     72  F12 UNL A   1      13.632  25.524  -0.747  1.00  0.00    +0.000 F 
ATOM     62  C42 UNL A   1      14.314  24.177  -2.585  1.00  0.00    +0.000 C 
ATOM     63  C43 UNL A   1      14.089  23.788  -3.912  1.00  0.00    +0.000 C 
ATOM     64  F8  UNL A   1      14.904  22.899  -4.501  1.00  0.00    +0.000 F 
ENDBRANCH   61   62
BRANCH   76   77
ATOM     77  C51 UNL A   1      20.820  26.250  -1.313  1.00  0.00    +0.000 C 
ATOM     78  C52 UNL A   1      21.641  26.174  -2.444  1.00  0.00    +0.000 C 
ATOM     79  F13 UNL A   1      21.735  25.023  -3.125  1.00  0.00    +0.000 F 
ATOM     80  C53 UNL A   1      22.383  27.274  -2.864  1.00  0.00    +0.000 C 
ATOM     81  F14 UNL A   1      23.176  27.174  -3.940  1.00  0.00    +0.000 F 
ATOM     82  C54 UNL A   1      22.309  28.470  -2.166  1.00  0.00    +0.000 C 
ATOM     83  F15 UNL A   1      23.022  29.530  -2.571  1.00  0.00    +0.000 F 
ATOM     84  C55 UNL A   1      21.499  28.567  -1.043  1.00  0.00    +0.000 C 
ATOM     85  F16 UNL A   1      21.425  29.721  -0.368  1.00  0.00    +0.000 F 
ATOM     86  C56 UNL A   1      20.764  27.465  -0.616  1.00  0.00    +0.000 C 
ATOM     87  F17 UNL A   1      19.992  27.577   0.475  1.00  0.00    +0.000 F 
ENDBRANCH   76   77
TORSDOF 21
ENDMDL
MODEL 3
REMARK VINA RESULT:     -10.8     37.455     42.828
ROOT
ATOM    129  H31 UNL A   1      11.921  50.162   6.470  1.00  0.00    +0.000 H 
ATOM    130  H32 UNL A   1      12.277  52.635   6.937  1.00  0.00    +0.000 H 
ATOM    131  H33 UNL A   1      14.568  51.623   3.618  1.00  0.00    +0.000 H 
ATOM    132  H34 UNL A   1      13.666  46.734   2.783  1.00  0.00    +0.000 H 
ATOM    133  H35 UNL A   1      15.260  46.900   0.784  1.00  0.00    +0.000 H 
ATOM    134  H36 UNL A   1      16.681  56.670   2.647  1.00  0.00    +0.000 H 
ATOM    135  H37 UNL A   1      15.226  56.493   4.748  1.00  0.00    +0.000 H 
ATOM     40  C27 UNL A   1      14.059  53.922   5.121  1.00  0.00    +0.000 C 
ATOM     41  C28 UNL A   1      15.004  54.351   4.037  1.00  0.00    +0.000 C 
ATOM     42  N5  UNL A   1      15.495  53.650   3.046  1.00  0.00    +0.000 N 
ATOM     43  C29 UNL A   1      16.281  54.529   2.315  1.00  0.00    +0.000 C 
ATOM     44  C30 UNL A   1      17.000  54.286   1.194  1.00  0.00    +0.000 C 
ATOM     56  C37 UNL A   1      17.113  53.007   0.546  1.00  0.00    +0.000 C 
ATOM     57  C38 UNL A   1      17.849  52.667  -0.577  1.00  0.00    +0.000 C 
ATOM     58  C39 UNL A   1      17.652  51.305  -0.835  1.00  0.00    +0.000 C 
ATOM     59  C40 UNL A   1      16.802  50.798   0.134  1.00  0.00    +0.000 C 
ATOM     60  N6  UNL A   1      16.477  51.851   0.972  1.00  0.00    +0.000 N 
ATOM     61  C41 UNL A   1      16.318  49.453   0.290  1.00  0.00    +0.000 C 
ATOM     73  C48 UNL A   1      15.478  49.038   1.266  1.00  0.00    +0.000 C 
ATOM     74  N7  UNL A   1      14.914  49.775   2.296  1.00  0.00    +0.000 N 
ATOM     75  C49 UNL A   1      14.169  48.937   2.971  1.00  0.00    +0.000 C 
ATOM     76  C50 UNL A   1      13.327  49.191   4.187  1.00  0.00    +0.000 C 
ATOM     88  C57 UNL A   1      13.301  50.415   4.743  1.00  0.00    +0.000 C 
ATOM     89  C58 UNL A   1      12.522  50.795   5.919  1.00  0.00    +0.000 C 
ATOM     90  C59 UNL A   1      12.714  52.101   6.170  1.00  0.00    +0.000 C 
ATOM     91  C60 UNL A   1      13.643  52.643   5.180  1.00  0.00    +0.000 C 
ATOM     92  N8  UNL A   1      13.947  51.570   4.379  1.00  0.00    +0.000 N 
ATOM     93  C61 UNL A   1      14.172  47.565   2.441  1.00  0.00    +0.000 C 
ATOM     94  C62 UNL A   1      14.996  47.679   1.407  1.00  0.00    +0.000 C 
ATOM     95  C63 UNL A   1      16.205  55.816   2.978  1.00  0.00    +0.000 C 
ATOM     96  C64 UNL A   1      15.446  55.752   4.064  1.00  0.00    +0.000 C 
ATOM    126  H28 UNL A   1      18.441  53.308  -1.128  1.00  0.00    +0.000 H 
ATOM    127  H29 UNL A   1      18.068  50.770  -1.614  1.00  0.00    +0.000 H 
ATOM    128  H30 UNL A   1      15.883  51.790   1.754  1.00  0.00    +0.000 H 
ENDROOT
BRANCH   40   39
ATOM     97  C65 UNL A   1      12.404  55.661   5.833  1.00  0.00    +0.000 C 
ATOM     98  C66 UNL A   1      11.914  56.575   6.770  1.00  0.00    +0.000 C 
ATOM     36  C23 UNL A   1      12.540  56.703   8.014  1.00  0.00    +0.000 C 
ATOM     37  C24 UNL A   1      13.701  55.972   8.287  1.00  0.00    +0.000 C 
ATOM     38  C25 UNL A   1      14.206  55.077   7.341  1.00  0.00    +0.000 C 
ATOM     39  C26 UNL A   1      13.552  54.902   6.112  1.00  0.00    +0.000 C 
ATOM    136  H38 UNL A   1      11.920  55.542   4.929  1.00  0.00    +0.000 H 
ATOM    137  H39 UNL A   1      11.091  57.155   6.543  1.00  0.00    +0.000 H 
ATOM    124  H26 UNL A   1      14.186  56.094   9.190  1.00  0.00    +0.000 H 
ATOM    125  H27 UNL A   1      15.064  54.541   7.547  1.00  0.00    +0.000 H 
BRANCH   36   34
ATOM     34  C22 UNL A   1      12.056  57.652   9.043  1.00  0.00    +0.000 C 
ATOM     35  O6  UNL A   1      12.359  58.839   8.950  1.00  0.00    +0.000 O 
BRANCH   34   33
ATOM     33  N4  UNL A   1      11.300  57.225  10.106  1.00  0.00    +0.000 N 
ATOM    123  H25 UNL A   1      11.522  57.647  10.968  1.00  0.00    +0.000 H 
BRANCH   33   32
ATOM    121  H23 UNL A   1       9.380  56.701  10.636  1.00  0.00    +0.000 H 
ATOM    122  H24 UNL A   1      10.007  55.956   9.156  1.00  0.00    +0.000 H 
ATOM     32  C21 UNL A   1      10.226  56.251  10.160  1.00  0.00    +0.000 C 
BRANCH   32   31
ATOM    119  H21 UNL A   1      11.621  54.751  10.691  1.00  0.00    +0.000 H 
ATOM     31  C20 UNL A   1      10.608  54.989  10.938  1.00  0.00    +0.000 C 
ATOM    120  H22 UNL A   1      10.443  55.233  11.967  1.00  0.00    +0.000 H 
BRANCH   31   30
ATOM    118  H20 UNL A   1       9.710  53.637   9.616  1.00  0.00    +0.000 H 
ATOM    117  H19 UNL A   1       8.812  53.879  11.157  1.00  0.00    +0.000 H 
ATOM     30  C19 UNL A   1       9.759  53.734  10.681  1.00  0.00    +0.000 C 
BRANCH   30   29
ATOM    115  H17 UNL A   1      10.625  51.827  10.333  1.00  0.00    +0.000 H 
ATOM    116  H18 UNL A   1      11.156  52.659  11.823  1.00  0.00    +0.000 H 
ATOM     29  C18 UNL A   1      10.335  52.408  11.184  1.00  0.00    +0.000 C 
BRANCH   29   28
ATOM    113  H15 UNL A   1       8.903  52.217  12.738  1.00  0.00    +0.000 H 
ATOM    114  H16 UNL A   1       8.684  51.121  11.344  1.00  0.00    +0.000 H 
ATOM     28  C17 UNL A   1       9.374  51.569  12.028  1.00  0.00    +0.000 C 
BRANCH   28   27
ATOM     27  C16 UNL A   1      10.033  50.415  12.798  1.00  0.00    +0.000 C 
ATOM    111  H13 UNL A   1       9.368  49.577  12.826  1.00  0.00    +0.000 H 
ATOM    112  H14 UNL A   1      10.941  50.128  12.311  1.00  0.00    +0.000 H 
BRANCH   27   26
ATOM     26  N3  UNL A   1      10.322  50.854  14.156  1.00  0.00    +0.000 N 
ATOM    110  H12 UNL A   1       9.542  50.864  14.756  1.00  0.00    +0.000 H 
BRANCH   26   24
ATOM     25  O5  UNL A   1      11.764  50.875  15.880  1.00  0.00    +0.000 O 
ATOM     24  C15 UNL A   1      11.492  51.255  14.742  1.00  0.00    +0.000 C 
BRANCH   24   23
ATOM    103  H5  UNL A   1      12.996  55.552  13.681  1.00  0.00    +0.000 H 
ATOM      8  C3  UNL A   1      12.195  53.675  14.244  1.00  0.00    +0.000 C 
ATOM      9  C4  UNL A   1      13.055  54.531  13.536  1.00  0.00    +0.000 C 
ATOM     10  C5  UNL A   1      13.988  54.011  12.633  1.00  0.00    +0.000 C 
ATOM    104  H6  UNL A   1      14.599  54.651  12.102  1.00  0.00    +0.000 H 
ATOM     11  C6  UNL A   1      14.098  52.629  12.447  1.00  0.00    +0.000 C 
ATOM    109  H11 UNL A   1      13.450  50.764  13.181  1.00  0.00    +0.000 H 
ATOM     22  C13 UNL A   1      13.319  51.785  13.252  1.00  0.00    +0.000 C 
ATOM     23  C14 UNL A   1      12.361  52.293  14.154  1.00  0.00    +0.000 C 
BRANCH    8    5
ATOM      5  S1  UNL A   1      10.818  54.403  15.073  1.00  0.00    +0.000 S 
ATOM      6  O2  UNL A   1      10.908  53.992  16.458  1.00  0.00    +0.000 O 
ATOM      7  O3  UNL A   1       9.616  54.214  14.300  1.00  0.00    +0.000 O 
BRANCH    5    4
ATOM      4  N1  UNL A   1      11.149  56.028  15.061  1.00  0.00    +0.000 N 
ATOM    102  H4  UNL A   1      11.738  56.343  14.337  1.00  0.00    +0.000 H 
BRANCH    4    2
ATOM      2  C2  UNL A   1      10.694  57.009  15.952  1.00  0.00    +0.000 C 
ATOM      3  O1  UNL A   1      11.465  57.413  16.813  1.00  0.00    +0.000 O 
BRANCH    2    1
ATOM      1  C1  UNL A   1       9.348  57.639  15.729  1.00  0.00    +0.000 C 
ATOM     99  H1  UNL A   1       9.474  58.675  15.493  1.00  0.00    +0.000 H 
ATOM    100  H2  UNL A   1       8.759  57.544  16.616  1.00  0.00    +0.000 H 
ATOM    101  H3  UNL A   1       8.854  57.146  14.918  1.00  0.00    +0.000 H 
ENDBRANCH    2    1
ENDBRANCH    4    2
ENDBRANCH    5    4
ENDBRANCH    8    5
BRANCH   11   12
ATOM    105  H7  UNL A   1      13.735  52.953   9.725  1.00  0.00    +0.000 H 
ATOM    106  H8  UNL A   1      15.084  52.175   7.962  1.00  0.00    +0.000 H 
ATOM    108  H10 UNL A   1      16.193  51.048  12.544  1.00  0.00    +0.000 H 
ATOM     12  C7  UNL A   1      14.885  52.064  11.323  1.00  0.00    +0.000 C 
ATOM     13  C8  UNL A   1      14.566  52.378   9.937  1.00  0.00    +0.000 C 
ATOM     14  C9  UNL A   1      15.330  51.935   8.934  1.00  0.00    +0.000 C 
ATOM     15  N2  UNL A   1      16.446  51.160   9.181  1.00  0.00    +0.000 N 
ATOM     19  C11 UNL A   1      16.833  50.804  10.462  1.00  0.00    +0.000 C 
ATOM     20  O4  UNL A   1      17.823  50.141  10.752  1.00  0.00    +0.000 O 
ATOM     21  C12 UNL A   1      15.963  51.299  11.570  1.00  0.00    +0.000 C 
BRANCH   15   16
ATOM     17  F1  UNL A   1      18.569  51.155   8.288  1.00  0.00    +0.000 F 
ATOM     18  F2  UNL A   1      17.306  49.389   7.974  1.00  0.00    +0.000 F 
ATOM    107  H9  UNL A   1      16.895  51.175   7.203  1.00  0.00    +0.000 H 
ATOM     16  C10 UNL A   1      17.294  50.738   8.095  1.00  0.00    +0.000 C 
ENDBRANCH   15   16
ENDBRANCH   11   12
ENDBRANCH   24   23
ENDBRANCH   26   24
ENDBRANCH   27   26
ENDBRANCH   28   27
ENDBRANCH   29   28
ENDBRANCH   30   29
ENDBRANCH   31   30
ENDBRANCH   32   31
ENDBRANCH   33   32
ENDBRANCH   34   33
ENDBRANCH   36   34
ENDBRANCH   40   39
BRANCH   44   45
ATOM     45  C31 UNL A   1      17.722  55.444   0.583  1.00  0.00    +0.000 C 
ATOM     46  C32 UNL A   1      18.988  55.833   1.038  1.00  0.00    +0.000 C 
ATOM     47  F3  UNL A   1      19.560  55.196   2.070  1.00  0.00    +0.000 F 
ATOM     48  C33 UNL A   1      19.662  56.896   0.442  1.00  0.00    +0.000 C 
ATOM     49  F4  UNL A   1      20.865  57.266   0.901  1.00  0.00    +0.000 F 
ATOM     50  C34 UNL A   1      19.088  57.575  -0.623  1.00  0.00    +0.000 C 
ATOM     51  F5  UNL A   1      19.738  58.597  -1.197  1.00  0.00    +0.000 F 
ATOM     52  C35 UNL A   1      17.836  57.200  -1.090  1.00  0.00    +0.000 C 
ATOM     53  F6  UNL A   1      17.281  57.857  -2.119  1.00  0.00    +0.000 F 
ATOM     54  C36 UNL A   1      17.155  56.145  -0.491  1.00  0.00    +0.000 C 
ATOM     55  F7  UNL A   1      15.944  55.805  -0.956  1.00  0.00    +0.000 F 
ENDBRANCH   44   45
BRANCH   61   62
ATOM     65  C44 UNL A   1      16.429  47.149  -2.731  1.00  0.00    +0.000 C 
ATOM     66  F9  UNL A   1      15.653  46.822  -3.774  1.00  0.00    +0.000 F 
ATOM     67  C45 UNL A   1      17.669  46.545  -2.574  1.00  0.00    +0.000 C 
ATOM     68  F10 UNL A   1      18.092  45.641  -3.468  1.00  0.00    +0.000 F 
ATOM     69  C46 UNL A   1      18.465  46.871  -1.486  1.00  0.00    +0.000 C 
ATOM     70  F11 UNL A   1      19.659  46.285  -1.332  1.00  0.00    +0.000 F 
ATOM     71  C47 UNL A   1      18.023  47.803  -0.551  1.00  0.00    +0.000 C 
ATOM     72  F12 UNL A   1      18.806  48.096   0.497  1.00  0.00    +0.000 F 
ATOM     62  C42 UNL A   1      16.776  48.426  -0.696  1.00  0.00    +0.000 C 
ATOM     63  C43 UNL A   1      15.986  48.086  -1.803  1.00  0.00    +0.000 C 
ATOM     64  F8  UNL A   1      14.780  48.649  -1.970  1.00  0.00    +0.000 F 
ENDBRANCH   61   62
BRANCH   76   77
ATOM     77  C51 UNL A   1      12.530  48.101   4.791  1.00  0.00    +0.000 C 
ATOM     78  C52 UNL A   1      11.264  47.776   4.288  1.00  0.00    +0.000 C 
ATOM     79  F13 UNL A   1      10.750  48.480   3.269  1.00  0.00    +0.000 F 
ATOM     80  C53 UNL A   1      10.517  46.743   4.845  1.00  0.00    +0.000 C 
ATOM     81  F14 UNL A   1       9.300  46.461   4.359  1.00  0.00    +0.000 F 
ATOM     82  C54 UNL A   1      11.026  46.012   5.909  1.00  0.00    +0.000 C 
ATOM     83  F15 UNL A   1      10.306  45.016   6.444  1.00  0.00    +0.000 F 
ATOM     84  C55 UNL A   1      12.279  46.316   6.420  1.00  0.00    +0.000 C 
ATOM     85  F16 UNL A   1      12.774  45.610   7.446  1.00  0.00    +0.000 F 
ATOM     86  C56 UNL A   1      13.024  47.355   5.869  1.00  0.00    +0.000 C 
ATOM     87  F17 UNL A   1      14.231  47.637   6.382  1.00  0.00    +0.000 F 
ENDBRANCH   76   77
TORSDOF 21
ENDMDL
MODEL 4
REMARK VINA RESULT:     -10.7     40.221     44.133
ROOT
ATOM    129  H31 UNL A   1      14.947  55.892   5.886  1.00  0.00    +0.000 H 
ATOM    130  H32 UNL A   1      16.554  56.198   3.940  1.00  0.00    +0.000 H 
ATOM    131  H33 UNL A   1      15.139  52.290   3.820  1.00  0.00    +0.000 H 
ATOM    132  H34 UNL A   1      11.909  51.895   7.671  1.00  0.00    +0.000 H 
ATOM    133  H35 UNL A   1      11.518  49.470   6.944  1.00  0.00    +0.000 H 
ATOM    134  H36 UNL A   1      17.887  50.679  -0.732  1.00  0.00    +0.000 H 
ATOM    135  H37 UNL A   1      18.424  53.052   0.071  1.00  0.00    +0.000 H 
ATOM     40  C27 UNL A   1      16.887  53.874   2.323  1.00  0.00    +0.000 C 
ATOM     41  C28 UNL A   1      16.870  52.538   1.641  1.00  0.00    +0.000 C 
ATOM     42  N5  UNL A   1      16.162  51.474   1.928  1.00  0.00    +0.000 N 
ATOM     43  C29 UNL A   1      16.494  50.529   0.968  1.00  0.00    +0.000 C 
ATOM     44  C30 UNL A   1      16.028  49.266   0.829  1.00  0.00    +0.000 C 
ATOM     56  C37 UNL A   1      15.086  48.632   1.713  1.00  0.00    +0.000 C 
ATOM     57  C38 UNL A   1      14.586  47.341   1.664  1.00  0.00    +0.000 C 
ATOM     58  C39 UNL A   1      13.700  47.173   2.735  1.00  0.00    +0.000 C 
ATOM     59  C40 UNL A   1      13.658  48.355   3.454  1.00  0.00    +0.000 C 
ATOM     60  N6  UNL A   1      14.510  49.242   2.817  1.00  0.00    +0.000 N 
ATOM     61  C41 UNL A   1      12.900  48.662   4.637  1.00  0.00    +0.000 C 
ATOM     73  C48 UNL A   1      12.910  49.853   5.280  1.00  0.00    +0.000 C 
ATOM     74  N7  UNL A   1      13.618  51.002   4.964  1.00  0.00    +0.000 N 
ATOM     75  C49 UNL A   1      13.290  51.886   5.872  1.00  0.00    +0.000 C 
ATOM     76  C50 UNL A   1      13.756  53.304   6.020  1.00  0.00    +0.000 C 
ATOM     88  C57 UNL A   1      14.659  53.809   5.160  1.00  0.00    +0.000 C 
ATOM     89  C58 UNL A   1      15.189  55.170   5.189  1.00  0.00    +0.000 C 
ATOM     90  C59 UNL A   1      16.043  55.330   4.164  1.00  0.00    +0.000 C 
ATOM     91  C60 UNL A   1      16.130  54.076   3.418  1.00  0.00    +0.000 C 
ATOM     92  N8  UNL A   1      15.284  53.227   4.086  1.00  0.00    +0.000 N 
ATOM     93  C61 UNL A   1      12.327  51.397   6.870  1.00  0.00    +0.000 C 
ATOM     94  C62 UNL A   1      12.137  50.147   6.469  1.00  0.00    +0.000 C 
ATOM     95  C63 UNL A   1      17.469  51.143   0.089  1.00  0.00    +0.000 C 
ATOM     96  C64 UNL A   1      17.755  52.379   0.478  1.00  0.00    +0.000 C 
ATOM    126  H28 UNL A   1      14.825  46.627   0.959  1.00  0.00    +0.000 H 
ATOM    127  H29 UNL A   1      13.168  46.315   2.952  1.00  0.00    +0.000 H 
ATOM    128  H30 UNL A   1      14.681  50.168   3.103  1.00  0.00    +0.000 H 
ENDROOT
BRANCH   40   39
ATOM     97  C65 UNL A   1      17.210  55.795   0.751  1.00  0.00    +0.000 C 
ATOM     98  C66 UNL A   1      17.974  56.854   0.250  1.00  0.00    +0.000 C 
ATOM     36  C23 UNL A   1      19.222  57.141   0.813  1.00  0.00    +0.000 C 
ATOM     37  C24 UNL A   1      19.736  56.321   1.823  1.00  0.00    +0.000 C 
ATOM     38  C25 UNL A   1      18.984  55.247   2.307  1.00  0.00    +0.000 C 
ATOM     39  C26 UNL A   1      17.708  54.986   1.785  1.00  0.00    +0.000 C 
ATOM    136  H38 UNL A   1      16.275  55.606   0.358  1.00  0.00    +0.000 H 
ATOM    137  H39 UNL A   1      17.617  57.422  -0.534  1.00  0.00    +0.000 H 
ATOM    124  H26 UNL A   1      20.673  56.509   2.212  1.00  0.00    +0.000 H 
ATOM    125  H27 UNL A   1      19.369  54.644   3.050  1.00  0.00    +0.000 H 
BRANCH   36   34
ATOM     34  C22 UNL A   1      20.066  58.256   0.323  1.00  0.00    +0.000 C 
ATOM     35  O6  UNL A   1      19.728  59.412   0.566  1.00  0.00    +0.000 O 
BRANCH   34   33
ATOM     33  N4  UNL A   1      21.198  58.020  -0.416  1.00  0.00    +0.000 N 
ATOM    123  H25 UNL A   1      22.026  58.391  -0.035  1.00  0.00    +0.000 H 
BRANCH   33   32
ATOM    121  H23 UNL A   1      22.343  57.522  -2.054  1.00  0.00    +0.000 H 
ATOM    122  H24 UNL A   1      21.239  56.266  -1.469  1.00  0.00    +0.000 H 
ATOM     32  C21 UNL A   1      21.367  57.308  -1.670  1.00  0.00    +0.000 C 
BRANCH   32   31
ATOM    119  H21 UNL A   1      19.816  58.571  -2.360  1.00  0.00    +0.000 H 
ATOM     31  C20 UNL A   1      20.330  57.706  -2.723  1.00  0.00    +0.000 C 
ATOM    120  H22 UNL A   1      20.888  57.861  -3.622  1.00  0.00    +0.000 H 
BRANCH   31   30
ATOM    118  H20 UNL A   1      18.551  57.166  -3.685  1.00  0.00    +0.000 H 
ATOM    117  H19 UNL A   1      18.881  56.257  -2.167  1.00  0.00    +0.000 H 
ATOM     30  C19 UNL A   1      19.270  56.652  -3.082  1.00  0.00    +0.000 C 
BRANCH   30   29
ATOM    115  H17 UNL A   1      19.680  55.757  -4.963  1.00  0.00    +0.000 H 
ATOM    116  H18 UNL A   1      20.747  55.258  -3.619  1.00  0.00    +0.000 H 
ATOM     29  C18 UNL A   1      19.747  55.472  -3.934  1.00  0.00    +0.000 C 
BRANCH   29   28
ATOM    113  H15 UNL A   1      18.914  53.962  -2.697  1.00  0.00    +0.000 H 
ATOM    114  H16 UNL A   1      17.984  54.357  -4.171  1.00  0.00    +0.000 H 
ATOM     28  C17 UNL A   1      18.949  54.181  -3.744  1.00  0.00    +0.000 C 
BRANCH   28   27
ATOM     27  C16 UNL A   1      19.527  52.955  -4.469  1.00  0.00    +0.000 C 
ATOM    111  H13 UNL A   1      20.001  53.266  -5.376  1.00  0.00    +0.000 H 
ATOM    112  H14 UNL A   1      20.247  52.472  -3.842  1.00  0.00    +0.000 H 
BRANCH   27   26
ATOM     26  N3  UNL A   1      18.445  52.031  -4.776  1.00  0.00    +0.000 N 
ATOM    110  H12 UNL A   1      18.047  52.152  -5.668  1.00  0.00    +0.000 H 
BRANCH   26   24
ATOM     25  O5  UNL A   1      18.578  50.073  -3.681  1.00  0.00    +0.000 O 
ATOM     24  C15 UNL A   1      17.884  51.024  -4.038  1.00  0.00    +0.000 C 
BRANCH   24   23
ATOM    103  H5  UNL A   1      13.436  49.913  -4.948  1.00  0.00    +0.000 H 
ATOM      8  C3  UNL A   1      15.490  50.347  -4.676  1.00  0.00    +0.000 C 
ATOM      9  C4  UNL A   1      14.121  50.418  -4.365  1.00  0.00    +0.000 C 
ATOM     10  C5  UNL A   1      13.681  51.171  -3.272  1.00  0.00    +0.000 C 
ATOM    104  H6  UNL A   1      12.672  51.235  -3.066  1.00  0.00    +0.000 H 
ATOM     11  C6  UNL A   1      14.601  51.840  -2.457  1.00  0.00    +0.000 C 
ATOM    109  H11 UNL A   1      16.657  52.079  -2.065  1.00  0.00    +0.000 H 
ATOM     22  C13 UNL A   1      15.968  51.658  -2.708  1.00  0.00    +0.000 C 
ATOM     23  C14 UNL A   1      16.429  50.916  -3.816  1.00  0.00    +0.000 C 
BRANCH    8    5
ATOM      5  S1  UNL A   1      15.935  49.696  -6.255  1.00  0.00    +0.000 S 
ATOM      6  O2  UNL A   1      16.724  48.509  -6.001  1.00  0.00    +0.000 O 
ATOM      7  O3  UNL A   1      16.407  50.753  -7.114  1.00  0.00    +0.000 O 
BRANCH    5    4
ATOM      4  N1  UNL A   1      14.501  49.159  -6.892  1.00  0.00    +0.000 N 
ATOM    102  H4  UNL A   1      13.767  49.814  -6.915  1.00  0.00    +0.000 H 
BRANCH    4    2
ATOM      2  C2  UNL A   1      14.206  47.887  -7.402  1.00  0.00    +0.000 C 
ATOM      3  O1  UNL A   1      13.803  47.030  -6.626  1.00  0.00    +0.000 O 
BRANCH    2    1
ATOM      1  C1  UNL A   1      14.240  47.664  -8.887  1.00  0.00    +0.000 C 
ATOM     99  H1  UNL A   1      14.613  48.542  -9.371  1.00  0.00    +0.000 H 
ATOM    100  H2  UNL A   1      13.252  47.455  -9.239  1.00  0.00    +0.000 H 
ATOM    101  H3  UNL A   1      14.881  46.836  -9.108  1.00  0.00    +0.000 H 
ENDBRANCH    2    1
ENDBRANCH    4    2
ENDBRANCH    5    4
ENDBRANCH    8    5
BRANCH   11   12
ATOM    105  H7  UNL A   1      13.348  51.448  -0.024  1.00  0.00    +0.000 H 
ATOM    106  H8  UNL A   1      12.789  53.042   1.613  1.00  0.00    +0.000 H 
ATOM    108  H10 UNL A   1      14.797  54.457  -2.565  1.00  0.00    +0.000 H 
ATOM     12  C7  UNL A   1      14.157  52.845  -1.459  1.00  0.00    +0.000 C 
ATOM     13  C8  UNL A   1      13.541  52.446  -0.200  1.00  0.00    +0.000 C 
ATOM     14  C9  UNL A   1      13.221  53.352   0.729  1.00  0.00    +0.000 C 
ATOM     15  N2  UNL A   1      13.460  54.695   0.524  1.00  0.00    +0.000 N 
ATOM     19  C11 UNL A   1      14.039  55.176  -0.640  1.00  0.00    +0.000 C 
ATOM     20  O4  UNL A   1      14.301  56.351  -0.876  1.00  0.00    +0.000 O 
ATOM     21  C12 UNL A   1      14.380  54.153  -1.671  1.00  0.00    +0.000 C 
BRANCH   15   16
ATOM     17  F1  UNL A   1      12.846  55.030   2.718  1.00  0.00    +0.000 F 
ATOM     18  F2  UNL A   1      14.221  56.468   1.794  1.00  0.00    +0.000 F 
ATOM    107  H9  UNL A   1      12.334  56.235   1.213  1.00  0.00    +0.000 H 
ATOM     16  C10 UNL A   1      13.164  55.655   1.558  1.00  0.00    +0.000 C 
ENDBRANCH   15   16
ENDBRANCH   11   12
ENDBRANCH   24   23
ENDBRANCH   26   24
ENDBRANCH   27   26
ENDBRANCH   28   27
ENDBRANCH   29   28
ENDBRANCH   30   29
ENDBRANCH   31   30
ENDBRANCH   32   31
ENDBRANCH   33   32
ENDBRANCH   34   33
ENDBRANCH   36   34
ENDBRANCH   40   39
BRANCH   44   45
ATOM     45  C31 UNL A   1      16.526  48.479  -0.340  1.00  0.00    +0.000 C 
ATOM     46  C32 UNL A   1      17.828  47.963  -0.366  1.00  0.00    +0.000 C 
ATOM     47  F3  UNL A   1      18.672  48.208   0.646  1.00  0.00    +0.000 F 
ATOM     48  C33 UNL A   1      18.271  47.208  -1.449  1.00  0.00    +0.000 C 
ATOM     49  F4  UNL A   1      19.526  46.737  -1.466  1.00  0.00    +0.000 F 
ATOM     50  C34 UNL A   1      17.418  46.947  -2.512  1.00  0.00    +0.000 C 
ATOM     51  F5  UNL A   1      17.846  46.219  -3.552  1.00  0.00    +0.000 F 
ATOM     52  C35 UNL A   1      16.124  47.446  -2.500  1.00  0.00    +0.000 C 
ATOM     53  F6  UNL A   1      15.300  47.194  -3.527  1.00  0.00    +0.000 F 
ATOM     54  C36 UNL A   1      15.680  48.209  -1.424  1.00  0.00    +0.000 C 
ATOM     55  F7  UNL A   1      14.426  48.686  -1.439  1.00  0.00    +0.000 F 
ENDBRANCH   44   45
BRANCH   61   62
ATOM     65  C44 UNL A   1       9.938  46.364   5.262  1.00  0.00    +0.000 C 
ATOM     66  F9  UNL A   1       8.685  46.196   4.816  1.00  0.00    +0.000 F 
ATOM     67  C45 UNL A   1      10.440  45.527   6.249  1.00  0.00    +0.000 C 
ATOM     68  F10 UNL A   1       9.674  44.547   6.750  1.00  0.00    +0.000 F 
ATOM     69  C46 UNL A   1      11.730  45.710   6.723  1.00  0.00    +0.000 C 
ATOM     70  F11 UNL A   1      12.213  44.905   7.679  1.00  0.00    +0.000 F 
ATOM     71  C47 UNL A   1      12.523  46.733   6.211  1.00  0.00    +0.000 C 
ATOM     72  F12 UNL A   1      13.764  46.897   6.691  1.00  0.00    +0.000 F 
ATOM     62  C42 UNL A   1      12.035  47.586   5.211  1.00  0.00    +0.000 C 
ATOM     63  C43 UNL A   1      10.729  47.383   4.743  1.00  0.00    +0.000 C 
ATOM     64  F8  UNL A   1      10.220  48.187   3.798  1.00  0.00    +0.000 F 
ENDBRANCH   61   62
BRANCH   76   77
ATOM     77  C51 UNL A   1      13.239  54.157   7.113  1.00  0.00    +0.000 C 
ATOM     78  C52 UNL A   1      12.145  55.006   6.902  1.00  0.00    +0.000 C 
ATOM     79  F13 UNL A   1      11.578  55.077   5.689  1.00  0.00    +0.000 F 
ATOM     80  C53 UNL A   1      11.648  55.800   7.931  1.00  0.00    +0.000 C 
ATOM     81  F14 UNL A   1      10.612  56.618   7.703  1.00  0.00    +0.000 F 
ATOM     82  C54 UNL A   1      12.229  55.751   9.190  1.00  0.00    +0.000 C 
ATOM     83  F15 UNL A   1      11.748  56.513  10.182  1.00  0.00    +0.000 F 
ATOM     84  C55 UNL A   1      13.312  54.913   9.420  1.00  0.00    +0.000 C 
ATOM     85  F16 UNL A   1      13.873  54.863  10.635  1.00  0.00    +0.000 F 
ATOM     86  C56 UNL A   1      13.816  54.126   8.389  1.00  0.00    +0.000 C 
ATOM     87  F17 UNL A   1      14.866  53.328   8.631  1.00  0.00    +0.000 F 
ENDBRANCH   76   77
TORSDOF 21
ENDMDL
MODEL 5
REMARK VINA RESULT:     -10.6     40.182     44.042
ROOT
ATOM    129  H31 UNL A   1      14.744  55.782   6.077  1.00  0.00    +0.000 H 
ATOM    130  H32 UNL A   1      16.335  56.098   4.121  1.00  0.00    +0.000 H 
ATOM    131  H33 UNL A   1      14.933  52.185   4.003  1.00  0.00    +0.000 H 
ATOM    132  H34 UNL A   1      11.732  51.771   7.877  1.00  0.00    +0.000 H 
ATOM    133  H35 UNL A   1      11.344  49.346   7.147  1.00  0.00    +0.000 H 
ATOM    134  H36 UNL A   1      17.652  50.592  -0.573  1.00  0.00    +0.000 H 
ATOM    135  H37 UNL A   1      18.187  52.965   0.231  1.00  0.00    +0.000 H 
ATOM     40  C27 UNL A   1      16.665  53.778   2.496  1.00  0.00    +0.000 C 
ATOM     41  C28 UNL A   1      16.646  52.443   1.811  1.00  0.00    +0.000 C 
ATOM     42  N5  UNL A   1      15.944  51.376   2.101  1.00  0.00    +0.000 N 
ATOM     43  C29 UNL A   1      16.272  50.435   1.136  1.00  0.00    +0.000 C 
ATOM     44  C30 UNL A   1      15.809  49.170   0.999  1.00  0.00    +0.000 C 
ATOM     56  C37 UNL A   1      14.876  48.531   1.889  1.00  0.00    +0.000 C 
ATOM     57  C38 UNL A   1      14.380  47.239   1.841  1.00  0.00    +0.000 C 
ATOM     58  C39 UNL A   1      13.502  47.065   2.918  1.00  0.00    +0.000 C 
ATOM     59  C40 UNL A   1      13.462  48.246   3.640  1.00  0.00    +0.000 C 
ATOM     60  N6  UNL A   1      14.307  49.137   2.998  1.00  0.00    +0.000 N 
ATOM     61  C41 UNL A   1      12.712  48.547   4.829  1.00  0.00    +0.000 C 
ATOM     73  C48 UNL A   1      12.723  49.737   5.474  1.00  0.00    +0.000 C 
ATOM     74  N7  UNL A   1      13.425  50.889   5.155  1.00  0.00    +0.000 N 
ATOM     75  C49 UNL A   1      13.101  51.771   6.068  1.00  0.00    +0.000 C 
ATOM     76  C50 UNL A   1      13.563  53.190   6.215  1.00  0.00    +0.000 C 
ATOM     88  C57 UNL A   1      14.458  53.699   5.349  1.00  0.00    +0.000 C 
ATOM     89  C58 UNL A   1      14.983  55.062   5.378  1.00  0.00    +0.000 C 
ATOM     90  C59 UNL A   1      15.829  55.228   4.347  1.00  0.00    +0.000 C 
ATOM     91  C60 UNL A   1      15.915  53.976   3.597  1.00  0.00    +0.000 C 
ATOM     92  N8  UNL A   1      15.076  53.121   4.269  1.00  0.00    +0.000 N 
ATOM     93  C61 UNL A   1      12.146  51.276   7.071  1.00  0.00    +0.000 C 
ATOM     94  C62 UNL A   1      11.958  50.026   6.669  1.00  0.00    +0.000 C 
ATOM     95  C63 UNL A   1      17.239  51.054   0.252  1.00  0.00    +0.000 C 
ATOM     96  C64 UNL A   1      17.523  52.290   0.642  1.00  0.00    +0.000 C 
ATOM    126  H28 UNL A   1      14.617  46.526   1.132  1.00  0.00    +0.000 H 
ATOM    127  H29 UNL A   1      12.975  46.205   3.136  1.00  0.00    +0.000 H 
ATOM    128  H30 UNL A   1      14.477  50.063   3.285  1.00  0.00    +0.000 H 
ENDROOT
BRANCH   40   39
ATOM     97  C65 UNL A   1      16.918  55.791   1.030  1.00  0.00    +0.000 C 
ATOM     98  C66 UNL A   1      17.676  56.854   0.528  1.00  0.00    +0.000 C 
ATOM     36  C23 UNL A   1      18.983  57.055   0.982  1.00  0.00    +0.000 C 
ATOM     37  C24 UNL A   1      19.556  56.147   1.880  1.00  0.00    +0.000 C 
ATOM     38  C25 UNL A   1      18.808  55.070   2.363  1.00  0.00    +0.000 C 
ATOM     39  C26 UNL A   1      17.477  54.894   1.954  1.00  0.00    +0.000 C 
ATOM    136  H38 UNL A   1      15.942  55.666   0.721  1.00  0.00    +0.000 H 
ATOM    137  H39 UNL A   1      17.270  57.488  -0.177  1.00  0.00    +0.000 H 
ATOM    124  H26 UNL A   1      20.533  56.272   2.186  1.00  0.00    +0.000 H 
ATOM    125  H27 UNL A   1      19.235  54.402   3.024  1.00  0.00    +0.000 H 
BRANCH   36   34
ATOM     34  C22 UNL A   1      19.824  58.169   0.486  1.00  0.00    +0.000 C 
ATOM     35  O6  UNL A   1      19.520  59.322   0.779  1.00  0.00    +0.000 O 
BRANCH   34   33
ATOM     33  N4  UNL A   1      20.916  57.936  -0.313  1.00  0.00    +0.000 N 
ATOM    123  H25 UNL A   1      21.760  58.320   0.017  1.00  0.00    +0.000 H 
BRANCH   33   32
ATOM    121  H23 UNL A   1      21.979  57.417  -1.999  1.00  0.00    +0.000 H 
ATOM    122  H24 UNL A   1      20.898  56.172  -1.350  1.00  0.00    +0.000 H 
ATOM     32  C21 UNL A   1      21.022  57.212  -1.566  1.00  0.00    +0.000 C 
BRANCH   32   31
ATOM    119  H21 UNL A   1      19.366  58.398  -2.139  1.00  0.00    +0.000 H 
ATOM     31  C20 UNL A   1      19.937  57.605  -2.573  1.00  0.00    +0.000 C 
ATOM    120  H22 UNL A   1      20.466  57.870  -3.465  1.00  0.00    +0.000 H 
BRANCH   31   30
ATOM    118  H20 UNL A   1      18.271  56.975  -3.670  1.00  0.00    +0.000 H 
ATOM    117  H19 UNL A   1      18.506  56.107  -2.112  1.00  0.00    +0.000 H 
ATOM     30  C19 UNL A   1      18.956  56.502  -2.998  1.00  0.00    +0.000 C 
BRANCH   30   29
ATOM    115  H17 UNL A   1      19.619  55.616  -4.810  1.00  0.00    +0.000 H 
ATOM    116  H18 UNL A   1      20.501  55.120  -3.337  1.00  0.00    +0.000 H 
ATOM     29  C18 UNL A   1      19.550  55.329  -3.782  1.00  0.00    +0.000 C 
BRANCH   29   28
ATOM    113  H15 UNL A   1      18.583  53.801  -2.671  1.00  0.00    +0.000 H 
ATOM    114  H16 UNL A   1      17.837  54.206  -4.243  1.00  0.00    +0.000 H 
ATOM     28  C17 UNL A   1      18.744  54.031  -3.703  1.00  0.00    +0.000 C 
BRANCH   28   27
ATOM     27  C16 UNL A   1      19.414  52.816  -4.363  1.00  0.00    +0.000 C 
ATOM    111  H13 UNL A   1      19.996  53.139  -5.201  1.00  0.00    +0.000 H 
ATOM    112  H14 UNL A   1      20.053  52.329  -3.657  1.00  0.00    +0.000 H 
BRANCH   27   26
ATOM     26  N3  UNL A   1      18.384  51.891  -4.813  1.00  0.00    +0.000 N 
ATOM    110  H12 UNL A   1      18.029  52.081  -5.712  1.00  0.00    +0.000 H 
BRANCH   26   24
ATOM     25  O5  UNL A   1      18.506  49.802  -3.993  1.00  0.00    +0.000 O 
ATOM     24  C15 UNL A   1      17.821  50.803  -4.202  1.00  0.00    +0.000 C 
BRANCH   24   23
ATOM    103  H5  UNL A   1      13.334  49.889  -5.141  1.00  0.00    +0.000 H 
ATOM      8  C3  UNL A   1      15.402  50.253  -4.865  1.00  0.00    +0.000 C 
ATOM      9  C4  UNL A   1      14.042  50.303  -4.513  1.00  0.00    +0.000 C 
ATOM     10  C5  UNL A   1      13.640  50.911  -3.320  1.00  0.00    +0.000 C 
ATOM    104  H6  UNL A   1      12.637  50.961  -3.083  1.00  0.00    +0.000 H 
ATOM     11  C6  UNL A   1      14.590  51.452  -2.447  1.00  0.00    +0.000 C 
ATOM    109  H11 UNL A   1      16.658  51.606  -2.078  1.00  0.00    +0.000 H 
ATOM     22  C13 UNL A   1      15.948  51.284  -2.754  1.00  0.00    +0.000 C 
ATOM     23  C14 UNL A   1      16.370  50.688  -3.961  1.00  0.00    +0.000 C 
BRANCH    8    5
ATOM      5  S1  UNL A   1      15.799  49.809  -6.526  1.00  0.00    +0.000 S 
ATOM      6  O2  UNL A   1      16.692  48.673  -6.445  1.00  0.00    +0.000 O 
ATOM      7  O3  UNL A   1      16.134  50.986  -7.288  1.00  0.00    +0.000 O 
BRANCH    5    4
ATOM      4  N1  UNL A   1      14.375  49.223  -7.142  1.00  0.00    +0.000 N 
ATOM    102  H4  UNL A   1      13.682  49.894  -7.338  1.00  0.00    +0.000 H 
BRANCH    4    2
ATOM      2  C2  UNL A   1      14.038  47.891  -7.419  1.00  0.00    +0.000 C 
ATOM      3  O1  UNL A   1      14.388  47.415  -8.491  1.00  0.00    +0.000 O 
BRANCH    2    1
ATOM      1  C1  UNL A   1      13.406  47.054  -6.344  1.00  0.00    +0.000 C 
ATOM     99  H1  UNL A   1      13.295  47.639  -5.455  1.00  0.00    +0.000 H 
ATOM    100  H2  UNL A   1      14.028  46.208  -6.139  1.00  0.00    +0.000 H 
ATOM    101  H3  UNL A   1      12.444  46.719  -6.672  1.00  0.00    +0.000 H 
ENDBRANCH    2    1
ENDBRANCH    4    2
ENDBRANCH    5    4
ENDBRANCH    8    5
BRANCH   11   12
ATOM    105  H7  UNL A   1      15.203  54.107  -1.982  1.00  0.00    +0.000 H 
ATOM    106  H8  UNL A   1      14.430  55.513  -0.261  1.00  0.00    +0.000 H 
ATOM    108  H10 UNL A   1      13.115  50.849  -0.359  1.00  0.00    +0.000 H 
ATOM     12  C7  UNL A   1      14.187  52.322  -1.314  1.00  0.00    +0.000 C 
ATOM     13  C8  UNL A   1      14.578  53.724  -1.256  1.00  0.00    +0.000 C 
ATOM     14  C9  UNL A   1      14.141  54.523  -0.277  1.00  0.00    +0.000 C 
ATOM     15  N2  UNL A   1      13.308  54.042   0.712  1.00  0.00    +0.000 N 
ATOM     19  C11 UNL A   1      12.881  52.725   0.748  1.00  0.00    +0.000 C 
ATOM     20  O4  UNL A   1      12.123  52.241   1.582  1.00  0.00    +0.000 O 
ATOM     21  C12 UNL A   1      13.386  51.844  -0.346  1.00  0.00    +0.000 C 
BRANCH   15   16
ATOM     17  F1  UNL A   1      13.672  55.932   1.978  1.00  0.00    +0.000 F 
ATOM     18  F2  UNL A   1      11.618  55.481   1.354  1.00  0.00    +0.000 F 
ATOM    107  H9  UNL A   1      12.653  54.338   2.609  1.00  0.00    +0.000 H 
ATOM     16  C10 UNL A   1      12.797  54.928   1.728  1.00  0.00    +0.000 C 
ENDBRANCH   15   16
ENDBRANCH   11   12
ENDBRANCH   24   23
ENDBRANCH   26   24
ENDBRANCH   27   26
ENDBRANCH   28   27
ENDBRANCH   29   28
ENDBRANCH   30   29
ENDBRANCH   31   30
ENDBRANCH   32   31
ENDBRANCH   33   32
ENDBRANCH   34   33
ENDBRANCH   36   34
ENDBRANCH   40   39
BRANCH   44   45
ATOM     45  C31 UNL A   1      16.301  48.387  -0.176  1.00  0.00    +0.000 C 
ATOM     46  C32 UNL A   1      15.471  48.124  -1.273  1.00  0.00    +0.000 C 
ATOM     47  F3  UNL A   1      14.194  48.535  -1.267  1.00  0.00    +0.000 F 
ATOM     48  C33 UNL A   1      15.950  47.418  -2.373  1.00  0.00    +0.000 C 
ATOM     49  F4  UNL A   1      15.136  47.160  -3.407  1.00  0.00    +0.000 F 
ATOM     50  C34 UNL A   1      17.265  46.978  -2.400  1.00  0.00    +0.000 C 
ATOM     51  F5  UNL A   1      17.724  46.300  -3.460  1.00  0.00    +0.000 F 
ATOM     52  C35 UNL A   1      18.103  47.234  -1.324  1.00  0.00    +0.000 C 
ATOM     53  F6  UNL A   1      19.374  46.808  -1.350  1.00  0.00    +0.000 F 
ATOM     54  C36 UNL A   1      17.626  47.931  -0.218  1.00  0.00    +0.000 C 
ATOM     55  F7  UNL A   1      18.453  48.160   0.812  1.00  0.00    +0.000 F 
ENDBRANCH   44   45
BRANCH   61   62
ATOM     65  C44 UNL A   1      11.543  45.610   6.939  1.00  0.00    +0.000 C 
ATOM     66  F9  UNL A   1      12.041  44.774   7.861  1.00  0.00    +0.000 F 
ATOM     67  C45 UNL A   1      10.222  45.483   6.530  1.00  0.00    +0.000 C 
ATOM     68  F10 UNL A   1       9.445  44.530   7.063  1.00  0.00    +0.000 F 
ATOM     69  C46 UNL A   1       9.711  46.338   5.564  1.00  0.00    +0.000 C 
ATOM     70  F11 UNL A   1       8.438  46.212   5.167  1.00  0.00    +0.000 F 
ATOM     71  C47 UNL A   1      10.520  47.322   5.004  1.00  0.00    +0.000 C 
ATOM     72  F12 UNL A   1      10.007  48.130   4.065  1.00  0.00    +0.000 F 
ATOM     62  C42 UNL A   1      11.855  47.467   5.407  1.00  0.00    +0.000 C 
ATOM     63  C43 UNL A   1      12.353  46.596   6.386  1.00  0.00    +0.000 C 
ATOM     64  F8  UNL A   1      13.629  46.693   6.788  1.00  0.00    +0.000 F 
ENDBRANCH   61   62
BRANCH   76   77
ATOM     77  C51 UNL A   1      13.050  54.038   7.314  1.00  0.00    +0.000 C 
ATOM     78  C52 UNL A   1      13.707  54.081   8.550  1.00  0.00    +0.000 C 
ATOM     79  F13 UNL A   1      14.793  53.322   8.757  1.00  0.00    +0.000 F 
ATOM     80  C53 UNL A   1      13.235  54.887   9.582  1.00  0.00    +0.000 C 
ATOM     81  F14 UNL A   1      13.869  54.900  10.763  1.00  0.00    +0.000 F 
ATOM     82  C54 UNL A   1      12.106  55.670   9.392  1.00  0.00    +0.000 C 
ATOM     83  F15 UNL A   1      11.653  56.447  10.386  1.00  0.00    +0.000 F 
ATOM     84  C55 UNL A   1      11.442  55.643   8.174  1.00  0.00    +0.000 C 
ATOM     85  F16 UNL A   1      10.353  56.399   7.988  1.00  0.00    +0.000 F 
ATOM     86  C56 UNL A   1      11.908  54.830   7.144  1.00  0.00    +0.000 C 
ATOM     87  F17 UNL A   1      11.248  54.815   5.976  1.00  0.00    +0.000 F 
ENDBRANCH   76   77
TORSDOF 21
ENDMDL
MODEL 6
REMARK VINA RESULT:     -10.6     22.411     29.486
ROOT
ATOM    129  H31 UNL A   1      20.762  33.956  46.828  1.00  0.00    +0.000 H 
ATOM    130  H32 UNL A   1      18.819  35.269  47.807  1.00  0.00    +0.000 H 
ATOM    131  H33 UNL A   1      22.110  37.804  47.634  1.00  0.00    +0.000 H 
ATOM    132  H34 UNL A   1      25.822  35.074  45.585  1.00  0.00    +0.000 H 
ATOM    133  H35 UNL A   1      27.306  37.153  45.789  1.00  0.00    +0.000 H 
ATOM    134  H36 UNL A   1      19.628  42.334  49.680  1.00  0.00    +0.000 H 
ATOM    135  H37 UNL A   1      18.172  40.227  49.645  1.00  0.00    +0.000 H 
ATOM     40  C27 UNL A   1      19.447  37.973  48.460  1.00  0.00    +0.000 C 
ATOM     41  C28 UNL A   1      20.029  39.336  48.695  1.00  0.00    +0.000 C 
ATOM     42  N5  UNL A   1      21.229  39.780  48.417  1.00  0.00    +0.000 N 
ATOM     43  C29 UNL A   1      21.236  41.113  48.799  1.00  0.00    +0.000 C 
ATOM     44  C30 UNL A   1      22.246  42.011  48.713  1.00  0.00    +0.000 C 
ATOM     56  C37 UNL A   1      23.566  41.724  48.219  1.00  0.00    +0.000 C 
ATOM     57  C38 UNL A   1      24.660  42.569  48.129  1.00  0.00    +0.000 C 
ATOM     58  C39 UNL A   1      25.730  41.845  47.588  1.00  0.00    +0.000 C 
ATOM     59  C40 UNL A   1      25.303  40.550  47.353  1.00  0.00    +0.000 C 
ATOM     60  N6  UNL A   1      23.976  40.489  47.742  1.00  0.00    +0.000 N 
ATOM     61  C41 UNL A   1      26.046  39.443  46.814  1.00  0.00    +0.000 C 
ATOM     73  C48 UNL A   1      25.550  38.201  46.607  1.00  0.00    +0.000 C 
ATOM     74  N7  UNL A   1      24.271  37.726  46.853  1.00  0.00    +0.000 N 
ATOM     75  C49 UNL A   1      24.276  36.471  46.482  1.00  0.00    +0.000 C 
ATOM     76  C50 UNL A   1      23.159  35.471  46.523  1.00  0.00    +0.000 C 
ATOM     88  C57 UNL A   1      21.961  35.820  47.025  1.00  0.00    +0.000 C 
ATOM     89  C58 UNL A   1      20.794  34.946  47.117  1.00  0.00    +0.000 C 
ATOM     90  C59 UNL A   1      19.768  35.638  47.640  1.00  0.00    +0.000 C 
ATOM     91  C60 UNL A   1      20.214  36.999  47.934  1.00  0.00    +0.000 C 
ATOM     92  N8  UNL A   1      21.531  37.014  47.546  1.00  0.00    +0.000 N 
ATOM     93  C61 UNL A   1      25.565  36.005  45.949  1.00  0.00    +0.000 C 
ATOM     94  C62 UNL A   1      26.311  37.097  46.059  1.00  0.00    +0.000 C 
ATOM     95  C63 UNL A   1      19.921  41.408  49.332  1.00  0.00    +0.000 C 
ATOM     96  C64 UNL A   1      19.144  40.333  49.312  1.00  0.00    +0.000 C 
ATOM    126  H28 UNL A   1      24.682  43.561  48.412  1.00  0.00    +0.000 H 
ATOM    127  H29 UNL A   1      26.675  42.215  47.398  1.00  0.00    +0.000 H 
ATOM    128  H30 UNL A   1      23.406  39.688  47.686  1.00  0.00    +0.000 H 
ENDROOT
BRANCH   40   39
ATOM     97  C65 UNL A   1      17.595  37.629  50.110  1.00  0.00    +0.000 C 
ATOM     98  C66 UNL A   1      16.253  37.382  50.411  1.00  0.00    +0.000 C 
ATOM     36  C23 UNL A   1      15.320  37.246  49.377  1.00  0.00    +0.000 C 
ATOM     37  C24 UNL A   1      15.746  37.280  48.045  1.00  0.00    +0.000 C 
ATOM     38  C25 UNL A   1      17.092  37.502  47.744  1.00  0.00    +0.000 C 
ATOM     39  C26 UNL A   1      18.025  37.694  48.774  1.00  0.00    +0.000 C 
ATOM    136  H38 UNL A   1      18.276  37.765  50.873  1.00  0.00    +0.000 H 
ATOM    137  H39 UNL A   1      15.951  37.300  51.394  1.00  0.00    +0.000 H 
ATOM    124  H26 UNL A   1      15.064  37.141  47.283  1.00  0.00    +0.000 H 
ATOM    125  H27 UNL A   1      17.402  37.524  46.760  1.00  0.00    +0.000 H 
BRANCH   36   34
ATOM     34  C22 UNL A   1      13.885  36.990  49.644  1.00  0.00    +0.000 C 
ATOM     35  O6  UNL A   1      13.113  36.874  48.696  1.00  0.00    +0.000 O 
BRANCH   34   33
ATOM     33  N4  UNL A   1      13.404  36.906  50.927  1.00  0.00    +0.000 N 
ATOM    123  H25 UNL A   1      13.475  36.015  51.339  1.00  0.00    +0.000 H 
BRANCH   33   32
ATOM    121  H23 UNL A   1      12.872  38.866  51.269  1.00  0.00    +0.000 H 
ATOM    122  H24 UNL A   1      11.791  37.639  51.950  1.00  0.00    +0.000 H 
ATOM     32  C21 UNL A   1      12.806  37.924  51.771  1.00  0.00    +0.000 C 
BRANCH   32   31
ATOM    119  H21 UNL A   1      14.053  38.960  53.131  1.00  0.00    +0.000 H 
ATOM     31  C20 UNL A   1      13.497  38.047  53.132  1.00  0.00    +0.000 C 
ATOM    120  H22 UNL A   1      12.707  38.004  53.852  1.00  0.00    +0.000 H 
BRANCH   31   30
ATOM    118  H20 UNL A   1      14.724  36.436  52.603  1.00  0.00    +0.000 H 
ATOM    117  H19 UNL A   1      13.954  36.283  54.222  1.00  0.00    +0.000 H 
ATOM     30  C19 UNL A   1      14.460  36.915  53.523  1.00  0.00    +0.000 C 
BRANCH   30   29
ATOM    115  H17 UNL A   1      16.332  36.455  54.414  1.00  0.00    +0.000 H 
ATOM    116  H18 UNL A   1      16.288  37.946  53.429  1.00  0.00    +0.000 H 
ATOM     29  C18 UNL A   1      15.788  37.340  54.155  1.00  0.00    +0.000 C 
BRANCH   29   28
ATOM    113  H15 UNL A   1      14.612  38.367  55.592  1.00  0.00    +0.000 H 
ATOM    114  H16 UNL A   1      16.135  37.660  56.201  1.00  0.00    +0.000 H 
ATOM     28  C17 UNL A   1      15.653  38.200  55.413  1.00  0.00    +0.000 C 
BRANCH   28   27
ATOM     27  C16 UNL A   1      16.349  39.567  55.336  1.00  0.00    +0.000 C 
ATOM    111  H13 UNL A   1      16.053  40.168  56.170  1.00  0.00    +0.000 H 
ATOM    112  H14 UNL A   1      17.410  39.434  55.358  1.00  0.00    +0.000 H 
BRANCH   27   26
ATOM     26  N3  UNL A   1      15.963  40.228  54.097  1.00  0.00    +0.000 N 
ATOM    110  H12 UNL A   1      15.014  40.485  54.051  1.00  0.00    +0.000 H 
BRANCH   26   24
ATOM     25  O5  UNL A   1      16.185  40.435  51.870  1.00  0.00    +0.000 O 
ATOM     24  C15 UNL A   1      16.692  40.552  52.984  1.00  0.00    +0.000 C 
BRANCH   24   23
ATOM    103  H5  UNL A   1      20.581  43.139  53.168  1.00  0.00    +0.000 H 
ATOM      8  C3  UNL A   1      18.735  42.105  53.089  1.00  0.00    +0.000 C 
ATOM      9  C4  UNL A   1      20.135  42.219  53.030  1.00  0.00    +0.000 C 
ATOM     10  C5  UNL A   1      20.927  41.094  52.782  1.00  0.00    +0.000 C 
ATOM    104  H6  UNL A   1      21.952  41.193  52.718  1.00  0.00    +0.000 H 
ATOM     11  C6  UNL A   1      20.339  39.835  52.620  1.00  0.00    +0.000 C 
ATOM    109  H11 UNL A   1      18.519  38.784  52.769  1.00  0.00    +0.000 H 
ATOM     22  C13 UNL A   1      18.954  39.720  52.805  1.00  0.00    +0.000 C 
ATOM     23  C14 UNL A   1      18.137  40.846  53.039  1.00  0.00    +0.000 C 
BRANCH    8    5
ATOM      5  S1  UNL A   1      17.792  43.596  53.037  1.00  0.00    +0.000 S 
ATOM      6  O2  UNL A   1      18.741  44.677  52.889  1.00  0.00    +0.000 O 
ATOM      7  O3  UNL A   1      16.800  43.593  54.083  1.00  0.00    +0.000 O 
BRANCH    5    4
ATOM      4  N1  UNL A   1      16.975  43.510  51.596  1.00  0.00    +0.000 N 
ATOM    102  H4  UNL A   1      16.419  42.708  51.463  1.00  0.00    +0.000 H 
BRANCH    4    2
ATOM      2  C2  UNL A   1      16.978  44.437  50.546  1.00  0.00    +0.000 C 
ATOM      3  O1  UNL A   1      17.695  44.215  49.578  1.00  0.00    +0.000 O 
BRANCH    2    1
ATOM      1  C1  UNL A   1      15.999  45.576  50.567  1.00  0.00    +0.000 C 
ATOM     99  H1  UNL A   1      15.186  45.336  51.219  1.00  0.00    +0.000 H 
ATOM    100  H2  UNL A   1      15.626  45.744  49.579  1.00  0.00    +0.000 H 
ATOM    101  H3  UNL A   1      16.488  46.460  50.918  1.00  0.00    +0.000 H 
ENDBRANCH    2    1
ENDBRANCH    4    2
ENDBRANCH    5    4
ENDBRANCH    8    5
BRANCH   11   12
ATOM    105  H7  UNL A   1      19.657  37.156  52.559  1.00  0.00    +0.000 H 
ATOM    106  H8  UNL A   1      20.841  35.363  51.602  1.00  0.00    +0.000 H 
ATOM    108  H10 UNL A   1      22.734  39.824  51.543  1.00  0.00    +0.000 H 
ATOM     12  C7  UNL A   1      21.118  38.682  52.105  1.00  0.00    +0.000 C 
ATOM     13  C8  UNL A   1      20.576  37.330  52.121  1.00  0.00    +0.000 C 
ATOM     14  C9  UNL A   1      21.249  36.310  51.580  1.00  0.00    +0.000 C 
ATOM     15  N2  UNL A   1      22.481  36.505  50.991  1.00  0.00    +0.000 N 
ATOM     19  C11 UNL A   1      23.084  37.751  50.926  1.00  0.00    +0.000 C 
ATOM     20  O4  UNL A   1      24.163  37.997  50.397  1.00  0.00    +0.000 O 
ATOM     21  C12 UNL A   1      22.324  38.877  51.545  1.00  0.00    +0.000 C 
BRANCH   15   16
ATOM     17  F1  UNL A   1      24.036  34.821  51.219  1.00  0.00    +0.000 F 
ATOM     18  F2  UNL A   1      22.299  34.462  49.928  1.00  0.00    +0.000 F 
ATOM    107  H9  UNL A   1      23.699  35.815  49.523  1.00  0.00    +0.000 H 
ATOM     16  C10 UNL A   1      23.169  35.407  50.358  1.00  0.00    +0.000 C 
ENDBRANCH   15   16
ENDBRANCH   11   12
ENDBRANCH   24   23
ENDBRANCH   26   24
ENDBRANCH   27   26
ENDBRANCH   28   27
ENDBRANCH   29   28
ENDBRANCH   30   29
ENDBRANCH   31   30
ENDBRANCH   32   31
ENDBRANCH   33   32
ENDBRANCH   34   33
ENDBRANCH   36   34
ENDBRANCH   40   39
BRANCH   44   45
ATOM     45  C31 UNL A   1      21.956  43.409  49.157  1.00  0.00    +0.000 C 
ATOM     46  C32 UNL A   1      21.334  44.328  48.303  1.00  0.00    +0.000 C 
ATOM     47  F3  UNL A   1      21.027  43.980  47.045  1.00  0.00    +0.000 F 
ATOM     48  C33 UNL A   1      21.043  45.619  48.738  1.00  0.00    +0.000 C 
ATOM     49  F4  UNL A   1      20.464  46.491  47.901  1.00  0.00    +0.000 F 
ATOM     50  C34 UNL A   1      21.357  46.004  50.033  1.00  0.00    +0.000 C 
ATOM     51  F5  UNL A   1      21.075  47.246  50.450  1.00  0.00    +0.000 F 
ATOM     52  C35 UNL A   1      21.968  45.105  50.894  1.00  0.00    +0.000 C 
ATOM     53  F6  UNL A   1      22.271  45.478  52.146  1.00  0.00    +0.000 F 
ATOM     54  C36 UNL A   1      22.269  43.817  50.461  1.00  0.00    +0.000 C 
ATOM     55  F7  UNL A   1      22.866  42.968  51.310  1.00  0.00    +0.000 F 
ENDBRANCH   44   45
BRANCH   61   62
ATOM     65  C44 UNL A   1      29.844  39.462  46.965  1.00  0.00    +0.000 C 
ATOM     66  F9  UNL A   1      30.818  39.089  47.807  1.00  0.00    +0.000 F 
ATOM     67  C45 UNL A   1      30.167  40.049  45.749  1.00  0.00    +0.000 C 
ATOM     68  F10 UNL A   1      31.452  40.235  45.416  1.00  0.00    +0.000 F 
ATOM     69  C46 UNL A   1      29.160  40.450  44.884  1.00  0.00    +0.000 C 
ATOM     70  F11 UNL A   1      29.472  41.020  43.713  1.00  0.00    +0.000 F 
ATOM     71  C47 UNL A   1      27.825  40.266  45.234  1.00  0.00    +0.000 C 
ATOM     72  F12 UNL A   1      26.868  40.670  44.386  1.00  0.00    +0.000 F 
ATOM     62  C42 UNL A   1      27.480  39.671  46.455  1.00  0.00    +0.000 C 
ATOM     63  C43 UNL A   1      28.512  39.270  47.315  1.00  0.00    +0.000 C 
ATOM     64  F8  UNL A   1      28.223  38.711  48.500  1.00  0.00    +0.000 F 
ENDBRANCH   61   62
BRANCH   76   77
ATOM     77  C51 UNL A   1      23.365  34.092  46.025  1.00  0.00    +0.000 C 
ATOM     78  C52 UNL A   1      24.039  33.143  46.804  1.00  0.00    +0.000 C 
ATOM     79  F13 UNL A   1      24.535  33.490  48.000  1.00  0.00    +0.000 F 
ATOM     80  C53 UNL A   1      24.224  31.843  46.344  1.00  0.00    +0.000 C 
ATOM     81  F14 UNL A   1      24.887  30.955  47.098  1.00  0.00    +0.000 F 
ATOM     82  C54 UNL A   1      23.730  31.467  45.103  1.00  0.00    +0.000 C 
ATOM     83  F15 UNL A   1      23.907  30.214  44.662  1.00  0.00    +0.000 F 
ATOM     84  C55 UNL A   1      23.058  32.392  44.317  1.00  0.00    +0.000 C 
ATOM     85  F16 UNL A   1      22.579  32.032  43.120  1.00  0.00    +0.000 F 
ATOM     86  C56 UNL A   1      22.880  33.696  44.772  1.00  0.00    +0.000 C 
ATOM     87  F17 UNL A   1      22.232  34.576  43.994  1.00  0.00    +0.000 F 
ENDBRANCH   76   77
TORSDOF 21
ENDMDL
MODEL 7
REMARK VINA RESULT:     -10.6     20.666     25.374
ROOT
ATOM    129  H31 UNL A   1      44.326  21.201  51.051  1.00  0.00    +0.000 H 
ATOM    130  H32 UNL A   1      42.668  19.360  51.619  1.00  0.00    +0.000 H 
ATOM    131  H33 UNL A   1      44.567  18.313  48.071  1.00  0.00    +0.000 H 
ATOM    132  H34 UNL A   1      47.872  22.009  47.156  1.00  0.00    +0.000 H 
ATOM    133  H35 UNL A   1      48.559  20.717  45.053  1.00  0.00    +0.000 H 
ATOM    134  H36 UNL A   1      41.988  13.454  47.291  1.00  0.00    +0.000 H 
ATOM    135  H37 UNL A   1      41.164  14.803  49.307  1.00  0.00    +0.000 H 
ATOM     40  C27 UNL A   1      42.612  17.217  49.739  1.00  0.00    +0.000 C 
ATOM     41  C28 UNL A   1      42.791  16.228  48.624  1.00  0.00    +0.000 C 
ATOM     42  N5  UNL A   1      43.632  16.259  47.621  1.00  0.00    +0.000 N 
ATOM     43  C29 UNL A   1      43.411  15.091  46.907  1.00  0.00    +0.000 C 
ATOM     44  C30 UNL A   1      44.033  14.656  45.785  1.00  0.00    +0.000 C 
ATOM     56  C37 UNL A   1      45.058  15.375  45.079  1.00  0.00    +0.000 C 
ATOM     57  C38 UNL A   1      45.718  15.021  43.914  1.00  0.00    +0.000 C 
ATOM     58  C39 UNL A   1      46.633  16.034  43.601  1.00  0.00    +0.000 C 
ATOM     59  C40 UNL A   1      46.533  17.022  44.567  1.00  0.00    +0.000 C 
ATOM     60  N6  UNL A   1      45.566  16.605  45.467  1.00  0.00    +0.000 N 
ATOM     61  C41 UNL A   1      47.261  18.258  44.667  1.00  0.00    +0.000 C 
ATOM     73  C48 UNL A   1      47.108  19.172  45.653  1.00  0.00    +0.000 C 
ATOM     74  N7  UNL A   1      46.255  19.134  46.745  1.00  0.00    +0.000 N 
ATOM     75  C49 UNL A   1      46.479  20.237  47.414  1.00  0.00    +0.000 C 
ATOM     76  C50 UNL A   1      45.839  20.719  48.682  1.00  0.00    +0.000 C 
ATOM     88  C57 UNL A   1      44.867  19.992  49.263  1.00  0.00    +0.000 C 
ATOM     89  C58 UNL A   1      44.169  20.344  50.497  1.00  0.00    +0.000 C 
ATOM     90  C59 UNL A   1      43.288  19.374  50.794  1.00  0.00    +0.000 C 
ATOM     91  C60 UNL A   1      43.352  18.342  49.761  1.00  0.00    +0.000 C 
ATOM     92  N8  UNL A   1      44.308  18.797  48.888  1.00  0.00    +0.000 N 
ATOM     93  C61 UNL A   1      47.510  21.103  46.821  1.00  0.00    +0.000 C 
ATOM     94  C62 UNL A   1      47.852  20.411  45.741  1.00  0.00    +0.000 C 
ATOM     95  C63 UNL A   1      42.354  14.371  47.589  1.00  0.00    +0.000 C 
ATOM     96  C64 UNL A   1      41.919  15.046  48.645  1.00  0.00    +0.000 C 
ATOM    126  H28 UNL A   1      45.563  14.158  43.369  1.00  0.00    +0.000 H 
ATOM    127  H29 UNL A   1      47.272  16.044  42.791  1.00  0.00    +0.000 H 
ATOM    128  H30 UNL A   1      45.282  17.106  46.265  1.00  0.00    +0.000 H 
ENDROOT
BRANCH   40   39
ATOM     97  C65 UNL A   1      40.289  17.260  50.672  1.00  0.00    +0.000 C 
ATOM     98  C66 UNL A   1      39.376  16.998  51.697  1.00  0.00    +0.000 C 
ATOM     36  C23 UNL A   1      39.807  16.383  52.877  1.00  0.00    +0.000 C 
ATOM     37  C24 UNL A   1      41.165  16.101  53.058  1.00  0.00    +0.000 C 
ATOM     38  C25 UNL A   1      42.083  16.385  52.044  1.00  0.00    +0.000 C 
ATOM     39  C26 UNL A   1      41.650  16.952  50.836  1.00  0.00    +0.000 C 
ATOM    136  H38 UNL A   1      39.963  17.681  49.788  1.00  0.00    +0.000 H 
ATOM    137  H39 UNL A   1      38.384  17.260  51.583  1.00  0.00    +0.000 H 
ATOM    124  H26 UNL A   1      41.491  15.683  53.943  1.00  0.00    +0.000 H 
ATOM    125  H27 UNL A   1      43.085  16.177  52.183  1.00  0.00    +0.000 H 
BRANCH   36   34
ATOM     34  C22 UNL A   1      38.878  16.079  53.989  1.00  0.00    +0.000 C 
ATOM     35  O6  UNL A   1      38.772  16.880  54.914  1.00  0.00    +0.000 O 
BRANCH   34   33
ATOM     33  N4  UNL A   1      38.156  14.912  54.015  1.00  0.00    +0.000 N 
ATOM    123  H25 UNL A   1      37.333  14.921  53.475  1.00  0.00    +0.000 H 
BRANCH   33   32
ATOM    121  H23 UNL A   1      38.642  13.888  55.734  1.00  0.00    +0.000 H 
ATOM    122  H24 UNL A   1      37.540  13.058  54.623  1.00  0.00    +0.000 H 
ATOM     32  C21 UNL A   1      38.415  13.666  54.713  1.00  0.00    +0.000 C 
BRANCH   32   31
ATOM    119  H21 UNL A   1      40.451  13.506  54.159  1.00  0.00    +0.000 H 
ATOM     31  C20 UNL A   1      39.585  12.881  54.112  1.00  0.00    +0.000 C 
ATOM    120  H22 UNL A   1      39.647  11.984  54.692  1.00  0.00    +0.000 H 
BRANCH   31   30
ATOM    118  H20 UNL A   1      38.538  12.886  52.300  1.00  0.00    +0.000 H 
ATOM    117  H19 UNL A   1      39.387  11.342  52.663  1.00  0.00    +0.000 H 
ATOM     30  C19 UNL A   1      39.427  12.411  52.658  1.00  0.00    +0.000 C 
BRANCH   30   29
ATOM    115  H17 UNL A   1      40.068  13.180  50.785  1.00  0.00    +0.000 H 
ATOM    116  H18 UNL A   1      41.104  13.584  52.184  1.00  0.00    +0.000 H 
ATOM     29  C18 UNL A   1      40.532  12.830  51.684  1.00  0.00    +0.000 C 
BRANCH   29   28
ATOM    113  H15 UNL A   1      41.274  11.377  50.328  1.00  0.00    +0.000 H 
ATOM    114  H16 UNL A   1      42.494  12.146  51.383  1.00  0.00    +0.000 H 
ATOM     28  C17 UNL A   1      41.515  11.719  51.312  1.00  0.00    +0.000 C 
BRANCH   28   27
ATOM     27  C16 UNL A   1      41.502  10.506  52.256  1.00  0.00    +0.000 C 
ATOM    111  H13 UNL A   1      41.652  10.834  53.263  1.00  0.00    +0.000 H 
ATOM    112  H14 UNL A   1      40.560  10.005  52.185  1.00  0.00    +0.000 H 
BRANCH   27   26
ATOM     26  N3  UNL A   1      42.572   9.596  51.874  1.00  0.00    +0.000 N 
ATOM    110  H12 UNL A   1      42.264   8.732  51.516  1.00  0.00    +0.000 H 
BRANCH   26   24
ATOM     25  O5  UNL A   1      44.475  10.003  53.000  1.00  0.00    +0.000 O 
ATOM     24  C15 UNL A   1      43.933   9.733  51.929  1.00  0.00    +0.000 C 
BRANCH   24   23
ATOM    103  H5  UNL A   1      46.598   8.102  48.451  1.00  0.00    +0.000 H 
ATOM      8  C3  UNL A   1      45.372   8.688  50.075  1.00  0.00    +0.000 C 
ATOM      9  C4  UNL A   1      46.238   8.906  48.989  1.00  0.00    +0.000 C 
ATOM     10  C5  UNL A   1      46.616  10.205  48.635  1.00  0.00    +0.000 C 
ATOM    104  H6  UNL A   1      47.270  10.351  47.850  1.00  0.00    +0.000 H 
ATOM     11  C6  UNL A   1      46.115  11.305  49.338  1.00  0.00    +0.000 C 
ATOM    109  H11 UNL A   1      44.721  11.885  50.806  1.00  0.00    +0.000 H 
ATOM     22  C13 UNL A   1      45.158  11.077  50.337  1.00  0.00    +0.000 C 
ATOM     23  C14 UNL A   1      44.777   9.773  50.719  1.00  0.00    +0.000 C 
BRANCH    8    5
ATOM      5  S1  UNL A   1      45.231   7.040  50.689  1.00  0.00    +0.000 S 
ATOM      6  O2  UNL A   1      45.292   7.132  52.131  1.00  0.00    +0.000 O 
ATOM      7  O3  UNL A   1      46.095   6.157  49.946  1.00  0.00    +0.000 O 
BRANCH    5    4
ATOM      4  N1  UNL A   1      43.671   6.604  50.329  1.00  0.00    +0.000 N 
ATOM    102  H4  UNL A   1      43.315   6.941  49.475  1.00  0.00    +0.000 H 
BRANCH    4    2
ATOM      2  C2  UNL A   1      42.798   5.815  51.090  1.00  0.00    +0.000 C 
ATOM      3  O1  UNL A   1      41.735   6.306  51.447  1.00  0.00    +0.000 O 
BRANCH    2    1
ATOM      1  C1  UNL A   1      43.118   4.363  51.307  1.00  0.00    +0.000 C 
ATOM     99  H1  UNL A   1      42.255   3.862  51.693  1.00  0.00    +0.000 H 
ATOM    100  H2  UNL A   1      43.923   4.276  52.004  1.00  0.00    +0.000 H 
ATOM    101  H3  UNL A   1      43.402   3.918  50.376  1.00  0.00    +0.000 H 
ENDBRANCH    2    1
ENDBRANCH    4    2
ENDBRANCH    5    4
ENDBRANCH    8    5
BRANCH   11   12
ATOM    105  H7  UNL A   1      48.295  12.089  47.829  1.00  0.00    +0.000 H 
ATOM    106  H8  UNL A   1      49.100  14.263  47.433  1.00  0.00    +0.000 H 
ATOM    108  H10 UNL A   1      45.321  13.577  50.389  1.00  0.00    +0.000 H 
ATOM     12  C7  UNL A   1      46.691  12.661  49.157  1.00  0.00    +0.000 C 
ATOM     13  C8  UNL A   1      47.833  12.892  48.283  1.00  0.00    +0.000 C 
ATOM     14  C9  UNL A   1      48.292  14.127  48.059  1.00  0.00    +0.000 C 
ATOM     15  N2  UNL A   1      47.701  15.223  48.654  1.00  0.00    +0.000 N 
ATOM     19  C11 UNL A   1      46.613  15.110  49.503  1.00  0.00    +0.000 C 
ATOM     20  O4  UNL A   1      46.026  16.042  50.043  1.00  0.00    +0.000 O 
ATOM     21  C12 UNL A   1      46.118  13.723  49.750  1.00  0.00    +0.000 C 
BRANCH   15   16
ATOM     17  F1  UNL A   1      49.069  16.966  49.284  1.00  0.00    +0.000 F 
ATOM     18  F2  UNL A   1      48.763  16.609  47.141  1.00  0.00    +0.000 F 
ATOM    107  H9  UNL A   1      47.312  17.193  48.368  1.00  0.00    +0.000 H 
ATOM     16  C10 UNL A   1      48.170  16.554  48.357  1.00  0.00    +0.000 C 
ENDBRANCH   15   16
ENDBRANCH   11   12
ENDBRANCH   24   23
ENDBRANCH   26   24
ENDBRANCH   27   26
ENDBRANCH   28   27
ENDBRANCH   29   28
ENDBRANCH   30   29
ENDBRANCH   31   30
ENDBRANCH   32   31
ENDBRANCH   33   32
ENDBRANCH   34   33
ENDBRANCH   36   34
ENDBRANCH   40   39
BRANCH   44   45
ATOM     45  C31 UNL A   1      43.623  13.320  45.253  1.00  0.00    +0.000 C 
ATOM     46  C32 UNL A   1      44.312  12.154  45.610  1.00  0.00    +0.000 C 
ATOM     47  F3  UNL A   1      45.389  12.223  46.406  1.00  0.00    +0.000 F 
ATOM     48  C33 UNL A   1      43.904  10.912  45.130  1.00  0.00    +0.000 C 
ATOM     49  F4  UNL A   1      44.586   9.809  45.467  1.00  0.00    +0.000 F 
ATOM     50  C34 UNL A   1      42.797  10.817  44.299  1.00  0.00    +0.000 C 
ATOM     51  F5  UNL A   1      42.405   9.621  43.839  1.00  0.00    +0.000 F 
ATOM     52  C35 UNL A   1      42.100  11.961  43.940  1.00  0.00    +0.000 C 
ATOM     53  F6  UNL A   1      41.030  11.868  43.137  1.00  0.00    +0.000 F 
ATOM     54  C36 UNL A   1      42.510  13.205  44.410  1.00  0.00    +0.000 C 
ATOM     55  F7  UNL A   1      41.823  14.297  44.043  1.00  0.00    +0.000 F 
ENDBRANCH   44   45
BRANCH   61   62
ATOM     65  C44 UNL A   1      50.566  18.707  42.844  1.00  0.00    +0.000 C 
ATOM     66  F9  UNL A   1      51.877  18.601  43.101  1.00  0.00    +0.000 F 
ATOM     67  C45 UNL A   1      50.136  19.088  41.581  1.00  0.00    +0.000 C 
ATOM     68  F10 UNL A   1      51.032  19.344  40.617  1.00  0.00    +0.000 F 
ATOM     69  C46 UNL A   1      48.779  19.213  41.319  1.00  0.00    +0.000 C 
ATOM     70  F11 UNL A   1      48.365  19.586  40.101  1.00  0.00    +0.000 F 
ATOM     71  C47 UNL A   1      47.848  18.957  42.321  1.00  0.00    +0.000 C 
ATOM     72  F12 UNL A   1      46.543  19.093  42.047  1.00  0.00    +0.000 F 
ATOM     62  C42 UNL A   1      48.264  18.567  43.601  1.00  0.00    +0.000 C 
ATOM     63  C43 UNL A   1      49.638  18.443  43.847  1.00  0.00    +0.000 C 
ATOM     64  F8  UNL A   1      50.077  18.087  45.063  1.00  0.00    +0.000 F 
ENDBRANCH   61   62
BRANCH   76   77
ATOM     77  C51 UNL A   1      46.258  21.997  49.298  1.00  0.00    +0.000 C 
ATOM     78  C52 UNL A   1      45.571  23.185  49.018  1.00  0.00    +0.000 C 
ATOM     79  F13 UNL A   1      44.543  23.177  48.158  1.00  0.00    +0.000 F 
ATOM     80  C53 UNL A   1      45.954  24.387  49.606  1.00  0.00    +0.000 C 
ATOM     81  F14 UNL A   1      45.294  25.516  49.311  1.00  0.00    +0.000 F 
ATOM     82  C54 UNL A   1      47.024  24.420  50.489  1.00  0.00    +0.000 C 
ATOM     83  F15 UNL A   1      47.391  25.577  51.055  1.00  0.00    +0.000 F 
ATOM     84  C55 UNL A   1      47.716  23.253  50.780  1.00  0.00    +0.000 C 
ATOM     85  F16 UNL A   1      48.748  23.282  51.634  1.00  0.00    +0.000 F 
ATOM     86  C56 UNL A   1      47.339  22.052  50.187  1.00  0.00    +0.000 C 
ATOM     87  F17 UNL A   1      48.025  20.936  50.478  1.00  0.00    +0.000 F 
ENDBRANCH   76   77
TORSDOF 21
ENDMDL
MODEL 8
REMARK VINA RESULT:     -10.6      1.440      2.563
ROOT
ATOM    129  H31 UNL A   1      38.346  34.415  35.998  1.00  0.00    +0.000 H 
ATOM    130  H32 UNL A   1      37.031  34.323  33.824  1.00  0.00    +0.000 H 
ATOM    131  H33 UNL A   1      40.050  31.471  33.608  1.00  0.00    +0.000 H 
ATOM    132  H34 UNL A   1      42.479  31.726  38.019  1.00  0.00    +0.000 H 
ATOM    133  H35 UNL A   1      43.992  29.844  37.163  1.00  0.00    +0.000 H 
ATOM    134  H36 UNL A   1      38.806  29.500  28.565  1.00  0.00    +0.000 H 
ATOM    135  H37 UNL A   1      37.387  31.492  29.326  1.00  0.00    +0.000 H 
ATOM     40  C27 UNL A   1      37.974  32.373  31.970  1.00  0.00    +0.000 C 
ATOM     41  C28 UNL A   1      38.651  31.279  31.198  1.00  0.00    +0.000 C 
ATOM     42  N5  UNL A   1      39.645  30.507  31.559  1.00  0.00    +0.000 N 
ATOM     43  C29 UNL A   1      39.860  29.644  30.494  1.00  0.00    +0.000 C 
ATOM     44  C30 UNL A   1      40.777  28.655  30.380  1.00  0.00    +0.000 C 
ATOM     56  C37 UNL A   1      41.763  28.326  31.374  1.00  0.00    +0.000 C 
ATOM     57  C38 UNL A   1      42.753  27.358  31.323  1.00  0.00    +0.000 C 
ATOM     58  C39 UNL A   1      43.476  27.408  32.522  1.00  0.00    +0.000 C 
ATOM     59  C40 UNL A   1      42.942  28.413  33.310  1.00  0.00    +0.000 C 
ATOM     60  N6  UNL A   1      41.892  28.966  32.596  1.00  0.00    +0.000 N 
ATOM     61  C41 UNL A   1      43.354  28.843  34.619  1.00  0.00    +0.000 C 
ATOM     73  C48 UNL A   1      42.771  29.836  35.330  1.00  0.00    +0.000 C 
ATOM     74  N7  UNL A   1      41.690  30.632  34.981  1.00  0.00    +0.000 N 
ATOM     75  C49 UNL A   1      41.495  31.435  35.997  1.00  0.00    +0.000 C 
ATOM     76  C50 UNL A   1      40.458  32.506  36.166  1.00  0.00    +0.000 C 
ATOM     88  C57 UNL A   1      39.588  32.764  35.173  1.00  0.00    +0.000 C 
ATOM     89  C58 UNL A   1      38.532  33.771  35.212  1.00  0.00    +0.000 C 
ATOM     90  C59 UNL A   1      37.840  33.727  34.061  1.00  0.00    +0.000 C 
ATOM     91  C60 UNL A   1      38.418  32.698  33.199  1.00  0.00    +0.000 C 
ATOM     92  N8  UNL A   1      39.456  32.185  33.936  1.00  0.00    +0.000 N 
ATOM     93  C61 UNL A   1      42.430  31.234  37.114  1.00  0.00    +0.000 C 
ATOM     94  C62 UNL A   1      43.196  30.255  36.649  1.00  0.00    +0.000 C 
ATOM     95  C63 UNL A   1      38.894  29.988  29.470  1.00  0.00    +0.000 C 
ATOM     96  C64 UNL A   1      38.138  31.011  29.847  1.00  0.00    +0.000 C 
ATOM    126  H28 UNL A   1      42.927  26.711  30.538  1.00  0.00    +0.000 H 
ATOM    127  H29 UNL A   1      44.272  26.799  32.774  1.00  0.00    +0.000 H 
ATOM    128  H30 UNL A   1      41.321  29.703  32.910  1.00  0.00    +0.000 H 
ENDROOT
BRANCH   40   39
ATOM     97  C65 UNL A   1      36.961  33.988  30.347  1.00  0.00    +0.000 C 
ATOM     98  C66 UNL A   1      35.855  34.645  29.802  1.00  0.00    +0.000 C 
ATOM     36  C23 UNL A   1      34.570  34.364  30.280  1.00  0.00    +0.000 C 
ATOM     37  C24 UNL A   1      34.405  33.483  31.354  1.00  0.00    +0.000 C 
ATOM     38  C25 UNL A   1      35.513  32.844  31.916  1.00  0.00    +0.000 C 
ATOM     39  C26 UNL A   1      36.799  33.080  31.406  1.00  0.00    +0.000 C 
ATOM    136  H38 UNL A   1      37.904  34.170  29.970  1.00  0.00    +0.000 H 
ATOM    137  H39 UNL A   1      35.986  35.338  29.049  1.00  0.00    +0.000 H 
ATOM    124  H26 UNL A   1      33.461  33.304  31.732  1.00  0.00    +0.000 H 
ATOM    125  H27 UNL A   1      35.385  32.197  32.709  1.00  0.00    +0.000 H 
BRANCH   36   34
ATOM     34  C22 UNL A   1      33.366  35.029  29.732  1.00  0.00    +0.000 C 
ATOM     35  O6  UNL A   1      32.716  35.779  30.456  1.00  0.00    +0.000 O 
BRANCH   34   33
ATOM     33  N4  UNL A   1      32.952  34.802  28.443  1.00  0.00    +0.000 N 
ATOM    123  H25 UNL A   1      32.795  35.614  27.909  1.00  0.00    +0.000 H 
BRANCH   33   32
ATOM    121  H23 UNL A   1      31.969  32.999  28.282  1.00  0.00    +0.000 H 
ATOM    122  H24 UNL A   1      32.382  33.796  26.755  1.00  0.00    +0.000 H 
ATOM     32  C21 UNL A   1      32.709  33.553  27.744  1.00  0.00    +0.000 C 
BRANCH   32   31
ATOM    119  H21 UNL A   1      34.223  32.645  26.577  1.00  0.00    +0.000 H 
ATOM     31  C20 UNL A   1      33.967  32.691  27.614  1.00  0.00    +0.000 C 
ATOM    120  H22 UNL A   1      34.698  33.166  28.235  1.00  0.00    +0.000 H 
BRANCH   31   30
ATOM    118  H20 UNL A   1      33.256  30.731  27.430  1.00  0.00    +0.000 H 
ATOM    117  H19 UNL A   1      33.476  31.285  29.127  1.00  0.00    +0.000 H 
ATOM     30  C19 UNL A   1      33.873  31.248  28.134  1.00  0.00    +0.000 C 
BRANCH   30   29
ATOM    115  H17 UNL A   1      35.994  31.148  28.079  1.00  0.00    +0.000 H 
ATOM    116  H18 UNL A   1      35.187  29.941  29.123  1.00  0.00    +0.000 H 
ATOM     29  C18 UNL A   1      35.183  30.457  28.185  1.00  0.00    +0.000 C 
BRANCH   29   28
ATOM    113  H15 UNL A   1      36.092  29.698  26.425  1.00  0.00    +0.000 H 
ATOM    114  H16 UNL A   1      35.561  28.473  27.612  1.00  0.00    +0.000 H 
ATOM     28  C17 UNL A   1      35.327  29.385  27.104  1.00  0.00    +0.000 C 
BRANCH   28   27
ATOM     27  C16 UNL A   1      34.051  29.113  26.293  1.00  0.00    +0.000 C 
ATOM    111  H13 UNL A   1      33.193  29.380  26.874  1.00  0.00    +0.000 H 
ATOM    112  H14 UNL A   1      34.063  29.694  25.395  1.00  0.00    +0.000 H 
BRANCH   27   26
ATOM     26  N3  UNL A   1      33.992  27.697  25.959  1.00  0.00    +0.000 N 
ATOM    110  H12 UNL A   1      34.870  27.274  25.819  1.00  0.00    +0.000 H 
BRANCH   26   24
ATOM     25  O5  UNL A   1      32.312  26.461  26.798  1.00  0.00    +0.000 O 
ATOM     24  C15 UNL A   1      32.926  26.851  25.806  1.00  0.00    +0.000 C 
BRANCH   24   23
ATOM    103  H5  UNL A   1      31.185  26.471  21.484  1.00  0.00    +0.000 H 
ATOM      8  C3  UNL A   1      31.924  26.797  23.442  1.00  0.00    +0.000 C 
ATOM      9  C4  UNL A   1      31.592  26.019  22.319  1.00  0.00    +0.000 C 
ATOM     10  C5  UNL A   1      31.807  24.638  22.324  1.00  0.00    +0.000 C 
ATOM    104  H6  UNL A   1      31.539  24.074  21.503  1.00  0.00    +0.000 H 
ATOM     11  C6  UNL A   1      32.383  24.015  23.438  1.00  0.00    +0.000 C 
ATOM    109  H11 UNL A   1      33.319  24.384  25.288  1.00  0.00    +0.000 H 
ATOM     22  C13 UNL A   1      32.820  24.822  24.498  1.00  0.00    +0.000 C 
ATOM     23  C14 UNL A   1      32.596  26.214  24.516  1.00  0.00    +0.000 C 
BRANCH    8    5
ATOM      5  S1  UNL A   1      31.297  28.445  23.508  1.00  0.00    +0.000 S 
ATOM      6  O2  UNL A   1      32.267  29.281  22.834  1.00  0.00    +0.000 O 
ATOM      7  O3  UNL A   1      30.827  28.745  24.838  1.00  0.00    +0.000 O 
BRANCH    5    4
ATOM      4  N1  UNL A   1      29.964  28.413  22.521  1.00  0.00    +0.000 N 
ATOM    102  H4  UNL A   1      30.107  28.057  21.615  1.00  0.00    +0.000 H 
BRANCH    4    2
ATOM      2  C2  UNL A   1      28.659  28.829  22.819  1.00  0.00    +0.000 C 
ATOM      3  O1  UNL A   1      27.856  27.989  23.205  1.00  0.00    +0.000 O 
BRANCH    2    1
ATOM      1  C1  UNL A   1      28.334  30.295  22.808  1.00  0.00    +0.000 C 
ATOM     99  H1  UNL A   1      29.242  30.862  22.814  1.00  0.00    +0.000 H 
ATOM    100  H2  UNL A   1      27.757  30.539  23.675  1.00  0.00    +0.000 H 
ATOM    101  H3  UNL A   1      27.773  30.530  21.928  1.00  0.00    +0.000 H 
ENDBRANCH    2    1
ENDBRANCH    4    2
ENDBRANCH    5    4
ENDBRANCH    8    5
BRANCH   11   12
ATOM    105  H7  UNL A   1      31.860  22.081  21.533  1.00  0.00    +0.000 H 
ATOM    106  H8  UNL A   1      32.017  19.743  21.735  1.00  0.00    +0.000 H 
ATOM    108  H10 UNL A   1      32.876  22.572  25.575  1.00  0.00    +0.000 H 
ATOM     12  C7  UNL A   1      32.385  22.538  23.578  1.00  0.00    +0.000 C 
ATOM     13  C8  UNL A   1      32.120  21.666  22.441  1.00  0.00    +0.000 C 
ATOM     14  C9  UNL A   1      32.207  20.337  22.556  1.00  0.00    +0.000 C 
ATOM     15  N2  UNL A   1      32.547  19.749  23.757  1.00  0.00    +0.000 N 
ATOM     19  C11 UNL A   1      32.816  20.489  24.896  1.00  0.00    +0.000 C 
ATOM     20  O4  UNL A   1      33.147  20.032  25.985  1.00  0.00    +0.000 O 
ATOM     21  C12 UNL A   1      32.704  21.971  24.754  1.00  0.00    +0.000 C 
BRANCH   15   16
ATOM     17  F1  UNL A   1      32.018  17.697  22.855  1.00  0.00    +0.000 F 
ATOM     18  F2  UNL A   1      33.996  17.950  23.770  1.00  0.00    +0.000 F 
ATOM    107  H9  UNL A   1      32.298  18.028  24.802  1.00  0.00    +0.000 H 
ATOM     16  C10 UNL A   1      32.695  18.318  23.851  1.00  0.00    +0.000 C 
ENDBRANCH   15   16
ENDBRANCH   11   12
ENDBRANCH   24   23
ENDBRANCH   26   24
ENDBRANCH   27   26
ENDBRANCH   28   27
ENDBRANCH   29   28
ENDBRANCH   30   29
ENDBRANCH   31   30
ENDBRANCH   32   31
ENDBRANCH   33   32
ENDBRANCH   34   33
ENDBRANCH   36   34
ENDBRANCH   40   39
BRANCH   44   45
ATOM     45  C31 UNL A   1      40.748  27.839  29.127  1.00  0.00    +0.000 C 
ATOM     46  C32 UNL A   1      39.860  26.766  28.979  1.00  0.00    +0.000 C 
ATOM     47  F3  UNL A   1      39.045  26.421  29.986  1.00  0.00    +0.000 F 
ATOM     48  C33 UNL A   1      39.824  26.032  27.797  1.00  0.00    +0.000 C 
ATOM     49  F4  UNL A   1      38.981  24.997  27.679  1.00  0.00    +0.000 F 
ATOM     50  C34 UNL A   1      40.662  26.366  26.743  1.00  0.00    +0.000 C 
ATOM     51  F5  UNL A   1      40.625  25.660  25.605  1.00  0.00    +0.000 F 
ATOM     52  C35 UNL A   1      41.544  27.430  26.871  1.00  0.00    +0.000 C 
ATOM     53  F6  UNL A   1      42.355  27.753  25.852  1.00  0.00    +0.000 F 
ATOM     54  C36 UNL A   1      41.591  28.160  28.054  1.00  0.00    +0.000 C 
ATOM     55  F7  UNL A   1      42.456  29.180  28.155  1.00  0.00    +0.000 F 
ENDBRANCH   44   45
BRANCH   61   62
ATOM     65  C44 UNL A   1      45.429  26.340  36.587  1.00  0.00    +0.000 C 
ATOM     66  F9  UNL A   1      45.237  25.250  37.343  1.00  0.00    +0.000 F 
ATOM     67  C45 UNL A   1      46.715  26.818  36.375  1.00  0.00    +0.000 C 
ATOM     68  F10 UNL A   1      47.764  26.185  36.919  1.00  0.00    +0.000 F 
ATOM     69  C46 UNL A   1      46.913  27.955  35.606  1.00  0.00    +0.000 C 
ATOM     70  F11 UNL A   1      48.154  28.419  35.405  1.00  0.00    +0.000 F 
ATOM     71  C47 UNL A   1      45.825  28.619  35.048  1.00  0.00    +0.000 C 
ATOM     72  F12 UNL A   1      46.040  29.722  34.316  1.00  0.00    +0.000 F 
ATOM     62  C42 UNL A   1      44.520  28.149  35.248  1.00  0.00    +0.000 C 
ATOM     63  C43 UNL A   1      44.339  26.996  36.026  1.00  0.00    +0.000 C 
ATOM     64  F8  UNL A   1      43.105  26.523  36.253  1.00  0.00    +0.000 F 
ENDBRANCH   61   62
BRANCH   76   77
ATOM     77  C51 UNL A   1      40.388  33.294  37.416  1.00  0.00    +0.000 C 
ATOM     78  C52 UNL A   1      41.299  34.330  37.661  1.00  0.00    +0.000 C 
ATOM     79  F13 UNL A   1      42.267  34.593  36.772  1.00  0.00    +0.000 F 
ATOM     80  C53 UNL A   1      41.228  35.081  38.830  1.00  0.00    +0.000 C 
ATOM     81  F14 UNL A   1      42.120  36.057  39.053  1.00  0.00    +0.000 F 
ATOM     82  C54 UNL A   1      40.242  34.817  39.769  1.00  0.00    +0.000 C 
ATOM     83  F15 UNL A   1      40.173  35.542  40.894  1.00  0.00    +0.000 F 
ATOM     84  C55 UNL A   1      39.329  33.796  39.544  1.00  0.00    +0.000 C 
ATOM     85  F16 UNL A   1      38.374  33.540  40.448  1.00  0.00    +0.000 F 
ATOM     86  C56 UNL A   1      39.403  33.037  38.379  1.00  0.00    +0.000 C 
ATOM     87  F17 UNL A   1      38.515  32.052  38.184  1.00  0.00    +0.000 F 
ENDBRANCH   76   77
TORSDOF 21
ENDMDL
MODEL 9
REMARK VINA RESULT:     -10.5     38.071     42.989
ROOT
ATOM    129  H31 UNL A   1      11.752  50.156   6.295  1.00  0.00    +0.000 H 
ATOM    130  H32 UNL A   1      12.130  52.619   6.797  1.00  0.00    +0.000 H 
ATOM    131  H33 UNL A   1      14.490  51.610   3.526  1.00  0.00    +0.000 H 
ATOM    132  H34 UNL A   1      13.542  46.742   2.616  1.00  0.00    +0.000 H 
ATOM    133  H35 UNL A   1      15.188  46.907   0.659  1.00  0.00    +0.000 H 
ATOM    134  H36 UNL A   1      16.695  56.636   2.662  1.00  0.00    +0.000 H 
ATOM    135  H37 UNL A   1      15.185  56.458   4.724  1.00  0.00    +0.000 H 
ATOM     40  C27 UNL A   1      13.974  53.900   5.040  1.00  0.00    +0.000 C 
ATOM     41  C28 UNL A   1      14.952  54.327   3.984  1.00  0.00    +0.000 C 
ATOM     42  N5  UNL A   1      15.458  53.630   2.998  1.00  0.00    +0.000 N 
ATOM     43  C29 UNL A   1      16.275  54.505   2.297  1.00  0.00    +0.000 C 
ATOM     44  C30 UNL A   1      17.018  54.264   1.192  1.00  0.00    +0.000 C 
ATOM     56  C37 UNL A   1      17.129  52.990   0.533  1.00  0.00    +0.000 C 
ATOM     57  C38 UNL A   1      17.889  52.651  -0.575  1.00  0.00    +0.000 C 
ATOM     58  C39 UNL A   1      17.679  51.295  -0.852  1.00  0.00    +0.000 C 
ATOM     59  C40 UNL A   1      16.799  50.790   0.089  1.00  0.00    +0.000 C 
ATOM     60  N6  UNL A   1      16.468  51.839   0.931  1.00  0.00    +0.000 N 
ATOM     61  C41 UNL A   1      16.292  49.450   0.219  1.00  0.00    +0.000 C 
ATOM     73  C48 UNL A   1      15.422  49.037   1.170  1.00  0.00    +0.000 C 
ATOM     74  N7  UNL A   1      14.843  49.771   2.193  1.00  0.00    +0.000 N 
ATOM     75  C49 UNL A   1      14.070  48.936   2.840  1.00  0.00    +0.000 C 
ATOM     76  C50 UNL A   1      13.202  49.190   4.037  1.00  0.00    +0.000 C 
ATOM     88  C57 UNL A   1      13.178  50.409   4.606  1.00  0.00    +0.000 C 
ATOM     89  C58 UNL A   1      12.376  50.787   5.766  1.00  0.00    +0.000 C 
ATOM     90  C59 UNL A   1      12.579  52.087   6.035  1.00  0.00    +0.000 C 
ATOM     91  C60 UNL A   1      13.540  52.627   5.074  1.00  0.00    +0.000 C 
ATOM     92  N8  UNL A   1      13.849  51.558   4.270  1.00  0.00    +0.000 N 
ATOM     93  C61 UNL A   1      14.067  47.571   2.295  1.00  0.00    +0.000 C 
ATOM     94  C62 UNL A   1      14.919  47.684   1.284  1.00  0.00    +0.000 C 
ATOM     95  C63 UNL A   1      16.200  55.786   2.971  1.00  0.00    +0.000 C 
ATOM     96  C64 UNL A   1      15.413  55.721   4.037  1.00  0.00    +0.000 C 
ATOM    126  H28 UNL A   1      18.503  53.289  -1.105  1.00  0.00    +0.000 H 
ATOM    127  H29 UNL A   1      18.108  50.762  -1.626  1.00  0.00    +0.000 H 
ATOM    128  H30 UNL A   1      15.853  51.778   1.697  1.00  0.00    +0.000 H 
ENDROOT
BRANCH   40   39
ATOM     97  C65 UNL A   1      12.272  55.586   5.768  1.00  0.00    +0.000 C 
ATOM     98  C66 UNL A   1      11.772  56.496   6.704  1.00  0.00    +0.000 C 
ATOM     36  C23 UNL A   1      12.427  56.670   7.928  1.00  0.00    +0.000 C 
ATOM     37  C24 UNL A   1      13.622  55.990   8.181  1.00  0.00    +0.000 C 
ATOM     38  C25 UNL A   1      14.136  55.098   7.236  1.00  0.00    +0.000 C 
ATOM     39  C26 UNL A   1      13.457  54.877   6.029  1.00  0.00    +0.000 C 
ATOM    136  H38 UNL A   1      11.769  55.432   4.881  1.00  0.00    +0.000 H 
ATOM    137  H39 UNL A   1      10.921  57.040   6.491  1.00  0.00    +0.000 H 
ATOM    124  H26 UNL A   1      14.126  56.146   9.067  1.00  0.00    +0.000 H 
ATOM    125  H27 UNL A   1      15.020  54.600   7.426  1.00  0.00    +0.000 H 
BRANCH   36   34
ATOM     34  C22 UNL A   1      11.933  57.617   8.954  1.00  0.00    +0.000 C 
ATOM     35  O6  UNL A   1      11.909  58.818   8.696  1.00  0.00    +0.000 O 
BRANCH   34   33
ATOM     33  N4  UNL A   1      11.529  57.180  10.191  1.00  0.00    +0.000 N 
ATOM    123  H25 UNL A   1      11.637  57.835  10.917  1.00  0.00    +0.000 H 
BRANCH   33   32
ATOM    121  H23 UNL A   1      10.303  56.070  11.418  1.00  0.00    +0.000 H 
ATOM    122  H24 UNL A   1      10.458  55.493   9.751  1.00  0.00    +0.000 H 
ATOM     32  C21 UNL A   1      10.967  55.905  10.596  1.00  0.00    +0.000 C 
BRANCH   32   31
ATOM    119  H21 UNL A   1      12.055  54.114  10.297  1.00  0.00    +0.000 H 
ATOM     31  C20 UNL A   1      12.035  54.896  11.027  1.00  0.00    +0.000 C 
ATOM    120  H22 UNL A   1      12.940  55.461  11.103  1.00  0.00    +0.000 H 
BRANCH   31   30
ATOM    118  H20 UNL A   1      11.603  53.220  12.204  1.00  0.00    +0.000 H 
ATOM    117  H19 UNL A   1      11.094  54.787  12.927  1.00  0.00    +0.000 H 
ATOM     30  C19 UNL A   1      11.851  54.241  12.405  1.00  0.00    +0.000 C 
BRANCH   30   29
ATOM    115  H17 UNL A   1      13.846  54.807  12.865  1.00  0.00    +0.000 H 
ATOM    116  H18 UNL A   1      12.776  54.527  14.269  1.00  0.00    +0.000 H 
ATOM     29  C18 UNL A   1      13.090  54.189  13.304  1.00  0.00    +0.000 C 
BRANCH   29   28
ATOM    113  H15 UNL A   1      13.533  52.515  14.531  1.00  0.00    +0.000 H 
ATOM    114  H16 UNL A   1      13.168  52.147  12.820  1.00  0.00    +0.000 H 
ATOM     28  C17 UNL A   1      13.677  52.791  13.507  1.00  0.00    +0.000 C 
BRANCH   28   27
ATOM     27  C16 UNL A   1      15.175  52.669  13.187  1.00  0.00    +0.000 C 
ATOM    111  H13 UNL A   1      15.574  53.637  12.966  1.00  0.00    +0.000 H 
ATOM    112  H14 UNL A   1      15.691  52.259  14.029  1.00  0.00    +0.000 H 
BRANCH   27   26
ATOM     26  N3  UNL A   1      15.345  51.797  12.033  1.00  0.00    +0.000 N 
ATOM    110  H12 UNL A   1      15.938  51.027  12.189  1.00  0.00    +0.000 H 
BRANCH   26   24
ATOM     25  O5  UNL A   1      14.941  52.899  10.117  1.00  0.00    +0.000 O 
ATOM     24  C15 UNL A   1      14.824  51.863  10.769  1.00  0.00    +0.000 C 
BRANCH   24   23
ATOM    103  H5  UNL A   1      13.648  47.801   8.778  1.00  0.00    +0.000 H 
ATOM      8  C3  UNL A   1      14.335  49.593   9.673  1.00  0.00    +0.000 C 
ATOM      9  C4  UNL A   1      13.375  48.746   9.090  1.00  0.00    +0.000 C 
ATOM     10  C5  UNL A   1      12.055  49.178   8.927  1.00  0.00    +0.000 C 
ATOM    104  H6  UNL A   1      11.365  48.556   8.477  1.00  0.00    +0.000 H 
ATOM     11  C6  UNL A   1      11.665  50.446   9.369  1.00  0.00    +0.000 C 
ATOM    109  H11 UNL A   1      12.305  52.130  10.460  1.00  0.00    +0.000 H 
ATOM     22  C13 UNL A   1      12.603  51.228  10.058  1.00  0.00    +0.000 C 
ATOM     23  C14 UNL A   1      13.943  50.815  10.217  1.00  0.00    +0.000 C 
BRANCH    8    5
ATOM      5  S1  UNL A   1      16.031  49.135   9.515  1.00  0.00    +0.000 S 
ATOM      6  O2  UNL A   1      16.182  47.871  10.204  1.00  0.00    +0.000 O 
ATOM      7  O3  UNL A   1      16.880  50.264   9.803  1.00  0.00    +0.000 O 
BRANCH    5    4
ATOM      4  N1  UNL A   1      16.212  48.794   7.901  1.00  0.00    +0.000 N 
ATOM    102  H4  UNL A   1      16.166  47.842   7.654  1.00  0.00    +0.000 H 
BRANCH    4    2
ATOM      2  C2  UNL A   1      16.421  49.694   6.847  1.00  0.00    +0.000 C 
ATOM      3  O1  UNL A   1      16.746  49.243   5.756  1.00  0.00    +0.000 O 
BRANCH    2    1
ATOM      1  C1  UNL A   1      16.092  51.146   7.043  1.00  0.00    +0.000 C 
ATOM     99  H1  UNL A   1      16.950  51.659   7.424  1.00  0.00    +0.000 H 
ATOM    100  H2  UNL A   1      15.284  51.238   7.738  1.00  0.00    +0.000 H 
ATOM    101  H3  UNL A   1      15.807  51.577   6.105  1.00  0.00    +0.000 H 
ENDBRANCH    2    1
ENDBRANCH    4    2
ENDBRANCH    5    4
ENDBRANCH    8    5
BRANCH   11   12
ATOM    105  H7  UNL A   1      10.619  52.938   9.955  1.00  0.00    +0.000 H 
ATOM    106  H8  UNL A   1       8.606  53.897   9.206  1.00  0.00    +0.000 H 
ATOM    108  H10 UNL A   1       9.740  49.353   7.957  1.00  0.00    +0.000 H 
ATOM     12  C7  UNL A   1      10.356  51.027   8.982  1.00  0.00    +0.000 C 
ATOM     13  C8  UNL A   1       9.986  52.386   9.354  1.00  0.00    +0.000 C 
ATOM     14  C9  UNL A   1       8.842  52.931   8.931  1.00  0.00    +0.000 C 
ATOM     15  N2  UNL A   1       7.971  52.221   8.130  1.00  0.00    +0.000 N 
ATOM     19  C11 UNL A   1       8.228  50.922   7.724  1.00  0.00    +0.000 C 
ATOM     20  O4  UNL A   1       7.510  50.245   6.995  1.00  0.00    +0.000 O 
ATOM     21  C12 UNL A   1       9.505  50.324   8.214  1.00  0.00    +0.000 C 
BRANCH   15   16
ATOM     17  F1  UNL A   1       6.402  53.882   8.419  1.00  0.00    +0.000 F 
ATOM     18  F2  UNL A   1       6.937  53.305   6.372  1.00  0.00    +0.000 F 
ATOM    107  H9  UNL A   1       6.007  52.089   7.640  1.00  0.00    +0.000 H 
ATOM     16  C10 UNL A   1       6.768  52.841   7.633  1.00  0.00    +0.000 C 
ENDBRANCH   15   16
ENDBRANCH   11   12
ENDBRANCH   24   23
ENDBRANCH   26   24
ENDBRANCH   27   26
ENDBRANCH   28   27
ENDBRANCH   29   28
ENDBRANCH   30   29
ENDBRANCH   31   30
ENDBRANCH   32   31
ENDBRANCH   33   32
ENDBRANCH   34   33
ENDBRANCH   36   34
ENDBRANCH   40   39
BRANCH   44   45
ATOM     45  C31 UNL A   1      17.770  55.418   0.611  1.00  0.00    +0.000 C 
ATOM     46  C32 UNL A   1      17.241  56.173  -0.444  1.00  0.00    +0.000 C 
ATOM     47  F3  UNL A   1      16.061  55.840  -0.986  1.00  0.00    +0.000 F 
ATOM     48  C33 UNL A   1      17.939  57.263  -0.958  1.00  0.00    +0.000 C 
ATOM     49  F4  UNL A   1      17.427  57.963  -1.979  1.00  0.00    +0.000 F 
ATOM     50  C34 UNL A   1      19.166  57.622  -0.418  1.00  0.00    +0.000 C 
ATOM     51  F5  UNL A   1      19.835  58.672  -0.912  1.00  0.00    +0.000 F 
ATOM     52  C35 UNL A   1      19.702  56.889   0.631  1.00  0.00    +0.000 C 
ATOM     53  F6  UNL A   1      20.887  57.236   1.153  1.00  0.00    +0.000 F 
ATOM     54  C36 UNL A   1      19.013  55.793   1.141  1.00  0.00    +0.000 C 
ATOM     55  F7  UNL A   1      19.555  55.096   2.151  1.00  0.00    +0.000 F 
ENDBRANCH   44   45
BRANCH   61   62
ATOM     65  C44 UNL A   1      18.416  46.817  -1.513  1.00  0.00    +0.000 C 
ATOM     66  F9  UNL A   1      19.609  46.226  -1.357  1.00  0.00    +0.000 F 
ATOM     67  C45 UNL A   1      17.606  46.467  -2.584  1.00  0.00    +0.000 C 
ATOM     68  F10 UNL A   1      18.013  45.535  -3.457  1.00  0.00    +0.000 F 
ATOM     69  C46 UNL A   1      16.378  47.089  -2.756  1.00  0.00    +0.000 C 
ATOM     70  F11 UNL A   1      15.598  46.755  -3.792  1.00  0.00    +0.000 F 
ATOM     71  C47 UNL A   1      15.957  48.064  -1.856  1.00  0.00    +0.000 C 
ATOM     72  F12 UNL A   1      14.771  48.659  -2.047  1.00  0.00    +0.000 F 
ATOM     62  C42 UNL A   1      16.761  48.427  -0.767  1.00  0.00    +0.000 C 
ATOM     63  C43 UNL A   1      17.997  47.786  -0.608  1.00  0.00    +0.000 C 
ATOM     64  F8  UNL A   1      18.802  48.116   0.413  1.00  0.00    +0.000 F 
ENDBRANCH   61   62
BRANCH   76   77
ATOM     77  C51 UNL A   1      12.375  48.104   4.610  1.00  0.00    +0.000 C 
ATOM     78  C52 UNL A   1      11.090  47.847   4.115  1.00  0.00    +0.000 C 
ATOM     79  F13 UNL A   1      10.585  48.611   3.136  1.00  0.00    +0.000 F 
ATOM     80  C53 UNL A   1      10.314  46.819   4.643  1.00  0.00    +0.000 C 
ATOM     81  F14 UNL A   1       9.080  46.601   4.167  1.00  0.00    +0.000 F 
ATOM     82  C54 UNL A   1      10.813  46.026   5.666  1.00  0.00    +0.000 C 
ATOM     83  F15 UNL A   1      10.066  45.035   6.172  1.00  0.00    +0.000 F 
ATOM     84  C55 UNL A   1      12.085  46.263   6.168  1.00  0.00    +0.000 C 
ATOM     85  F16 UNL A   1      12.569  45.498   7.154  1.00  0.00    +0.000 F 
ATOM     86  C56 UNL A   1      12.858  47.297   5.647  1.00  0.00    +0.000 C 
ATOM     87  F17 UNL A   1      14.083  47.513   6.150  1.00  0.00    +0.000 F 
ENDBRANCH   76   77
TORSDOF 21
ENDMDL
MODEL 10
REMARK VINA RESULT:     -10.4     20.145     28.261
ROOT
ATOM    129  H31 UNL A   1      24.059  34.799  45.398  1.00  0.00    +0.000 H 
ATOM    130  H32 UNL A   1      25.689  36.749  45.408  1.00  0.00    +0.000 H 
ATOM    131  H33 UNL A   1      22.217  37.983  47.334  1.00  0.00    +0.000 H 
ATOM    132  H34 UNL A   1      19.152  33.979  47.308  1.00  0.00    +0.000 H 
ATOM    133  H35 UNL A   1      17.448  35.420  48.566  1.00  0.00    +0.000 H 
ATOM    134  H36 UNL A   1      23.887  43.133  48.583  1.00  0.00    +0.000 H 
ATOM    135  H37 UNL A   1      25.541  41.770  47.180  1.00  0.00    +0.000 H 
ATOM     40  C27 UNL A   1      24.696  39.096  46.687  1.00  0.00    +0.000 C 
ATOM     41  C28 UNL A   1      23.948  40.174  47.416  1.00  0.00    +0.000 C 
ATOM     42  N5  UNL A   1      22.763  40.125  47.972  1.00  0.00    +0.000 N 
ATOM     43  C29 UNL A   1      22.562  41.373  48.542  1.00  0.00    +0.000 C 
ATOM     44  C30 UNL A   1      21.489  41.822  49.236  1.00  0.00    +0.000 C 
ATOM     56  C37 UNL A   1      20.294  41.063  49.489  1.00  0.00    +0.000 C 
ATOM     57  C38 UNL A   1      19.145  41.455  50.155  1.00  0.00    +0.000 C 
ATOM     58  C39 UNL A   1      18.247  40.380  50.151  1.00  0.00    +0.000 C 
ATOM     59  C40 UNL A   1      18.835  39.326  49.473  1.00  0.00    +0.000 C 
ATOM     60  N6  UNL A   1      20.090  39.756  49.075  1.00  0.00    +0.000 N 
ATOM     61  C41 UNL A   1      18.299  38.019  49.204  1.00  0.00    +0.000 C 
ATOM     73  C48 UNL A   1      18.946  37.035  48.536  1.00  0.00    +0.000 C 
ATOM     74  N7  UNL A   1      20.216  37.055  47.981  1.00  0.00    +0.000 N 
ATOM     75  C49 UNL A   1      20.395  35.871  47.454  1.00  0.00    +0.000 C 
ATOM     76  C50 UNL A   1      21.590  35.335  46.723  1.00  0.00    +0.000 C 
ATOM     88  C57 UNL A   1      22.658  36.124  46.509  1.00  0.00    +0.000 C 
ATOM     89  C58 UNL A   1      23.882  35.725  45.819  1.00  0.00    +0.000 C 
ATOM     90  C59 UNL A   1      24.742  36.758  45.819  1.00  0.00    +0.000 C 
ATOM     91  C60 UNL A   1      24.120  37.894  46.496  1.00  0.00    +0.000 C 
ATOM     92  N8  UNL A   1      22.881  37.431  46.863  1.00  0.00    +0.000 N 
ATOM     93  C61 UNL A   1      19.255  34.957  47.620  1.00  0.00    +0.000 C 
ATOM     94  C62 UNL A   1      18.392  35.722  48.277  1.00  0.00    +0.000 C 
ATOM     95  C63 UNL A   1      23.746  42.162  48.264  1.00  0.00    +0.000 C 
ATOM     96  C64 UNL A   1      24.624  41.472  47.548  1.00  0.00    +0.000 C 
ATOM    126  H28 UNL A   1      18.978  42.379  50.582  1.00  0.00    +0.000 H 
ATOM    127  H29 UNL A   1      17.308  40.374  50.580  1.00  0.00    +0.000 H 
ATOM    128  H30 UNL A   1      20.741  39.215  48.573  1.00  0.00    +0.000 H 
ENDROOT
BRANCH   40   39
ATOM     97  C65 UNL A   1      27.102  38.428  46.521  1.00  0.00    +0.000 C 
ATOM     98  C66 UNL A   1      28.403  38.637  46.052  1.00  0.00    +0.000 C 
ATOM     36  C23 UNL A   1      28.678  39.728  45.220  1.00  0.00    +0.000 C 
ATOM     37  C24 UNL A   1      27.667  40.648  44.921  1.00  0.00    +0.000 C 
ATOM     38  C25 UNL A   1      26.372  40.453  45.410  1.00  0.00    +0.000 C 
ATOM     39  C26 UNL A   1      26.077  39.332  46.200  1.00  0.00    +0.000 C 
ATOM    136  H38 UNL A   1      26.894  37.604  47.105  1.00  0.00    +0.000 H 
ATOM    137  H39 UNL A   1      29.159  37.989  46.321  1.00  0.00    +0.000 H 
ATOM    124  H26 UNL A   1      27.878  41.473  44.339  1.00  0.00    +0.000 H 
ATOM    125  H27 UNL A   1      25.631  41.136  45.188  1.00  0.00    +0.000 H 
BRANCH   36   34
ATOM     34  C22 UNL A   1      30.037  39.989  44.692  1.00  0.00    +0.000 C 
ATOM     35  O6  UNL A   1      30.298  39.674  43.534  1.00  0.00    +0.000 O 
BRANCH   34   33
ATOM     33  N4  UNL A   1      31.010  40.551  45.480  1.00  0.00    +0.000 N 
ATOM    123  H25 UNL A   1      31.920  40.512  45.105  1.00  0.00    +0.000 H 
BRANCH   33   32
ATOM    121  H23 UNL A   1      30.299  40.587  47.412  1.00  0.00    +0.000 H 
ATOM    122  H24 UNL A   1      31.903  41.297  47.163  1.00  0.00    +0.000 H 
ATOM     32  C21 UNL A   1      30.911  41.193  46.777  1.00  0.00    +0.000 C 
BRANCH   32   31
ATOM    119  H21 UNL A   1      30.978  43.271  47.171  1.00  0.00    +0.000 H 
ATOM     31  C20 UNL A   1      30.297  42.593  46.701  1.00  0.00    +0.000 C 
ATOM    120  H22 UNL A   1      30.134  42.772  45.658  1.00  0.00    +0.000 H 
BRANCH   31   30
ATOM    118  H20 UNL A   1      28.243  42.199  46.776  1.00  0.00    +0.000 H 
ATOM    117  H19 UNL A   1      28.709  43.831  47.374  1.00  0.00    +0.000 H 
ATOM     30  C19 UNL A   1      28.922  42.782  47.361  1.00  0.00    +0.000 C 
BRANCH   30   29
ATOM    115  H17 UNL A   1      29.751  41.997  49.151  1.00  0.00    +0.000 H 
ATOM    116  H18 UNL A   1      28.318  43.045  49.355  1.00  0.00    +0.000 H 
ATOM     29  C18 UNL A   1      28.777  42.259  48.793  1.00  0.00    +0.000 C 
BRANCH   29   28
ATOM    113  H15 UNL A   1      27.197  41.019  48.109  1.00  0.00    +0.000 H 
ATOM    114  H16 UNL A   1      28.516  40.184  48.979  1.00  0.00    +0.000 H 
ATOM     28  C17 UNL A   1      27.870  41.037  48.940  1.00  0.00    +0.000 C 
BRANCH   28   27
ATOM     27  C16 UNL A   1      27.036  41.006  50.230  1.00  0.00    +0.000 C 
ATOM    111  H13 UNL A   1      27.688  41.018  51.079  1.00  0.00    +0.000 H 
ATOM    112  H14 UNL A   1      26.396  41.863  50.266  1.00  0.00    +0.000 H 
BRANCH   27   26
ATOM     26  N3  UNL A   1      26.233  39.792  50.249  1.00  0.00    +0.000 N 
ATOM    110  H12 UNL A   1      25.334  39.893  49.860  1.00  0.00    +0.000 H 
BRANCH   26   24
ATOM     25  O5  UNL A   1      27.322  38.390  51.627  1.00  0.00    +0.000 O 
ATOM     24  C15 UNL A   1      26.511  38.535  50.714  1.00  0.00    +0.000 C 
BRANCH   24   23
ATOM    103  H5  UNL A   1      23.711  34.910  49.781  1.00  0.00    +0.000 H 
ATOM      8  C3  UNL A   1      24.873  36.596  50.317  1.00  0.00    +0.000 C 
ATOM      9  C4  UNL A   1      24.616  35.388  49.647  1.00  0.00    +0.000 C 
ATOM     10  C5  UNL A   1      25.578  34.828  48.801  1.00  0.00    +0.000 C 
ATOM    104  H6  UNL A   1      25.387  33.929  48.332  1.00  0.00    +0.000 H 
ATOM     11  C6  UNL A   1      26.798  35.478  48.588  1.00  0.00    +0.000 C 
ATOM    109  H11 UNL A   1      27.850  37.267  48.951  1.00  0.00    +0.000 H 
ATOM     22  C13 UNL A   1      26.988  36.741  49.166  1.00  0.00    +0.000 C 
ATOM     23  C14 UNL A   1      26.036  37.313  50.035  1.00  0.00    +0.000 C 
BRANCH    8    5
ATOM      5  S1  UNL A   1      23.785  37.049  51.630  1.00  0.00    +0.000 S 
ATOM      6  O2  UNL A   1      22.973  38.139  51.134  1.00  0.00    +0.000 O 
ATOM      7  O3  UNL A   1      24.516  37.149  52.869  1.00  0.00    +0.000 O 
BRANCH    5    4
ATOM      4  N1  UNL A   1      22.762  35.752  51.777  1.00  0.00    +0.000 N 
ATOM    102  H4  UNL A   1      23.137  34.954  52.216  1.00  0.00    +0.000 H 
BRANCH    4    2
ATOM      2  C2  UNL A   1      21.431  35.651  51.353  1.00  0.00    +0.000 C 
ATOM      3  O1  UNL A   1      21.134  34.745  50.584  1.00  0.00    +0.000 O 
BRANCH    2    1
ATOM      1  C1  UNL A   1      20.392  36.545  51.968  1.00  0.00    +0.000 C 
ATOM     99  H1  UNL A   1      20.742  37.556  51.958  1.00  0.00    +0.000 H 
ATOM    100  H2  UNL A   1      20.212  36.240  52.977  1.00  0.00    +0.000 H 
ATOM    101  H3  UNL A   1      19.484  36.476  51.406  1.00  0.00    +0.000 H 
ENDBRANCH    2    1
ENDBRANCH    4    2
ENDBRANCH    5    4
ENDBRANCH    8    5
BRANCH   11   12
ATOM    105  H7  UNL A   1      27.264  35.133  45.885  1.00  0.00    +0.000 H 
ATOM    106  H8  UNL A   1      29.136  34.178  44.828  1.00  0.00    +0.000 H 
ATOM    108  H10 UNL A   1      28.865  34.269  49.667  1.00  0.00    +0.000 H 
ATOM     12  C7  UNL A   1      27.928  34.793  47.912  1.00  0.00    +0.000 C 
ATOM     13  C8  UNL A   1      28.027  34.742  46.460  1.00  0.00    +0.000 C 
ATOM     14  C9  UNL A   1      29.089  34.198  45.859  1.00  0.00    +0.000 C 
ATOM     15  N2  UNL A   1      30.125  33.662  46.596  1.00  0.00    +0.000 N 
ATOM     19  C11 UNL A   1      30.126  33.659  47.981  1.00  0.00    +0.000 C 
ATOM     20  O4  UNL A   1      31.022  33.223  48.696  1.00  0.00    +0.000 O 
ATOM     21  C12 UNL A   1      28.927  34.261  48.637  1.00  0.00    +0.000 C 
BRANCH   15   16
ATOM     17  F1  UNL A   1      31.006  32.784  44.658  1.00  0.00    +0.000 F 
ATOM     18  F2  UNL A   1      32.299  34.036  45.911  1.00  0.00    +0.000 F 
ATOM    107  H9  UNL A   1      31.596  32.269  46.492  1.00  0.00    +0.000 H 
ATOM     16  C10 UNL A   1      31.292  33.131  45.936  1.00  0.00    +0.000 C 
ENDBRANCH   15   16
ENDBRANCH   11   12
ENDBRANCH   24   23
ENDBRANCH   26   24
ENDBRANCH   27   26
ENDBRANCH   28   27
ENDBRANCH   29   28
ENDBRANCH   30   29
ENDBRANCH   31   30
ENDBRANCH   32   31
ENDBRANCH   33   32
ENDBRANCH   34   33
ENDBRANCH   36   34
ENDBRANCH   40   39
BRANCH   44   45
ATOM     45  C31 UNL A   1      21.565  43.210  49.786  1.00  0.00    +0.000 C 
ATOM     46  C32 UNL A   1      21.129  44.312  49.039  1.00  0.00    +0.000 C 
ATOM     47  F3  UNL A   1      20.676  44.144  47.789  1.00  0.00    +0.000 F 
ATOM     48  C33 UNL A   1      21.179  45.597  49.574  1.00  0.00    +0.000 C 
ATOM     49  F4  UNL A   1      20.775  46.642  48.839  1.00  0.00    +0.000 F 
ATOM     50  C34 UNL A   1      21.650  45.797  50.863  1.00  0.00    +0.000 C 
ATOM     51  F5  UNL A   1      21.695  47.034  51.377  1.00  0.00    +0.000 F 
ATOM     52  C35 UNL A   1      22.080  44.716  51.619  1.00  0.00    +0.000 C 
ATOM     53  F6  UNL A   1      22.536  44.909  52.865  1.00  0.00    +0.000 F 
ATOM     54  C36 UNL A   1      22.042  43.431  51.085  1.00  0.00    +0.000 C 
ATOM     55  F7  UNL A   1      22.470  42.404  51.833  1.00  0.00    +0.000 F 
ENDBRANCH   44   45
BRANCH   61   62
ATOM     65  C44 UNL A   1      14.584  37.216  49.253  1.00  0.00    +0.000 C 
ATOM     66  F9  UNL A   1      13.580  37.054  48.381  1.00  0.00    +0.000 F 
ATOM     67  C45 UNL A   1      14.346  37.088  50.615  1.00  0.00    +0.000 C 
ATOM     68  F10 UNL A   1      13.114  36.794  51.055  1.00  0.00    +0.000 F 
ATOM     69  C46 UNL A   1      15.381  37.272  51.520  1.00  0.00    +0.000 C 
ATOM     70  F11 UNL A   1      15.151  37.152  52.834  1.00  0.00    +0.000 F 
ATOM     71  C47 UNL A   1      16.659  37.586  51.064  1.00  0.00    +0.000 C 
ATOM     72  F12 UNL A   1      17.642  37.768  51.958  1.00  0.00    +0.000 F 
ATOM     62  C42 UNL A   1      16.918  37.716  49.693  1.00  0.00    +0.000 C 
ATOM     63  C43 UNL A   1      15.860  37.523  48.794  1.00  0.00    +0.000 C 
ATOM     64  F8  UNL A   1      16.064  37.654  47.475  1.00  0.00    +0.000 F 
ENDBRANCH   61   62
BRANCH   76   77
ATOM     77  C51 UNL A   1      21.604  33.942  46.222  1.00  0.00    +0.000 C 
ATOM     78  C52 UNL A   1      21.125  33.638  44.942  1.00  0.00    +0.000 C 
ATOM     79  F13 UNL A   1      20.617  34.609  44.170  1.00  0.00    +0.000 F 
ATOM     80  C53 UNL A   1      21.148  32.332  44.462  1.00  0.00    +0.000 C 
ATOM     81  F14 UNL A   1      20.669  32.059  43.240  1.00  0.00    +0.000 F 
ATOM     82  C54 UNL A   1      21.657  31.310  45.251  1.00  0.00    +0.000 C 
ATOM     83  F15 UNL A   1      21.681  30.053  44.788  1.00  0.00    +0.000 F 
ATOM     84  C55 UNL A   1      22.139  31.592  46.522  1.00  0.00    +0.000 C 
ATOM     85  F16 UNL A   1      22.633  30.607  47.284  1.00  0.00    +0.000 F 
ATOM     86  C56 UNL A   1      22.109  32.896  47.006  1.00  0.00    +0.000 C 
ATOM     87  F17 UNL A   1      22.573  33.146  48.239  1.00  0.00    +0.000 F 
ENDBRANCH   76   77
TORSDOF 21
ENDMDL
