MODEL 1
REMARK VINA RESULT:      -7.3      0.000      0.000
ROOT
ATOM    142  H40 UNL A   1      18.314  53.209  -0.571  1.00  0.00    +0.000 H 
ATOM    143  H41 UNL A   1      17.887  50.716  -1.202  1.00  0.00    +0.000 H 
ATOM    144  H42 UNL A   1      15.506  51.661   2.052  1.00  0.00    +0.000 H 
ATOM    145  H43 UNL A   1      11.415  49.848   6.602  1.00  0.00    +0.000 H 
ATOM    146  H44 UNL A   1      11.789  52.295   7.174  1.00  0.00    +0.000 H 
ATOM    147  H45 UNL A   1      14.131  51.393   3.860  1.00  0.00    +0.000 H 
ATOM    148  H46 UNL A   1      13.163  46.585   2.751  1.00  0.00    +0.000 H 
ATOM    149  H47 UNL A   1      14.912  46.795   0.895  1.00  0.00    +0.000 H 
ATOM    150  H48 UNL A   1      16.165  56.526   3.065  1.00  0.00    +0.000 H 
ATOM    151  H49 UNL A   1      14.795  56.223   5.206  1.00  0.00    +0.000 H 
ATOM     38  C31 UNL A   1      13.648  53.627   5.473  1.00  0.00    +0.000 C 
ATOM     39  C32 UNL A   1      14.601  54.106   4.414  1.00  0.00    +0.000 C 
ATOM     40  N4  UNL A   1      15.112  53.451   3.401  1.00  0.00    +0.000 N 
ATOM     41  C33 UNL A   1      15.893  54.369   2.712  1.00  0.00    +0.000 C 
ATOM     42  C34 UNL A   1      16.675  54.166   1.625  1.00  0.00    +0.000 C 
ATOM     54  C41 UNL A   1      16.834  52.895   0.966  1.00  0.00    +0.000 C 
ATOM     55  C42 UNL A   1      17.655  52.571  -0.099  1.00  0.00    +0.000 C 
ATOM     56  C43 UNL A   1      17.437  51.227  -0.426  1.00  0.00    +0.000 C 
ATOM     57  C44 UNL A   1      16.517  50.702   0.465  1.00  0.00    +0.000 C 
ATOM     58  N5  UNL A   1      16.153  51.737   1.313  1.00  0.00    +0.000 N 
ATOM     59  C45 UNL A   1      16.006  49.357   0.541  1.00  0.00    +0.000 C 
ATOM     71  C52 UNL A   1      15.114  48.913   1.461  1.00  0.00    +0.000 C 
ATOM     72  N6  UNL A   1      14.510  49.613   2.497  1.00  0.00    +0.000 N 
ATOM     73  C53 UNL A   1      13.720  48.756   3.096  1.00  0.00    +0.000 C 
ATOM     74  C54 UNL A   1      12.839  48.957   4.299  1.00  0.00    +0.000 C 
ATOM     86  C61 UNL A   1      12.825  50.157   4.909  1.00  0.00    +0.000 C 
ATOM     87  C62 UNL A   1      12.033  50.496   6.088  1.00  0.00    +0.000 C 
ATOM     88  C63 UNL A   1      12.239  51.786   6.397  1.00  0.00    +0.000 C 
ATOM     89  C64 UNL A   1      13.204  52.356   5.456  1.00  0.00    +0.000 C 
ATOM     90  N7  UNL A   1      13.498  51.316   4.610  1.00  0.00    +0.000 N 
ATOM     91  C65 UNL A   1      13.716  47.416   2.491  1.00  0.00    +0.000 C 
ATOM     92  C66 UNL A   1      14.612  47.557   1.524  1.00  0.00    +0.000 C 
ATOM     93  C67 UNL A   1      15.750  55.639   3.392  1.00  0.00    +0.000 C 
ATOM     94  C68 UNL A   1      15.016  55.515   4.488  1.00  0.00    +0.000 C 
ENDROOT
BRANCH   38   37
ATOM     34  C27 UNL A   1      12.244  56.401   8.424  1.00  0.00    +0.000 C 
ATOM     35  C28 UNL A   1      11.511  56.213   7.248  1.00  0.00    +0.000 C 
ATOM     36  C29 UNL A   1      11.946  55.285   6.298  1.00  0.00    +0.000 C 
ATOM     37  C30 UNL A   1      13.135  54.566   6.502  1.00  0.00    +0.000 C 
ATOM    140  H38 UNL A   1      10.652  56.758   7.081  1.00  0.00    +0.000 H 
ATOM    141  H39 UNL A   1      11.392  55.128   5.442  1.00  0.00    +0.000 H 
ATOM    152  H50 UNL A   1      14.726  54.227   7.853  1.00  0.00    +0.000 H 
ATOM    153  H51 UNL A   1      13.864  55.696   9.579  1.00  0.00    +0.000 H 
ATOM     95  C69 UNL A   1      13.848  54.746   7.697  1.00  0.00    +0.000 C 
ATOM     96  C70 UNL A   1      13.377  55.622   8.672  1.00  0.00    +0.000 C 
BRANCH   34   32
ATOM     33  O4  UNL A   1      11.994  58.590   9.228  1.00  0.00    +0.000 O 
ATOM     32  C26 UNL A   1      11.767  57.397   9.410  1.00  0.00    +0.000 C 
BRANCH   32   31
ATOM    139  H37 UNL A   1      10.889  57.702  11.183  1.00  0.00    +0.000 H 
ATOM     31  N3  UNL A   1      11.069  56.996  10.521  1.00  0.00    +0.000 N 
BRANCH   31   30
ATOM    137  H35 UNL A   1       9.499  55.741  10.997  1.00  0.00    +0.000 H 
ATOM    138  H36 UNL A   1      10.808  55.009  10.066  1.00  0.00    +0.000 H 
ATOM     30  C25 UNL A   1      10.559  55.678  10.864  1.00  0.00    +0.000 C 
BRANCH   30   29
ATOM     29  C24 UNL A   1      11.186  55.136  12.147  1.00  0.00    +0.000 C 
ATOM    135  H33 UNL A   1      11.701  55.940  12.631  1.00  0.00    +0.000 H 
ATOM    136  H34 UNL A   1      10.381  54.738  12.730  1.00  0.00    +0.000 H 
BRANCH   29   28
ATOM     28  C23 UNL A   1      12.179  53.987  11.942  1.00  0.00    +0.000 C 
ATOM    133  H31 UNL A   1      11.847  53.157  12.530  1.00  0.00    +0.000 H 
ATOM    134  H32 UNL A   1      12.193  53.796  10.891  1.00  0.00    +0.000 H 
BRANCH   28   27
ATOM     27  C22 UNL A   1      13.632  54.290  12.333  1.00  0.00    +0.000 C 
ATOM    132  H30 UNL A   1      13.652  54.320  13.403  1.00  0.00    +0.000 H 
ATOM    131  H29 UNL A   1      13.911  55.217  11.876  1.00  0.00    +0.000 H 
BRANCH   27   26
ATOM    129  H27 UNL A   1      14.555  53.061  10.863  1.00  0.00    +0.000 H 
ATOM     26  C21 UNL A   1      14.654  53.228  11.916  1.00  0.00    +0.000 C 
ATOM    130  H28 UNL A   1      15.619  53.603  12.184  1.00  0.00    +0.000 H 
BRANCH   26   25
ATOM     25  C20 UNL A   1      14.483  51.887  12.635  1.00  0.00    +0.000 C 
ATOM    127  H25 UNL A   1      14.731  52.014  13.669  1.00  0.00    +0.000 H 
ATOM    128  H26 UNL A   1      13.467  51.574  12.518  1.00  0.00    +0.000 H 
BRANCH   25   24
ATOM    126  H24 UNL A   1      15.359  50.025  12.589  1.00  0.00    +0.000 H 
ATOM     24  N2  UNL A   1      15.337  50.862  12.072  1.00  0.00    +0.000 N 
BRANCH   24   22
ATOM     22  C19 UNL A   1      16.114  50.850  10.954  1.00  0.00    +0.000 C 
ATOM     23  O3  UNL A   1      17.321  51.055  11.127  1.00  0.00    +0.000 O 
BRANCH   22   20
ATOM    122  H20 UNL A   1      16.221  49.904   9.095  1.00  0.00    +0.000 H 
ATOM     20  C17 UNL A   1      15.571  50.632   9.533  1.00  0.00    +0.000 C 
BRANCH   20   19
ATOM     97  C71 UNL A   1      13.054  50.710   9.755  1.00  0.00    +0.000 C 
ATOM     98  C72 UNL A   1      11.770  50.134   9.670  1.00  0.00    +0.000 C 
ATOM     16  C13 UNL A   1      11.594  48.809   9.230  1.00  0.00    +0.000 C 
ATOM     17  C14 UNL A   1      12.762  48.056   9.022  1.00  0.00    +0.000 C 
ATOM     18  C15 UNL A   1      14.038  48.604   9.193  1.00  0.00    +0.000 C 
ATOM     19  C16 UNL A   1      14.208  49.956   9.495  1.00  0.00    +0.000 C 
ATOM    120  H18 UNL A   1      12.677  47.069   8.734  1.00  0.00    +0.000 H 
ATOM    121  H19 UNL A   1      14.867  47.998   9.094  1.00  0.00    +0.000 H 
ATOM    154  H52 UNL A   1      13.146  51.705  10.012  1.00  0.00    +0.000 H 
BRANCH   16   15
ATOM    102  C73 UNL A   1       9.310  48.874   8.180  1.00  0.00    +0.000 C 
ATOM     11  C8  UNL A   1       8.079  48.273   7.909  1.00  0.00    +0.000 C 
ATOM     12  C9  UNL A   1       7.795  46.982   8.344  1.00  0.00    +0.000 C 
ATOM     13  C10 UNL A   1       8.759  46.279   9.058  1.00  0.00    +0.000 C 
ATOM     14  C11 UNL A   1       9.985  46.882   9.356  1.00  0.00    +0.000 C 
ATOM     15  C12 UNL A   1      10.284  48.190   8.927  1.00  0.00    +0.000 C 
ATOM    117  H15 UNL A   1       6.880  46.552   8.140  1.00  0.00    +0.000 H 
ATOM    118  H16 UNL A   1       8.570  45.314   9.369  1.00  0.00    +0.000 H 
ATOM    119  H17 UNL A   1      10.687  46.357   9.900  1.00  0.00    +0.000 H 
ATOM    155  H53 UNL A   1       9.505  49.825   7.830  1.00  0.00    +0.000 H 
BRANCH   11   10
ATOM     10  O2  UNL A   1       7.017  48.990   7.331  1.00  0.00    +0.000 O 
BRANCH   10    8
ATOM      9  O1  UNL A   1       7.793  49.656   5.242  1.00  0.00    +0.000 O 
ATOM      8  C7  UNL A   1       6.950  49.126   5.953  1.00  0.00    +0.000 C 
BRANCH    8    7
ATOM    116  H14 UNL A   1       5.415  47.824   5.910  1.00  0.00    +0.000 H 
ATOM      7  N1  UNL A   1       5.811  48.583   5.423  1.00  0.00    +0.000 N 
BRANCH    7    6
ATOM    114  H12 UNL A   1       5.371  50.034   4.027  1.00  0.00    +0.000 H 
ATOM    115  H13 UNL A   1       5.453  48.380   3.414  1.00  0.00    +0.000 H 
ATOM      6  C6  UNL A   1       5.128  49.009   4.217  1.00  0.00    +0.000 C 
BRANCH    6    5
ATOM    113  H11 UNL A   1       3.295  49.640   5.013  1.00  0.00    +0.000 H 
ATOM      5  C5  UNL A   1       3.610  48.874   4.336  1.00  0.00    +0.000 C 
ATOM    112  H10 UNL A   1       3.390  47.886   4.680  1.00  0.00    +0.000 H 
BRANCH    5    4
ATOM      4  C4  UNL A   1       2.837  49.107   3.033  1.00  0.00    +0.000 C 
ATOM    110  H8  UNL A   1       2.534  50.132   3.008  1.00  0.00    +0.000 H 
ATOM    111  H9  UNL A   1       3.504  48.836   2.242  1.00  0.00    +0.000 H 
BRANCH    4    3
ATOM      3  C3  UNL A   1       1.587  48.241   2.843  1.00  0.00    +0.000 C 
ATOM    108  H6  UNL A   1       1.539  47.548   3.655  1.00  0.00    +0.000 H 
ATOM    109  H7  UNL A   1       0.761  48.920   2.806  1.00  0.00    +0.000 H 
BRANCH    3    2
ATOM      2  C2  UNL A   1       1.534  47.442   1.538  1.00  0.00    +0.000 C 
ATOM    107  H5  UNL A   1       2.543  47.222   1.259  1.00  0.00    +0.000 H 
ATOM    106  H4  UNL A   1       1.030  48.030   0.800  1.00  0.00    +0.000 H 
BRANCH    2    1
ATOM      1  C1  UNL A   1       0.805  46.114   1.675  1.00  0.00    +0.000 C 
ATOM    105  H3  UNL A   1       1.431  45.325   1.314  1.00  0.00    +0.000 H 
ATOM    103  H1  UNL A   1      -0.099  46.142   1.103  1.00  0.00    +0.000 H 
ATOM    104  H2  UNL A   1       0.570  45.940   2.705  1.00  0.00    +0.000 H 
ENDBRANCH    2    1
ENDBRANCH    3    2
ENDBRANCH    4    3
ENDBRANCH    5    4
ENDBRANCH    6    5
ENDBRANCH    7    6
ENDBRANCH    8    7
ENDBRANCH   10    8
ENDBRANCH   11   10
ENDBRANCH   16   15
BRANCH   98   99
ATOM     99  N8  UNL A   1      10.650  50.938  10.107  1.00  0.00    +0.000 N 
ATOM    100  O5  UNL A   1      10.055  50.666  11.130  1.00  0.00    +0.000 O 
ATOM    101  O6  UNL A   1      10.137  51.937   9.315  1.00  0.00    +0.000 O 
ENDBRANCH   98   99
ENDBRANCH   20   19
BRANCH   20   21
ATOM    125  H23 UNL A   1      16.532  51.633   7.906  1.00  0.00    +0.000 H 
ATOM    123  H21 UNL A   1      15.981  52.700   9.175  1.00  0.00    +0.000 H 
ATOM    124  H22 UNL A   1      14.831  51.998   8.063  1.00  0.00    +0.000 H 
ATOM     21  C18 UNL A   1      15.742  51.831   8.599  1.00  0.00    +0.000 C 
ENDBRANCH   20   21
ENDBRANCH   22   20
ENDBRANCH   24   22
ENDBRANCH   25   24
ENDBRANCH   26   25
ENDBRANCH   27   26
ENDBRANCH   28   27
ENDBRANCH   29   28
ENDBRANCH   30   29
ENDBRANCH   31   30
ENDBRANCH   32   31
ENDBRANCH   34   32
ENDBRANCH   38   37
BRANCH   42   43
ATOM     43  C35 UNL A   1      17.421  55.349   1.077  1.00  0.00    +0.000 C 
ATOM     44  C36 UNL A   1      16.875  56.163   0.073  1.00  0.00    +0.000 C 
ATOM     45  F1  UNL A   1      15.676  55.874  -0.453  1.00  0.00    +0.000 F 
ATOM     46  C37 UNL A   1      17.580  57.255  -0.427  1.00  0.00    +0.000 C 
ATOM     47  F2  UNL A   1      17.061  57.987  -1.423  1.00  0.00    +0.000 F 
ATOM     48  C38 UNL A   1      18.826  57.577   0.092  1.00  0.00    +0.000 C 
ATOM     49  F3  UNL A   1      19.500  58.630  -0.387  1.00  0.00    +0.000 F 
ATOM     50  C39 UNL A   1      19.373  56.801   1.103  1.00  0.00    +0.000 C 
ATOM     51  F4  UNL A   1      20.570  57.119   1.615  1.00  0.00    +0.000 F 
ATOM     52  C40 UNL A   1      18.684  55.691   1.584  1.00  0.00    +0.000 C 
ATOM     53  F5  UNL A   1      19.249  54.951   2.550  1.00  0.00    +0.000 F 
ENDBRANCH   42   43
BRANCH   59   60
ATOM     65  C49 UNL A   1      17.507  46.524  -2.340  1.00  0.00    +0.000 C 
ATOM     66  F8  UNL A   1      17.976  45.642  -3.232  1.00  0.00    +0.000 F 
ATOM     67  C50 UNL A   1      18.283  46.890  -1.250  1.00  0.00    +0.000 C 
ATOM     68  F9  UNL A   1      19.511  46.376  -1.101  1.00  0.00    +0.000 F 
ATOM     69  C51 UNL A   1      17.787  47.790  -0.311  1.00  0.00    +0.000 C 
ATOM     70  F10 UNL A   1      18.555  48.114   0.740  1.00  0.00    +0.000 F 
ATOM     60  C46 UNL A   1      16.513  48.358  -0.459  1.00  0.00    +0.000 C 
ATOM     61  C47 UNL A   1      15.753  47.989  -1.579  1.00  0.00    +0.000 C 
ATOM     62  F6  UNL A   1      14.522  48.493  -1.755  1.00  0.00    +0.000 F 
ATOM     63  C48 UNL A   1      16.241  47.067  -2.501  1.00  0.00    +0.000 C 
ATOM     64  F7  UNL A   1      15.479  46.694  -3.538  1.00  0.00    +0.000 F 
ENDBRANCH   59   60
BRANCH   74   75
ATOM     75  C55 UNL A   1      12.014  47.846   4.837  1.00  0.00    +0.000 C 
ATOM     76  C56 UNL A   1      12.561  46.913   5.729  1.00  0.00    +0.000 C 
ATOM     77  F11 UNL A   1      13.851  47.002   6.081  1.00  0.00    +0.000 F 
ATOM     78  C57 UNL A   1      11.793  45.866   6.234  1.00  0.00    +0.000 C 
ATOM     79  F12 UNL A   1      12.351  44.965   7.054  1.00  0.00    +0.000 F 
ATOM     80  C58 UNL A   1      10.459  45.747   5.879  1.00  0.00    +0.000 C 
ATOM     81  F13 UNL A   1       9.719  44.744   6.370  1.00  0.00    +0.000 F 
ATOM     82  C59 UNL A   1       9.892  46.666   5.010  1.00  0.00    +0.000 C 
ATOM     83  F14 UNL A   1       8.598  46.564   4.675  1.00  0.00    +0.000 F 
ATOM     84  C60 UNL A   1      10.665  47.699   4.482  1.00  0.00    +0.000 C 
ATOM     85  F15 UNL A   1      10.094  48.570   3.637  1.00  0.00    +0.000 F 
ENDBRANCH   74   75
TORSDOF 28
ENDMDL
MODEL 2
REMARK VINA RESULT:      -7.3     25.425     30.527
ROOT
ATOM    142  H40 UNL A   1      25.707  18.338   4.456  1.00  0.00    +0.000 H 
ATOM    143  H41 UNL A   1      24.796  17.116   6.571  1.00  0.00    +0.000 H 
ATOM    144  H42 UNL A   1      21.626  19.007   4.694  1.00  0.00    +0.000 H 
ATOM    145  H43 UNL A   1      15.472  20.696   4.624  1.00  0.00    +0.000 H 
ATOM    146  H44 UNL A   1      16.355  21.834   2.531  1.00  0.00    +0.000 H 
ATOM    147  H45 UNL A   1      19.540  19.882   4.354  1.00  0.00    +0.000 H 
ATOM    148  H46 UNL A   1      17.615  17.551   8.372  1.00  0.00    +0.000 H 
ATOM    149  H47 UNL A   1      19.999  16.798   8.917  1.00  0.00    +0.000 H 
ATOM    150  H48 UNL A   1      23.376  21.122   0.499  1.00  0.00    +0.000 H 
ATOM    151  H49 UNL A   1      21.114  22.280   0.189  1.00  0.00    +0.000 H 
ATOM     38  C31 UNL A   1      19.149  21.481   2.092  1.00  0.00    +0.000 C 
ATOM     39  C32 UNL A   1      20.602  21.099   2.057  1.00  0.00    +0.000 C 
ATOM     40  N4  UNL A   1      21.279  20.334   2.877  1.00  0.00    +0.000 N 
ATOM     41  C33 UNL A   1      22.567  20.277   2.365  1.00  0.00    +0.000 C 
ATOM     42  C34 UNL A   1      23.657  19.660   2.884  1.00  0.00    +0.000 C 
ATOM     54  C41 UNL A   1      23.658  18.921   4.120  1.00  0.00    +0.000 C 
ATOM     55  C42 UNL A   1      24.723  18.318   4.765  1.00  0.00    +0.000 C 
ATOM     56  C43 UNL A   1      24.236  17.677   5.910  1.00  0.00    +0.000 C 
ATOM     57  C44 UNL A   1      22.876  17.920   6.004  1.00  0.00    +0.000 C 
ATOM     58  N5  UNL A   1      22.533  18.682   4.898  1.00  0.00    +0.000 N 
ATOM     59  C45 UNL A   1      21.955  17.491   7.024  1.00  0.00    +0.000 C 
ATOM     71  C52 UNL A   1      20.632  17.788   7.055  1.00  0.00    +0.000 C 
ATOM     72  N6  UNL A   1      19.886  18.537   6.155  1.00  0.00    +0.000 N 
ATOM     73  C53 UNL A   1      18.656  18.524   6.609  1.00  0.00    +0.000 C 
ATOM     74  C54 UNL A   1      17.431  19.194   6.050  1.00  0.00    +0.000 C 
ATOM     86  C61 UNL A   1      17.543  19.946   4.938  1.00  0.00    +0.000 C 
ATOM     87  C62 UNL A   1      16.449  20.663   4.290  1.00  0.00    +0.000 C 
ATOM     88  C63 UNL A   1      16.917  21.273   3.190  1.00  0.00    +0.000 C 
ATOM     89  C64 UNL A   1      18.353  21.016   3.074  1.00  0.00    +0.000 C 
ATOM     90  N7  UNL A   1      18.637  20.221   4.157  1.00  0.00    +0.000 N 
ATOM     91  C65 UNL A   1      18.478  17.743   7.841  1.00  0.00    +0.000 C 
ATOM     92  C66 UNL A   1      19.719  17.349   8.090  1.00  0.00    +0.000 C 
ATOM     93  C67 UNL A   1      22.568  21.042   1.137  1.00  0.00    +0.000 C 
ATOM     94  C68 UNL A   1      21.395  21.625   0.936  1.00  0.00    +0.000 C 
ENDROOT
BRANCH   38   37
ATOM     34  C27 UNL A   1      17.366  23.855  -1.000  1.00  0.00    +0.000 C 
ATOM     35  C28 UNL A   1      18.002  24.484   0.075  1.00  0.00    +0.000 C 
ATOM     36  C29 UNL A   1      18.614  23.714   1.068  1.00  0.00    +0.000 C 
ATOM     37  C30 UNL A   1      18.564  22.312   1.011  1.00  0.00    +0.000 C 
ATOM    140  H38 UNL A   1      18.019  25.513   0.136  1.00  0.00    +0.000 H 
ATOM    141  H39 UNL A   1      19.106  24.179   1.847  1.00  0.00    +0.000 H 
ATOM    152  H50 UNL A   1      17.895  20.664  -0.132  1.00  0.00    +0.000 H 
ATOM    153  H51 UNL A   1      17.003  22.003  -1.946  1.00  0.00    +0.000 H 
ATOM     95  C69 UNL A   1      17.943  21.694  -0.085  1.00  0.00    +0.000 C 
ATOM     96  C70 UNL A   1      17.392  22.462  -1.108  1.00  0.00    +0.000 C 
BRANCH   34   32
ATOM     33  O4  UNL A   1      17.399  25.438  -2.729  1.00  0.00    +0.000 O 
ATOM     32  C26 UNL A   1      16.716  24.692  -2.033  1.00  0.00    +0.000 C 
BRANCH   32   31
ATOM    139  H37 UNL A   1      15.066  24.253  -3.079  1.00  0.00    +0.000 H 
ATOM     31  N3  UNL A   1      15.358  24.636  -2.221  1.00  0.00    +0.000 N 
BRANCH   31   30
ATOM    137  H35 UNL A   1      13.421  24.462  -1.525  1.00  0.00    +0.000 H 
ATOM    138  H36 UNL A   1      14.624  24.944  -0.326  1.00  0.00    +0.000 H 
ATOM     30  C25 UNL A   1      14.286  25.063  -1.335  1.00  0.00    +0.000 C 
BRANCH   30   29
ATOM     29  C24 UNL A   1      13.922  26.531  -1.542  1.00  0.00    +0.000 C 
ATOM    135  H33 UNL A   1      14.823  27.107  -1.494  1.00  0.00    +0.000 H 
ATOM    136  H34 UNL A   1      13.433  26.589  -2.492  1.00  0.00    +0.000 H 
BRANCH   29   28
ATOM     28  C23 UNL A   1      12.937  27.100  -0.515  1.00  0.00    +0.000 C 
ATOM    133  H31 UNL A   1      11.947  26.854  -0.837  1.00  0.00    +0.000 H 
ATOM    134  H32 UNL A   1      13.208  26.665   0.423  1.00  0.00    +0.000 H 
BRANCH   28   27
ATOM     27  C22 UNL A   1      13.001  28.620  -0.307  1.00  0.00    +0.000 C 
ATOM    132  H30 UNL A   1      13.777  28.790   0.410  1.00  0.00    +0.000 H 
ATOM    131  H29 UNL A   1      12.037  28.950   0.021  1.00  0.00    +0.000 H 
BRANCH   27   26
ATOM    129  H27 UNL A   1      14.394  29.191  -1.810  1.00  0.00    +0.000 H 
ATOM     26  C21 UNL A   1      13.384  29.432  -1.549  1.00  0.00    +0.000 C 
ATOM    130  H28 UNL A   1      12.687  29.170  -2.318  1.00  0.00    +0.000 H 
BRANCH   26   25
ATOM     25  C20 UNL A   1      13.284  30.947  -1.355  1.00  0.00    +0.000 C 
ATOM    127  H25 UNL A   1      13.648  31.197  -0.380  1.00  0.00    +0.000 H 
ATOM    128  H26 UNL A   1      13.870  31.419  -2.117  1.00  0.00    +0.000 H 
BRANCH   25   24
ATOM    126  H24 UNL A   1      11.338  30.833  -2.017  1.00  0.00    +0.000 H 
ATOM     24  N2  UNL A   1      11.920  31.418  -1.480  1.00  0.00    +0.000 N 
BRANCH   24   22
ATOM     22  C19 UNL A   1      11.300  32.524  -0.986  1.00  0.00    +0.000 C 
ATOM     23  O3  UNL A   1      10.908  33.348  -1.822  1.00  0.00    +0.000 O 
BRANCH   22   20
ATOM    122  H20 UNL A   1      10.155  33.296   0.581  1.00  0.00    +0.000 H 
ATOM     20  C17 UNL A   1      11.101  32.800   0.513  1.00  0.00    +0.000 C 
BRANCH   20   19
ATOM     97  C71 UNL A   1       9.745  30.768   1.161  1.00  0.00    +0.000 C 
ATOM     98  C72 UNL A   1       9.551  29.565   1.870  1.00  0.00    +0.000 C 
ATOM     16  C13 UNL A   1      10.550  29.050   2.718  1.00  0.00    +0.000 C 
ATOM     17  C14 UNL A   1      11.676  29.863   2.927  1.00  0.00    +0.000 C 
ATOM     18  C15 UNL A   1      11.827  31.100   2.290  1.00  0.00    +0.000 C 
ATOM     19  C16 UNL A   1      10.900  31.543   1.346  1.00  0.00    +0.000 C 
ATOM    120  H18 UNL A   1      12.416  29.539   3.569  1.00  0.00    +0.000 H 
ATOM    121  H19 UNL A   1      12.637  31.695   2.523  1.00  0.00    +0.000 H 
ATOM    154  H52 UNL A   1       9.024  31.084   0.494  1.00  0.00    +0.000 H 
BRANCH   16   15
ATOM    102  C73 UNL A   1       9.891  27.505   4.589  1.00  0.00    +0.000 C 
ATOM     11  C8  UNL A   1       9.870  26.233   5.164  1.00  0.00    +0.000 C 
ATOM     12  C9  UNL A   1      10.435  25.138   4.517  1.00  0.00    +0.000 C 
ATOM     13  C10 UNL A   1      11.027  25.318   3.272  1.00  0.00    +0.000 C 
ATOM     14  C11 UNL A   1      11.074  26.593   2.698  1.00  0.00    +0.000 C 
ATOM     15  C12 UNL A   1      10.512  27.710   3.345  1.00  0.00    +0.000 C 
ATOM    117  H15 UNL A   1      10.416  24.205   4.956  1.00  0.00    +0.000 H 
ATOM    118  H16 UNL A   1      11.431  24.511   2.771  1.00  0.00    +0.000 H 
ATOM    119  H17 UNL A   1      11.530  26.716   1.781  1.00  0.00    +0.000 H 
ATOM    155  H53 UNL A   1       9.449  28.297   5.079  1.00  0.00    +0.000 H 
BRANCH   11   10
ATOM     10  O2  UNL A   1       9.428  26.025   6.483  1.00  0.00    +0.000 O 
BRANCH   10    8
ATOM      9  O1  UNL A   1       9.781  24.085   7.716  1.00  0.00    +0.000 O 
ATOM      8  C7  UNL A   1      10.144  25.185   7.322  1.00  0.00    +0.000 C 
BRANCH    8    7
ATOM    116  H14 UNL A   1      11.440  26.687   7.660  1.00  0.00    +0.000 H 
ATOM      7  N1  UNL A   1      11.356  25.707   7.686  1.00  0.00    +0.000 N 
BRANCH    7    6
ATOM    114  H12 UNL A   1      13.071  25.549   8.818  1.00  0.00    +0.000 H 
ATOM    115  H13 UNL A   1      12.199  24.040   8.531  1.00  0.00    +0.000 H 
ATOM      6  C6  UNL A   1      12.528  24.964   8.104  1.00  0.00    +0.000 C 
BRANCH    6    5
ATOM    113  H11 UNL A   1      14.353  25.191   7.095  1.00  0.00    +0.000 H 
ATOM      5  C5  UNL A   1      13.452  24.637   6.930  1.00  0.00    +0.000 C 
ATOM    112  H10 UNL A   1      12.948  24.906   6.026  1.00  0.00    +0.000 H 
BRANCH    5    4
ATOM      4  C4  UNL A   1      13.866  23.165   6.824  1.00  0.00    +0.000 C 
ATOM    110  H8  UNL A   1      14.923  23.130   6.667  1.00  0.00    +0.000 H 
ATOM    111  H9  UNL A   1      13.551  22.705   7.738  1.00  0.00    +0.000 H 
BRANCH    4    3
ATOM      3  C3  UNL A   1      13.194  22.369   5.700  1.00  0.00    +0.000 C 
ATOM    108  H6  UNL A   1      13.457  21.340   5.821  1.00  0.00    +0.000 H 
ATOM    109  H7  UNL A   1      12.146  22.560   5.790  1.00  0.00    +0.000 H 
BRANCH    3    2
ATOM      2  C2  UNL A   1      13.578  22.789   4.279  1.00  0.00    +0.000 C 
ATOM    107  H5  UNL A   1      14.619  22.576   4.155  1.00  0.00    +0.000 H 
ATOM    106  H4  UNL A   1      13.362  23.830   4.162  1.00  0.00    +0.000 H 
BRANCH    2    1
ATOM      1  C1  UNL A   1      12.829  22.018   3.201  1.00  0.00    +0.000 C 
ATOM    105  H3  UNL A   1      11.943  21.589   3.620  1.00  0.00    +0.000 H 
ATOM    103  H1  UNL A   1      13.456  21.238   2.821  1.00  0.00    +0.000 H 
ATOM    104  H2  UNL A   1      12.564  22.682   2.406  1.00  0.00    +0.000 H 
ENDBRANCH    2    1
ENDBRANCH    3    2
ENDBRANCH    4    3
ENDBRANCH    5    4
ENDBRANCH    6    5
ENDBRANCH    7    6
ENDBRANCH    8    7
ENDBRANCH   10    8
ENDBRANCH   11   10
ENDBRANCH   16   15
BRANCH   98   99
ATOM     99  N8  UNL A   1       8.266  28.915   1.738  1.00  0.00    +0.000 N 
ATOM    100  O5  UNL A   1       7.357  29.178   2.500  1.00  0.00    +0.000 O 
ATOM    101  O6  UNL A   1       8.076  27.884   0.849  1.00  0.00    +0.000 O 
ENDBRANCH   98   99
ENDBRANCH   20   19
BRANCH   20   21
ATOM    125  H23 UNL A   1      12.225  34.614   0.382  1.00  0.00    +0.000 H 
ATOM    123  H21 UNL A   1      12.992  33.367   1.336  1.00  0.00    +0.000 H 
ATOM    124  H22 UNL A   1      11.635  34.255   1.987  1.00  0.00    +0.000 H 
ATOM     21  C18 UNL A   1      12.060  33.837   1.098  1.00  0.00    +0.000 C 
ENDBRANCH   20   21
ENDBRANCH   22   20
ENDBRANCH   24   22
ENDBRANCH   25   24
ENDBRANCH   26   25
ENDBRANCH   27   26
ENDBRANCH   28   27
ENDBRANCH   29   28
ENDBRANCH   30   29
ENDBRANCH   31   30
ENDBRANCH   32   31
ENDBRANCH   34   32
ENDBRANCH   38   37
BRANCH   42   43
ATOM     43  C35 UNL A   1      24.942  19.760   2.114  1.00  0.00    +0.000 C 
ATOM     44  C36 UNL A   1      25.130  19.074   0.904  1.00  0.00    +0.000 C 
ATOM     45  F1  UNL A   1      24.166  18.274   0.425  1.00  0.00    +0.000 F 
ATOM     46  C37 UNL A   1      26.328  19.174   0.202  1.00  0.00    +0.000 C 
ATOM     47  F2  UNL A   1      26.504  18.469  -0.925  1.00  0.00    +0.000 F 
ATOM     48  C38 UNL A   1      27.347  19.988   0.674  1.00  0.00    +0.000 C 
ATOM     49  F3  UNL A   1      28.497  20.087  -0.005  1.00  0.00    +0.000 F 
ATOM     50  C39 UNL A   1      27.173  20.696   1.855  1.00  0.00    +0.000 C 
ATOM     51  F4  UNL A   1      28.151  21.494   2.306  1.00  0.00    +0.000 F 
ATOM     52  C40 UNL A   1      25.987  20.574   2.575  1.00  0.00    +0.000 C 
ATOM     53  F5  UNL A   1      25.858  21.258   3.722  1.00  0.00    +0.000 F 
ENDBRANCH   42   43
BRANCH   59   60
ATOM     65  C49 UNL A   1      23.565  15.165  10.277  1.00  0.00    +0.000 C 
ATOM     66  F8  UNL A   1      24.064  14.446  11.291  1.00  0.00    +0.000 F 
ATOM     67  C50 UNL A   1      23.431  16.540  10.400  1.00  0.00    +0.000 C 
ATOM     68  F9  UNL A   1      23.821  17.152  11.526  1.00  0.00    +0.000 F 
ATOM     69  C51 UNL A   1      22.892  17.286   9.355  1.00  0.00    +0.000 C 
ATOM     70  F10 UNL A   1      22.762  18.611   9.509  1.00  0.00    +0.000 F 
ATOM     60  C46 UNL A   1      22.498  16.670   8.158  1.00  0.00    +0.000 C 
ATOM     61  C47 UNL A   1      22.660  15.281   8.047  1.00  0.00    +0.000 C 
ATOM     62  F6  UNL A   1      22.283  14.644   6.928  1.00  0.00    +0.000 F 
ATOM     63  C48 UNL A   1      23.174  14.535   9.105  1.00  0.00    +0.000 C 
ATOM     64  F7  UNL A   1      23.276  13.203   8.994  1.00  0.00    +0.000 F 
ENDBRANCH   59   60
BRANCH   74   75
ATOM     75  C55 UNL A   1      16.114  19.064   6.723  1.00  0.00    +0.000 C 
ATOM     76  C56 UNL A   1      15.696  20.008   7.672  1.00  0.00    +0.000 C 
ATOM     77  F11 UNL A   1      16.502  21.027   8.001  1.00  0.00    +0.000 F 
ATOM     78  C57 UNL A   1      14.463  19.889   8.310  1.00  0.00    +0.000 C 
ATOM     79  F12 UNL A   1      14.105  20.784   9.241  1.00  0.00    +0.000 F 
ATOM     80  C58 UNL A   1      13.614  18.840   7.993  1.00  0.00    +0.000 C 
ATOM     81  F13 UNL A   1      12.425  18.730   8.601  1.00  0.00    +0.000 F 
ATOM     82  C59 UNL A   1      14.000  17.902   7.047  1.00  0.00    +0.000 C 
ATOM     83  F14 UNL A   1      13.175  16.895   6.727  1.00  0.00    +0.000 F 
ATOM     84  C60 UNL A   1      15.244  18.004   6.428  1.00  0.00    +0.000 C 
ATOM     85  F15 UNL A   1      15.596  17.079   5.523  1.00  0.00    +0.000 F 
ENDBRANCH   74   75
TORSDOF 28
ENDMDL
MODEL 3
REMARK VINA RESULT:      -7.2      3.776     10.530
ROOT
ATOM    142  H40 UNL A   1      13.387  46.642   3.070  1.00  0.00    +0.000 H 
ATOM    143  H41 UNL A   1      15.054  46.637   1.066  1.00  0.00    +0.000 H 
ATOM    144  H42 UNL A   1      14.970  50.450   2.679  1.00  0.00    +0.000 H 
ATOM    145  H43 UNL A   1      16.749  56.575   2.448  1.00  0.00    +0.000 H 
ATOM    146  H44 UNL A   1      15.170  56.560   4.438  1.00  0.00    +0.000 H 
ATOM    147  H45 UNL A   1      15.294  52.706   2.885  1.00  0.00    +0.000 H 
ATOM    148  H46 UNL A   1      18.571  52.856  -0.925  1.00  0.00    +0.000 H 
ATOM    149  H47 UNL A   1      18.003  50.395  -1.341  1.00  0.00    +0.000 H 
ATOM    150  H48 UNL A   1      11.955  50.350   6.683  1.00  0.00    +0.000 H 
ATOM    151  H49 UNL A   1      12.133  52.900   6.828  1.00  0.00    +0.000 H 
ATOM     38  C31 UNL A   1      13.977  54.026   4.970  1.00  0.00    +0.000 C 
ATOM     39  C32 UNL A   1      13.538  52.593   5.074  1.00  0.00    +0.000 C 
ATOM     40  N4  UNL A   1      13.894  51.562   4.348  1.00  0.00    +0.000 N 
ATOM     41  C33 UNL A   1      13.231  50.470   4.892  1.00  0.00    +0.000 C 
ATOM     42  C34 UNL A   1      13.223  49.185   4.460  1.00  0.00    +0.000 C 
ATOM     54  C41 UNL A   1      13.939  48.715   3.303  1.00  0.00    +0.000 C 
ATOM     55  C42 UNL A   1      13.941  47.449   2.743  1.00  0.00    +0.000 C 
ATOM     56  C43 UNL A   1      14.823  47.452   1.657  1.00  0.00    +0.000 C 
ATOM     57  C44 UNL A   1      15.335  48.730   1.510  1.00  0.00    +0.000 C 
ATOM     58  N5  UNL A   1      14.786  49.494   2.528  1.00  0.00    +0.000 N 
ATOM     59  C45 UNL A   1      16.255  49.221   0.517  1.00  0.00    +0.000 C 
ATOM     71  C52 UNL A   1      16.697  50.500   0.428  1.00  0.00    +0.000 C 
ATOM     72  N6  UNL A   1      16.385  51.587   1.233  1.00  0.00    +0.000 N 
ATOM     73  C53 UNL A   1      17.072  52.596   0.756  1.00  0.00    +0.000 C 
ATOM     74  C54 UNL A   1      17.104  54.027   1.220  1.00  0.00    +0.000 C 
ATOM     86  C61 UNL A   1      16.327  54.399   2.255  1.00  0.00    +0.000 C 
ATOM     87  C62 UNL A   1      16.243  55.749   2.805  1.00  0.00    +0.000 C 
ATOM     88  C63 UNL A   1      15.400  55.743   3.850  1.00  0.00    +0.000 C 
ATOM     89  C64 UNL A   1      14.858  54.394   4.021  1.00  0.00    +0.000 C 
ATOM     90  N7  UNL A   1      15.464  53.665   3.029  1.00  0.00    +0.000 N 
ATOM     91  C65 UNL A   1      17.918  52.256  -0.397  1.00  0.00    +0.000 C 
ATOM     92  C66 UNL A   1      17.622  50.978  -0.579  1.00  0.00    +0.000 C 
ATOM     93  C67 UNL A   1      12.492  50.952   6.039  1.00  0.00    +0.000 C 
ATOM     94  C68 UNL A   1      12.595  52.268   6.155  1.00  0.00    +0.000 C 
ENDROOT
BRANCH   38   37
ATOM     34  C27 UNL A   1      12.662  56.998   7.766  1.00  0.00    +0.000 C 
ATOM     35  C28 UNL A   1      11.812  56.601   6.728  1.00  0.00    +0.000 C 
ATOM     36  C29 UNL A   1      12.223  55.608   5.835  1.00  0.00    +0.000 C 
ATOM     37  C30 UNL A   1      13.498  55.032   5.952  1.00  0.00    +0.000 C 
ATOM    140  H38 UNL A   1      10.885  57.039   6.622  1.00  0.00    +0.000 H 
ATOM    141  H39 UNL A   1      11.586  55.296   5.085  1.00  0.00    +0.000 H 
ATOM    152  H50 UNL A   1      15.273  55.010   7.101  1.00  0.00    +0.000 H 
ATOM    153  H51 UNL A   1      14.481  56.592   8.758  1.00  0.00    +0.000 H 
ATOM     95  C69 UNL A   1      14.331  55.422   7.011  1.00  0.00    +0.000 C 
ATOM     96  C70 UNL A   1      13.895  56.363   7.940  1.00  0.00    +0.000 C 
BRANCH   34   32
ATOM     33  O4  UNL A   1      11.675  57.749   9.756  1.00  0.00    +0.000 O 
ATOM     32  C26 UNL A   1      12.207  58.058   8.694  1.00  0.00    +0.000 C 
BRANCH   32   31
ATOM    139  H37 UNL A   1      11.746  60.004   8.798  1.00  0.00    +0.000 H 
ATOM     31  N3  UNL A   1      12.381  59.381   8.376  1.00  0.00    +0.000 N 
BRANCH   31   30
ATOM    137  H35 UNL A   1      13.499  61.019   7.795  1.00  0.00    +0.000 H 
ATOM    138  H36 UNL A   1      14.283  59.450   7.599  1.00  0.00    +0.000 H 
ATOM     30  C25 UNL A   1      13.369  59.998   7.503  1.00  0.00    +0.000 C 
BRANCH   30   29
ATOM     29  C24 UNL A   1      12.943  59.955   6.037  1.00  0.00    +0.000 C 
ATOM    135  H33 UNL A   1      12.005  59.445   5.977  1.00  0.00    +0.000 H 
ATOM    136  H34 UNL A   1      12.893  60.973   5.708  1.00  0.00    +0.000 H 
BRANCH   29   28
ATOM     28  C23 UNL A   1      13.931  59.249   5.101  1.00  0.00    +0.000 C 
ATOM    133  H31 UNL A   1      14.625  59.981   4.742  1.00  0.00    +0.000 H 
ATOM    134  H32 UNL A   1      14.381  58.474   5.682  1.00  0.00    +0.000 H 
BRANCH   28   27
ATOM     27  C22 UNL A   1      13.307  58.554   3.883  1.00  0.00    +0.000 C 
ATOM    132  H30 UNL A   1      13.349  57.504   4.087  1.00  0.00    +0.000 H 
ATOM    131  H29 UNL A   1      13.865  58.842   3.017  1.00  0.00    +0.000 H 
BRANCH   27   26
ATOM    129  H27 UNL A   1      11.394  59.194   4.556  1.00  0.00    +0.000 H 
ATOM     26  C21 UNL A   1      11.833  58.881   3.630  1.00  0.00    +0.000 C 
ATOM    130  H28 UNL A   1      11.807  59.647   2.884  1.00  0.00    +0.000 H 
BRANCH   26   25
ATOM     25  C20 UNL A   1      11.020  57.703   3.086  1.00  0.00    +0.000 C 
ATOM    127  H25 UNL A   1      11.248  56.830   3.661  1.00  0.00    +0.000 H 
ATOM    128  H26 UNL A   1       9.982  57.953   3.161  1.00  0.00    +0.000 H 
BRANCH   25   24
ATOM    126  H24 UNL A   1      11.210  58.218   1.102  1.00  0.00    +0.000 H 
ATOM     24  N2  UNL A   1      11.320  57.439   1.694  1.00  0.00    +0.000 N 
BRANCH   24   22
ATOM     22  C19 UNL A   1      11.727  56.306   1.060  1.00  0.00    +0.000 C 
ATOM     23  O3  UNL A   1      10.843  55.484   0.789  1.00  0.00    +0.000 O 
BRANCH   22   20
ATOM    122  H20 UNL A   1      13.623  55.620   1.606  1.00  0.00    +0.000 H 
ATOM     20  C17 UNL A   1      13.191  56.000   0.704  1.00  0.00    +0.000 C 
BRANCH   20   19
ATOM     97  C71 UNL A   1      13.403  55.117  -1.655  1.00  0.00    +0.000 C 
ATOM     98  C72 UNL A   1      13.615  54.086  -2.592  1.00  0.00    +0.000 C 
ATOM     16  C13 UNL A   1      13.882  52.767  -2.177  1.00  0.00    +0.000 C 
ATOM     17  C14 UNL A   1      13.783  52.511  -0.799  1.00  0.00    +0.000 C 
ATOM     18  C15 UNL A   1      13.484  53.520   0.123  1.00  0.00    +0.000 C 
ATOM     19  C16 UNL A   1      13.356  54.850  -0.278  1.00  0.00    +0.000 C 
ATOM    120  H18 UNL A   1      13.935  51.550  -0.457  1.00  0.00    +0.000 H 
ATOM    121  H19 UNL A   1      13.355  53.275   1.117  1.00  0.00    +0.000 H 
ATOM    154  H52 UNL A   1      13.280  56.086  -1.987  1.00  0.00    +0.000 H 
BRANCH   16   15
ATOM    102  C73 UNL A   1      13.374  50.754  -3.595  1.00  0.00    +0.000 C 
ATOM     11  C8  UNL A   1      13.795  49.725  -4.440  1.00  0.00    +0.000 C 
ATOM     12  C9  UNL A   1      15.130  49.595  -4.810  1.00  0.00    +0.000 C 
ATOM     13  C10 UNL A   1      16.059  50.512  -4.331  1.00  0.00    +0.000 C 
ATOM     14  C11 UNL A   1      15.651  51.532  -3.465  1.00  0.00    +0.000 C 
ATOM     15  C12 UNL A   1      14.305  51.671  -3.077  1.00  0.00    +0.000 C 
ATOM    117  H15 UNL A   1      15.428  48.827  -5.432  1.00  0.00    +0.000 H 
ATOM    118  H16 UNL A   1      17.049  50.440  -4.614  1.00  0.00    +0.000 H 
ATOM    119  H17 UNL A   1      16.352  52.197  -3.103  1.00  0.00    +0.000 H 
ATOM    155  H53 UNL A   1      12.376  50.841  -3.351  1.00  0.00    +0.000 H 
BRANCH   11   10
ATOM     10  O2  UNL A   1      12.931  48.684  -4.825  1.00  0.00    +0.000 O 
BRANCH   10    8
ATOM      9  O1  UNL A   1      13.499  47.012  -6.339  1.00  0.00    +0.000 O 
ATOM      8  C7  UNL A   1      13.052  48.123  -6.087  1.00  0.00    +0.000 C 
BRANCH    8    7
ATOM    116  H14 UNL A   1      11.826  49.520  -6.860  1.00  0.00    +0.000 H 
ATOM      7  N1  UNL A   1      12.599  48.951  -7.079  1.00  0.00    +0.000 N 
BRANCH    7    6
ATOM    114  H12 UNL A   1      13.180  48.100  -8.864  1.00  0.00    +0.000 H 
ATOM    115  H13 UNL A   1      12.498  49.725  -8.975  1.00  0.00    +0.000 H 
ATOM      6  C6  UNL A   1      13.139  49.072  -8.419  1.00  0.00    +0.000 C 
BRANCH    6    5
ATOM    113  H11 UNL A   1      14.732  49.997  -7.418  1.00  0.00    +0.000 H 
ATOM      5  C5  UNL A   1      14.543  49.677  -8.421  1.00  0.00    +0.000 C 
ATOM    112  H10 UNL A   1      14.560  50.476  -9.131  1.00  0.00    +0.000 H 
BRANCH    5    4
ATOM      4  C4  UNL A   1      15.667  48.698  -8.779  1.00  0.00    +0.000 C 
ATOM    110  H8  UNL A   1      15.268  47.707  -8.735  1.00  0.00    +0.000 H 
ATOM    111  H9  UNL A   1      16.006  48.983  -9.753  1.00  0.00    +0.000 H 
BRANCH    4    3
ATOM      3  C3  UNL A   1      16.902  48.751  -7.873  1.00  0.00    +0.000 C 
ATOM    108  H6  UNL A   1      17.593  49.448  -8.296  1.00  0.00    +0.000 H 
ATOM    109  H7  UNL A   1      16.545  49.032  -6.904  1.00  0.00    +0.000 H 
BRANCH    3    2
ATOM      2  C2  UNL A   1      17.633  47.420  -7.681  1.00  0.00    +0.000 C 
ATOM    107  H5  UNL A   1      18.682  47.631  -7.680  1.00  0.00    +0.000 H 
ATOM    106  H4  UNL A   1      17.355  46.761  -8.477  1.00  0.00    +0.000 H 
BRANCH    2    1
ATOM      1  C1  UNL A   1      17.310  46.741  -6.358  1.00  0.00    +0.000 C 
ATOM    105  H3  UNL A   1      17.991  45.932  -6.197  1.00  0.00    +0.000 H 
ATOM    103  H1  UNL A   1      16.309  46.363  -6.387  1.00  0.00    +0.000 H 
ATOM    104  H2  UNL A   1      17.400  47.449  -5.562  1.00  0.00    +0.000 H 
ENDBRANCH    2    1
ENDBRANCH    3    2
ENDBRANCH    4    3
ENDBRANCH    5    4
ENDBRANCH    6    5
ENDBRANCH    7    6
ENDBRANCH    8    7
ENDBRANCH   10    8
ENDBRANCH   11   10
ENDBRANCH   16   15
BRANCH   98   99
ATOM     99  N8  UNL A   1      13.490  54.424  -3.993  1.00  0.00    +0.000 N 
ATOM    100  O5  UNL A   1      14.354  55.066  -4.555  1.00  0.00    +0.000 O 
ATOM    101  O6  UNL A   1      12.335  54.161  -4.689  1.00  0.00    +0.000 O 
ENDBRANCH   98   99
ENDBRANCH   20   19
BRANCH   20   21
ATOM    125  H23 UNL A   1      14.027  57.883   1.278  1.00  0.00    +0.000 H 
ATOM    123  H21 UNL A   1      13.657  57.756  -0.425  1.00  0.00    +0.000 H 
ATOM    124  H22 UNL A   1      15.054  56.937   0.229  1.00  0.00    +0.000 H 
ATOM     21  C18 UNL A   1      14.046  57.237   0.426  1.00  0.00    +0.000 C 
ENDBRANCH   20   21
ENDBRANCH   22   20
ENDBRANCH   24   22
ENDBRANCH   25   24
ENDBRANCH   26   25
ENDBRANCH   27   26
ENDBRANCH   28   27
ENDBRANCH   29   28
ENDBRANCH   30   29
ENDBRANCH   31   30
ENDBRANCH   32   31
ENDBRANCH   34   32
ENDBRANCH   38   37
BRANCH   42   43
ATOM     43  C35 UNL A   1      12.410  48.196   5.244  1.00  0.00    +0.000 C 
ATOM     44  C36 UNL A   1      11.080  47.902   4.906  1.00  0.00    +0.000 C 
ATOM     45  F1  UNL A   1      10.488  48.537   3.884  1.00  0.00    +0.000 F 
ATOM     46  C37 UNL A   1      10.339  46.984   5.645  1.00  0.00    +0.000 C 
ATOM     47  F2  UNL A   1       9.054  46.758   5.335  1.00  0.00    +0.000 F 
ATOM     48  C38 UNL A   1      10.920  46.316   6.711  1.00  0.00    +0.000 C 
ATOM     49  F3  UNL A   1      10.206  45.429   7.418  1.00  0.00    +0.000 F 
ATOM     50  C39 UNL A   1      12.241  46.571   7.048  1.00  0.00    +0.000 C 
ATOM     51  F4  UNL A   1      12.810  45.916   8.070  1.00  0.00    +0.000 F 
ATOM     52  C40 UNL A   1      12.977  47.511   6.330  1.00  0.00    +0.000 C 
ATOM     53  F5  UNL A   1      14.247  47.749   6.692  1.00  0.00    +0.000 F 
ENDBRANCH   42   43
BRANCH   59   60
ATOM     65  C49 UNL A   1      17.631  46.405  -2.442  1.00  0.00    +0.000 C 
ATOM     66  F8  UNL A   1      18.056  45.532  -3.366  1.00  0.00    +0.000 F 
ATOM     67  C50 UNL A   1      16.358  46.947  -2.533  1.00  0.00    +0.000 C 
ATOM     68  F9  UNL A   1      15.544  46.580  -3.532  1.00  0.00    +0.000 F 
ATOM     69  C51 UNL A   1      15.924  47.871  -1.587  1.00  0.00    +0.000 C 
ATOM     70  F10 UNL A   1      14.692  48.388  -1.708  1.00  0.00    +0.000 F 
ATOM     60  C46 UNL A   1      16.750  48.253  -0.519  1.00  0.00    +0.000 C 
ATOM     61  C47 UNL A   1      18.027  47.678  -0.436  1.00  0.00    +0.000 C 
ATOM     62  F6  UNL A   1      18.859  48.023   0.558  1.00  0.00    +0.000 F 
ATOM     63  C48 UNL A   1      18.468  46.775  -1.400  1.00  0.00    +0.000 C 
ATOM     64  F7  UNL A   1      19.709  46.275  -1.327  1.00  0.00    +0.000 F 
ENDBRANCH   59   60
BRANCH   74   75
ATOM     75  C55 UNL A   1      17.952  55.034   0.534  1.00  0.00    +0.000 C 
ATOM     76  C56 UNL A   1      19.135  55.498   1.126  1.00  0.00    +0.000 C 
ATOM     77  F11 UNL A   1      19.495  55.054   2.339  1.00  0.00    +0.000 F 
ATOM     78  C57 UNL A   1      19.934  56.446   0.489  1.00  0.00    +0.000 C 
ATOM     79  F12 UNL A   1      21.039  56.901   1.095  1.00  0.00    +0.000 F 
ATOM     80  C58 UNL A   1      19.580  56.927  -0.761  1.00  0.00    +0.000 C 
ATOM     81  F13 UNL A   1      20.352  57.833  -1.376  1.00  0.00    +0.000 F 
ATOM     82  C59 UNL A   1      18.422  56.471  -1.373  1.00  0.00    +0.000 C 
ATOM     83  F14 UNL A   1      18.085  56.923  -2.589  1.00  0.00    +0.000 F 
ATOM     84  C60 UNL A   1      17.608  55.544  -0.726  1.00  0.00    +0.000 C 
ATOM     85  F15 UNL A   1      16.489  55.126  -1.337  1.00  0.00    +0.000 F 
ENDBRANCH   74   75
TORSDOF 28
ENDMDL
MODEL 4
REMARK VINA RESULT:      -7.1      2.992      9.038
ROOT
ATOM    142  H40 UNL A   1      13.498  46.936   3.151  1.00  0.00    +0.000 H 
ATOM    143  H41 UNL A   1      15.120  46.941   1.110  1.00  0.00    +0.000 H 
ATOM    144  H42 UNL A   1      15.003  50.768   2.688  1.00  0.00    +0.000 H 
ATOM    145  H43 UNL A   1      16.665  56.921   2.359  1.00  0.00    +0.000 H 
ATOM    146  H44 UNL A   1      15.131  56.897   4.384  1.00  0.00    +0.000 H 
ATOM    147  H45 UNL A   1      15.290  53.031   2.865  1.00  0.00    +0.000 H 
ATOM    148  H46 UNL A   1      18.477  53.202  -1.019  1.00  0.00    +0.000 H 
ATOM    149  H47 UNL A   1      17.945  50.728  -1.400  1.00  0.00    +0.000 H 
ATOM    150  H48 UNL A   1      12.081  50.652   6.760  1.00  0.00    +0.000 H 
ATOM    151  H49 UNL A   1      12.215  53.207   6.877  1.00  0.00    +0.000 H 
ATOM     38  C31 UNL A   1      13.997  54.348   4.967  1.00  0.00    +0.000 C 
ATOM     39  C32 UNL A   1      13.586  52.908   5.095  1.00  0.00    +0.000 C 
ATOM     40  N4  UNL A   1      13.944  51.876   4.370  1.00  0.00    +0.000 N 
ATOM     41  C33 UNL A   1      13.314  50.778   4.939  1.00  0.00    +0.000 C 
ATOM     42  C34 UNL A   1      13.319  49.489   4.520  1.00  0.00    +0.000 C 
ATOM     54  C41 UNL A   1      14.018  49.020   3.351  1.00  0.00    +0.000 C 
ATOM     55  C42 UNL A   1      14.030  47.750   2.804  1.00  0.00    +0.000 C 
ATOM     56  C43 UNL A   1      14.888  47.757   1.698  1.00  0.00    +0.000 C 
ATOM     57  C44 UNL A   1      15.372  49.043   1.527  1.00  0.00    +0.000 C 
ATOM     58  N5  UNL A   1      14.833  49.808   2.550  1.00  0.00    +0.000 N 
ATOM     59  C45 UNL A   1      16.261  49.541   0.509  1.00  0.00    +0.000 C 
ATOM     71  C52 UNL A   1      16.677  50.826   0.398  1.00  0.00    +0.000 C 
ATOM     72  N6  UNL A   1      16.364  51.916   1.200  1.00  0.00    +0.000 N 
ATOM     73  C53 UNL A   1      17.022  52.933   0.697  1.00  0.00    +0.000 C 
ATOM     74  C54 UNL A   1      17.037  54.368   1.147  1.00  0.00    +0.000 C 
ATOM     86  C61 UNL A   1      16.277  54.737   2.196  1.00  0.00    +0.000 C 
ATOM     87  C62 UNL A   1      16.181  56.090   2.735  1.00  0.00    +0.000 C 
ATOM     88  C63 UNL A   1      15.363  56.079   3.799  1.00  0.00    +0.000 C 
ATOM     89  C64 UNL A   1      14.850  54.722   3.995  1.00  0.00    +0.000 C 
ATOM     90  N7  UNL A   1      15.445  53.994   2.996  1.00  0.00    +0.000 N 
ATOM     91  C65 UNL A   1      17.848  52.596  -0.471  1.00  0.00    +0.000 C 
ATOM     92  C66 UNL A   1      17.571  51.311  -0.634  1.00  0.00    +0.000 C 
ATOM     93  C67 UNL A   1      12.592  51.258   6.098  1.00  0.00    +0.000 C 
ATOM     94  C68 UNL A   1      12.674  52.577   6.200  1.00  0.00    +0.000 C 
ENDROOT
BRANCH   38   37
ATOM     34  C27 UNL A   1      12.701  57.317   7.774  1.00  0.00    +0.000 C 
ATOM     35  C28 UNL A   1      11.910  57.030   6.657  1.00  0.00    +0.000 C 
ATOM     36  C29 UNL A   1      12.311  56.039   5.758  1.00  0.00    +0.000 C 
ATOM     37  C30 UNL A   1      13.522  55.354   5.950  1.00  0.00    +0.000 C 
ATOM    140  H38 UNL A   1      11.033  57.548   6.497  1.00  0.00    +0.000 H 
ATOM    141  H39 UNL A   1      11.714  55.809   4.948  1.00  0.00    +0.000 H 
ATOM    152  H50 UNL A   1      15.189  55.143   7.233  1.00  0.00    +0.000 H 
ATOM    153  H51 UNL A   1      14.394  56.725   8.888  1.00  0.00    +0.000 H 
ATOM     95  C69 UNL A   1      14.294  55.635   7.087  1.00  0.00    +0.000 C 
ATOM     96  C70 UNL A   1      13.860  56.576   8.018  1.00  0.00    +0.000 C 
BRANCH   34   32
ATOM     33  O4  UNL A   1      11.684  58.071   9.748  1.00  0.00    +0.000 O 
ATOM     32  C26 UNL A   1      12.259  58.378   8.708  1.00  0.00    +0.000 C 
BRANCH   32   31
ATOM    139  H37 UNL A   1      11.760  60.166   7.957  1.00  0.00    +0.000 H 
ATOM     31  N3  UNL A   1      12.492  59.699   8.419  1.00  0.00    +0.000 N 
BRANCH   31   30
ATOM    137  H35 UNL A   1      14.394  59.906   9.201  1.00  0.00    +0.000 H 
ATOM    138  H36 UNL A   1      14.049  60.870   7.763  1.00  0.00    +0.000 H 
ATOM     30  C25 UNL A   1      13.669  60.510   8.697  1.00  0.00    +0.000 C 
BRANCH   30   29
ATOM     29  C24 UNL A   1      13.339  61.717   9.571  1.00  0.00    +0.000 C 
ATOM    135  H33 UNL A   1      14.163  62.398   9.522  1.00  0.00    +0.000 H 
ATOM    136  H34 UNL A   1      12.428  62.127   9.186  1.00  0.00    +0.000 H 
BRANCH   29   28
ATOM     28  C23 UNL A   1      13.075  61.392  11.045  1.00  0.00    +0.000 C 
ATOM    133  H31 UNL A   1      13.511  60.437  11.254  1.00  0.00    +0.000 H 
ATOM    134  H32 UNL A   1      13.505  62.195  11.604  1.00  0.00    +0.000 H 
BRANCH   28   27
ATOM     27  C22 UNL A   1      11.597  61.336  11.457  1.00  0.00    +0.000 C 
ATOM    132  H30 UNL A   1      11.086  60.830  10.664  1.00  0.00    +0.000 H 
ATOM    131  H29 UNL A   1      11.259  62.340  11.610  1.00  0.00    +0.000 H 
BRANCH   27   26
ATOM    129  H27 UNL A   1      10.354  60.059  12.618  1.00  0.00    +0.000 H 
ATOM     26  C21 UNL A   1      11.306  60.537  12.731  1.00  0.00    +0.000 C 
ATOM    130  H28 UNL A   1      12.106  59.836  12.848  1.00  0.00    +0.000 H 
BRANCH   26   25
ATOM     25  C20 UNL A   1      11.271  61.388  14.003  1.00  0.00    +0.000 C 
ATOM    127  H25 UNL A   1      12.052  62.117  13.954  1.00  0.00    +0.000 H 
ATOM    128  H26 UNL A   1      10.310  61.856  14.063  1.00  0.00    +0.000 H 
BRANCH   25   24
ATOM    126  H24 UNL A   1      12.313  60.729  15.651  1.00  0.00    +0.000 H 
ATOM     24  N2  UNL A   1      11.454  60.584  15.193  1.00  0.00    +0.000 N 
BRANCH   24   22
ATOM     22  C19 UNL A   1      10.649  59.663  15.792  1.00  0.00    +0.000 C 
ATOM     23  O3  UNL A   1       9.433  59.817  15.634  1.00  0.00    +0.000 O 
BRANCH   22   20
ATOM    122  H20 UNL A   1      10.432  58.369  17.417  1.00  0.00    +0.000 H 
ATOM     20  C17 UNL A   1      11.168  58.498  16.651  1.00  0.00    +0.000 C 
BRANCH   20   19
ATOM     97  C71 UNL A   1      10.617  56.033  16.564  1.00  0.00    +0.000 C 
ATOM     98  C72 UNL A   1      10.543  54.788  15.907  1.00  0.00    +0.000 C 
ATOM     16  C13 UNL A   1      10.933  54.650  14.561  1.00  0.00    +0.000 C 
ATOM     17  C14 UNL A   1      11.526  55.774  13.962  1.00  0.00    +0.000 C 
ATOM     18  C15 UNL A   1      11.680  56.985  14.645  1.00  0.00    +0.000 C 
ATOM     19  C16 UNL A   1      11.168  57.158  15.931  1.00  0.00    +0.000 C 
ATOM    120  H18 UNL A   1      11.859  55.704  12.988  1.00  0.00    +0.000 H 
ATOM    121  H19 UNL A   1      12.181  57.764  14.190  1.00  0.00    +0.000 H 
ATOM    154  H52 UNL A   1      10.258  56.119  17.528  1.00  0.00    +0.000 H 
BRANCH   16   15
ATOM    102  C73 UNL A   1      11.624  52.370  13.757  1.00  0.00    +0.000 C 
ATOM     11  C8  UNL A   1      11.397  51.238  12.972  1.00  0.00    +0.000 C 
ATOM     12  C9  UNL A   1      10.259  51.125  12.180  1.00  0.00    +0.000 C 
ATOM     13  C10 UNL A   1       9.330  52.160  12.176  1.00  0.00    +0.000 C 
ATOM     14  C11 UNL A   1       9.561  53.308  12.940  1.00  0.00    +0.000 C 
ATOM     15  C12 UNL A   1      10.711  53.439  13.741  1.00  0.00    +0.000 C 
ATOM    117  H15 UNL A   1      10.106  50.284  11.602  1.00  0.00    +0.000 H 
ATOM    118  H16 UNL A   1       8.471  52.080  11.609  1.00  0.00    +0.000 H 
ATOM    119  H17 UNL A   1       8.872  54.076  12.916  1.00  0.00    +0.000 H 
ATOM    155  H53 UNL A   1      12.466  52.423  14.351  1.00  0.00    +0.000 H 
BRANCH   11   10
ATOM     10  O2  UNL A   1      12.373  50.238  12.818  1.00  0.00    +0.000 O 
BRANCH   10    8
ATOM      9  O1  UNL A   1      12.696  49.937  10.534  1.00  0.00    +0.000 O 
ATOM      8  C7  UNL A   1      13.124  50.185  11.654  1.00  0.00    +0.000 C 
BRANCH    8    7
ATOM    116  H14 UNL A   1      15.088  50.057  11.234  1.00  0.00    +0.000 H 
ATOM      7  N1  UNL A   1      14.449  50.457  11.865  1.00  0.00    +0.000 N 
BRANCH    7    6
ATOM    114  H12 UNL A   1      14.268  51.396  13.692  1.00  0.00    +0.000 H 
ATOM    115  H13 UNL A   1      15.877  50.777  13.302  1.00  0.00    +0.000 H 
ATOM      6  C6  UNL A   1      15.006  51.274  12.925  1.00  0.00    +0.000 C 
BRANCH    6    5
ATOM    113  H11 UNL A   1      15.818  52.509  11.438  1.00  0.00    +0.000 H 
ATOM      5  C5  UNL A   1      15.432  52.655  12.426  1.00  0.00    +0.000 C 
ATOM    112  H10 UNL A   1      16.153  53.048  13.110  1.00  0.00    +0.000 H 
BRANCH    5    4
ATOM      4  C4  UNL A   1      14.294  53.674  12.296  1.00  0.00    +0.000 C 
ATOM    110  H8  UNL A   1      13.425  53.259  12.759  1.00  0.00    +0.000 H 
ATOM    111  H9  UNL A   1      14.646  54.569  12.764  1.00  0.00    +0.000 H 
BRANCH    4    3
ATOM      3  C3  UNL A   1      13.922  54.069  10.863  1.00  0.00    +0.000 C 
ATOM    108  H6  UNL A   1      14.552  54.882  10.569  1.00  0.00    +0.000 H 
ATOM    109  H7  UNL A   1      14.051  53.187  10.271  1.00  0.00    +0.000 H 
BRANCH    3    2
ATOM      2  C2  UNL A   1      12.468  54.503  10.657  1.00  0.00    +0.000 C 
ATOM    107  H5  UNL A   1      12.486  55.504  10.281  1.00  0.00    +0.000 H 
ATOM    106  H4  UNL A   1      11.957  54.433  11.595  1.00  0.00    +0.000 H 
BRANCH    2    1
ATOM      1  C1  UNL A   1      11.724  53.652   9.639  1.00  0.00    +0.000 C 
ATOM    105  H3  UNL A   1      11.020  54.261   9.112  1.00  0.00    +0.000 H 
ATOM    103  H1  UNL A   1      11.206  52.863  10.143  1.00  0.00    +0.000 H 
ATOM    104  H2  UNL A   1      12.423  53.232   8.946  1.00  0.00    +0.000 H 
ENDBRANCH    2    1
ENDBRANCH    3    2
ENDBRANCH    4    3
ENDBRANCH    5    4
ENDBRANCH    6    5
ENDBRANCH    7    6
ENDBRANCH    8    7
ENDBRANCH   10    8
ENDBRANCH   11   10
ENDBRANCH   16   15
BRANCH   98   99
ATOM     99  N8  UNL A   1      10.109  53.650  16.686  1.00  0.00    +0.000 N 
ATOM    100  O5  UNL A   1      10.911  52.981  17.307  1.00  0.00    +0.000 O 
ATOM    101  O6  UNL A   1       8.810  53.203  16.634  1.00  0.00    +0.000 O 
ENDBRANCH   98   99
ENDBRANCH   20   19
BRANCH   20   21
ATOM    125  H23 UNL A   1      12.947  57.910  17.681  1.00  0.00    +0.000 H 
ATOM    123  H21 UNL A   1      12.155  59.309  18.367  1.00  0.00    +0.000 H 
ATOM    124  H22 UNL A   1      13.064  59.460  16.882  1.00  0.00    +0.000 H 
ATOM     21  C18 UNL A   1      12.428  58.818  17.456  1.00  0.00    +0.000 C 
ENDBRANCH   20   21
ENDBRANCH   22   20
ENDBRANCH   24   22
ENDBRANCH   25   24
ENDBRANCH   26   25
ENDBRANCH   27   26
ENDBRANCH   28   27
ENDBRANCH   29   28
ENDBRANCH   30   29
ENDBRANCH   31   30
ENDBRANCH   32   31
ENDBRANCH   34   32
ENDBRANCH   38   37
BRANCH   42   43
ATOM     43  C35 UNL A   1      12.543  48.493   5.332  1.00  0.00    +0.000 C 
ATOM     44  C36 UNL A   1      11.193  48.217   5.065  1.00  0.00    +0.000 C 
ATOM     45  F1  UNL A   1      10.550  48.876   4.089  1.00  0.00    +0.000 F 
ATOM     46  C37 UNL A   1      10.485  47.293   5.828  1.00  0.00    +0.000 C 
ATOM     47  F2  UNL A   1       9.183  47.084   5.588  1.00  0.00    +0.000 F 
ATOM     48  C38 UNL A   1      11.120  46.600   6.848  1.00  0.00    +0.000 C 
ATOM     49  F3  UNL A   1      10.438  45.708   7.579  1.00  0.00    +0.000 F 
ATOM     50  C39 UNL A   1      12.460  46.838   7.113  1.00  0.00    +0.000 C 
ATOM     51  F4  UNL A   1      13.079  46.159   8.090  1.00  0.00    +0.000 F 
ATOM     52  C40 UNL A   1      13.163  47.784   6.371  1.00  0.00    +0.000 C 
ATOM     53  F5  UNL A   1      14.454  48.003   6.665  1.00  0.00    +0.000 F 
ENDBRANCH   42   43
BRANCH   59   60
ATOM     65  C49 UNL A   1      17.712  46.794  -2.479  1.00  0.00    +0.000 C 
ATOM     66  F8  UNL A   1      18.166  45.937  -3.405  1.00  0.00    +0.000 F 
ATOM     67  C50 UNL A   1      18.484  47.085  -1.365  1.00  0.00    +0.000 C 
ATOM     68  F9  UNL A   1      19.693  46.526  -1.224  1.00  0.00    +0.000 F 
ATOM     69  C51 UNL A   1      18.004  47.957  -0.392  1.00  0.00    +0.000 C 
ATOM     70  F10 UNL A   1      18.767  48.209   0.682  1.00  0.00    +0.000 F 
ATOM     60  C46 UNL A   1      16.750  48.571  -0.529  1.00  0.00    +0.000 C 
ATOM     61  C47 UNL A   1      15.994  48.278  -1.674  1.00  0.00    +0.000 C 
ATOM     62  F6  UNL A   1      14.782  48.828  -1.842  1.00  0.00    +0.000 F 
ATOM     63  C48 UNL A   1      16.465  47.383  -2.631  1.00  0.00    +0.000 C 
ATOM     64  F7  UNL A   1      15.706  47.081  -3.692  1.00  0.00    +0.000 F 
ENDBRANCH   59   60
BRANCH   74   75
ATOM     75  C55 UNL A   1      17.852  55.384   0.432  1.00  0.00    +0.000 C 
ATOM     76  C56 UNL A   1      19.101  55.782   0.930  1.00  0.00    +0.000 C 
ATOM     77  F11 UNL A   1      19.557  55.265   2.081  1.00  0.00    +0.000 F 
ATOM     78  C57 UNL A   1      19.868  56.737   0.267  1.00  0.00    +0.000 C 
ATOM     79  F12 UNL A   1      21.040  57.128   0.786  1.00  0.00    +0.000 F 
ATOM     80  C58 UNL A   1      19.415  57.291  -0.919  1.00  0.00    +0.000 C 
ATOM     81  F13 UNL A   1      20.156  58.205  -1.561  1.00  0.00    +0.000 F 
ATOM     82  C59 UNL A   1      18.190  56.902  -1.439  1.00  0.00    +0.000 C 
ATOM     83  F14 UNL A   1      17.755  57.425  -2.594  1.00  0.00    +0.000 F 
ATOM     84  C60 UNL A   1      17.409  55.967  -0.763  1.00  0.00    +0.000 C 
ATOM     85  F15 UNL A   1      16.224  55.614  -1.284  1.00  0.00    +0.000 F 
ENDBRANCH   74   75
TORSDOF 28
ENDMDL
MODEL 5
REMARK VINA RESULT:      -7.0     43.828     49.945
ROOT
ATOM    142  H40 UNL A   1      11.407   9.463  29.342  1.00  0.00    +0.000 H 
ATOM    143  H41 UNL A   1      12.347   7.095  29.896  1.00  0.00    +0.000 H 
ATOM    144  H42 UNL A   1       9.048   6.642  27.434  1.00  0.00    +0.000 H 
ATOM    145  H43 UNL A   1       4.835   2.849  24.504  1.00  0.00    +0.000 H 
ATOM    146  H44 UNL A   1       3.960   5.160  23.917  1.00  0.00    +0.000 H 
ATOM    147  H45 UNL A   1       7.313   5.645  26.325  1.00  0.00    +0.000 H 
ATOM    148  H46 UNL A   1       9.022   1.011  27.264  1.00  0.00    +0.000 H 
ATOM    149  H47 UNL A   1      10.804   2.106  28.739  1.00  0.00    +0.000 H 
ATOM    150  H48 UNL A   1       7.433  11.221  26.185  1.00  0.00    +0.000 H 
ATOM    151  H49 UNL A   1       5.372  10.153  25.104  1.00  0.00    +0.000 H 
ATOM     38  C31 UNL A   1       5.449   7.305  25.062  1.00  0.00    +0.000 C 
ATOM     39  C32 UNL A   1       6.422   8.240  25.723  1.00  0.00    +0.000 C 
ATOM     40  N4  UNL A   1       7.498   7.962  26.417  1.00  0.00    +0.000 N 
ATOM     41  C33 UNL A   1       8.054   9.187  26.759  1.00  0.00    +0.000 C 
ATOM     42  C34 UNL A   1       9.142   9.436  27.526  1.00  0.00    +0.000 C 
ATOM     54  C41 UNL A   1       9.948   8.416  28.146  1.00  0.00    +0.000 C 
ATOM     55  C42 UNL A   1      11.029   8.567  28.996  1.00  0.00    +0.000 C 
ATOM     56  C43 UNL A   1      11.523   7.295  29.306  1.00  0.00    +0.000 C 
ATOM     57  C44 UNL A   1      10.721   6.350  28.689  1.00  0.00    +0.000 C 
ATOM     58  N5  UNL A   1       9.760   7.052  27.978  1.00  0.00    +0.000 N 
ATOM     59  C45 UNL A   1      10.820   4.914  28.742  1.00  0.00    +0.000 C 
ATOM     71  C52 UNL A   1       9.979   4.051  28.121  1.00  0.00    +0.000 C 
ATOM     72  N6  UNL A   1       8.877   4.330  27.324  1.00  0.00    +0.000 N 
ATOM     73  C53 UNL A   1       8.403   3.168  26.946  1.00  0.00    +0.000 C 
ATOM     74  C54 UNL A   1       7.202   2.865  26.092  1.00  0.00    +0.000 C 
ATOM     86  C61 UNL A   1       6.449   3.883  25.632  1.00  0.00    +0.000 C 
ATOM     87  C62 UNL A   1       5.254   3.743  24.806  1.00  0.00    +0.000 C 
ATOM     88  C63 UNL A   1       4.785   4.964  24.505  1.00  0.00    +0.000 C 
ATOM     89  C64 UNL A   1       5.630   5.973  25.145  1.00  0.00    +0.000 C 
ATOM     90  N7  UNL A   1       6.591   5.238  25.794  1.00  0.00    +0.000 N 
ATOM     91  C65 UNL A   1       9.168   2.016  27.444  1.00  0.00    +0.000 C 
ATOM     92  C66 UNL A   1      10.092   2.609  28.185  1.00  0.00    +0.000 C 
ATOM     93  C67 UNL A   1       7.226  10.210  26.156  1.00  0.00    +0.000 C 
ATOM     94  C68 UNL A   1       6.168   9.679  25.561  1.00  0.00    +0.000 C 
ENDROOT
BRANCH   38   37
ATOM     34  C27 UNL A   1       2.181   8.753  22.695  1.00  0.00    +0.000 C 
ATOM     35  C28 UNL A   1       2.041   8.660  24.083  1.00  0.00    +0.000 C 
ATOM     36  C29 UNL A   1       3.115   8.221  24.862  1.00  0.00    +0.000 C 
ATOM     37  C30 UNL A   1       4.322   7.839  24.256  1.00  0.00    +0.000 C 
ATOM    140  H38 UNL A   1       1.148   8.915  24.531  1.00  0.00    +0.000 H 
ATOM    141  H39 UNL A   1       3.020   8.178  25.889  1.00  0.00    +0.000 H 
ATOM    152  H50 UNL A   1       5.338   7.674  22.409  1.00  0.00    +0.000 H 
ATOM    153  H51 UNL A   1       3.540   8.617  21.084  1.00  0.00    +0.000 H 
ATOM     95  C69 UNL A   1       4.457   7.959  22.865  1.00  0.00    +0.000 C 
ATOM     96  C70 UNL A   1       3.410   8.460  22.096  1.00  0.00    +0.000 C 
BRANCH   34   32
ATOM     33  O4  UNL A   1      -0.043   8.614  21.967  1.00  0.00    +0.000 O 
ATOM     32  C26 UNL A   1       1.026   9.212  21.890  1.00  0.00    +0.000 C 
BRANCH   32   31
ATOM    139  H37 UNL A   1       1.608  10.140  20.214  1.00  0.00    +0.000 H 
ATOM     31  N3  UNL A   1       1.142  10.303  21.066  1.00  0.00    +0.000 N 
BRANCH   31   30
ATOM    137  H35 UNL A   1       1.425  12.343  20.912  1.00  0.00    +0.000 H 
ATOM    138  H36 UNL A   1      -0.240  11.787  20.732  1.00  0.00    +0.000 H 
ATOM     30  C25 UNL A   1       0.678  11.667  21.270  1.00  0.00    +0.000 C 
BRANCH   30   29
ATOM     29  C24 UNL A   1       0.405  11.965  22.742  1.00  0.00    +0.000 C 
ATOM    135  H33 UNL A   1      -0.322  12.748  22.794  1.00  0.00    +0.000 H 
ATOM    136  H34 UNL A   1       0.070  11.047  23.178  1.00  0.00    +0.000 H 
BRANCH   29   28
ATOM     28  C23 UNL A   1       1.634  12.402  23.548  1.00  0.00    +0.000 C 
ATOM    133  H31 UNL A   1       1.363  13.266  24.119  1.00  0.00    +0.000 H 
ATOM    134  H32 UNL A   1       1.908  11.558  24.143  1.00  0.00    +0.000 H 
BRANCH   28   27
ATOM     27  C22 UNL A   1       2.878  12.754  22.720  1.00  0.00    +0.000 C 
ATOM    132  H30 UNL A   1       3.075  13.790  22.905  1.00  0.00    +0.000 H 
ATOM    131  H29 UNL A   1       2.664  12.537  21.694  1.00  0.00    +0.000 H 
BRANCH   27   26
ATOM    129  H27 UNL A   1       4.230  11.998  24.177  1.00  0.00    +0.000 H 
ATOM     26  C21 UNL A   1       4.154  12.001  23.110  1.00  0.00    +0.000 C 
ATOM    130  H28 UNL A   1       4.070  11.016  22.700  1.00  0.00    +0.000 H 
BRANCH   26   25
ATOM     25  C20 UNL A   1       5.435  12.613  22.537  1.00  0.00    +0.000 C 
ATOM    127  H25 UNL A   1       5.201  13.115  21.621  1.00  0.00    +0.000 H 
ATOM    128  H26 UNL A   1       5.829  13.297  23.261  1.00  0.00    +0.000 H 
BRANCH   25   24
ATOM    126  H24 UNL A   1       6.131  10.859  21.716  1.00  0.00    +0.000 H 
ATOM     24  N2  UNL A   1       6.442  11.606  22.275  1.00  0.00    +0.000 N 
BRANCH   24   22
ATOM     22  C19 UNL A   1       7.743  11.510  22.665  1.00  0.00    +0.000 C 
ATOM     23  O3  UNL A   1       8.080  12.219  23.621  1.00  0.00    +0.000 O 
BRANCH   22   20
ATOM    122  H20 UNL A   1       9.622  10.599  22.637  1.00  0.00    +0.000 H 
ATOM     20  C17 UNL A   1       8.783  10.613  21.974  1.00  0.00    +0.000 C 
BRANCH   20   19
ATOM     97  C71 UNL A   1       7.822   8.649  20.705  1.00  0.00    +0.000 C 
ATOM     98  C72 UNL A   1       7.486   7.286  20.572  1.00  0.00    +0.000 C 
ATOM     16  C13 UNL A   1       7.778   6.361  21.592  1.00  0.00    +0.000 C 
ATOM     17  C14 UNL A   1       8.284   6.889  22.792  1.00  0.00    +0.000 C 
ATOM     18  C15 UNL A   1       8.534   8.256  22.954  1.00  0.00    +0.000 C 
ATOM     19  C16 UNL A   1       8.373   9.150  21.895  1.00  0.00    +0.000 C 
ATOM    120  H18 UNL A   1       8.478   6.249  23.578  1.00  0.00    +0.000 H 
ATOM    121  H19 UNL A   1       8.842   8.609  23.873  1.00  0.00    +0.000 H 
ATOM    154  H52 UNL A   1       7.660   9.290  19.913  1.00  0.00    +0.000 H 
BRANCH   16   15
ATOM    102  C73 UNL A   1       8.767   4.053  21.459  1.00  0.00    +0.000 C 
ATOM     11  C8  UNL A   1       8.613   2.671  21.331  1.00  0.00    +0.000 C 
ATOM     12  C9  UNL A   1       7.353   2.090  21.229  1.00  0.00    +0.000 C 
ATOM     13  C10 UNL A   1       6.226   2.905  21.260  1.00  0.00    +0.000 C 
ATOM     14  C11 UNL A   1       6.370   4.292  21.363  1.00  0.00    +0.000 C 
ATOM     15  C12 UNL A   1       7.640   4.893  21.461  1.00  0.00    +0.000 C 
ATOM    117  H15 UNL A   1       7.255   1.068  21.131  1.00  0.00    +0.000 H 
ATOM    118  H16 UNL A   1       5.284   2.486  21.206  1.00  0.00    +0.000 H 
ATOM    119  H17 UNL A   1       5.528   4.888  21.369  1.00  0.00    +0.000 H 
ATOM    155  H53 UNL A   1       9.710   4.458  21.553  1.00  0.00    +0.000 H 
BRANCH   11   10
ATOM     10  O2  UNL A   1       9.715   1.819  21.137  1.00  0.00    +0.000 O 
BRANCH   10    8
ATOM      9  O1  UNL A   1      11.244   2.113  22.865  1.00  0.00    +0.000 O 
ATOM      8  C7  UNL A   1      10.946   2.156  21.679  1.00  0.00    +0.000 C 
BRANCH    8    7
ATOM    116  H14 UNL A   1      12.449   3.295  20.974  1.00  0.00    +0.000 H 
ATOM      7  N1  UNL A   1      11.851   2.552  20.731  1.00  0.00    +0.000 N 
BRANCH    7    6
ATOM    114  H12 UNL A   1      13.012   1.597  19.321  1.00  0.00    +0.000 H 
ATOM    115  H13 UNL A   1      11.287   1.218  19.279  1.00  0.00    +0.000 H 
ATOM      6  C6  UNL A   1      12.019   1.989  19.406  1.00  0.00    +0.000 C 
BRANCH    6    5
ATOM    113  H11 UNL A   1      12.022   2.537  17.382  1.00  0.00    +0.000 H 
ATOM      5  C5  UNL A   1      11.802   3.029  18.307  1.00  0.00    +0.000 C 
ATOM    112  H10 UNL A   1      12.442   3.862  18.506  1.00  0.00    +0.000 H 
BRANCH    5    4
ATOM      4  C4  UNL A   1      10.366   3.550  18.184  1.00  0.00    +0.000 C 
ATOM    110  H8  UNL A   1      10.064   3.912  19.144  1.00  0.00    +0.000 H 
ATOM    111  H9  UNL A   1      10.391   4.306  17.427  1.00  0.00    +0.000 H 
BRANCH    4    3
ATOM      3  C3  UNL A   1       9.328   2.524  17.718  1.00  0.00    +0.000 C 
ATOM    108  H6  UNL A   1       9.825   1.812  17.093  1.00  0.00    +0.000 H 
ATOM    109  H7  UNL A   1       8.912   2.100  18.608  1.00  0.00    +0.000 H 
BRANCH    3    2
ATOM      2  C2  UNL A   1       8.145   3.096  16.932  1.00  0.00    +0.000 C 
ATOM    107  H5  UNL A   1       8.065   2.534  16.026  1.00  0.00    +0.000 H 
ATOM    106  H4  UNL A   1       8.329   4.134  16.749  1.00  0.00    +0.000 H 
BRANCH    2    1
ATOM      1  C1  UNL A   1       6.817   2.964  17.663  1.00  0.00    +0.000 C 
ATOM    105  H3  UNL A   1       6.436   1.973  17.533  1.00  0.00    +0.000 H 
ATOM    103  H1  UNL A   1       6.119   3.669  17.263  1.00  0.00    +0.000 H 
ATOM    104  H2  UNL A   1       6.962   3.158  18.705  1.00  0.00    +0.000 H 
ENDBRANCH    2    1
ENDBRANCH    3    2
ENDBRANCH    4    3
ENDBRANCH    5    4
ENDBRANCH    6    5
ENDBRANCH    7    6
ENDBRANCH    8    7
ENDBRANCH   10    8
ENDBRANCH   11   10
ENDBRANCH   16   15
BRANCH   98   99
ATOM     99  N8  UNL A   1       6.779   6.890  19.375  1.00  0.00    +0.000 N 
ATOM    100  O5  UNL A   1       5.568   6.964  19.317  1.00  0.00    +0.000 O 
ATOM    101  O6  UNL A   1       7.433   6.285  18.328  1.00  0.00    +0.000 O 
ENDBRANCH   98   99
ENDBRANCH   20   19
BRANCH   20   21
ATOM    125  H23 UNL A   1       9.907  12.104  20.933  1.00  0.00    +0.000 H 
ATOM    123  H21 UNL A   1       8.594  11.422  20.003  1.00  0.00    +0.000 H 
ATOM    124  H22 UNL A   1      10.055  10.499  20.260  1.00  0.00    +0.000 H 
ATOM     21  C18 UNL A   1       9.379  11.204  20.697  1.00  0.00    +0.000 C 
ENDBRANCH   20   21
ENDBRANCH   22   20
ENDBRANCH   24   22
ENDBRANCH   25   24
ENDBRANCH   26   25
ENDBRANCH   27   26
ENDBRANCH   28   27
ENDBRANCH   29   28
ENDBRANCH   30   29
ENDBRANCH   31   30
ENDBRANCH   32   31
ENDBRANCH   34   32
ENDBRANCH   38   37
BRANCH   42   43
ATOM     43  C35 UNL A   1       9.526  10.872  27.738  1.00  0.00    +0.000 C 
ATOM     44  C36 UNL A   1      10.595  11.459  27.044  1.00  0.00    +0.000 C 
ATOM     45  F1  UNL A   1      11.330  10.728  26.194  1.00  0.00    +0.000 F 
ATOM     46  C37 UNL A   1      10.941  12.792  27.254  1.00  0.00    +0.000 C 
ATOM     47  F2  UNL A   1      11.999  13.316  26.618  1.00  0.00    +0.000 F 
ATOM     48  C38 UNL A   1      10.204  13.573  28.131  1.00  0.00    +0.000 C 
ATOM     49  F3  UNL A   1      10.535  14.856  28.327  1.00  0.00    +0.000 F 
ATOM     50  C39 UNL A   1       9.127  13.021  28.808  1.00  0.00    +0.000 C 
ATOM     51  F4  UNL A   1       8.405  13.779  29.646  1.00  0.00    +0.000 F 
ATOM     52  C40 UNL A   1       8.797  11.681  28.624  1.00  0.00    +0.000 C 
ATOM     53  F5  UNL A   1       7.761  11.173  29.308  1.00  0.00    +0.000 F 
ENDBRANCH   42   43
BRANCH   59   60
ATOM     65  C49 UNL A   1      14.000   3.257  31.134  1.00  0.00    +0.000 C 
ATOM     66  F8  UNL A   1      14.986   2.741  31.881  1.00  0.00    +0.000 F 
ATOM     67  C50 UNL A   1      12.898   3.839  31.743  1.00  0.00    +0.000 C 
ATOM     68  F9  UNL A   1      12.830   3.904  33.079  1.00  0.00    +0.000 F 
ATOM     69  C51 UNL A   1      11.864   4.355  30.968  1.00  0.00    +0.000 C 
ATOM     70  F10 UNL A   1      10.805   4.899  31.585  1.00  0.00    +0.000 F 
ATOM     60  C46 UNL A   1      11.925   4.318  29.567  1.00  0.00    +0.000 C 
ATOM     61  C47 UNL A   1      13.057   3.743  28.972  1.00  0.00    +0.000 C 
ATOM     62  F6  UNL A   1      13.154   3.670  27.635  1.00  0.00    +0.000 F 
ATOM     63  C48 UNL A   1      14.077   3.202  29.750  1.00  0.00    +0.000 C 
ATOM     64  F7  UNL A   1      15.127   2.615  29.161  1.00  0.00    +0.000 F 
ENDBRANCH   59   60
BRANCH   74   75
ATOM     75  C55 UNL A   1       6.821   1.465  25.779  1.00  0.00    +0.000 C 
ATOM     76  C56 UNL A   1       7.544   0.717  24.839  1.00  0.00    +0.000 C 
ATOM     77  F11 UNL A   1       8.575   1.277  24.190  1.00  0.00    +0.000 F 
ATOM     78  C57 UNL A   1       7.189  -0.596  24.538  1.00  0.00    +0.000 C 
ATOM     79  F12 UNL A   1       7.873  -1.275  23.607  1.00  0.00    +0.000 F 
ATOM     80  C58 UNL A   1       6.123  -1.195  25.190  1.00  0.00    +0.000 C 
ATOM     81  F13 UNL A   1       5.786  -2.461  24.906  1.00  0.00    +0.000 F 
ATOM     82  C59 UNL A   1       5.402  -0.481  26.135  1.00  0.00    +0.000 C 
ATOM     83  F14 UNL A   1       4.380  -1.062  26.778  1.00  0.00    +0.000 F 
ATOM     84  C60 UNL A   1       5.738   0.842  26.417  1.00  0.00    +0.000 C 
ATOM     85  F15 UNL A   1       5.020   1.513  27.329  1.00  0.00    +0.000 F 
ENDBRANCH   74   75
TORSDOF 28
ENDMDL
MODEL 6
REMARK VINA RESULT:      -6.9      2.555      4.495
ROOT
ATOM    142  H40 UNL A   1      18.528  53.442  -1.048  1.00  0.00    +0.000 H 
ATOM    143  H41 UNL A   1      18.106  50.934  -1.623  1.00  0.00    +0.000 H 
ATOM    144  H42 UNL A   1      15.785  51.924   1.661  1.00  0.00    +0.000 H 
ATOM    145  H43 UNL A   1      11.801  50.168   6.327  1.00  0.00    +0.000 H 
ATOM    146  H44 UNL A   1      12.169  52.628   6.846  1.00  0.00    +0.000 H 
ATOM    147  H45 UNL A   1      14.450  51.680   3.502  1.00  0.00    +0.000 H 
ATOM    148  H46 UNL A   1      13.495  46.846   2.503  1.00  0.00    +0.000 H 
ATOM    149  H47 UNL A   1      15.204  47.033   0.608  1.00  0.00    +0.000 H 
ATOM    150  H48 UNL A   1      16.429  56.811   2.569  1.00  0.00    +0.000 H 
ATOM    151  H49 UNL A   1      15.104  56.539   4.743  1.00  0.00    +0.000 H 
ATOM     38  C31 UNL A   1      13.983  53.941   5.082  1.00  0.00    +0.000 C 
ATOM     39  C32 UNL A   1      14.911  54.406   3.996  1.00  0.00    +0.000 C 
ATOM     40  N4  UNL A   1      15.405  53.736   2.984  1.00  0.00    +0.000 N 
ATOM     41  C33 UNL A   1      16.165  54.646   2.262  1.00  0.00    +0.000 C 
ATOM     42  C34 UNL A   1      16.926  54.429   1.163  1.00  0.00    +0.000 C 
ATOM     54  C41 UNL A   1      17.081  53.146   0.525  1.00  0.00    +0.000 C 
ATOM     55  C42 UNL A   1      17.883  52.808  -0.550  1.00  0.00    +0.000 C 
ATOM     56  C43 UNL A   1      17.669  51.457  -0.848  1.00  0.00    +0.000 C 
ATOM     57  C44 UNL A   1      16.771  50.942   0.072  1.00  0.00    +0.000 C 
ATOM     58  N5  UNL A   1      16.416  51.990   0.907  1.00  0.00    +0.000 N 
ATOM     59  C45 UNL A   1      16.272  49.596   0.184  1.00  0.00    +0.000 C 
ATOM     71  C52 UNL A   1      15.402  49.163   1.130  1.00  0.00    +0.000 C 
ATOM     72  N6  UNL A   1      14.814  49.877   2.165  1.00  0.00    +0.000 N 
ATOM     73  C53 UNL A   1      14.042  49.026   2.796  1.00  0.00    +0.000 C 
ATOM     74  C54 UNL A   1      13.185  49.244   4.013  1.00  0.00    +0.000 C 
ATOM     86  C61 UNL A   1      13.174  50.455   4.600  1.00  0.00    +0.000 C 
ATOM     87  C62 UNL A   1      12.404  50.811   5.789  1.00  0.00    +0.000 C 
ATOM     88  C63 UNL A   1      12.606  52.108   6.069  1.00  0.00    +0.000 C 
ATOM     89  C64 UNL A   1      13.548  52.667   5.098  1.00  0.00    +0.000 C 
ATOM     90  N7  UNL A   1      13.832  51.613   4.266  1.00  0.00    +0.000 N 
ATOM     91  C65 UNL A   1      14.037  47.676   2.216  1.00  0.00    +0.000 C 
ATOM     92  C66 UNL A   1      14.911  47.804   1.229  1.00  0.00    +0.000 C 
ATOM     93  C67 UNL A   1      16.027  55.928   2.921  1.00  0.00    +0.000 C 
ATOM     94  C68 UNL A   1      15.316  55.819   4.034  1.00  0.00    +0.000 C 
ENDROOT
BRANCH   38   37
ATOM     34  C27 UNL A   1      12.459  56.637   8.047  1.00  0.00    +0.000 C 
ATOM     35  C28 UNL A   1      13.602  55.879   8.323  1.00  0.00    +0.000 C 
ATOM     36  C29 UNL A   1      14.122  55.025   7.347  1.00  0.00    +0.000 C 
ATOM     37  C30 UNL A   1      13.484  54.895   6.104  1.00  0.00    +0.000 C 
ATOM    140  H38 UNL A   1      14.060  55.951   9.244  1.00  0.00    +0.000 H 
ATOM    141  H39 UNL A   1      14.981  54.486   7.542  1.00  0.00    +0.000 H 
ATOM    152  H50 UNL A   1      11.871  55.585   4.922  1.00  0.00    +0.000 H 
ATOM    153  H51 UNL A   1      11.087  57.205   6.546  1.00  0.00    +0.000 H 
ATOM     95  C69 UNL A   1      12.352  55.678   5.831  1.00  0.00    +0.000 C 
ATOM     96  C70 UNL A   1      11.873  56.579   6.779  1.00  0.00    +0.000 C 
BRANCH   34   32
ATOM     33  O4  UNL A   1      12.102  58.739   9.021  1.00  0.00    +0.000 O 
ATOM     32  C26 UNL A   1      11.922  57.528   9.100  1.00  0.00    +0.000 C 
BRANCH   32   31
ATOM    139  H37 UNL A   1      11.646  56.245  10.612  1.00  0.00    +0.000 H 
ATOM     31  N3  UNL A   1      11.221  57.008  10.159  1.00  0.00    +0.000 N 
BRANCH   31   30
ATOM    137  H35 UNL A   1      10.100  57.856  11.673  1.00  0.00    +0.000 H 
ATOM    138  H36 UNL A   1       9.504  58.131  10.034  1.00  0.00    +0.000 H 
ATOM     30  C25 UNL A   1       9.939  57.422  10.709  1.00  0.00    +0.000 C 
BRANCH   30   29
ATOM     29  C24 UNL A   1       8.971  56.249  10.850  1.00  0.00    +0.000 C 
ATOM    135  H33 UNL A   1       8.451  56.134   9.923  1.00  0.00    +0.000 H 
ATOM    136  H34 UNL A   1       9.566  55.398  11.110  1.00  0.00    +0.000 H 
BRANCH   29   28
ATOM     28  C23 UNL A   1       7.932  56.405  11.965  1.00  0.00    +0.000 C 
ATOM    133  H31 UNL A   1       6.963  56.436  11.511  1.00  0.00    +0.000 H 
ATOM    134  H32 UNL A   1       8.077  55.571  12.619  1.00  0.00    +0.000 H 
BRANCH   28   27
ATOM     27  C22 UNL A   1       8.082  57.657  12.841  1.00  0.00    +0.000 C 
ATOM    132  H30 UNL A   1       7.381  58.371  12.460  1.00  0.00    +0.000 H 
ATOM    131  H29 UNL A   1       9.099  57.982  12.780  1.00  0.00    +0.000 H 
BRANCH   27   26
ATOM    129  H27 UNL A   1       8.432  58.020  14.907  1.00  0.00    +0.000 H 
ATOM     26  C21 UNL A   1       7.732  57.463  14.320  1.00  0.00    +0.000 C 
ATOM    130  H28 UNL A   1       6.726  57.802  14.448  1.00  0.00    +0.000 H 
BRANCH   26   25
ATOM     25  C20 UNL A   1       7.772  56.003  14.781  1.00  0.00    +0.000 C 
ATOM    127  H25 UNL A   1       6.960  55.831  15.456  1.00  0.00    +0.000 H 
ATOM    128  H26 UNL A   1       7.692  55.379  13.915  1.00  0.00    +0.000 H 
BRANCH   25   24
ATOM    126  H24 UNL A   1       9.171  56.196  16.279  1.00  0.00    +0.000 H 
ATOM     24  N2  UNL A   1       9.015  55.684  15.452  1.00  0.00    +0.000 N 
BRANCH   24   22
ATOM     22  C19 UNL A   1      10.005  54.802  15.144  1.00  0.00    +0.000 C 
ATOM     23  O3  UNL A   1       9.788  53.618  15.427  1.00  0.00    +0.000 O 
BRANCH   22   20
ATOM    122  H20 UNL A   1      12.054  55.171  15.312  1.00  0.00    +0.000 H 
ATOM     20  C17 UNL A   1      11.347  55.205  14.511  1.00  0.00    +0.000 C 
BRANCH   20   19
ATOM     97  C71 UNL A   1      13.050  53.464  13.835  1.00  0.00    +0.000 C 
ATOM     98  C72 UNL A   1      13.549  52.468  12.971  1.00  0.00    +0.000 C 
ATOM     16  C13 UNL A   1      12.848  52.094  11.809  1.00  0.00    +0.000 C 
ATOM     17  C14 UNL A   1      11.714  52.859  11.487  1.00  0.00    +0.000 C 
ATOM     18  C15 UNL A   1      11.271  53.907  12.300  1.00  0.00    +0.000 C 
ATOM     19  C16 UNL A   1      11.888  54.185  13.520  1.00  0.00    +0.000 C 
ATOM    120  H18 UNL A   1      11.193  52.641  10.624  1.00  0.00    +0.000 H 
ATOM    121  H19 UNL A   1      10.474  54.485  11.992  1.00  0.00    +0.000 H 
ATOM    154  H52 UNL A   1      13.549  53.667  14.715  1.00  0.00    +0.000 H 
BRANCH   16   15
ATOM    102  C73 UNL A   1      12.966  49.618  11.388  1.00  0.00    +0.000 C 
ATOM     11  C8  UNL A   1      13.303  48.539  10.567  1.00  0.00    +0.000 C 
ATOM     12  C9  UNL A   1      13.842  48.737   9.300  1.00  0.00    +0.000 C 
ATOM     13  C10 UNL A   1      14.043  50.035   8.844  1.00  0.00    +0.000 C 
ATOM     14  C11 UNL A   1      13.733  51.121   9.668  1.00  0.00    +0.000 C 
ATOM     15  C12 UNL A   1      13.193  50.936  10.955  1.00  0.00    +0.000 C 
ATOM    117  H15 UNL A   1      14.089  47.931   8.706  1.00  0.00    +0.000 H 
ATOM    118  H16 UNL A   1      14.423  50.197   7.897  1.00  0.00    +0.000 H 
ATOM    119  H17 UNL A   1      13.902  52.079   9.325  1.00  0.00    +0.000 H 
ATOM    155  H53 UNL A   1      12.551  49.446  12.316  1.00  0.00    +0.000 H 
BRANCH   11   10
ATOM     10  O2  UNL A   1      13.267  47.214  11.036  1.00  0.00    +0.000 O 
BRANCH   10    8
ATOM      9  O1  UNL A   1      12.412  45.117  10.506  1.00  0.00    +0.000 O 
ATOM      8  C7  UNL A   1      12.315  46.336  10.541  1.00  0.00    +0.000 C 
BRANCH    8    7
ATOM    116  H14 UNL A   1      11.158  47.950  10.209  1.00  0.00    +0.000 H 
ATOM      7  N1  UNL A   1      11.196  46.975  10.078  1.00  0.00    +0.000 N 
BRANCH    7    6
ATOM    114  H12 UNL A   1      10.370  46.016   8.451  1.00  0.00    +0.000 H 
ATOM    115  H13 UNL A   1       9.720  45.552  10.027  1.00  0.00    +0.000 H 
ATOM      6  C6  UNL A   1      10.061  46.362   9.416  1.00  0.00    +0.000 C 
BRANCH    6    5
ATOM    113  H11 UNL A   1       8.130  47.014   9.909  1.00  0.00    +0.000 H 
ATOM      5  C5  UNL A   1       8.900  47.341   9.241  1.00  0.00    +0.000 C 
ATOM    112  H10 UNL A   1       8.604  47.326   8.214  1.00  0.00    +0.000 H 
BRANCH    5    4
ATOM      4  C4  UNL A   1       9.213  48.792   9.625  1.00  0.00    +0.000 C 
ATOM    110  H8  UNL A   1       8.286  49.293   9.804  1.00  0.00    +0.000 H 
ATOM    111  H9  UNL A   1       9.847  48.737  10.485  1.00  0.00    +0.000 H 
BRANCH    4    3
ATOM      3  C3  UNL A   1       9.992  49.598   8.580  1.00  0.00    +0.000 C 
ATOM    108  H6  UNL A   1       9.826  50.636   8.773  1.00  0.00    +0.000 H 
ATOM    109  H7  UNL A   1      11.014  49.299   8.680  1.00  0.00    +0.000 H 
BRANCH    3    2
ATOM      2  C2  UNL A   1       9.614  49.322   7.122  1.00  0.00    +0.000 C 
ATOM    107  H5  UNL A   1       9.422  48.273   7.037  1.00  0.00    +0.000 H 
ATOM    106  H4  UNL A   1      10.422  49.637   6.496  1.00  0.00    +0.000 H 
BRANCH    2    1
ATOM      1  C1  UNL A   1       8.351  50.047   6.682  1.00  0.00    +0.000 C 
ATOM    105  H3  UNL A   1       8.596  51.048   6.395  1.00  0.00    +0.000 H 
ATOM    103  H1  UNL A   1       7.652  50.070   7.491  1.00  0.00    +0.000 H 
ATOM    104  H2  UNL A   1       7.916  49.534   5.850  1.00  0.00    +0.000 H 
ENDBRANCH    2    1
ENDBRANCH    3    2
ENDBRANCH    4    3
ENDBRANCH    5    4
ENDBRANCH    6    5
ENDBRANCH    7    6
ENDBRANCH    8    7
ENDBRANCH   10    8
ENDBRANCH   11   10
ENDBRANCH   16   15
BRANCH   98   99
ATOM     99  N8  UNL A   1      14.834  51.889  13.295  1.00  0.00    +0.000 N 
ATOM    100  O5  UNL A   1      14.936  51.062  14.179  1.00  0.00    +0.000 O 
ATOM    101  O6  UNL A   1      15.992  52.357  12.721  1.00  0.00    +0.000 O 
ENDBRANCH   98   99
ENDBRANCH   20   19
BRANCH   20   21
ATOM    125  H23 UNL A   1      12.353  57.087  14.382  1.00  0.00    +0.000 H 
ATOM    123  H21 UNL A   1      10.614  57.215  14.502  1.00  0.00    +0.000 H 
ATOM    124  H22 UNL A   1      11.352  56.717  12.998  1.00  0.00    +0.000 H 
ATOM     21  C18 UNL A   1      11.423  56.666  14.065  1.00  0.00    +0.000 C 
ENDBRANCH   20   21
ENDBRANCH   22   20
ENDBRANCH   24   22
ENDBRANCH   25   24
ENDBRANCH   26   25
ENDBRANCH   27   26
ENDBRANCH   28   27
ENDBRANCH   29   28
ENDBRANCH   30   29
ENDBRANCH   31   30
ENDBRANCH   32   31
ENDBRANCH   34   32
ENDBRANCH   38   37
BRANCH   42   43
ATOM     43  C35 UNL A   1      17.652  55.606   0.578  1.00  0.00    +0.000 C 
ATOM     44  C36 UNL A   1      17.054  56.438  -0.380  1.00  0.00    +0.000 C 
ATOM     45  F1  UNL A   1      15.818  56.172  -0.827  1.00  0.00    +0.000 F 
ATOM     46  C37 UNL A   1      17.740  57.525  -0.915  1.00  0.00    +0.000 C 
ATOM     47  F2  UNL A   1      17.167  58.275  -1.867  1.00  0.00    +0.000 F 
ATOM     48  C38 UNL A   1      19.022  57.823  -0.477  1.00  0.00    +0.000 C 
ATOM     49  F3  UNL A   1      19.679  58.872  -0.990  1.00  0.00    +0.000 F 
ATOM     50  C39 UNL A   1      19.623  57.030   0.488  1.00  0.00    +0.000 C 
ATOM     51  F4  UNL A   1      20.857  57.324   0.922  1.00  0.00    +0.000 F 
ATOM     52  C40 UNL A   1      18.951  55.924   1.003  1.00  0.00    +0.000 C 
ATOM     53  F5  UNL A   1      19.568  55.166   1.922  1.00  0.00    +0.000 F 
ENDBRANCH   42   43
BRANCH   59   60
ATOM     65  C49 UNL A   1      17.641  46.650  -2.650  1.00  0.00    +0.000 C 
ATOM     66  F8  UNL A   1      18.064  45.737  -3.534  1.00  0.00    +0.000 F 
ATOM     67  C50 UNL A   1      16.428  47.294  -2.843  1.00  0.00    +0.000 C 
ATOM     68  F9  UNL A   1      15.669  46.988  -3.903  1.00  0.00    +0.000 F 
ATOM     69  C51 UNL A   1      15.998  48.260  -1.937  1.00  0.00    +0.000 C 
ATOM     70  F10 UNL A   1      14.828  48.876  -2.157  1.00  0.00    +0.000 F 
ATOM     60  C46 UNL A   1      16.766  48.581  -0.807  1.00  0.00    +0.000 C 
ATOM     61  C47 UNL A   1      17.980  47.903  -0.621  1.00  0.00    +0.000 C 
ATOM     62  F6  UNL A   1      18.756  48.187   0.436  1.00  0.00    +0.000 F 
ATOM     63  C48 UNL A   1      18.420  46.959  -1.544  1.00  0.00    +0.000 C 
ATOM     64  F7  UNL A   1      19.605  46.358  -1.371  1.00  0.00    +0.000 F 
ENDBRANCH   59   60
BRANCH   74   75
ATOM     75  C55 UNL A   1      12.379  48.137   4.588  1.00  0.00    +0.000 C 
ATOM     76  C56 UNL A   1      11.116  47.823   4.067  1.00  0.00    +0.000 C 
ATOM     77  F11 UNL A   1      10.611  48.545   3.057  1.00  0.00    +0.000 F 
ATOM     78  C57 UNL A   1      10.354  46.788   4.605  1.00  0.00    +0.000 C 
ATOM     79  F12 UNL A   1       9.133  46.534   4.113  1.00  0.00    +0.000 F 
ATOM     80  C58 UNL A   1      10.850  46.031   5.654  1.00  0.00    +0.000 C 
ATOM     81  F13 UNL A   1      10.120  45.031   6.166  1.00  0.00    +0.000 F 
ATOM     82  C59 UNL A   1      12.103  46.314   6.176  1.00  0.00    +0.000 C 
ATOM     83  F14 UNL A   1      12.593  45.574   7.181  1.00  0.00    +0.000 F 
ATOM     84  C60 UNL A   1      12.856  47.365   5.658  1.00  0.00    +0.000 C 
ATOM     85  F15 UNL A   1      14.061  47.622   6.186  1.00  0.00    +0.000 F 
ENDBRANCH   74   75
TORSDOF 28
ENDMDL
MODEL 7
REMARK VINA RESULT:      -6.9     62.421     68.445
ROOT
ATOM    142  H40 UNL A   1      40.223  11.854  54.925  1.00  0.00    +0.000 H 
ATOM    143  H41 UNL A   1      38.874  14.071  54.673  1.00  0.00    +0.000 H 
ATOM    144  H42 UNL A   1      42.514  14.535  52.752  1.00  0.00    +0.000 H 
ATOM    145  H43 UNL A   1      46.678  18.247  49.654  1.00  0.00    +0.000 H 
ATOM    146  H44 UNL A   1      47.963  16.064  49.850  1.00  0.00    +0.000 H 
ATOM    147  H45 UNL A   1      44.286  15.547  51.719  1.00  0.00    +0.000 H 
ATOM    148  H46 UNL A   1      41.804  19.876  51.107  1.00  0.00    +0.000 H 
ATOM    149  H47 UNL A   1      39.924  18.848  52.507  1.00  0.00    +0.000 H 
ATOM    150  H48 UNL A   1      44.961  10.169  53.039  1.00  0.00    +0.000 H 
ATOM    151  H49 UNL A   1      47.033  11.315  52.067  1.00  0.00    +0.000 H 
ATOM     38  C31 UNL A   1      46.579  14.011  51.262  1.00  0.00    +0.000 C 
ATOM     39  C32 UNL A   1      45.628  13.094  51.978  1.00  0.00    +0.000 C 
ATOM     40  N4  UNL A   1      44.405  13.323  52.388  1.00  0.00    +0.000 N 
ATOM     41  C33 UNL A   1      43.964  12.131  52.946  1.00  0.00    +0.000 C 
ATOM     42  C34 UNL A   1      42.786  11.872  53.563  1.00  0.00    +0.000 C 
ATOM     54  C41 UNL A   1      41.738  12.842  53.751  1.00  0.00    +0.000 C 
ATOM     55  C42 UNL A   1      40.537  12.698  54.422  1.00  0.00    +0.000 C 
ATOM     56  C43 UNL A   1      39.821  13.894  54.300  1.00  0.00    +0.000 C 
ATOM     57  C44 UNL A   1      40.596  14.800  53.595  1.00  0.00    +0.000 C 
ATOM     58  N5  UNL A   1      41.768  14.140  53.261  1.00  0.00    +0.000 N 
ATOM     59  C45 UNL A   1      40.292  16.165  53.250  1.00  0.00    +0.000 C 
ATOM     71  C52 UNL A   1      41.117  16.998  52.568  1.00  0.00    +0.000 C 
ATOM     72  N6  UNL A   1      42.386  16.748  52.065  1.00  0.00    +0.000 N 
ATOM     73  C53 UNL A   1      42.764  17.857  51.476  1.00  0.00    +0.000 C 
ATOM     74  C54 UNL A   1      44.062  18.167  50.781  1.00  0.00    +0.000 C 
ATOM     86  C61 UNL A   1      45.024  17.227  50.736  1.00  0.00    +0.000 C 
ATOM     87  C62 UNL A   1      46.333  17.388  50.109  1.00  0.00    +0.000 C 
ATOM     88  C63 UNL A   1      47.016  16.238  50.223  1.00  0.00    +0.000 C 
ATOM     89  C64 UNL A   1      46.204  15.268  50.960  1.00  0.00    +0.000 C 
ATOM     90  N7  UNL A   1      45.039  15.944  51.224  1.00  0.00    +0.000 N 
ATOM     91  C65 UNL A   1      41.764  18.932  51.520  1.00  0.00    +0.000 C 
ATOM     92  C66 UNL A   1      40.796  18.369  52.230  1.00  0.00    +0.000 C 
ATOM     93  C67 UNL A   1      45.029  11.166  52.779  1.00  0.00    +0.000 C 
ATOM     94  C68 UNL A   1      46.104  11.728  52.245  1.00  0.00    +0.000 C 
ENDROOT
BRANCH   38   37
ATOM     34  C27 UNL A   1      50.430  12.677  49.931  1.00  0.00    +0.000 C 
ATOM     35  C28 UNL A   1      50.259  13.082  51.259  1.00  0.00    +0.000 C 
ATOM     36  C29 UNL A   1      48.998  13.485  51.706  1.00  0.00    +0.000 C 
ATOM     37  C30 UNL A   1      47.909  13.520  50.821  1.00  0.00    +0.000 C 
ATOM    140  H38 UNL A   1      51.061  13.083  51.907  1.00  0.00    +0.000 H 
ATOM    141  H39 UNL A   1      48.866  13.759  52.693  1.00  0.00    +0.000 H 
ATOM    152  H50 UNL A   1      47.296  13.117  48.838  1.00  0.00    +0.000 H 
ATOM    153  H51 UNL A   1      49.438  12.239  48.120  1.00  0.00    +0.000 H 
ATOM     95  C69 UNL A   1      48.088  13.089  49.498  1.00  0.00    +0.000 C 
ATOM     96  C70 UNL A   1      49.330  12.624  49.071  1.00  0.00    +0.000 C 
BRANCH   34   32
ATOM     33  O4  UNL A   1      52.248  12.746  48.453  1.00  0.00    +0.000 O 
ATOM     32  C26 UNL A   1      51.778  12.264  49.479  1.00  0.00    +0.000 C 
BRANCH   32   31
ATOM    139  H37 UNL A   1      52.500  10.433  49.847  1.00  0.00    +0.000 H 
ATOM     31  N3  UNL A   1      52.504  11.351  50.202  1.00  0.00    +0.000 N 
BRANCH   31   30
ATOM    137  H35 UNL A   1      54.311  11.374  51.201  1.00  0.00    +0.000 H 
ATOM    138  H36 UNL A   1      53.115  12.546  51.759  1.00  0.00    +0.000 H 
ATOM     30  C25 UNL A   1      53.278  11.544  51.419  1.00  0.00    +0.000 C 
BRANCH   30   29
ATOM     29  C24 UNL A   1      52.844  10.591  52.531  1.00  0.00    +0.000 C 
ATOM    135  H33 UNL A   1      53.706  10.050  52.860  1.00  0.00    +0.000 H 
ATOM    136  H34 UNL A   1      52.409  11.200  53.296  1.00  0.00    +0.000 H 
BRANCH   29   28
ATOM     28  C23 UNL A   1      51.770   9.577  52.125  1.00  0.00    +0.000 C 
ATOM    133  H31 UNL A   1      50.925   9.717  52.767  1.00  0.00    +0.000 H 
ATOM    134  H32 UNL A   1      51.565   9.764  51.093  1.00  0.00    +0.000 H 
BRANCH   28   27
ATOM     27  C22 UNL A   1      52.186   8.102  52.210  1.00  0.00    +0.000 C 
ATOM    132  H30 UNL A   1      51.704   7.706  53.080  1.00  0.00    +0.000 H 
ATOM    131  H29 UNL A   1      53.254   8.062  52.259  1.00  0.00    +0.000 H 
BRANCH   27   26
ATOM    129  H27 UNL A   1      50.828   7.643  50.639  1.00  0.00    +0.000 H 
ATOM     26  C21 UNL A   1      51.731   7.228  51.037  1.00  0.00    +0.000 C 
ATOM    130  H28 UNL A   1      52.529   7.223  50.325  1.00  0.00    +0.000 H 
BRANCH   26   25
ATOM     25  C20 UNL A   1      51.463   5.769  51.416  1.00  0.00    +0.000 C 
ATOM    127  H25 UNL A   1      51.113   5.245  50.551  1.00  0.00    +0.000 H 
ATOM    128  H26 UNL A   1      52.378   5.347  51.777  1.00  0.00    +0.000 H 
BRANCH   25   24
ATOM    126  H24 UNL A   1      50.830   5.357  53.331  1.00  0.00    +0.000 H 
ATOM     24  N2  UNL A   1      50.471   5.658  52.465  1.00  0.00    +0.000 N 
BRANCH   24   22
ATOM     22  C19 UNL A   1      49.131   5.897  52.466  1.00  0.00    +0.000 C 
ATOM     23  O3  UNL A   1      48.407   4.945  52.152  1.00  0.00    +0.000 O 
BRANCH   22   20
ATOM    122  H20 UNL A   1      49.330   7.906  53.001  1.00  0.00    +0.000 H 
ATOM     20  C17 UNL A   1      48.502   7.260  52.800  1.00  0.00    +0.000 C 
BRANCH   20   19
ATOM     97  C71 UNL A   1      46.489   7.586  51.307  1.00  0.00    +0.000 C 
ATOM     98  C72 UNL A   1      45.799   8.224  50.255  1.00  0.00    +0.000 C 
ATOM     16  C13 UNL A   1      46.382   9.287  49.540  1.00  0.00    +0.000 C 
ATOM     17  C14 UNL A   1      47.725   9.577  49.832  1.00  0.00    +0.000 C 
ATOM     18  C15 UNL A   1      48.437   8.883  50.816  1.00  0.00    +0.000 C 
ATOM     19  C16 UNL A   1      47.815   7.924  51.616  1.00  0.00    +0.000 C 
ATOM    120  H18 UNL A   1      48.201  10.325  49.305  1.00  0.00    +0.000 H 
ATOM    121  H19 UNL A   1      49.441   9.083  50.951  1.00  0.00    +0.000 H 
ATOM    154  H52 UNL A   1      46.010   6.858  51.859  1.00  0.00    +0.000 H 
BRANCH   16   15
ATOM    102  C73 UNL A   1      44.834  11.187  48.979  1.00  0.00    +0.000 C 
ATOM     11  C8  UNL A   1      44.165  11.972  48.038  1.00  0.00    +0.000 C 
ATOM     12  C9  UNL A   1      44.321  11.753  46.673  1.00  0.00    +0.000 C 
ATOM     13  C10 UNL A   1      45.165  10.735  46.241  1.00  0.00    +0.000 C 
ATOM     14  C11 UNL A   1      45.820   9.928  47.176  1.00  0.00    +0.000 C 
ATOM     15  C12 UNL A   1      45.666  10.134  48.561  1.00  0.00    +0.000 C 
ATOM    117  H15 UNL A   1      43.818  12.339  45.989  1.00  0.00    +0.000 H 
ATOM    118  H16 UNL A   1      45.307  10.575  45.231  1.00  0.00    +0.000 H 
ATOM    119  H17 UNL A   1      46.431   9.165  46.844  1.00  0.00    +0.000 H 
ATOM    155  H53 UNL A   1      44.717  11.381  49.985  1.00  0.00    +0.000 H 
BRANCH   11   10
ATOM     10  O2  UNL A   1      43.185  12.906  48.417  1.00  0.00    +0.000 O 
BRANCH   10    8
ATOM      9  O1  UNL A   1      42.421  15.022  47.824  1.00  0.00    +0.000 O 
ATOM      8  C7  UNL A   1      43.330  14.238  48.059  1.00  0.00    +0.000 C 
BRANCH    8    7
ATOM    116  H14 UNL A   1      45.220  14.355  48.743  1.00  0.00    +0.000 H 
ATOM      7  N1  UNL A   1      44.641  14.628  47.995  1.00  0.00    +0.000 N 
BRANCH    7    6
ATOM    114  H12 UNL A   1      44.693  15.285  46.042  1.00  0.00    +0.000 H 
ATOM    115  H13 UNL A   1      45.285  16.428  47.252  1.00  0.00    +0.000 H 
ATOM      6  C6  UNL A   1      45.263  15.404  46.940  1.00  0.00    +0.000 C 
BRANCH    6    5
ATOM    113  H11 UNL A   1      46.696  14.487  45.715  1.00  0.00    +0.000 H 
ATOM      5  C5  UNL A   1      46.702  14.963  46.673  1.00  0.00    +0.000 C 
ATOM    112  H10 UNL A   1      47.004  14.314  47.468  1.00  0.00    +0.000 H 
BRANCH    5    4
ATOM      4  C4  UNL A   1      47.721  16.105  46.579  1.00  0.00    +0.000 C 
ATOM    110  H8  UNL A   1      48.271  16.132  47.496  1.00  0.00    +0.000 H 
ATOM    111  H9  UNL A   1      48.323  15.892  45.721  1.00  0.00    +0.000 H 
BRANCH    4    3
ATOM      3  C3  UNL A   1      47.131  17.499  46.341  1.00  0.00    +0.000 C 
ATOM    108  H6  UNL A   1      46.189  17.550  46.845  1.00  0.00    +0.000 H 
ATOM    109  H7  UNL A   1      47.856  18.193  46.711  1.00  0.00    +0.000 H 
BRANCH    3    2
ATOM      2  C2  UNL A   1      46.900  17.873  44.874  1.00  0.00    +0.000 C 
ATOM    107  H5  UNL A   1      46.148  17.214  44.494  1.00  0.00    +0.000 H 
ATOM    106  H4  UNL A   1      47.827  17.775  44.349  1.00  0.00    +0.000 H 
BRANCH    2    1
ATOM      1  C1  UNL A   1      46.389  19.294  44.689  1.00  0.00    +0.000 C 
ATOM    105  H3  UNL A   1      45.772  19.339  43.817  1.00  0.00    +0.000 H 
ATOM    103  H1  UNL A   1      47.219  19.959  44.573  1.00  0.00    +0.000 H 
ATOM    104  H2  UNL A   1      45.819  19.583  45.547  1.00  0.00    +0.000 H 
ENDBRANCH    2    1
ENDBRANCH    3    2
ENDBRANCH    4    3
ENDBRANCH    5    4
ENDBRANCH    6    5
ENDBRANCH    7    6
ENDBRANCH    8    7
ENDBRANCH   10    8
ENDBRANCH   11   10
ENDBRANCH   16   15
BRANCH   98   99
ATOM     99  N8  UNL A   1      44.496   7.704  49.904  1.00  0.00    +0.000 N 
ATOM    100  O5  UNL A   1      43.549   7.847  50.652  1.00  0.00    +0.000 O 
ATOM    101  O6  UNL A   1      44.319   6.913  48.794  1.00  0.00    +0.000 O 
ENDBRANCH   98   99
ENDBRANCH   20   19
BRANCH   20   21
ATOM    125  H23 UNL A   1      48.336   7.743  54.876  1.00  0.00    +0.000 H 
ATOM    123  H21 UNL A   1      47.476   6.295  54.410  1.00  0.00    +0.000 H 
ATOM    124  H22 UNL A   1      46.833   7.865  53.993  1.00  0.00    +0.000 H 
ATOM     21  C18 UNL A   1      47.729   7.293  54.119  1.00  0.00    +0.000 C 
ENDBRANCH   20   21
ENDBRANCH   22   20
ENDBRANCH   24   22
ENDBRANCH   25   24
ENDBRANCH   26   25
ENDBRANCH   27   26
ENDBRANCH   28   27
ENDBRANCH   29   28
ENDBRANCH   30   29
ENDBRANCH   31   30
ENDBRANCH   32   31
ENDBRANCH   34   32
ENDBRANCH   38   37
BRANCH   42   43
ATOM     43  C35 UNL A   1      42.567  10.480  54.082  1.00  0.00    +0.000 C 
ATOM     44  C36 UNL A   1      41.948   9.491  53.300  1.00  0.00    +0.000 C 
ATOM     45  F1  UNL A   1      41.499   9.786  52.071  1.00  0.00    +0.000 F 
ATOM     46  C37 UNL A   1      41.750   8.205  53.795  1.00  0.00    +0.000 C 
ATOM     47  F2  UNL A   1      41.110   7.293  53.050  1.00  0.00    +0.000 F 
ATOM     48  C38 UNL A   1      42.197   7.871  55.065  1.00  0.00    +0.000 C 
ATOM     49  F3  UNL A   1      42.009   6.632  55.538  1.00  0.00    +0.000 F 
ATOM     50  C39 UNL A   1      42.834   8.824  55.845  1.00  0.00    +0.000 C 
ATOM     51  F4  UNL A   1      43.279   8.499  57.067  1.00  0.00    +0.000 F 
ATOM     52  C40 UNL A   1      43.007  10.120  55.364  1.00  0.00    +0.000 C 
ATOM     53  F5  UNL A   1      43.611  11.024  56.151  1.00  0.00    +0.000 F 
ENDBRANCH   42   43
BRANCH   59   60
ATOM     65  C49 UNL A   1      36.501  17.731  54.576  1.00  0.00    +0.000 C 
ATOM     66  F8  UNL A   1      35.326  18.221  54.991  1.00  0.00    +0.000 F 
ATOM     67  C50 UNL A   1      37.623  17.836  55.386  1.00  0.00    +0.000 C 
ATOM     68  F9  UNL A   1      37.525  18.409  56.592  1.00  0.00    +0.000 F 
ATOM     69  C51 UNL A   1      38.850  17.347  54.946  1.00  0.00    +0.000 C 
ATOM     70  F10 UNL A   1      39.919  17.476  55.744  1.00  0.00    +0.000 F 
ATOM     60  C46 UNL A   1      38.971  16.723  53.695  1.00  0.00    +0.000 C 
ATOM     61  C47 UNL A   1      37.820  16.609  52.901  1.00  0.00    +0.000 C 
ATOM     62  F6  UNL A   1      37.890  16.035  51.691  1.00  0.00    +0.000 F 
ATOM     63  C48 UNL A   1      36.601  17.125  53.332  1.00  0.00    +0.000 C 
ATOM     64  F7  UNL A   1      35.525  17.048  52.537  1.00  0.00    +0.000 F 
ENDBRANCH   59   60
BRANCH   74   75
ATOM     75  C55 UNL A   1      44.304  19.502  50.176  1.00  0.00    +0.000 C 
ATOM     76  C56 UNL A   1      44.559  20.620  50.982  1.00  0.00    +0.000 C 
ATOM     77  F11 UNL A   1      44.557  20.496  52.317  1.00  0.00    +0.000 F 
ATOM     78  C57 UNL A   1      44.784  21.875  50.421  1.00  0.00    +0.000 C 
ATOM     79  F12 UNL A   1      44.986  22.934  51.216  1.00  0.00    +0.000 F 
ATOM     80  C58 UNL A   1      44.783  22.031  49.044  1.00  0.00    +0.000 C 
ATOM     81  F13 UNL A   1      45.006  23.237  48.504  1.00  0.00    +0.000 F 
ATOM     82  C59 UNL A   1      44.548  20.937  48.226  1.00  0.00    +0.000 C 
ATOM     83  F14 UNL A   1      44.562  21.080  46.893  1.00  0.00    +0.000 F 
ATOM     84  C60 UNL A   1      44.297  19.686  48.786  1.00  0.00    +0.000 C 
ATOM     85  F15 UNL A   1      44.064  18.646  47.972  1.00  0.00    +0.000 F 
ENDBRANCH   74   75
TORSDOF 28
ENDMDL
MODEL 8
REMARK VINA RESULT:      -6.9      3.373      8.951
ROOT
ATOM    142  H40 UNL A   1      15.173  47.347   4.124  1.00  0.00    +0.000 H 
ATOM    143  H41 UNL A   1      16.093  47.189   1.689  1.00  0.00    +0.000 H 
ATOM    144  H42 UNL A   1      15.836  51.190   2.727  1.00  0.00    +0.000 H 
ATOM    145  H43 UNL A   1      16.313  57.346   1.113  1.00  0.00    +0.000 H 
ATOM    146  H44 UNL A   1      15.474  57.492   3.506  1.00  0.00    +0.000 H 
ATOM    147  H45 UNL A   1      15.795  53.468   2.517  1.00  0.00    +0.000 H 
ATOM    148  H46 UNL A   1      17.615  53.338  -2.168  1.00  0.00    +0.000 H 
ATOM    149  H47 UNL A   1      17.399  50.791  -2.044  1.00  0.00    +0.000 H 
ATOM    150  H48 UNL A   1      14.312  51.437   7.496  1.00  0.00    +0.000 H 
ATOM    151  H49 UNL A   1      14.063  53.972   7.241  1.00  0.00    +0.000 H 
ATOM     38  C31 UNL A   1      14.989  54.967   4.737  1.00  0.00    +0.000 C 
ATOM     39  C32 UNL A   1      14.872  53.532   5.169  1.00  0.00    +0.000 C 
ATOM     40  N4  UNL A   1      15.160  52.440   4.504  1.00  0.00    +0.000 N 
ATOM     41  C33 UNL A   1      14.913  51.390   5.378  1.00  0.00    +0.000 C 
ATOM     42  C34 UNL A   1      15.000  50.058   5.145  1.00  0.00    +0.000 C 
ATOM     54  C41 UNL A   1      15.387  49.480   3.884  1.00  0.00    +0.000 C 
ATOM     55  C42 UNL A   1      15.440  48.145   3.526  1.00  0.00    +0.000 C 
ATOM     56  C43 UNL A   1      15.918  48.062   2.213  1.00  0.00    +0.000 C 
ATOM     57  C44 UNL A   1      16.117  49.346   1.736  1.00  0.00    +0.000 C 
ATOM     58  N5  UNL A   1      15.790  50.207   2.772  1.00  0.00    +0.000 N 
ATOM     59  C45 UNL A   1      16.571  49.761   0.434  1.00  0.00    +0.000 C 
ATOM     71  C52 UNL A   1      16.723  51.048   0.036  1.00  0.00    +0.000 C 
ATOM     72  N6  UNL A   1      16.491  52.215   0.751  1.00  0.00    +0.000 N 
ATOM     73  C53 UNL A   1      16.798  53.200  -0.059  1.00  0.00    +0.000 C 
ATOM     74  C54 UNL A   1      16.715  54.683   0.178  1.00  0.00    +0.000 C 
ATOM     86  C61 UNL A   1      16.251  55.136   1.358  1.00  0.00    +0.000 C 
ATOM     87  C62 UNL A   1      16.103  56.541   1.725  1.00  0.00    +0.000 C 
ATOM     88  C63 UNL A   1      15.650  56.619   2.986  1.00  0.00    +0.000 C 
ATOM     89  C64 UNL A   1      15.443  55.266   3.505  1.00  0.00    +0.000 C 
ATOM     90  N7  UNL A   1      15.825  54.451   2.469  1.00  0.00    +0.000 N 
ATOM     91  C65 UNL A   1      17.282  52.766  -1.376  1.00  0.00    +0.000 C 
ATOM     92  C66 UNL A   1      17.180  51.449  -1.279  1.00  0.00    +0.000 C 
ATOM     93  C67 UNL A   1      14.500  51.975   6.635  1.00  0.00    +0.000 C 
ATOM     94  C68 UNL A   1      14.395  53.293   6.539  1.00  0.00    +0.000 C 
ENDROOT
BRANCH   38   37
ATOM     34  C27 UNL A   1      14.116  58.205   7.407  1.00  0.00    +0.000 C 
ATOM     35  C28 UNL A   1      13.073  57.571   6.725  1.00  0.00    +0.000 C 
ATOM     36  C29 UNL A   1      13.349  56.493   5.880  1.00  0.00    +0.000 C 
ATOM     37  C30 UNL A   1      14.672  56.065   5.684  1.00  0.00    +0.000 C 
ATOM    140  H38 UNL A   1      12.103  57.898   6.845  1.00  0.00    +0.000 H 
ATOM    141  H39 UNL A   1      12.576  56.009   5.397  1.00  0.00    +0.000 H 
ATOM    152  H50 UNL A   1      16.683  56.392   6.249  1.00  0.00    +0.000 H 
ATOM    153  H51 UNL A   1      16.178  58.134   7.858  1.00  0.00    +0.000 H 
ATOM     95  C69 UNL A   1      15.706  56.695   6.392  1.00  0.00    +0.000 C 
ATOM     96  C70 UNL A   1      15.423  57.725   7.285  1.00  0.00    +0.000 C 
BRANCH   34   32
ATOM     33  O4  UNL A   1      14.656  60.203   8.509  1.00  0.00    +0.000 O 
ATOM     32  C26 UNL A   1      13.800  59.351   8.289  1.00  0.00    +0.000 C 
BRANCH   32   31
ATOM    139  H37 UNL A   1      12.325  58.775   9.514  1.00  0.00    +0.000 H 
ATOM     31  N3  UNL A   1      12.556  59.469   8.856  1.00  0.00    +0.000 N 
BRANCH   31   30
ATOM    137  H35 UNL A   1      10.593  60.099   8.985  1.00  0.00    +0.000 H 
ATOM    138  H36 UNL A   1      11.813  61.364   9.143  1.00  0.00    +0.000 H 
ATOM     30  C25 UNL A   1      11.528  60.472   8.624  1.00  0.00    +0.000 C 
BRANCH   30   29
ATOM     29  C24 UNL A   1      11.383  60.813   7.142  1.00  0.00    +0.000 C 
ATOM    135  H33 UNL A   1      11.479  61.873   7.033  1.00  0.00    +0.000 H 
ATOM    136  H34 UNL A   1      12.148  60.265   6.632  1.00  0.00    +0.000 H 
BRANCH   29   28
ATOM     28  C23 UNL A   1      10.054  60.385   6.511  1.00  0.00    +0.000 C 
ATOM    133  H31 UNL A   1       9.348  60.232   7.300  1.00  0.00    +0.000 H 
ATOM    134  H32 UNL A   1       9.785  61.169   5.836  1.00  0.00    +0.000 H 
BRANCH   28   27
ATOM     27  C22 UNL A   1      10.103  59.103   5.667  1.00  0.00    +0.000 C 
ATOM    132  H30 UNL A   1       9.615  58.347   6.247  1.00  0.00    +0.000 H 
ATOM    131  H29 UNL A   1      11.130  58.884   5.459  1.00  0.00    +0.000 H 
BRANCH   27   26
ATOM    129  H27 UNL A   1       9.104  58.173   4.036  1.00  0.00    +0.000 H 
ATOM     26  C21 UNL A   1       9.351  59.172   4.335  1.00  0.00    +0.000 C 
ATOM    130  H28 UNL A   1       8.485  59.779   4.497  1.00  0.00    +0.000 H 
BRANCH   26   25
ATOM     25  C20 UNL A   1      10.149  59.828   3.204  1.00  0.00    +0.000 C 
ATOM    127  H25 UNL A   1       9.479  60.396   2.592  1.00  0.00    +0.000 H 
ATOM    128  H26 UNL A   1      10.894  60.457   3.645  1.00  0.00    +0.000 H 
BRANCH   25   24
ATOM    126  H24 UNL A   1      10.241  58.420   1.705  1.00  0.00    +0.000 H 
ATOM     24  N2  UNL A   1      10.820  58.846   2.378  1.00  0.00    +0.000 N 
BRANCH   24   22
ATOM     22  C19 UNL A   1      12.108  58.408   2.365  1.00  0.00    +0.000 C 
ATOM     23  O3  UNL A   1      12.820  58.782   3.305  1.00  0.00    +0.000 O 
BRANCH   22   20
ATOM    122  H20 UNL A   1      13.754  57.493   1.462  1.00  0.00    +0.000 H 
ATOM     20  C17 UNL A   1      12.705  57.526   1.257  1.00  0.00    +0.000 C 
BRANCH   20   19
ATOM     97  C71 UNL A   1      12.105  55.327   0.163  1.00  0.00    +0.000 C 
ATOM     98  C72 UNL A   1      11.775  53.957   0.202  1.00  0.00    +0.000 C 
ATOM     16  C13 UNL A   1      11.705  53.259   1.422  1.00  0.00    +0.000 C 
ATOM     17  C14 UNL A   1      11.838  54.026   2.593  1.00  0.00    +0.000 C 
ATOM     18  C15 UNL A   1      12.078  55.403   2.553  1.00  0.00    +0.000 C 
ATOM     19  C16 UNL A   1      12.284  56.066   1.343  1.00  0.00    +0.000 C 
ATOM    120  H18 UNL A   1      11.757  53.559   3.509  1.00  0.00    +0.000 H 
ATOM    121  H19 UNL A   1      12.103  55.939   3.435  1.00  0.00    +0.000 H 
ATOM    154  H52 UNL A   1      12.218  55.795  -0.750  1.00  0.00    +0.000 H 
BRANCH   16   15
ATOM    102  C73 UNL A   1      10.307  51.205   1.810  1.00  0.00    +0.000 C 
ATOM     11  C8  UNL A   1      10.191  49.818   1.925  1.00  0.00    +0.000 C 
ATOM     12  C9  UNL A   1      11.293  48.985   1.757  1.00  0.00    +0.000 C 
ATOM     13  C10 UNL A   1      12.530  49.547   1.464  1.00  0.00    +0.000 C 
ATOM     14  C11 UNL A   1      12.662  50.936   1.371  1.00  0.00    +0.000 C 
ATOM     15  C12 UNL A   1      11.557  51.792   1.545  1.00  0.00    +0.000 C 
ATOM    117  H15 UNL A   1      11.193  47.962   1.849  1.00  0.00    +0.000 H 
ATOM    118  H16 UNL A   1      13.351  48.940   1.316  1.00  0.00    +0.000 H 
ATOM    119  H17 UNL A   1      13.588  51.343   1.169  1.00  0.00    +0.000 H 
ATOM    155  H53 UNL A   1       9.473  51.801   1.920  1.00  0.00    +0.000 H 
BRANCH   11   10
ATOM     10  O2  UNL A   1       9.005  49.211   2.373  1.00  0.00    +0.000 O 
BRANCH   10    8
ATOM      9  O1  UNL A   1       9.496  47.996   4.295  1.00  0.00    +0.000 O 
ATOM      8  C7  UNL A   1       8.870  48.870   3.710  1.00  0.00    +0.000 C 
BRANCH    8    7
ATOM    116  H14 UNL A   1       7.224  49.156   4.833  1.00  0.00    +0.000 H 
ATOM      7  N1  UNL A   1       7.941  49.637   4.360  1.00  0.00    +0.000 N 
BRANCH    7    6
ATOM    114  H12 UNL A   1       8.305  51.480   3.513  1.00  0.00    +0.000 H 
ATOM    115  H13 UNL A   1       6.885  51.384   4.559  1.00  0.00    +0.000 H 
ATOM      6  C6  UNL A   1       7.904  51.085   4.423  1.00  0.00    +0.000 C 
BRANCH    6    5
ATOM    113  H11 UNL A   1       8.569  50.945   6.407  1.00  0.00    +0.000 H 
ATOM      5  C5  UNL A   1       8.715  51.631   5.599  1.00  0.00    +0.000 C 
ATOM    112  H10 UNL A   1       8.365  52.619   5.813  1.00  0.00    +0.000 H 
BRANCH    5    4
ATOM      4  C4  UNL A   1      10.228  51.702   5.362  1.00  0.00    +0.000 C 
ATOM    110  H8  UNL A   1      10.674  50.847   5.823  1.00  0.00    +0.000 H 
ATOM    111  H9  UNL A   1      10.358  51.737   4.301  1.00  0.00    +0.000 H 
BRANCH    4    3
ATOM      3  C3  UNL A   1      10.924  52.952   5.912  1.00  0.00    +0.000 C 
ATOM    108  H6  UNL A   1      11.910  52.673   6.218  1.00  0.00    +0.000 H 
ATOM    109  H7  UNL A   1      10.906  53.671   5.121  1.00  0.00    +0.000 H 
BRANCH    3    2
ATOM      2  C2  UNL A   1      10.232  53.619   7.104  1.00  0.00    +0.000 C 
ATOM    107  H5  UNL A   1       9.781  52.841   7.685  1.00  0.00    +0.000 H 
ATOM    106  H4  UNL A   1       9.509  54.314   6.731  1.00  0.00    +0.000 H 
BRANCH    2    1
ATOM      1  C1  UNL A   1      11.193  54.364   8.017  1.00  0.00    +0.000 C 
ATOM    105  H3  UNL A   1      11.310  55.369   7.668  1.00  0.00    +0.000 H 
ATOM    103  H1  UNL A   1      12.143  53.873   8.013  1.00  0.00    +0.000 H 
ATOM    104  H2  UNL A   1      10.802  54.375   9.014  1.00  0.00    +0.000 H 
ENDBRANCH    2    1
ENDBRANCH    3    2
ENDBRANCH    4    3
ENDBRANCH    5    4
ENDBRANCH    6    5
ENDBRANCH    7    6
ENDBRANCH    8    7
ENDBRANCH   10    8
ENDBRANCH   11   10
ENDBRANCH   16   15
BRANCH   98   99
ATOM     99  N8  UNL A   1      11.454  53.315  -1.053  1.00  0.00    +0.000 N 
ATOM    100  O5  UNL A   1      12.322  52.787  -1.719  1.00  0.00    +0.000 O 
ATOM    101  O6  UNL A   1      10.196  53.406  -1.600  1.00  0.00    +0.000 O 
ENDBRANCH   98   99
ENDBRANCH   20   19
BRANCH   20   21
ATOM    125  H23 UNL A   1      11.762  58.718  -0.247  1.00  0.00    +0.000 H 
ATOM    123  H21 UNL A   1      12.681  57.371  -0.876  1.00  0.00    +0.000 H 
ATOM    124  H22 UNL A   1      13.508  58.787  -0.272  1.00  0.00    +0.000 H 
ATOM     21  C18 UNL A   1      12.660  58.147  -0.139  1.00  0.00    +0.000 C 
ENDBRANCH   20   21
ENDBRANCH   22   20
ENDBRANCH   24   22
ENDBRANCH   25   24
ENDBRANCH   26   25
ENDBRANCH   27   26
ENDBRANCH   28   27
ENDBRANCH   29   28
ENDBRANCH   30   29
ENDBRANCH   31   30
ENDBRANCH   32   31
ENDBRANCH   34   32
ENDBRANCH   38   37
BRANCH   42   43
ATOM     43  C35 UNL A   1      14.670  49.133   6.280  1.00  0.00    +0.000 C 
ATOM     44  C36 UNL A   1      15.651  48.700   7.186  1.00  0.00    +0.000 C 
ATOM     45  F1  UNL A   1      16.928  49.078   7.029  1.00  0.00    +0.000 F 
ATOM     46  C37 UNL A   1      15.331  47.840   8.232  1.00  0.00    +0.000 C 
ATOM     47  F2  UNL A   1      16.294  47.397   9.053  1.00  0.00    +0.000 F 
ATOM     48  C38 UNL A   1      14.021  47.425   8.418  1.00  0.00    +0.000 C 
ATOM     49  F3  UNL A   1      13.714  46.601   9.428  1.00  0.00    +0.000 F 
ATOM     50  C39 UNL A   1      13.030  47.861   7.551  1.00  0.00    +0.000 C 
ATOM     51  F4  UNL A   1      11.761  47.473   7.736  1.00  0.00    +0.000 F 
ATOM     52  C40 UNL A   1      13.352  48.698   6.485  1.00  0.00    +0.000 C 
ATOM     53  F5  UNL A   1      12.374  49.087   5.653  1.00  0.00    +0.000 F 
ENDBRANCH   42   43
BRANCH   59   60
ATOM     65  C49 UNL A   1      17.418  46.655  -2.432  1.00  0.00    +0.000 C 
ATOM     66  F8  UNL A   1      17.678  45.691  -3.326  1.00  0.00    +0.000 F 
ATOM     67  C50 UNL A   1      16.129  47.148  -2.296  1.00  0.00    +0.000 C 
ATOM     68  F9  UNL A   1      15.138  46.644  -3.045  1.00  0.00    +0.000 F 
ATOM     69  C51 UNL A   1      15.863  48.165  -1.384  1.00  0.00    +0.000 C 
ATOM     70  F10 UNL A   1      14.609  48.631  -1.285  1.00  0.00    +0.000 F 
ATOM     60  C46 UNL A   1      16.879  48.692  -0.574  1.00  0.00    +0.000 C 
ATOM     61  C47 UNL A   1      18.172  48.165  -0.714  1.00  0.00    +0.000 C 
ATOM     62  F6  UNL A   1      19.181  48.648   0.027  1.00  0.00    +0.000 F 
ATOM     63  C48 UNL A   1      18.441  47.168  -1.647  1.00  0.00    +0.000 C 
ATOM     64  F7  UNL A   1      19.692  46.713  -1.797  1.00  0.00    +0.000 F 
ENDBRANCH   59   60
BRANCH   74   75
ATOM     75  C55 UNL A   1      17.106  55.649  -0.881  1.00  0.00    +0.000 C 
ATOM     76  C56 UNL A   1      16.152  56.167  -1.768  1.00  0.00    +0.000 C 
ATOM     77  F11 UNL A   1      14.875  55.768  -1.684  1.00  0.00    +0.000 F 
ATOM     78  C57 UNL A   1      16.513  57.070  -2.765  1.00  0.00    +0.000 C 
ATOM     79  F12 UNL A   1      15.589  57.520  -3.624  1.00  0.00    +0.000 F 
ATOM     80  C58 UNL A   1      17.829  57.492  -2.878  1.00  0.00    +0.000 C 
ATOM     81  F13 UNL A   1      18.175  58.366  -3.833  1.00  0.00    +0.000 F 
ATOM     82  C59 UNL A   1      18.787  57.005  -2.002  1.00  0.00    +0.000 C 
ATOM     83  F14 UNL A   1      20.057  57.422  -2.098  1.00  0.00    +0.000 F 
ATOM     84  C60 UNL A   1      18.433  56.081  -1.021  1.00  0.00    +0.000 C 
ATOM     85  F15 UNL A   1      19.381  55.619  -0.193  1.00  0.00    +0.000 F 
ENDBRANCH   74   75
TORSDOF 28
ENDMDL
MODEL 9
REMARK VINA RESULT:      -6.9     40.155     45.650
ROOT
ATOM    142  H40 UNL A   1      38.399  29.823  27.106  1.00  0.00    +0.000 H 
ATOM    143  H41 UNL A   1      40.271  28.092  26.559  1.00  0.00    +0.000 H 
ATOM    144  H42 UNL A   1      40.463  28.983  30.598  1.00  0.00    +0.000 H 
ATOM    145  H43 UNL A   1      43.392  28.404  36.238  1.00  0.00    +0.000 H 
ATOM    146  H44 UNL A   1      41.529  30.044  36.779  1.00  0.00    +0.000 H 
ATOM    147  H45 UNL A   1      41.266  29.109  32.737  1.00  0.00    +0.000 H 
ATOM    148  H46 UNL A   1      44.898  25.745  31.858  1.00  0.00    +0.000 H 
ATOM    149  H47 UNL A   1      44.186  25.809  29.401  1.00  0.00    +0.000 H 
ATOM    150  H48 UNL A   1      36.689  32.109  31.655  1.00  0.00    +0.000 H 
ATOM    151  H49 UNL A   1      37.668  32.431  33.999  1.00  0.00    +0.000 H 
ATOM     38  C31 UNL A   1      39.905  30.752  34.546  1.00  0.00    +0.000 C 
ATOM     39  C32 UNL A   1      39.173  30.912  33.243  1.00  0.00    +0.000 C 
ATOM     40  N4  UNL A   1      39.396  30.331  32.090  1.00  0.00    +0.000 N 
ATOM     41  C33 UNL A   1      38.407  30.796  31.234  1.00  0.00    +0.000 C 
ATOM     42  C34 UNL A   1      38.241  30.538  29.915  1.00  0.00    +0.000 C 
ATOM     54  C41 UNL A   1      39.109  29.690  29.139  1.00  0.00    +0.000 C 
ATOM     55  C42 UNL A   1      39.065  29.419  27.783  1.00  0.00    +0.000 C 
ATOM     56  C43 UNL A   1      40.081  28.503  27.487  1.00  0.00    +0.000 C 
ATOM     57  C44 UNL A   1      40.788  28.240  28.649  1.00  0.00    +0.000 C 
ATOM     58  N5  UNL A   1      40.179  28.973  29.655  1.00  0.00    +0.000 N 
ATOM     59  C45 UNL A   1      41.932  27.385  28.830  1.00  0.00    +0.000 C 
ATOM     71  C52 UNL A   1      42.583  27.194  30.004  1.00  0.00    +0.000 C 
ATOM     72  N6  UNL A   1      42.316  27.746  31.249  1.00  0.00    +0.000 N 
ATOM     73  C53 UNL A   1      43.210  27.243  32.065  1.00  0.00    +0.000 C 
ATOM     74  C54 UNL A   1      43.412  27.510  33.532  1.00  0.00    +0.000 C 
ATOM     86  C61 UNL A   1      42.609  28.392  34.157  1.00  0.00    +0.000 C 
ATOM     87  C62 UNL A   1      42.693  28.759  35.567  1.00  0.00    +0.000 C 
ATOM     88  C63 UNL A   1      41.715  29.633  35.850  1.00  0.00    +0.000 C 
ATOM     89  C64 UNL A   1      40.955  29.914  34.631  1.00  0.00    +0.000 C 
ATOM     90  N7  UNL A   1      41.558  29.133  33.677  1.00  0.00    +0.000 N 
ATOM     91  C65 UNL A   1      44.136  26.295  31.432  1.00  0.00    +0.000 C 
ATOM     92  C66 UNL A   1      43.735  26.331  30.169  1.00  0.00    +0.000 C 
ATOM     93  C67 UNL A   1      37.552  31.668  32.011  1.00  0.00    +0.000 C 
ATOM     94  C68 UNL A   1      38.020  31.825  33.241  1.00  0.00    +0.000 C 
ENDROOT
BRANCH   38   37
ATOM     34  C27 UNL A   1      38.515  32.875  38.001  1.00  0.00    +0.000 C 
ATOM     35  C28 UNL A   1      37.883  31.687  37.619  1.00  0.00    +0.000 C 
ATOM     36  C29 UNL A   1      38.355  30.973  36.514  1.00  0.00    +0.000 C 
ATOM     37  C30 UNL A   1      39.436  31.461  35.763  1.00  0.00    +0.000 C 
ATOM    140  H38 UNL A   1      37.072  31.338  38.152  1.00  0.00    +0.000 H 
ATOM    141  H39 UNL A   1      37.905  30.083  36.248  1.00  0.00    +0.000 H 
ATOM    152  H50 UNL A   1      40.867  33.011  35.621  1.00  0.00    +0.000 H 
ATOM    153  H51 UNL A   1      40.167  34.141  37.649  1.00  0.00    +0.000 H 
ATOM     95  C69 UNL A   1      40.075  32.641  36.171  1.00  0.00    +0.000 C 
ATOM     96  C70 UNL A   1      39.648  33.316  37.311  1.00  0.00    +0.000 C 
BRANCH   34   32
ATOM     33  O4  UNL A   1      36.959  33.239  39.717  1.00  0.00    +0.000 O 
ATOM     32  C26 UNL A   1      37.991  33.617  39.170  1.00  0.00    +0.000 C 
BRANCH   32   31
ATOM    139  H37 UNL A   1      39.052  35.302  38.962  1.00  0.00    +0.000 H 
ATOM     31  N3  UNL A   1      38.654  34.719  39.648  1.00  0.00    +0.000 N 
BRANCH   31   30
ATOM    137  H35 UNL A   1      38.315  36.058  41.184  1.00  0.00    +0.000 H 
ATOM    138  H36 UNL A   1      38.505  34.371  41.668  1.00  0.00    +0.000 H 
ATOM     30  C25 UNL A   1      38.857  35.150  41.023  1.00  0.00    +0.000 C 
BRANCH   30   29
ATOM     29  C24 UNL A   1      40.332  35.392  41.336  1.00  0.00    +0.000 C 
ATOM    135  H33 UNL A   1      40.442  36.409  41.650  1.00  0.00    +0.000 H 
ATOM    136  H34 UNL A   1      40.599  34.685  42.093  1.00  0.00    +0.000 H 
BRANCH   29   28
ATOM     28  C23 UNL A   1      41.287  35.148  40.163  1.00  0.00    +0.000 C 
ATOM    133  H31 UNL A   1      40.878  34.362  39.563  1.00  0.00    +0.000 H 
ATOM    134  H32 UNL A   1      41.369  36.084  39.653  1.00  0.00    +0.000 H 
BRANCH   28   27
ATOM     27  C22 UNL A   1      42.719  34.752  40.546  1.00  0.00    +0.000 C 
ATOM    132  H30 UNL A   1      42.964  35.326  41.416  1.00  0.00    +0.000 H 
ATOM    131  H29 UNL A   1      43.354  34.954  39.709  1.00  0.00    +0.000 H 
BRANCH   27   26
ATOM    129  H27 UNL A   1      43.946  33.043  40.863  1.00  0.00    +0.000 H 
ATOM     26  C21 UNL A   1      42.905  33.283  40.940  1.00  0.00    +0.000 C 
ATOM    130  H28 UNL A   1      42.532  33.178  41.937  1.00  0.00    +0.000 H 
BRANCH   26   25
ATOM     25  C20 UNL A   1      42.119  32.302  40.065  1.00  0.00    +0.000 C 
ATOM    127  H25 UNL A   1      42.256  31.311  40.447  1.00  0.00    +0.000 H 
ATOM    128  H26 UNL A   1      41.088  32.586  40.092  1.00  0.00    +0.000 H 
BRANCH   25   24
ATOM    126  H24 UNL A   1      41.870  32.631  38.049  1.00  0.00    +0.000 H 
ATOM     24  N2  UNL A   1      42.560  32.337  38.687  1.00  0.00    +0.000 N 
BRANCH   24   22
ATOM     22  C19 UNL A   1      43.759  32.036  38.116  1.00  0.00    +0.000 C 
ATOM     23  O3  UNL A   1      44.265  30.958  38.447  1.00  0.00    +0.000 O 
BRANCH   22   20
ATOM    122  H20 UNL A   1      45.534  32.713  37.248  1.00  0.00    +0.000 H 
ATOM     20  C17 UNL A   1      44.499  32.960  37.136  1.00  0.00    +0.000 C 
BRANCH   20   19
ATOM     97  C71 UNL A   1      43.409  33.518  34.924  1.00  0.00    +0.000 C 
ATOM     98  C72 UNL A   1      43.176  33.298  33.551  1.00  0.00    +0.000 C 
ATOM     16  C13 UNL A   1      43.824  32.258  32.860  1.00  0.00    +0.000 C 
ATOM     17  C14 UNL A   1      44.593  31.373  33.635  1.00  0.00    +0.000 C 
ATOM     18  C15 UNL A   1      44.751  31.541  35.015  1.00  0.00    +0.000 C 
ATOM     19  C16 UNL A   1      44.220  32.651  35.672  1.00  0.00    +0.000 C 
ATOM    120  H18 UNL A   1      45.056  30.575  33.173  1.00  0.00    +0.000 H 
ATOM    121  H19 UNL A   1      45.269  30.831  35.556  1.00  0.00    +0.000 H 
ATOM    154  H52 UNL A   1      42.974  34.331  35.388  1.00  0.00    +0.000 H 
BRANCH   16   15
ATOM    102  C73 UNL A   1      44.754  32.672  30.561  1.00  0.00    +0.000 C 
ATOM     11  C8  UNL A   1      44.701  32.489  29.177  1.00  0.00    +0.000 C 
ATOM     12  C9  UNL A   1      43.720  31.697  28.591  1.00  0.00    +0.000 C 
ATOM     13  C10 UNL A   1      42.778  31.072  29.401  1.00  0.00    +0.000 C 
ATOM     14  C11 UNL A   1      42.807  31.270  30.785  1.00  0.00    +0.000 C 
ATOM     15  C12 UNL A   1      43.791  32.074  31.392  1.00  0.00    +0.000 C 
ATOM    117  H15 UNL A   1      43.691  31.573  27.567  1.00  0.00    +0.000 H 
ATOM    118  H16 UNL A   1      42.057  30.465  28.981  1.00  0.00    +0.000 H 
ATOM    119  H17 UNL A   1      42.093  30.815  31.375  1.00  0.00    +0.000 H 
ATOM    155  H53 UNL A   1      45.502  33.249  30.974  1.00  0.00    +0.000 H 
BRANCH   11   10
ATOM     10  O2  UNL A   1      45.527  33.218  28.303  1.00  0.00    +0.000 O 
BRANCH   10    8
ATOM      9  O1  UNL A   1      47.090  32.910  26.608  1.00  0.00    +0.000 O 
ATOM      8  C7  UNL A   1      46.591  32.586  27.677  1.00  0.00    +0.000 C 
BRANCH    8    7
ATOM    116  H14 UNL A   1      46.400  30.939  28.820  1.00  0.00    +0.000 H 
ATOM      7  N1  UNL A   1      47.070  31.522  28.393  1.00  0.00    +0.000 N 
BRANCH    7    6
ATOM    114  H12 UNL A   1      48.849  30.773  27.671  1.00  0.00    +0.000 H 
ATOM    115  H13 UNL A   1      48.989  32.048  28.886  1.00  0.00    +0.000 H 
ATOM      6  C6  UNL A   1      48.461  31.165  28.588  1.00  0.00    +0.000 C 
BRANCH    6    5
ATOM    113  H11 UNL A   1      49.125  30.616  30.500  1.00  0.00    +0.000 H 
ATOM      5  C5  UNL A   1      48.639  30.118  29.687  1.00  0.00    +0.000 C 
ATOM    112  H10 UNL A   1      49.208  29.307  29.285  1.00  0.00    +0.000 H 
BRANCH    5    4
ATOM      4  C4  UNL A   1      47.333  29.547  30.253  1.00  0.00    +0.000 C 
ATOM    110  H8  UNL A   1      47.349  29.676  31.315  1.00  0.00    +0.000 H 
ATOM    111  H9  UNL A   1      46.544  30.081  29.766  1.00  0.00    +0.000 H 
BRANCH    4    3
ATOM      3  C3  UNL A   1      47.079  28.064  29.961  1.00  0.00    +0.000 C 
ATOM    108  H6  UNL A   1      47.666  27.488  30.644  1.00  0.00    +0.000 H 
ATOM    109  H7  UNL A   1      46.025  27.919  30.070  1.00  0.00    +0.000 H 
BRANCH    3    2
ATOM      2  C2  UNL A   1      47.422  27.606  28.541  1.00  0.00    +0.000 C 
ATOM    107  H5  UNL A   1      48.484  27.476  28.499  1.00  0.00    +0.000 H 
ATOM    106  H4  UNL A   1      47.078  28.348  27.852  1.00  0.00    +0.000 H 
BRANCH    2    1
ATOM      1  C1  UNL A   1      46.790  26.273  28.170  1.00  0.00    +0.000 C 
ATOM    105  H3  UNL A   1      45.961  26.080  28.817  1.00  0.00    +0.000 H 
ATOM    103  H1  UNL A   1      47.515  25.493  28.277  1.00  0.00    +0.000 H 
ATOM    104  H2  UNL A   1      46.452  26.308  27.156  1.00  0.00    +0.000 H 
ENDBRANCH    2    1
ENDBRANCH    3    2
ENDBRANCH    4    3
ENDBRANCH    5    4
ENDBRANCH    6    5
ENDBRANCH    7    6
ENDBRANCH    8    7
ENDBRANCH   10    8
ENDBRANCH   11   10
ENDBRANCH   16   15
BRANCH   98   99
ATOM     99  N8  UNL A   1      42.203  34.146  32.898  1.00  0.00    +0.000 N 
ATOM    100  O5  UNL A   1      42.472  35.297  32.620  1.00  0.00    +0.000 O 
ATOM    101  O6  UNL A   1      40.909  33.727  32.704  1.00  0.00    +0.000 O 
ENDBRANCH   98   99
ENDBRANCH   20   19
BRANCH   20   21
ATOM    125  H23 UNL A   1      44.200  34.538  38.548  1.00  0.00    +0.000 H 
ATOM    123  H21 UNL A   1      43.752  34.952  36.910  1.00  0.00    +0.000 H 
ATOM    124  H22 UNL A   1      45.438  34.869  37.360  1.00  0.00    +0.000 H 
ATOM     21  C18 UNL A   1      44.470  34.441  37.517  1.00  0.00    +0.000 C 
ENDBRANCH   20   21
ENDBRANCH   22   20
ENDBRANCH   24   22
ENDBRANCH   25   24
ENDBRANCH   26   25
ENDBRANCH   27   26
ENDBRANCH   28   27
ENDBRANCH   29   28
ENDBRANCH   30   29
ENDBRANCH   31   30
ENDBRANCH   32   31
ENDBRANCH   34   32
ENDBRANCH   38   37
BRANCH   42   43
ATOM     43  C35 UNL A   1      37.073  31.181  29.225  1.00  0.00    +0.000 C 
ATOM     44  C36 UNL A   1      35.926  30.449  28.879  1.00  0.00    +0.000 C 
ATOM     45  F1  UNL A   1      35.867  29.132  29.128  1.00  0.00    +0.000 F 
ATOM     46  C37 UNL A   1      34.852  31.059  28.237  1.00  0.00    +0.000 C 
ATOM     47  F2  UNL A   1      33.790  30.328  27.870  1.00  0.00    +0.000 F 
ATOM     48  C38 UNL A   1      34.885  32.417  27.961  1.00  0.00    +0.000 C 
ATOM     49  F3  UNL A   1      33.849  33.004  27.347  1.00  0.00    +0.000 F 
ATOM     50  C39 UNL A   1      35.997  33.166  28.316  1.00  0.00    +0.000 C 
ATOM     51  F4  UNL A   1      36.026  34.482  28.063  1.00  0.00    +0.000 F 
ATOM     52  C40 UNL A   1      37.086  32.553  28.931  1.00  0.00    +0.000 C 
ATOM     53  F5  UNL A   1      38.154  33.303  29.246  1.00  0.00    +0.000 F 
ENDBRANCH   42   43
BRANCH   59   60
ATOM     65  C49 UNL A   1      43.486  25.274  25.408  1.00  0.00    +0.000 C 
ATOM     66  F8  UNL A   1      43.965  24.616  24.344  1.00  0.00    +0.000 F 
ATOM     67  C50 UNL A   1      42.512  24.691  26.206  1.00  0.00    +0.000 C 
ATOM     68  F9  UNL A   1      42.066  23.460  25.924  1.00  0.00    +0.000 F 
ATOM     69  C51 UNL A   1      41.998  25.384  27.298  1.00  0.00    +0.000 C 
ATOM     70  F10 UNL A   1      41.048  24.801  28.043  1.00  0.00    +0.000 F 
ATOM     60  C46 UNL A   1      42.467  26.665  27.626  1.00  0.00    +0.000 C 
ATOM     61  C47 UNL A   1      43.466  27.228  26.817  1.00  0.00    +0.000 C 
ATOM     62  F6  UNL A   1      43.935  28.457  27.081  1.00  0.00    +0.000 F 
ATOM     63  C48 UNL A   1      43.958  26.544  25.709  1.00  0.00    +0.000 C 
ATOM     64  F7  UNL A   1      44.877  27.120  24.923  1.00  0.00    +0.000 F 
ENDBRANCH   59   60
BRANCH   74   75
ATOM     75  C55 UNL A   1      44.501  26.839  34.287  1.00  0.00    +0.000 C 
ATOM     76  C56 UNL A   1      44.264  25.639  34.973  1.00  0.00    +0.000 C 
ATOM     77  F11 UNL A   1      43.036  25.101  34.975  1.00  0.00    +0.000 F 
ATOM     78  C57 UNL A   1      45.280  25.006  35.687  1.00  0.00    +0.000 C 
ATOM     79  F12 UNL A   1      45.016  23.881  36.366  1.00  0.00    +0.000 F 
ATOM     80  C58 UNL A   1      46.556  25.546  35.706  1.00  0.00    +0.000 C 
ATOM     81  F13 UNL A   1      47.534  24.933  36.387  1.00  0.00    +0.000 F 
ATOM     82  C59 UNL A   1      46.817  26.723  35.023  1.00  0.00    +0.000 C 
ATOM     83  F14 UNL A   1      48.054  27.240  35.027  1.00  0.00    +0.000 F 
ATOM     84  C60 UNL A   1      45.797  27.372  34.331  1.00  0.00    +0.000 C 
ATOM     85  F15 UNL A   1      46.075  28.514  33.686  1.00  0.00    +0.000 F 
ENDBRANCH   74   75
TORSDOF 28
ENDMDL
MODEL 10
REMARK VINA RESULT:      -6.8     49.966     55.218
ROOT
ATOM    142  H40 UNL A   1      51.655  17.890   4.612  1.00  0.00    +0.000 H 
ATOM    143  H41 UNL A   1      54.035  17.083   3.918  1.00  0.00    +0.000 H 
ATOM    144  H42 UNL A   1      54.266  18.692   7.726  1.00  0.00    +0.000 H 
ATOM    145  H43 UNL A   1      57.771  20.497  12.745  1.00  0.00    +0.000 H 
ATOM    146  H44 UNL A   1      55.439  21.226  13.441  1.00  0.00    +0.000 H 
ATOM    147  H45 UNL A   1      55.165  19.546   9.649  1.00  0.00    +0.000 H 
ATOM    148  H46 UNL A   1      59.808  18.009   8.480  1.00  0.00    +0.000 H 
ATOM    149  H47 UNL A   1      58.863  17.303   6.208  1.00  0.00    +0.000 H 
ATOM    150  H48 UNL A   1      49.630  19.991   9.121  1.00  0.00    +0.000 H 
ATOM    151  H49 UNL A   1      50.617  21.132  11.189  1.00  0.00    +0.000 H 
ATOM     38  C31 UNL A   1      53.422  20.730  11.488  1.00  0.00    +0.000 C 
ATOM     39  C32 UNL A   1      52.552  20.313  10.336  1.00  0.00    +0.000 C 
ATOM     40  N4  UNL A   1      52.881  19.687   9.233  1.00  0.00    +0.000 N 
ATOM     41  C33 UNL A   1      51.697  19.508   8.532  1.00  0.00    +0.000 C 
ATOM     42  C34 UNL A   1      51.515  18.965   7.304  1.00  0.00    +0.000 C 
ATOM     54  C41 UNL A   1      52.578  18.456   6.478  1.00  0.00    +0.000 C 
ATOM     55  C42 UNL A   1      52.506  17.950   5.192  1.00  0.00    +0.000 C 
ATOM     56  C43 UNL A   1      53.787  17.532   4.814  1.00  0.00    +0.000 C 
ATOM     57  C44 UNL A   1      54.666  17.822   5.844  1.00  0.00    +0.000 C 
ATOM     58  N5  UNL A   1      53.910  18.386   6.860  1.00  0.00    +0.000 N 
ATOM     59  C45 UNL A   1      56.088  17.603   5.900  1.00  0.00    +0.000 C 
ATOM     71  C52 UNL A   1      56.887  17.933   6.945  1.00  0.00    +0.000 C 
ATOM     72  N6  UNL A   1      56.542  18.531   8.150  1.00  0.00    +0.000 N 
ATOM     73  C53 UNL A   1      57.656  18.629   8.834  1.00  0.00    +0.000 C 
ATOM     74  C54 UNL A   1      57.883  19.221  10.198  1.00  0.00    +0.000 C 
ATOM     86  C61 UNL A   1      56.843  19.762  10.861  1.00  0.00    +0.000 C 
ATOM     87  C62 UNL A   1      56.913  20.380  12.182  1.00  0.00    +0.000 C 
ATOM     88  C63 UNL A   1      55.683  20.775  12.545  1.00  0.00    +0.000 C 
ATOM     89  C64 UNL A   1      54.743  20.467  11.467  1.00  0.00    +0.000 C 
ATOM     90  N7  UNL A   1      55.521  19.868  10.508  1.00  0.00    +0.000 N 
ATOM     91  C65 UNL A   1      58.834  18.082   8.146  1.00  0.00    +0.000 C 
ATOM     92  C66 UNL A   1      58.317  17.707   6.986  1.00  0.00    +0.000 C 
ATOM     93  C67 UNL A   1      50.634  20.045   9.355  1.00  0.00    +0.000 C 
ATOM     94  C68 UNL A   1      51.117  20.613  10.450  1.00  0.00    +0.000 C 
ENDROOT
BRANCH   38   37
ATOM     34  C27 UNL A   1      51.612  22.598  14.896  1.00  0.00    +0.000 C 
ATOM     35  C28 UNL A   1      51.917  21.234  14.936  1.00  0.00    +0.000 C 
ATOM     36  C29 UNL A   1      52.539  20.628  13.841  1.00  0.00    +0.000 C 
ATOM     37  C30 UNL A   1      52.826  21.373  12.686  1.00  0.00    +0.000 C 
ATOM    140  H38 UNL A   1      51.684  20.676  15.771  1.00  0.00    +0.000 H 
ATOM    141  H39 UNL A   1      52.787  19.627  13.881  1.00  0.00    +0.000 H 
ATOM    152  H50 UNL A   1      52.737  23.301  11.821  1.00  0.00    +0.000 H 
ATOM    153  H51 UNL A   1      51.836  24.385  13.793  1.00  0.00    +0.000 H 
ATOM     95  C69 UNL A   1      52.536  22.746  12.668  1.00  0.00    +0.000 C 
ATOM     96  C70 UNL A   1      51.978  23.363  13.785  1.00  0.00    +0.000 C 
BRANCH   34   32
ATOM     33  O4  UNL A   1      49.869  23.788  15.918  1.00  0.00    +0.000 O 
ATOM     32  C26 UNL A   1      50.945  23.215  16.065  1.00  0.00    +0.000 C 
BRANCH   32   31
ATOM    139  H37 UNL A   1      52.461  22.864  17.324  1.00  0.00    +0.000 H 
ATOM     31  N3  UNL A   1      51.518  23.145  17.309  1.00  0.00    +0.000 N 
BRANCH   31   30
ATOM    137  H35 UNL A   1      51.485  24.215  19.076  1.00  0.00    +0.000 H 
ATOM    138  H36 UNL A   1      49.911  23.706  18.461  1.00  0.00    +0.000 H 
ATOM     30  C25 UNL A   1      50.933  23.425  18.612  1.00  0.00    +0.000 C 
BRANCH   30   29
ATOM     29  C24 UNL A   1      50.957  22.202  19.526  1.00  0.00    +0.000 C 
ATOM    135  H33 UNL A   1      51.426  22.483  20.445  1.00  0.00    +0.000 H 
ATOM    136  H34 UNL A   1      49.938  21.897  19.647  1.00  0.00    +0.000 H 
BRANCH   29   28
ATOM     28  C23 UNL A   1      51.705  20.990  18.959  1.00  0.00    +0.000 C 
ATOM    133  H31 UNL A   1      50.982  20.237  18.726  1.00  0.00    +0.000 H 
ATOM    134  H32 UNL A   1      52.244  21.350  18.109  1.00  0.00    +0.000 H 
BRANCH   28   27
ATOM     27  C22 UNL A   1      52.755  20.366  19.888  1.00  0.00    +0.000 C 
ATOM    132  H30 UNL A   1      52.220  19.706  20.540  1.00  0.00    +0.000 H 
ATOM    131  H29 UNL A   1      53.255  21.159  20.402  1.00  0.00    +0.000 H 
BRANCH   27   26
ATOM    129  H27 UNL A   1      54.076  18.700  19.841  1.00  0.00    +0.000 H 
ATOM     26  C21 UNL A   1      53.815  19.509  19.190  1.00  0.00    +0.000 C 
ATOM    130  H28 UNL A   1      53.386  19.173  18.269  1.00  0.00    +0.000 H 
BRANCH   26   25
ATOM     25  C20 UNL A   1      55.094  20.272  18.833  1.00  0.00    +0.000 C 
ATOM    127  H25 UNL A   1      54.911  21.321  18.937  1.00  0.00    +0.000 H 
ATOM    128  H26 UNL A   1      55.870  19.948  19.495  1.00  0.00    +0.000 H 
BRANCH   25   24
ATOM    126  H24 UNL A   1      54.946  20.406  16.784  1.00  0.00    +0.000 H 
ATOM     24  N2  UNL A   1      55.520  20.003  17.475  1.00  0.00    +0.000 N 
BRANCH   24   22
ATOM     22  C19 UNL A   1      56.572  19.292  16.985  1.00  0.00    +0.000 C 
ATOM     23  O3  UNL A   1      56.321  18.147  16.594  1.00  0.00    +0.000 O 
BRANCH   22   20
ATOM    122  H20 UNL A   1      57.937  20.863  17.163  1.00  0.00    +0.000 H 
ATOM     20  C17 UNL A   1      58.014  19.823  16.928  1.00  0.00    +0.000 C 
BRANCH   20   19
ATOM     97  C71 UNL A   1      60.019  18.485  17.690  1.00  0.00    +0.000 C 
ATOM     98  C72 UNL A   1      60.908  18.012  18.676  1.00  0.00    +0.000 C 
ATOM     16  C13 UNL A   1      60.773  18.395  20.024  1.00  0.00    +0.000 C 
ATOM     17  C14 UNL A   1      59.632  19.149  20.350  1.00  0.00    +0.000 C 
ATOM     18  C15 UNL A   1      58.702  19.543  19.383  1.00  0.00    +0.000 C 
ATOM     19  C16 UNL A   1      58.912  19.278  18.029  1.00  0.00    +0.000 C 
ATOM    120  H18 UNL A   1      59.476  19.420  21.333  1.00  0.00    +0.000 H 
ATOM    121  H19 UNL A   1      57.845  20.037  19.675  1.00  0.00    +0.000 H 
ATOM    154  H52 UNL A   1      60.185  18.244  16.701  1.00  0.00    +0.000 H 
BRANCH   16   15
ATOM    102  C73 UNL A   1      61.722  16.906  21.813  1.00  0.00    +0.000 C 
ATOM     11  C8  UNL A   1      62.665  16.656  22.812  1.00  0.00    +0.000 C 
ATOM     12  C9  UNL A   1      63.677  17.568  23.094  1.00  0.00    +0.000 C 
ATOM     13  C10 UNL A   1      63.751  18.747  22.362  1.00  0.00    +0.000 C 
ATOM     14  C11 UNL A   1      62.797  19.018  21.376  1.00  0.00    +0.000 C 
ATOM     15  C12 UNL A   1      61.764  18.107  21.084  1.00  0.00    +0.000 C 
ATOM    117  H15 UNL A   1      64.365  17.371  23.838  1.00  0.00    +0.000 H 
ATOM    118  H16 UNL A   1      64.509  19.423  22.546  1.00  0.00    +0.000 H 
ATOM    119  H17 UNL A   1      62.852  19.904  20.850  1.00  0.00    +0.000 H 
ATOM    155  H53 UNL A   1      60.993  16.206  21.609  1.00  0.00    +0.000 H 
BRANCH   11   10
ATOM     10  O2  UNL A   1      62.545  15.559  23.684  1.00  0.00    +0.000 O 
BRANCH   10    8
ATOM      9  O1  UNL A   1      61.073  13.842  23.137  1.00  0.00    +0.000 O 
ATOM      8  C7  UNL A   1      61.347  14.865  23.752  1.00  0.00    +0.000 C 
BRANCH    8    7
ATOM    116  H14 UNL A   1      59.536  15.569  24.277  1.00  0.00    +0.000 H 
ATOM      7  N1  UNL A   1      60.451  15.438  24.614  1.00  0.00    +0.000 N 
BRANCH    7    6
ATOM    114  H12 UNL A   1      59.960  15.467  26.616  1.00  0.00    +0.000 H 
ATOM    115  H13 UNL A   1      61.687  15.525  26.248  1.00  0.00    +0.000 H 
ATOM      6  C6  UNL A   1      60.713  15.873  25.972  1.00  0.00    +0.000 C 
BRANCH    6    5
ATOM    113  H11 UNL A   1      61.729  17.701  26.117  1.00  0.00    +0.000 H 
ATOM      5  C5  UNL A   1      60.704  17.396  26.101  1.00  0.00    +0.000 C 
ATOM    112  H10 UNL A   1      60.172  17.651  26.993  1.00  0.00    +0.000 H 
BRANCH    5    4
ATOM      4  C4  UNL A   1      60.052  18.140  24.929  1.00  0.00    +0.000 C 
ATOM    110  H8  UNL A   1      60.831  18.582  24.346  1.00  0.00    +0.000 H 
ATOM    111  H9  UNL A   1      59.479  17.408  24.399  1.00  0.00    +0.000 H 
BRANCH    4    3
ATOM      3  C3  UNL A   1      59.065  19.246  25.316  1.00  0.00    +0.000 C 
ATOM    108  H6  UNL A   1      59.352  20.140  24.803  1.00  0.00    +0.000 H 
ATOM    109  H7  UNL A   1      58.096  18.885  25.043  1.00  0.00    +0.000 H 
BRANCH    3    2
ATOM      2  C2  UNL A   1      58.989  19.565  26.812  1.00  0.00    +0.000 C 
ATOM    107  H5  UNL A   1      59.918  20.018  27.087  1.00  0.00    +0.000 H 
ATOM    106  H4  UNL A   1      58.810  18.655  27.345  1.00  0.00    +0.000 H 
BRANCH    2    1
ATOM      1  C1  UNL A   1      57.885  20.552  27.161  1.00  0.00    +0.000 C 
ATOM    105  H3  UNL A   1      57.198  20.093  27.839  1.00  0.00    +0.000 H 
ATOM    103  H1  UNL A   1      57.368  20.839  26.269  1.00  0.00    +0.000 H 
ATOM    104  H2  UNL A   1      58.314  21.420  27.618  1.00  0.00    +0.000 H 
ENDBRANCH    2    1
ENDBRANCH    3    2
ENDBRANCH    4    3
ENDBRANCH    5    4
ENDBRANCH    6    5
ENDBRANCH    7    6
ENDBRANCH    8    7
ENDBRANCH   10    8
ENDBRANCH   11   10
ENDBRANCH   16   15
BRANCH   98   99
ATOM     99  N8  UNL A   1      61.926  17.073  18.259  1.00  0.00    +0.000 N 
ATOM    100  O5  UNL A   1      61.731  15.876  18.327  1.00  0.00    +0.000 O 
ATOM    101  O6  UNL A   1      63.187  17.496  17.912  1.00  0.00    +0.000 O 
ENDBRANCH   98   99
ENDBRANCH   20   19
BRANCH   20   21
ATOM    125  H23 UNL A   1      59.364  19.077  15.447  1.00  0.00    +0.000 H 
ATOM    123  H21 UNL A   1      59.079  20.798  15.350  1.00  0.00    +0.000 H 
ATOM    124  H22 UNL A   1      57.856  19.678  14.800  1.00  0.00    +0.000 H 
ATOM     21  C18 UNL A   1      58.624  19.845  15.526  1.00  0.00    +0.000 C 
ENDBRANCH   20   21
ENDBRANCH   22   20
ENDBRANCH   24   22
ENDBRANCH   25   24
ENDBRANCH   26   25
ENDBRANCH   27   26
ENDBRANCH   28   27
ENDBRANCH   29   28
ENDBRANCH   30   29
ENDBRANCH   31   30
ENDBRANCH   32   31
ENDBRANCH   34   32
ENDBRANCH   38   37
BRANCH   42   43
ATOM     43  C35 UNL A   1      50.110  18.895   6.779  1.00  0.00    +0.000 C 
ATOM     44  C36 UNL A   1      49.316  17.750   6.948  1.00  0.00    +0.000 C 
ATOM     45  F1  UNL A   1      49.818  16.666   7.557  1.00  0.00    +0.000 F 
ATOM     46  C37 UNL A   1      48.016  17.699   6.453  1.00  0.00    +0.000 C 
ATOM     47  F2  UNL A   1      47.296  16.576   6.581  1.00  0.00    +0.000 F 
ATOM     48  C38 UNL A   1      47.470  18.802   5.813  1.00  0.00    +0.000 C 
ATOM     49  F3  UNL A   1      46.217  18.752   5.342  1.00  0.00    +0.000 F 
ATOM     50  C39 UNL A   1      48.227  19.953   5.658  1.00  0.00    +0.000 C 
ATOM     51  F4  UNL A   1      47.697  21.025   5.051  1.00  0.00    +0.000 F 
ATOM     52  C40 UNL A   1      49.538  19.997   6.125  1.00  0.00    +0.000 C 
ATOM     53  F5  UNL A   1      50.250  21.120   5.942  1.00  0.00    +0.000 F 
ENDBRANCH   42   43
BRANCH   59   60
ATOM     65  C49 UNL A   1      58.027  15.793   2.502  1.00  0.00    +0.000 C 
ATOM     66  F8  UNL A   1      58.626  15.227   1.446  1.00  0.00    +0.000 F 
ATOM     67  C50 UNL A   1      57.516  15.000   3.519  1.00  0.00    +0.000 C 
ATOM     68  F9  UNL A   1      57.643  13.668   3.456  1.00  0.00    +0.000 F 
ATOM     69  C51 UNL A   1      56.873  15.587   4.606  1.00  0.00    +0.000 C 
ATOM     70  F10 UNL A   1      56.378  14.794   5.567  1.00  0.00    +0.000 F 
ATOM     60  C46 UNL A   1      56.749  16.981   4.704  1.00  0.00    +0.000 C 
ATOM     61  C47 UNL A   1      57.289  17.765   3.674  1.00  0.00    +0.000 C 
ATOM     62  F6  UNL A   1      57.182  19.101   3.715  1.00  0.00    +0.000 F 
ATOM     63  C48 UNL A   1      57.907  17.174   2.575  1.00  0.00    +0.000 C 
ATOM     64  F7  UNL A   1      58.374  17.939   1.579  1.00  0.00    +0.000 F 
ENDBRANCH   59   60
BRANCH   74   75
ATOM     75  C55 UNL A   1      59.238  19.244  10.805  1.00  0.00    +0.000 C 
ATOM     76  C56 UNL A   1      59.664  18.208  11.649  1.00  0.00    +0.000 C 
ATOM     77  F11 UNL A   1      58.832  17.197  11.939  1.00  0.00    +0.000 F 
ATOM     78  C57 UNL A   1      60.933  18.226  12.225  1.00  0.00    +0.000 C 
ATOM     79  F12 UNL A   1      61.300  17.243  13.059  1.00  0.00    +0.000 F 
ATOM     80  C58 UNL A   1      61.808  19.263  11.947  1.00  0.00    +0.000 C 
ATOM     81  F13 UNL A   1      63.031  19.276  12.495  1.00  0.00    +0.000 F 
ATOM     82  C59 UNL A   1      61.415  20.291  11.104  1.00  0.00    +0.000 C 
ATOM     83  F14 UNL A   1      62.264  21.288  10.821  1.00  0.00    +0.000 F 
ATOM     84  C60 UNL A   1      60.137  20.289  10.548  1.00  0.00    +0.000 C 
ATOM     85  F15 UNL A   1      59.779  21.300   9.742  1.00  0.00    +0.000 F 
ENDBRANCH   74   75
TORSDOF 28
ENDMDL
