MODEL 1
REMARK VINA RESULT:     -11.9      0.000      0.000
ROOT
ATOM    129  H34 UNL A   1      38.907  28.137  30.166  1.00  0.00    +0.000 H 
ATOM    130  H35 UNL A   1      42.664  28.752  28.496  1.00  0.00    +0.000 H 
ATOM    131  H36 UNL A   1      43.827  24.467  26.145  1.00  0.00    +0.000 H 
ATOM    132  H37 UNL A   1      46.032  25.587  25.484  1.00  0.00    +0.000 H 
ATOM    133  H38 UNL A   1      43.123  34.153  29.885  1.00  0.00    +0.000 H 
ATOM    134  H39 UNL A   1      41.026  32.980  30.776  1.00  0.00    +0.000 H 
ATOM     37  C29 UNL A   1      40.793  30.258  29.944  1.00  0.00    +0.000 C 
ATOM     38  C30 UNL A   1      41.913  31.216  29.662  1.00  0.00    +0.000 C 
ATOM     39  N3  UNL A   1      43.017  31.013  28.987  1.00  0.00    +0.000 N 
ATOM     40  C31 UNL A   1      43.702  32.220  29.001  1.00  0.00    +0.000 C 
ATOM     41  C32 UNL A   1      44.906  32.509  28.453  1.00  0.00    +0.000 C 
ATOM     53  C39 UNL A   1      45.726  31.561  27.743  1.00  0.00    +0.000 C 
ATOM     54  C40 UNL A   1      46.992  31.742  27.211  1.00  0.00    +0.000 C 
ATOM     55  C41 UNL A   1      47.370  30.562  26.563  1.00  0.00    +0.000 C 
ATOM     56  C42 UNL A   1      46.360  29.630  26.729  1.00  0.00    +0.000 C 
ATOM     57  N4  UNL A   1      45.359  30.254  27.457  1.00  0.00    +0.000 N 
ATOM     58  C43 UNL A   1      46.307  28.272  26.252  1.00  0.00    +0.000 C 
ATOM     70  C50 UNL A   1      45.305  27.396  26.506  1.00  0.00    +0.000 C 
ATOM     71  N5  UNL A   1      44.140  27.592  27.232  1.00  0.00    +0.000 N 
ATOM     72  C51 UNL A   1      43.479  26.463  27.161  1.00  0.00    +0.000 C 
ATOM     73  C52 UNL A   1      42.153  26.104  27.768  1.00  0.00    +0.000 C 
ATOM     85  C59 UNL A   1      41.493  27.029  28.486  1.00  0.00    +0.000 C 
ATOM     86  C60 UNL A   1      40.198  26.828  29.123  1.00  0.00    +0.000 C 
ATOM     87  C61 UNL A   1      39.804  27.982  29.679  1.00  0.00    +0.000 C 
ATOM     88  C62 UNL A   1      40.849  28.991  29.487  1.00  0.00    +0.000 C 
ATOM     89  N6  UNL A   1      41.817  28.332  28.774  1.00  0.00    +0.000 N 
ATOM     90  C63 UNL A   1      44.148  25.422  26.371  1.00  0.00    +0.000 C 
ATOM     91  C64 UNL A   1      45.273  26.030  26.026  1.00  0.00    +0.000 C 
ATOM     92  C65 UNL A   1      42.882  33.161  29.737  1.00  0.00    +0.000 C 
ATOM     93  C66 UNL A   1      41.780  32.580  30.196  1.00  0.00    +0.000 C 
ATOM    125  H30 UNL A   1      47.559  32.602  27.282  1.00  0.00    +0.000 H 
ATOM    126  H31 UNL A   1      48.252  30.412  26.049  1.00  0.00    +0.000 H 
ATOM    127  H32 UNL A   1      44.512  29.832  27.732  1.00  0.00    +0.000 H 
ATOM    128  H33 UNL A   1      39.669  25.942  29.142  1.00  0.00    +0.000 H 
ENDROOT
BRANCH   37   36
ATOM     33  C25 UNL A   1      37.416  31.631  32.194  1.00  0.00    +0.000 C 
ATOM     34  C26 UNL A   1      37.439  31.754  30.803  1.00  0.00    +0.000 C 
ATOM     35  C27 UNL A   1      38.498  31.219  30.075  1.00  0.00    +0.000 C 
ATOM     36  C28 UNL A   1      39.605  30.663  30.737  1.00  0.00    +0.000 C 
ATOM    135  H40 UNL A   1      40.424  30.213  32.635  1.00  0.00    +0.000 H 
ATOM    136  H41 UNL A   1      38.502  31.000  33.894  1.00  0.00    +0.000 H 
ATOM    123  H28 UNL A   1      36.671  32.241  30.315  1.00  0.00    +0.000 H 
ATOM    124  H29 UNL A   1      38.469  31.231  29.044  1.00  0.00    +0.000 H 
ATOM     94  C67 UNL A   1      39.608  30.602  32.138  1.00  0.00    +0.000 C 
ATOM     95  C68 UNL A   1      38.508  31.070  32.865  1.00  0.00    +0.000 C 
BRANCH   33    2
ATOM      1  O1  UNL A   1      36.414  32.419  34.161  1.00  0.00    +0.000 O 
ATOM      2  C1  UNL A   1      36.263  32.124  32.983  1.00  0.00    +0.000 C 
BRANCH    2    3
ATOM      3  N1  UNL A   1      35.026  32.235  32.393  1.00  0.00    +0.000 N 
ATOM     96  H1  UNL A   1      34.628  31.392  32.079  1.00  0.00    +0.000 H 
BRANCH    3    4
ATOM     97  H2  UNL A   1      34.163  33.975  33.085  1.00  0.00    +0.000 H 
ATOM     98  H3  UNL A   1      33.259  33.109  31.833  1.00  0.00    +0.000 H 
ATOM      4  C2  UNL A   1      34.224  33.426  32.169  1.00  0.00    +0.000 C 
BRANCH    4    5
ATOM     99  H4  UNL A   1      35.871  34.182  31.080  1.00  0.00    +0.000 H 
ATOM    100  H5  UNL A   1      34.525  35.328  31.359  1.00  0.00    +0.000 H 
ATOM      5  C3  UNL A   1      34.812  34.331  31.096  1.00  0.00    +0.000 C 
BRANCH    5    6
ATOM    102  H7  UNL A   1      33.814  33.131  29.709  1.00  0.00    +0.000 H 
ATOM    101  H6  UNL A   1      33.613  34.898  29.446  1.00  0.00    +0.000 H 
ATOM      6  C4  UNL A   1      34.279  34.094  29.683  1.00  0.00    +0.000 C 
BRANCH    6    7
ATOM    103  H8  UNL A   1      36.278  34.258  29.002  1.00  0.00    +0.000 H 
ATOM      7  C5  UNL A   1      35.330  34.013  28.571  1.00  0.00    +0.000 C 
ATOM    104  H9  UNL A   1      34.994  34.693  27.816  1.00  0.00    +0.000 H 
BRANCH    7    8
ATOM    105  H10 UNL A   1      36.440  32.265  28.110  1.00  0.00    +0.000 H 
ATOM    106  H11 UNL A   1      35.348  32.867  26.818  1.00  0.00    +0.000 H 
ATOM      8  C6  UNL A   1      35.479  32.662  27.860  1.00  0.00    +0.000 C 
BRANCH    8    9
ATOM      9  C7  UNL A   1      34.431  31.606  28.208  1.00  0.00    +0.000 C 
ATOM    107  H12 UNL A   1      33.582  32.096  28.636  1.00  0.00    +0.000 H 
ATOM    108  H13 UNL A   1      34.885  30.921  28.894  1.00  0.00    +0.000 H 
BRANCH    9   10
ATOM     10  N2  UNL A   1      33.995  30.844  27.061  1.00  0.00    +0.000 N 
ATOM    109  H14 UNL A   1      34.113  31.280  26.186  1.00  0.00    +0.000 H 
BRANCH   10   11
ATOM     11  C8  UNL A   1      33.442  29.598  27.032  1.00  0.00    +0.000 C 
ATOM     12  O2  UNL A   1      34.143  28.657  27.409  1.00  0.00    +0.000 O 
BRANCH   11   13
ATOM     13  C9  UNL A   1      31.997  29.420  26.511  1.00  0.00    +0.000 C 
ATOM     14  C10 UNL A   1      31.900  29.612  25.004  1.00  0.00    +0.000 C 
ATOM    110  H15 UNL A   1      31.420  30.178  26.999  1.00  0.00    +0.000 H 
ATOM    111  H16 UNL A   1      32.878  29.668  24.574  1.00  0.00    +0.000 H 
ATOM     15  C11 UNL A   1      31.152  28.394  24.460  1.00  0.00    +0.000 C 
ATOM    112  H17 UNL A   1      31.391  30.521  24.760  1.00  0.00    +0.000 H 
ATOM    118  H23 UNL A   1      30.295  26.864  25.579  1.00  0.00    +0.000 H 
ATOM     24  C18 UNL A   1      31.230  27.381  25.636  1.00  0.00    +0.000 C 
ATOM     32  O4  UNL A   1      31.467  28.135  26.840  1.00  0.00    +0.000 O 
BRANCH   15   16
ATOM    113  H18 UNL A   1      31.971  26.914  23.410  1.00  0.00    +0.000 H 
ATOM     16  O3  UNL A   1      31.901  27.880  23.338  1.00  0.00    +0.000 O 
ENDBRANCH   15   16
BRANCH   15   17
ATOM     17  C12 UNL A   1      29.804  28.855  23.867  1.00  0.00    +0.000 C 
ATOM     18  C13 UNL A   1      29.681  30.261  23.662  1.00  0.00    +0.000 C 
ATOM     19  C14 UNL A   1      28.551  30.851  23.093  1.00  0.00    +0.000 C 
ATOM    114  H19 UNL A   1      30.464  30.870  23.947  1.00  0.00    +0.000 H 
ATOM     21  C16 UNL A   1      27.559  28.682  22.907  1.00  0.00    +0.000 C 
ATOM     22  C17 UNL A   1      28.678  28.085  23.520  1.00  0.00    +0.000 C 
ATOM     23 Cl1  UNL A   1      28.472  26.406  23.861  1.00  0.00    +0.000 Cl
ATOM    115  H20 UNL A   1      28.505  31.875  22.974  1.00  0.00    +0.000 H 
ATOM     20  C15 UNL A   1      27.495  30.055  22.689  1.00  0.00    +0.000 C 
ATOM    117  H22 UNL A   1      26.768  28.088  22.614  1.00  0.00    +0.000 H 
ATOM    116  H21 UNL A   1      26.669  30.473  22.233  1.00  0.00    +0.000 H 
ENDBRANCH   15   17
BRANCH   24   25
ATOM    122  H27 UNL A   1      32.624  22.961  26.287  1.00  0.00    +0.000 H 
ATOM    121  H26 UNL A   1      34.931  23.462  25.737  1.00  0.00    +0.000 H 
ATOM    119  H24 UNL A   1      33.856  27.431  24.903  1.00  0.00    +0.000 H 
ATOM    120  H25 UNL A   1      35.533  25.696  25.016  1.00  0.00    +0.000 H 
ATOM     25  C19 UNL A   1      32.249  26.242  25.587  1.00  0.00    +0.000 C 
ATOM     26  C20 UNL A   1      33.585  26.487  25.220  1.00  0.00    +0.000 C 
ATOM     27  C21 UNL A   1      34.557  25.483  25.275  1.00  0.00    +0.000 C 
ATOM     28  C22 UNL A   1      34.212  24.200  25.679  1.00  0.00    +0.000 C 
ATOM     29  C23 UNL A   1      32.889  23.917  26.006  1.00  0.00    +0.000 C 
ATOM     30  C24 UNL A   1      31.914  24.923  25.957  1.00  0.00    +0.000 C 
ATOM     31 Cl2  UNL A   1      30.300  24.438  26.354  1.00  0.00    +0.000 Cl
ENDBRANCH   24   25
ENDBRANCH   11   13
ENDBRANCH   10   11
ENDBRANCH    9   10
ENDBRANCH    8    9
ENDBRANCH    7    8
ENDBRANCH    6    7
ENDBRANCH    5    6
ENDBRANCH    4    5
ENDBRANCH    3    4
ENDBRANCH    2    3
ENDBRANCH   33    2
ENDBRANCH   37   36
BRANCH   41   42
ATOM     42  C33 UNL A   1      45.425  33.911  28.582  1.00  0.00    +0.000 C 
ATOM     43  C34 UNL A   1      45.109  34.903  27.644  1.00  0.00    +0.000 C 
ATOM     44  F1  UNL A   1      44.408  34.591  26.542  1.00  0.00    +0.000 F 
ATOM     45  C35 UNL A   1      45.518  36.221  27.828  1.00  0.00    +0.000 C 
ATOM     46  F2  UNL A   1      45.220  37.150  26.909  1.00  0.00    +0.000 F 
ATOM     47  C36 UNL A   1      46.233  36.576  28.964  1.00  0.00    +0.000 C 
ATOM     48  F3  UNL A   1      46.609  37.850  29.150  1.00  0.00    +0.000 F 
ATOM     49  C37 UNL A   1      46.556  35.612  29.906  1.00  0.00    +0.000 C 
ATOM     50  F4  UNL A   1      47.235  35.956  31.010  1.00  0.00    +0.000 F 
ATOM     51  C38 UNL A   1      46.166  34.290  29.713  1.00  0.00    +0.000 C 
ATOM     52  F5  UNL A   1      46.488  33.379  30.645  1.00  0.00    +0.000 F 
ENDBRANCH   41   42
BRANCH   58   59
ATOM     65  F8  UNL A   1      50.600  26.377  23.112  1.00  0.00    +0.000 F 
ATOM     66  C48 UNL A   1      48.435  27.312  23.250  1.00  0.00    +0.000 C 
ATOM     67  F9  UNL A   1      48.344  27.330  21.913  1.00  0.00    +0.000 F 
ATOM     68  C49 UNL A   1      47.384  27.795  24.024  1.00  0.00    +0.000 C 
ATOM     69  F10 UNL A   1      46.297  28.282  23.407  1.00  0.00    +0.000 F 
ATOM     59  C44 UNL A   1      47.451  27.771  25.424  1.00  0.00    +0.000 C 
ATOM     60  C45 UNL A   1      48.608  27.247  26.021  1.00  0.00    +0.000 C 
ATOM     61  F6  UNL A   1      48.727  27.222  27.357  1.00  0.00    +0.000 F 
ATOM     62  C46 UNL A   1      49.669  26.792  25.243  1.00  0.00    +0.000 C 
ATOM     63  F7  UNL A   1      50.785  26.343  25.833  1.00  0.00    +0.000 F 
ATOM     64  C47 UNL A   1      49.579  26.818  23.859  1.00  0.00    +0.000 C 
ENDBRANCH   58   59
BRANCH   73   74
ATOM     74  C53 UNL A   1      41.558  24.757  27.569  1.00  0.00    +0.000 C 
ATOM     75  C54 UNL A   1      40.417  24.581  26.777  1.00  0.00    +0.000 C 
ATOM     76  F11 UNL A   1      39.832  25.641  26.199  1.00  0.00    +0.000 F 
ATOM     77  C55 UNL A   1      39.848  23.319  26.609  1.00  0.00    +0.000 C 
ATOM     78  F12 UNL A   1      38.729  23.185  25.885  1.00  0.00    +0.000 F 
ATOM     79  C56 UNL A   1      40.428  22.209  27.202  1.00  0.00    +0.000 C 
ATOM     80  F13 UNL A   1      39.882  20.996  27.037  1.00  0.00    +0.000 F 
ATOM     81  C57 UNL A   1      41.570  22.357  27.974  1.00  0.00    +0.000 C 
ATOM     82  F14 UNL A   1      42.143  21.285  28.536  1.00  0.00    +0.000 F 
ATOM     83  C58 UNL A   1      42.121  23.621  28.168  1.00  0.00    +0.000 C 
ATOM     84  F15 UNL A   1      43.218  23.737  28.932  1.00  0.00    +0.000 F 
ENDBRANCH   73   74
TORSDOF 18
ENDMDL
MODEL 2
REMARK VINA RESULT:     -11.9     32.394     38.816
ROOT
ATOM    129  H34 UNL A   1      18.278  21.698  -3.211  1.00  0.00    +0.000 H 
ATOM    130  H35 UNL A   1      17.726  25.723  -2.331  1.00  0.00    +0.000 H 
ATOM    131  H36 UNL A   1      12.786  26.543  -2.751  1.00  0.00    +0.000 H 
ATOM    132  H37 UNL A   1      13.274  28.976  -2.124  1.00  0.00    +0.000 H 
ATOM    133  H38 UNL A   1      23.024  26.818  -0.906  1.00  0.00    +0.000 H 
ATOM    134  H39 UNL A   1      22.604  24.445  -1.776  1.00  0.00    +0.000 H 
ATOM     37  C29 UNL A   1      19.865  23.912  -2.384  1.00  0.00    +0.000 C 
ATOM     38  C30 UNL A   1      20.473  25.202  -1.916  1.00  0.00    +0.000 C 
ATOM     39  N3  UNL A   1      19.888  26.353  -1.694  1.00  0.00    +0.000 N 
ATOM     40  C31 UNL A   1      20.885  27.212  -1.255  1.00  0.00    +0.000 C 
ATOM     41  C32 UNL A   1      20.779  28.519  -0.917  1.00  0.00    +0.000 C 
ATOM     53  C39 UNL A   1      19.556  29.278  -0.975  1.00  0.00    +0.000 C 
ATOM     54  C40 UNL A   1      19.364  30.626  -0.717  1.00  0.00    +0.000 C 
ATOM     55  C41 UNL A   1      18.001  30.908  -0.845  1.00  0.00    +0.000 C 
ATOM     56  C42 UNL A   1      17.348  29.747  -1.226  1.00  0.00    +0.000 C 
ATOM     57  N4  UNL A   1      18.315  28.756  -1.305  1.00  0.00    +0.000 N 
ATOM     58  C43 UNL A   1      15.946  29.554  -1.491  1.00  0.00    +0.000 C 
ATOM     70  C50 UNL A   1      15.388  28.396  -1.920  1.00  0.00    +0.000 C 
ATOM     71  N5  UNL A   1      15.997  27.177  -2.175  1.00  0.00    +0.000 N 
ATOM     72  C51 UNL A   1      15.035  26.363  -2.532  1.00  0.00    +0.000 C 
ATOM     73  C52 UNL A   1      15.118  24.916  -2.928  1.00  0.00    +0.000 C 
ATOM     85  C59 UNL A   1      16.317  24.308  -2.923  1.00  0.00    +0.000 C 
ATOM     86  C60 UNL A   1      16.549  22.912  -3.273  1.00  0.00    +0.000 C 
ATOM     87  C61 UNL A   1      17.843  22.625  -3.077  1.00  0.00    +0.000 C 
ATOM     88  C62 UNL A   1      18.545  23.836  -2.643  1.00  0.00    +0.000 C 
ATOM     89  N6  UNL A   1      17.559  24.787  -2.588  1.00  0.00    +0.000 N 
ATOM     90  C63 UNL A   1      13.699  26.973  -2.535  1.00  0.00    +0.000 C 
ATOM     91  C64 UNL A   1      13.975  28.222  -2.191  1.00  0.00    +0.000 C 
ATOM     92  C65 UNL A   1      22.115  26.447  -1.223  1.00  0.00    +0.000 C 
ATOM     93  C66 UNL A   1      21.920  25.207  -1.655  1.00  0.00    +0.000 C 
ATOM    125  H30 UNL A   1      20.102  31.305  -0.472  1.00  0.00    +0.000 H 
ATOM    126  H31 UNL A   1      17.556  31.825  -0.682  1.00  0.00    +0.000 H 
ATOM    127  H32 UNL A   1      18.145  27.820  -1.559  1.00  0.00    +0.000 H 
ATOM    128  H33 UNL A   1      15.833  22.251  -3.614  1.00  0.00    +0.000 H 
ENDROOT
BRANCH   37   36
ATOM     33  C25 UNL A   1      22.415  20.513  -2.920  1.00  0.00    +0.000 C 
ATOM     34  C26 UNL A   1      22.190  21.036  -1.645  1.00  0.00    +0.000 C 
ATOM     35  C27 UNL A   1      21.287  22.080  -1.472  1.00  0.00    +0.000 C 
ATOM     36  C28 UNL A   1      20.689  22.694  -2.585  1.00  0.00    +0.000 C 
ATOM    135  H40 UNL A   1      20.552  22.663  -4.696  1.00  0.00    +0.000 H 
ATOM    136  H41 UNL A   1      22.004  20.736  -4.981  1.00  0.00    +0.000 H 
ATOM    123  H28 UNL A   1      22.694  20.649  -0.831  1.00  0.00    +0.000 H 
ATOM    124  H29 UNL A   1      21.055  22.404  -0.521  1.00  0.00    +0.000 H 
ATOM     94  C67 UNL A   1      20.970  22.208  -3.870  1.00  0.00    +0.000 C 
ATOM     95  C68 UNL A   1      21.819  21.107  -4.036  1.00  0.00    +0.000 C 
BRANCH   33    2
ATOM      1  O1  UNL A   1      22.885  18.216  -2.964  1.00  0.00    +0.000 O 
ATOM      2  C1  UNL A   1      23.315  19.351  -3.119  1.00  0.00    +0.000 C 
BRANCH    2    3
ATOM      3  N1  UNL A   1      24.631  19.554  -3.462  1.00  0.00    +0.000 N 
ATOM     96  H1  UNL A   1      24.812  19.620  -4.427  1.00  0.00    +0.000 H 
BRANCH    3    4
ATOM     97  H2  UNL A   1      26.213  18.715  -2.442  1.00  0.00    +0.000 H 
ATOM     98  H3  UNL A   1      25.462  20.124  -1.678  1.00  0.00    +0.000 H 
ATOM      4  C2  UNL A   1      25.791  19.686  -2.597  1.00  0.00    +0.000 C 
BRANCH    4    5
ATOM     99  H4  UNL A   1      27.726  20.001  -3.385  1.00  0.00    +0.000 H 
ATOM    100  H5  UNL A   1      27.024  21.366  -2.464  1.00  0.00    +0.000 H 
ATOM      5  C3  UNL A   1      26.858  20.594  -3.187  1.00  0.00    +0.000 C 
BRANCH    5    6
ATOM    102  H7  UNL A   1      25.893  20.590  -5.038  1.00  0.00    +0.000 H 
ATOM    101  H6  UNL A   1      25.925  22.190  -4.218  1.00  0.00    +0.000 H 
ATOM      6  C4  UNL A   1      26.464  21.304  -4.482  1.00  0.00    +0.000 C 
BRANCH    6    7
ATOM    103  H8  UNL A   1      28.491  21.183  -5.087  1.00  0.00    +0.000 H 
ATOM      7  C5  UNL A   1      27.617  21.714  -5.404  1.00  0.00    +0.000 C 
ATOM    104  H9  UNL A   1      27.684  22.778  -5.314  1.00  0.00    +0.000 H 
BRANCH    7    8
ATOM    105  H10 UNL A   1      26.436  21.744  -7.167  1.00  0.00    +0.000 H 
ATOM    106  H11 UNL A   1      27.625  20.404  -7.038  1.00  0.00    +0.000 H 
ATOM      8  C6  UNL A   1      27.430  21.447  -6.904  1.00  0.00    +0.000 C 
BRANCH    8    9
ATOM      9  C7  UNL A   1      28.398  22.173  -7.836  1.00  0.00    +0.000 C 
ATOM    107  H12 UNL A   1      28.500  21.601  -8.735  1.00  0.00    +0.000 H 
ATOM    108  H13 UNL A   1      29.329  22.270  -7.316  1.00  0.00    +0.000 H 
BRANCH    9   10
ATOM     10  N2  UNL A   1      27.957  23.503  -8.183  1.00  0.00    +0.000 N 
ATOM    109  H14 UNL A   1      27.322  23.563  -8.933  1.00  0.00    +0.000 H 
BRANCH   10   11
ATOM     11  C8  UNL A   1      28.303  24.690  -7.606  1.00  0.00    +0.000 C 
ATOM     12  O2  UNL A   1      29.020  24.645  -6.604  1.00  0.00    +0.000 O 
BRANCH   11   13
ATOM     13  C9  UNL A   1      27.772  26.011  -8.207  1.00  0.00    +0.000 C 
ATOM     14  C10 UNL A   1      26.871  25.775  -9.412  1.00  0.00    +0.000 C 
ATOM    110  H15 UNL A   1      28.640  26.554  -8.519  1.00  0.00    +0.000 H 
ATOM    111  H16 UNL A   1      26.645  24.733  -9.506  1.00  0.00    +0.000 H 
ATOM     15  C11 UNL A   1      25.591  26.572  -9.157  1.00  0.00    +0.000 C 
ATOM    112  H17 UNL A   1      27.347  26.084 -10.319  1.00  0.00    +0.000 H 
ATOM    118  H23 UNL A   1      25.226  27.854  -7.559  1.00  0.00    +0.000 H 
ATOM     24  C18 UNL A   1      25.668  26.883  -7.636  1.00  0.00    +0.000 C 
ATOM     32  O4  UNL A   1      27.051  26.782  -7.245  1.00  0.00    +0.000 O 
BRANCH   15   16
ATOM    113  H18 UNL A   1      24.105  25.388  -8.564  1.00  0.00    +0.000 H 
ATOM     16  O3  UNL A   1      24.469  25.699  -9.408  1.00  0.00    +0.000 O 
ENDBRANCH   15   16
BRANCH   15   17
ATOM     17  C12 UNL A   1      25.476  27.690 -10.214  1.00  0.00    +0.000 C 
ATOM     18  C13 UNL A   1      25.512  27.249 -11.569  1.00  0.00    +0.000 C 
ATOM     19  C14 UNL A   1      25.377  28.115 -12.656  1.00  0.00    +0.000 C 
ATOM    114  H19 UNL A   1      25.645  26.243 -11.756  1.00  0.00    +0.000 H 
ATOM     21  C16 UNL A   1      25.179  29.944 -11.124  1.00  0.00    +0.000 C 
ATOM     22  C17 UNL A   1      25.359  29.080 -10.025  1.00  0.00    +0.000 C 
ATOM     23 Cl1  UNL A   1      25.507  29.899  -8.514  1.00  0.00    +0.000 Cl
ATOM    115  H20 UNL A   1      25.420  27.750 -13.620  1.00  0.00    +0.000 H 
ATOM     20  C15 UNL A   1      25.183  29.466 -12.431  1.00  0.00    +0.000 C 
ATOM    117  H22 UNL A   1      25.043  30.952 -10.956  1.00  0.00    +0.000 H 
ATOM    116  H21 UNL A   1      25.042  30.113 -13.224  1.00  0.00    +0.000 H 
ENDBRANCH   15   17
BRANCH   24   25
ATOM    122  H27 UNL A   1      21.892  26.026  -5.007  1.00  0.00    +0.000 H 
ATOM    121  H26 UNL A   1      22.904  24.101  -3.936  1.00  0.00    +0.000 H 
ATOM    119  H24 UNL A   1      26.309  24.569  -6.343  1.00  0.00    +0.000 H 
ATOM    120  H25 UNL A   1      25.104  23.361  -4.633  1.00  0.00    +0.000 H 
ATOM     25  C19 UNL A   1      24.840  26.056  -6.652  1.00  0.00    +0.000 C 
ATOM     26  C20 UNL A   1      25.377  24.902  -6.051  1.00  0.00    +0.000 C 
ATOM     27  C21 UNL A   1      24.679  24.195  -5.068  1.00  0.00    +0.000 C 
ATOM     28  C22 UNL A   1      23.414  24.612  -4.674  1.00  0.00    +0.000 C 
ATOM     29  C23 UNL A   1      22.839  25.724  -5.282  1.00  0.00    +0.000 C 
ATOM     30  C24 UNL A   1      23.539  26.438  -6.264  1.00  0.00    +0.000 C 
ATOM     31 Cl2  UNL A   1      22.704  27.782  -6.968  1.00  0.00    +0.000 Cl
ENDBRANCH   24   25
ENDBRANCH   11   13
ENDBRANCH   10   11
ENDBRANCH    9   10
ENDBRANCH    8    9
ENDBRANCH    7    8
ENDBRANCH    6    7
ENDBRANCH    5    6
ENDBRANCH    4    5
ENDBRANCH    3    4
ENDBRANCH    2    3
ENDBRANCH   33    2
ENDBRANCH   37   36
BRANCH   41   42
ATOM     42  C33 UNL A   1      22.013  29.230  -0.441  1.00  0.00    +0.000 C 
ATOM     43  C34 UNL A   1      22.270  29.425   0.923  1.00  0.00    +0.000 C 
ATOM     44  F1  UNL A   1      21.358  29.064   1.839  1.00  0.00    +0.000 F 
ATOM     45  C35 UNL A   1      23.463  30.000   1.352  1.00  0.00    +0.000 C 
ATOM     46  F2  UNL A   1      23.681  30.193   2.660  1.00  0.00    +0.000 F 
ATOM     47  C36 UNL A   1      24.430  30.371   0.427  1.00  0.00    +0.000 C 
ATOM     48  F3  UNL A   1      25.587  30.907   0.843  1.00  0.00    +0.000 F 
ATOM     49  C37 UNL A   1      24.197  30.186  -0.926  1.00  0.00    +0.000 C 
ATOM     50  F4  UNL A   1      25.135  30.532  -1.820  1.00  0.00    +0.000 F 
ATOM     51  C38 UNL A   1      22.996  29.631  -1.358  1.00  0.00    +0.000 C 
ATOM     52  F5  UNL A   1      22.802  29.459  -2.676  1.00  0.00    +0.000 F 
ENDBRANCH   41   42
BRANCH   58   59
ATOM     65  F8  UNL A   1      12.479  33.954  -0.790  1.00  0.00    +0.000 F 
ATOM     66  C48 UNL A   1      13.546  32.410  -2.225  1.00  0.00    +0.000 C 
ATOM     67  F9  UNL A   1      12.959  32.975  -3.289  1.00  0.00    +0.000 F 
ATOM     68  C49 UNL A   1      14.387  31.314  -2.395  1.00  0.00    +0.000 C 
ATOM     69  F10 UNL A   1      14.585  30.837  -3.634  1.00  0.00    +0.000 F 
ATOM     59  C44 UNL A   1      15.025  30.719  -1.298  1.00  0.00    +0.000 C 
ATOM     60  C45 UNL A   1      14.788  31.259  -0.024  1.00  0.00    +0.000 C 
ATOM     61  F6  UNL A   1      15.360  30.710   1.058  1.00  0.00    +0.000 F 
ATOM     62  C46 UNL A   1      13.924  32.336   0.145  1.00  0.00    +0.000 C 
ATOM     63  F7  UNL A   1      13.673  32.804   1.376  1.00  0.00    +0.000 F 
ATOM     64  C47 UNL A   1      13.309  32.915  -0.955  1.00  0.00    +0.000 C 
ENDBRANCH   58   59
BRANCH   73   74
ATOM     74  C53 UNL A   1      13.900  24.152  -3.301  1.00  0.00    +0.000 C 
ATOM     75  C54 UNL A   1      13.323  23.234  -2.415  1.00  0.00    +0.000 C 
ATOM     76  F11 UNL A   1      13.881  23.020  -1.214  1.00  0.00    +0.000 F 
ATOM     77  C55 UNL A   1      12.192  22.503  -2.775  1.00  0.00    +0.000 C 
ATOM     78  F12 UNL A   1      11.687  21.597  -1.927  1.00  0.00    +0.000 F 
ATOM     79  C56 UNL A   1      11.601  22.699  -4.013  1.00  0.00    +0.000 C 
ATOM     80  F13 UNL A   1      10.512  21.997  -4.357  1.00  0.00    +0.000 F 
ATOM     81  C57 UNL A   1      12.144  23.617  -4.899  1.00  0.00    +0.000 C 
ATOM     82  F14 UNL A   1      11.566  23.822  -6.090  1.00  0.00    +0.000 F 
ATOM     83  C58 UNL A   1      13.291  24.325  -4.552  1.00  0.00    +0.000 C 
ATOM     84  F15 UNL A   1      13.804  25.197  -5.434  1.00  0.00    +0.000 F 
ENDBRANCH   73   74
TORSDOF 18
ENDMDL
MODEL 3
REMARK VINA RESULT:     -11.8      3.923      9.466
ROOT
ATOM    129  H34 UNL A   1      42.578  24.250  26.603  1.00  0.00    +0.000 H 
ATOM    130  H35 UNL A   1      44.844  27.684  27.195  1.00  0.00    +0.000 H 
ATOM    131  H36 UNL A   1      41.768  30.978  29.416  1.00  0.00    +0.000 H 
ATOM    132  H37 UNL A   1      43.736  32.614  29.410  1.00  0.00    +0.000 H 
ATOM    133  H38 UNL A   1      49.710  25.577  25.410  1.00  0.00    +0.000 H 
ATOM    134  H39 UNL A   1      47.697  24.010  25.169  1.00  0.00    +0.000 H 
ATOM     37  C29 UNL A   1      45.265  25.098  26.196  1.00  0.00    +0.000 C 
ATOM     38  C30 UNL A   1      46.611  25.758  26.118  1.00  0.00    +0.000 C 
ATOM     39  N3  UNL A   1      46.957  26.964  26.493  1.00  0.00    +0.000 N 
ATOM     40  C31 UNL A   1      48.315  27.073  26.228  1.00  0.00    +0.000 C 
ATOM     41  C32 UNL A   1      49.127  28.139  26.425  1.00  0.00    +0.000 C 
ATOM     53  C39 UNL A   1      48.691  29.407  26.952  1.00  0.00    +0.000 C 
ATOM     54  C40 UNL A   1      49.426  30.568  27.123  1.00  0.00    +0.000 C 
ATOM     55  C41 UNL A   1      48.601  31.527  27.720  1.00  0.00    +0.000 C 
ATOM     56  C42 UNL A   1      47.340  30.979  27.881  1.00  0.00    +0.000 C 
ATOM     57  N4  UNL A   1      47.408  29.679  27.402  1.00  0.00    +0.000 N 
ATOM     58  C43 UNL A   1      46.161  31.591  28.436  1.00  0.00    +0.000 C 
ATOM     70  C50 UNL A   1      44.940  31.008  28.505  1.00  0.00    +0.000 C 
ATOM     71  N5  UNL A   1      44.556  29.740  28.097  1.00  0.00    +0.000 N 
ATOM     72  C51 UNL A   1      43.287  29.633  28.406  1.00  0.00    +0.000 C 
ATOM     73  C52 UNL A   1      42.355  28.475  28.190  1.00  0.00    +0.000 C 
ATOM     85  C59 UNL A   1      42.830  27.356  27.614  1.00  0.00    +0.000 C 
ATOM     86  C60 UNL A   1      42.048  26.154  27.350  1.00  0.00    +0.000 C 
ATOM     87  C61 UNL A   1      42.859  25.213  26.847  1.00  0.00    +0.000 C 
ATOM     88  C62 UNL A   1      44.208  25.766  26.699  1.00  0.00    +0.000 C 
ATOM     89  N6  UNL A   1      44.093  27.047  27.172  1.00  0.00    +0.000 N 
ATOM     90  C63 UNL A   1      42.722  30.822  29.057  1.00  0.00    +0.000 C 
ATOM     91  C64 UNL A   1      43.762  31.644  29.059  1.00  0.00    +0.000 C 
ATOM     92  C65 UNL A   1      48.739  25.802  25.676  1.00  0.00    +0.000 C 
ATOM     93  C66 UNL A   1      47.715  24.966  25.556  1.00  0.00    +0.000 C 
ATOM    125  H30 UNL A   1      50.414  30.703  26.856  1.00  0.00    +0.000 H 
ATOM    126  H31 UNL A   1      48.885  32.481  27.995  1.00  0.00    +0.000 H 
ATOM    127  H32 UNL A   1      46.656  29.043  27.384  1.00  0.00    +0.000 H 
ATOM    128  H33 UNL A   1      41.037  26.046  27.523  1.00  0.00    +0.000 H 
ENDROOT
BRANCH   37   36
ATOM     33  C25 UNL A   1      44.861  21.072  24.791  1.00  0.00    +0.000 C 
ATOM     34  C26 UNL A   1      45.402  21.332  26.052  1.00  0.00    +0.000 C 
ATOM     35  C27 UNL A   1      45.440  22.636  26.536  1.00  0.00    +0.000 C 
ATOM     36  C28 UNL A   1      45.052  23.710  25.717  1.00  0.00    +0.000 C 
ATOM    135  H40 UNL A   1      44.302  24.230  23.809  1.00  0.00    +0.000 H 
ATOM    136  H41 UNL A   1      44.084  21.941  23.027  1.00  0.00    +0.000 H 
ATOM    123  H28 UNL A   1      45.772  20.558  26.625  1.00  0.00    +0.000 H 
ATOM    124  H29 UNL A   1      45.756  22.815  27.502  1.00  0.00    +0.000 H 
ATOM     94  C67 UNL A   1      44.573  23.449  24.426  1.00  0.00    +0.000 C 
ATOM     95  C68 UNL A   1      44.461  22.130  23.969  1.00  0.00    +0.000 C 
BRANCH   33    2
ATOM      1  O1  UNL A   1      45.540  19.265  23.460  1.00  0.00    +0.000 O 
ATOM      2  C1  UNL A   1      44.739  19.684  24.286  1.00  0.00    +0.000 C 
BRANCH    2    3
ATOM      3  N1  UNL A   1      43.720  18.878  24.736  1.00  0.00    +0.000 N 
ATOM     96  H1  UNL A   1      42.986  18.727  24.099  1.00  0.00    +0.000 H 
BRANCH    3    4
ATOM     97  H2  UNL A   1      44.513  18.269  26.539  1.00  0.00    +0.000 H 
ATOM     98  H3  UNL A   1      43.284  17.206  25.837  1.00  0.00    +0.000 H 
ATOM      4  C2  UNL A   1      43.578  18.218  26.023  1.00  0.00    +0.000 C 
BRANCH    4    5
ATOM     99  H4  UNL A   1      42.987  19.306  27.736  1.00  0.00    +0.000 H 
ATOM    100  H5  UNL A   1      41.827  18.074  27.152  1.00  0.00    +0.000 H 
ATOM      5  C3  UNL A   1      42.506  18.858  26.891  1.00  0.00    +0.000 C 
BRANCH    5    6
ATOM    102  H7  UNL A   1      42.357  20.700  25.919  1.00  0.00    +0.000 H 
ATOM    101  H6  UNL A   1      41.160  19.473  25.378  1.00  0.00    +0.000 H 
ATOM      6  C4  UNL A   1      41.667  19.933  26.200  1.00  0.00    +0.000 C 
BRANCH    6    7
ATOM    103  H8  UNL A   1      40.598  20.133  28.018  1.00  0.00    +0.000 H 
ATOM      7  C5  UNL A   1      40.613  20.628  27.070  1.00  0.00    +0.000 C 
ATOM    104  H9  UNL A   1      39.701  20.559  26.515  1.00  0.00    +0.000 H 
BRANCH    7    8
ATOM    105  H10 UNL A   1      41.723  22.424  26.849  1.00  0.00    +0.000 H 
ATOM    106  H11 UNL A   1      40.829  22.236  28.395  1.00  0.00    +0.000 H 
ATOM      8  C6  UNL A   1      40.815  22.127  27.331  1.00  0.00    +0.000 C 
BRANCH    8    9
ATOM      9  C7  UNL A   1      39.700  23.046  26.836  1.00  0.00    +0.000 C 
ATOM    107  H12 UNL A   1      40.124  23.768  26.169  1.00  0.00    +0.000 H 
ATOM    108  H13 UNL A   1      39.261  23.507  27.696  1.00  0.00    +0.000 H 
BRANCH    9   10
ATOM     10  N2  UNL A   1      38.651  22.337  26.142  1.00  0.00    +0.000 N 
ATOM    109  H14 UNL A   1      38.704  21.354  26.174  1.00  0.00    +0.000 H 
BRANCH   10   11
ATOM     11  C8  UNL A   1      37.596  22.850  25.447  1.00  0.00    +0.000 C 
ATOM     12  O2  UNL A   1      37.379  24.058  25.557  1.00  0.00    +0.000 O 
BRANCH   11   13
ATOM     13  C9  UNL A   1      36.720  21.909  24.589  1.00  0.00    +0.000 C 
ATOM     14  C10 UNL A   1      35.688  21.162  25.425  1.00  0.00    +0.000 C 
ATOM    110  H15 UNL A   1      37.397  21.202  24.156  1.00  0.00    +0.000 H 
ATOM    111  H16 UNL A   1      35.658  21.559  26.418  1.00  0.00    +0.000 H 
ATOM     15  C11 UNL A   1      34.340  21.368  24.732  1.00  0.00    +0.000 C 
ATOM    112  H17 UNL A   1      35.930  20.123  25.503  1.00  0.00    +0.000 H 
ATOM    118  H23 UNL A   1      34.013  22.337  22.920  1.00  0.00    +0.000 H 
ATOM     24  C18 UNL A   1      34.617  22.561  23.774  1.00  0.00    +0.000 C 
ATOM     32  O4  UNL A   1      36.039  22.613  23.551  1.00  0.00    +0.000 O 
BRANCH   15   16
ATOM    113  H18 UNL A   1      33.252  21.051  26.368  1.00  0.00    +0.000 H 
ATOM     16  O3  UNL A   1      33.385  21.775  25.735  1.00  0.00    +0.000 O 
ENDBRANCH   15   16
BRANCH   15   17
ATOM     17  C12 UNL A   1      33.827  20.007  24.215  1.00  0.00    +0.000 C 
ATOM     18  C13 UNL A   1      34.552  18.871  24.678  1.00  0.00    +0.000 C 
ATOM     19  C14 UNL A   1      34.204  17.560  24.350  1.00  0.00    +0.000 C 
ATOM    114  H19 UNL A   1      35.375  19.024  25.284  1.00  0.00    +0.000 H 
ATOM     21  C16 UNL A   1      32.384  18.410  23.048  1.00  0.00    +0.000 C 
ATOM     22  C17 UNL A   1      32.758  19.737  23.341  1.00  0.00    +0.000 C 
ATOM     23 Cl1  UNL A   1      31.857  20.922  22.468  1.00  0.00    +0.000 Cl
ATOM    115  H20 UNL A   1      34.766  16.769  24.701  1.00  0.00    +0.000 H 
ATOM     20  C15 UNL A   1      33.098  17.327  23.552  1.00  0.00    +0.000 C 
ATOM    117  H22 UNL A   1      31.564  18.238  22.447  1.00  0.00    +0.000 H 
ATOM    116  H21 UNL A   1      32.805  16.362  23.333  1.00  0.00    +0.000 H 
ENDBRANCH   15   17
BRANCH   24   25
ATOM    122  H27 UNL A   1      32.730  26.751  22.888  1.00  0.00    +0.000 H 
ATOM    121  H26 UNL A   1      33.261  27.609  25.093  1.00  0.00    +0.000 H 
ATOM    119  H24 UNL A   1      34.820  23.863  26.161  1.00  0.00    +0.000 H 
ATOM    120  H25 UNL A   1      34.280  26.147  26.735  1.00  0.00    +0.000 H 
ATOM     25  C19 UNL A   1      34.150  23.965  24.160  1.00  0.00    +0.000 C 
ATOM     26  C20 UNL A   1      34.394  24.476  25.448  1.00  0.00    +0.000 C 
ATOM     27  C21 UNL A   1      34.075  25.794  25.786  1.00  0.00    +0.000 C 
ATOM     28  C22 UNL A   1      33.482  26.631  24.850  1.00  0.00    +0.000 C 
ATOM     29  C23 UNL A   1      33.188  26.140  23.581  1.00  0.00    +0.000 C 
ATOM     30  C24 UNL A   1      33.512  24.820  23.238  1.00  0.00    +0.000 C 
ATOM     31 Cl2  UNL A   1      33.066  24.318  21.641  1.00  0.00    +0.000 Cl
ENDBRANCH   24   25
ENDBRANCH   11   13
ENDBRANCH   10   11
ENDBRANCH    9   10
ENDBRANCH    8    9
ENDBRANCH    7    8
ENDBRANCH    6    7
ENDBRANCH    5    6
ENDBRANCH    4    5
ENDBRANCH    3    4
ENDBRANCH    2    3
ENDBRANCH   33    2
ENDBRANCH   37   36
BRANCH   41   42
ATOM     42  C33 UNL A   1      50.580  27.996  26.079  1.00  0.00    +0.000 C 
ATOM     43  C34 UNL A   1      51.540  27.687  27.053  1.00  0.00    +0.000 C 
ATOM     44  F1  UNL A   1      51.191  27.612  28.346  1.00  0.00    +0.000 F 
ATOM     45  C35 UNL A   1      52.869  27.464  26.702  1.00  0.00    +0.000 C 
ATOM     46  F2  UNL A   1      53.775  27.187  27.651  1.00  0.00    +0.000 F 
ATOM     47  C36 UNL A   1      53.259  27.523  25.371  1.00  0.00    +0.000 C 
ATOM     48  F3  UNL A   1      54.535  27.287  25.033  1.00  0.00    +0.000 F 
ATOM     49  C37 UNL A   1      52.325  27.825  24.392  1.00  0.00    +0.000 C 
ATOM     50  F4  UNL A   1      52.696  27.870  23.104  1.00  0.00    +0.000 F 
ATOM     51  C38 UNL A   1      51.001  28.070  24.743  1.00  0.00    +0.000 C 
ATOM     52  F5  UNL A   1      50.118  28.355  23.772  1.00  0.00    +0.000 F 
ENDBRANCH   41   42
BRANCH   58   59
ATOM     65  F8  UNL A   1      46.586  36.846  30.457  1.00  0.00    +0.000 F 
ATOM     66  C48 UNL A   1      46.705  34.513  30.808  1.00  0.00    +0.000 C 
ATOM     67  F9  UNL A   1      47.017  34.710  32.097  1.00  0.00    +0.000 F 
ATOM     68  C49 UNL A   1      46.617  33.218  30.305  1.00  0.00    +0.000 C 
ATOM     69  F10 UNL A   1      46.859  32.187  31.128  1.00  0.00    +0.000 F 
ATOM     59  C44 UNL A   1      46.275  32.988  28.966  1.00  0.00    +0.000 C 
ATOM     60  C45 UNL A   1      46.027  34.101  28.147  1.00  0.00    +0.000 C 
ATOM     61  F6  UNL A   1      45.717  33.931  26.853  1.00  0.00    +0.000 F 
ATOM     62  C46 UNL A   1      46.144  35.394  28.646  1.00  0.00    +0.000 C 
ATOM     63  F7  UNL A   1      45.952  36.444  27.835  1.00  0.00    +0.000 F 
ATOM     64  C47 UNL A   1      46.476  35.600  29.978  1.00  0.00    +0.000 C 
ENDBRANCH   58   59
BRANCH   73   74
ATOM     74  C53 UNL A   1      40.935  28.543  28.618  1.00  0.00    +0.000 C 
ATOM     75  C54 UNL A   1      39.937  28.994  27.745  1.00  0.00    +0.000 C 
ATOM     76  F11 UNL A   1      40.261  29.391  26.506  1.00  0.00    +0.000 F 
ATOM     77  C55 UNL A   1      38.607  29.077  28.157  1.00  0.00    +0.000 C 
ATOM     78  F12 UNL A   1      37.679  29.557  27.318  1.00  0.00    +0.000 F 
ATOM     79  C56 UNL A   1      38.248  28.681  29.435  1.00  0.00    +0.000 C 
ATOM     80  F13 UNL A   1      36.969  28.757  29.828  1.00  0.00    +0.000 F 
ATOM     81  C57 UNL A   1      39.217  28.212  30.310  1.00  0.00    +0.000 C 
ATOM     82  F14 UNL A   1      38.871  27.812  31.541  1.00  0.00    +0.000 F 
ATOM     83  C58 UNL A   1      40.549  28.158  29.911  1.00  0.00    +0.000 C 
ATOM     84  F15 UNL A   1      41.468  27.714  30.782  1.00  0.00    +0.000 F 
ENDBRANCH   73   74
TORSDOF 18
ENDMDL
MODEL 4
REMARK VINA RESULT:     -11.8      4.470      9.268
ROOT
ATOM    129  H34 UNL A   1      38.580  31.352  31.448  1.00  0.00    +0.000 H 
ATOM    130  H35 UNL A   1      42.109  29.161  31.622  1.00  0.00    +0.000 H 
ATOM    131  H36 UNL A   1      44.638  30.967  35.570  1.00  0.00    +0.000 H 
ATOM    132  H37 UNL A   1      46.465  29.265  35.006  1.00  0.00    +0.000 H 
ATOM    133  H38 UNL A   1      40.875  25.597  27.490  1.00  0.00    +0.000 H 
ATOM    134  H39 UNL A   1      39.150  27.453  27.871  1.00  0.00    +0.000 H 
ATOM     37  C29 UNL A   1      39.780  29.174  30.062  1.00  0.00    +0.000 C 
ATOM     38  C30 UNL A   1      40.590  28.032  29.523  1.00  0.00    +0.000 C 
ATOM     39  N3  UNL A   1      41.753  27.585  29.929  1.00  0.00    +0.000 N 
ATOM     40  C31 UNL A   1      42.054  26.503  29.115  1.00  0.00    +0.000 C 
ATOM     41  C32 UNL A   1      43.160  25.721  29.132  1.00  0.00    +0.000 C 
ATOM     53  C39 UNL A   1      44.270  25.901  30.032  1.00  0.00    +0.000 C 
ATOM     54  C40 UNL A   1      45.464  25.201  30.080  1.00  0.00    +0.000 C 
ATOM     55  C41 UNL A   1      46.217  25.687  31.154  1.00  0.00    +0.000 C 
ATOM     56  C42 UNL A   1      45.511  26.719  31.750  1.00  0.00    +0.000 C 
ATOM     57  N4  UNL A   1      44.321  26.842  31.049  1.00  0.00    +0.000 N 
ATOM     58  C43 UNL A   1      45.891  27.529  32.878  1.00  0.00    +0.000 C 
ATOM     70  C50 UNL A   1      45.170  28.566  33.369  1.00  0.00    +0.000 C 
ATOM     71  N5  UNL A   1      43.948  29.060  32.938  1.00  0.00    +0.000 N 
ATOM     72  C51 UNL A   1      43.651  30.042  33.752  1.00  0.00    +0.000 C 
ATOM     73  C52 UNL A   1      42.446  30.938  33.753  1.00  0.00    +0.000 C 
ATOM     85  C59 UNL A   1      41.494  30.750  32.822  1.00  0.00    +0.000 C 
ATOM     86  C60 UNL A   1      40.269  31.532  32.706  1.00  0.00    +0.000 C 
ATOM     87  C61 UNL A   1      39.517  31.016  31.724  1.00  0.00    +0.000 C 
ATOM     88  C62 UNL A   1      40.235  29.901  31.101  1.00  0.00    +0.000 C 
ATOM     89  N6  UNL A   1      41.403  29.821  31.814  1.00  0.00    +0.000 N 
ATOM     90  C63 UNL A   1      44.651  30.279  34.802  1.00  0.00    +0.000 C 
ATOM     91  C64 UNL A   1      45.573  29.377  34.500  1.00  0.00    +0.000 C 
ATOM     92  C65 UNL A   1      40.944  26.345  28.198  1.00  0.00    +0.000 C 
ATOM     93  C66 UNL A   1      40.028  27.286  28.386  1.00  0.00    +0.000 C 
ATOM    125  H30 UNL A   1      45.751  24.449  29.432  1.00  0.00    +0.000 H 
ATOM    126  H31 UNL A   1      47.140  25.335  31.453  1.00  0.00    +0.000 H 
ATOM    127  H32 UNL A   1      43.615  27.501  31.244  1.00  0.00    +0.000 H 
ATOM    128  H33 UNL A   1      40.021  32.349  33.286  1.00  0.00    +0.000 H 
ENDROOT
BRANCH   37   36
ATOM     33  C25 UNL A   1      35.965  30.036  28.316  1.00  0.00    +0.000 C 
ATOM     34  C26 UNL A   1      36.049  29.421  29.567  1.00  0.00    +0.000 C 
ATOM     35  C27 UNL A   1      37.291  29.232  30.166  1.00  0.00    +0.000 C 
ATOM     36  C28 UNL A   1      38.470  29.544  29.469  1.00  0.00    +0.000 C 
ATOM    135  H40 UNL A   1      39.242  30.315  27.656  1.00  0.00    +0.000 H 
ATOM    136  H41 UNL A   1      37.069  30.794  26.681  1.00  0.00    +0.000 H 
ATOM    123  H28 UNL A   1      35.191  29.107  30.047  1.00  0.00    +0.000 H 
ATOM    124  H29 UNL A   1      37.345  28.861  31.126  1.00  0.00    +0.000 H 
ATOM     94  C67 UNL A   1      38.382  30.100  28.185  1.00  0.00    +0.000 C 
ATOM     95  C68 UNL A   1      37.130  30.362  27.616  1.00  0.00    +0.000 C 
BRANCH   33    2
ATOM      1  O1  UNL A   1      34.325  31.472  27.452  1.00  0.00    +0.000 O 
ATOM      2  C1  UNL A   1      34.649  30.317  27.693  1.00  0.00    +0.000 C 
BRANCH    2    3
ATOM      3  N1  UNL A   1      33.793  29.281  27.402  1.00  0.00    +0.000 N 
ATOM     96  H1  UNL A   1      34.170  28.378  27.507  1.00  0.00    +0.000 H 
BRANCH    3    4
ATOM     97  H2  UNL A   1      32.390  29.294  25.892  1.00  0.00    +0.000 H 
ATOM     98  H3  UNL A   1      31.987  30.246  27.329  1.00  0.00    +0.000 H 
ATOM      4  C2  UNL A   1      32.410  29.334  26.960  1.00  0.00    +0.000 C 
BRANCH    4    5
ATOM     99  H4  UNL A   1      30.546  28.454  27.426  1.00  0.00    +0.000 H 
ATOM    100  H5  UNL A   1      31.904  28.036  28.516  1.00  0.00    +0.000 H 
ATOM      5  C3  UNL A   1      31.579  28.185  27.507  1.00  0.00    +0.000 C 
BRANCH    5    6
ATOM    102  H7  UNL A   1      32.700  26.935  26.267  1.00  0.00    +0.000 H 
ATOM    101  H6  UNL A   1      31.768  26.077  27.542  1.00  0.00    +0.000 H 
ATOM      6  C4  UNL A   1      31.776  26.845  26.797  1.00  0.00    +0.000 C 
BRANCH    6    7
ATOM    103  H8  UNL A   1      30.965  27.028  24.849  1.00  0.00    +0.000 H 
ATOM      7  C5  UNL A   1      30.729  26.483  25.739  1.00  0.00    +0.000 C 
ATOM    104  H9  UNL A   1      29.786  26.733  26.179  1.00  0.00    +0.000 H 
BRANCH    7    8
ATOM    105  H10 UNL A   1      31.580  24.674  25.027  1.00  0.00    +0.000 H 
ATOM    106  H11 UNL A   1      29.856  24.950  24.608  1.00  0.00    +0.000 H 
ATOM      8  C6  UNL A   1      30.616  25.000  25.359  1.00  0.00    +0.000 C 
BRANCH    8    9
ATOM      9  C7  UNL A   1      30.161  24.059  26.472  1.00  0.00    +0.000 C 
ATOM    107  H12 UNL A   1      29.368  23.446  26.099  1.00  0.00    +0.000 H 
ATOM    108  H13 UNL A   1      29.843  24.668  27.294  1.00  0.00    +0.000 H 
BRANCH    9   10
ATOM     10  N2  UNL A   1      31.219  23.202  26.954  1.00  0.00    +0.000 N 
ATOM    109  H14 UNL A   1      31.224  23.030  27.924  1.00  0.00    +0.000 H 
BRANCH   10   11
ATOM     11  C8  UNL A   1      32.212  22.597  26.241  1.00  0.00    +0.000 C 
ATOM     12  O2  UNL A   1      31.884  21.709  25.453  1.00  0.00    +0.000 O 
BRANCH   11   13
ATOM     13  C9  UNL A   1      33.680  23.027  26.468  1.00  0.00    +0.000 C 
ATOM     14  C10 UNL A   1      34.663  22.134  25.722  1.00  0.00    +0.000 C 
ATOM    110  H15 UNL A   1      33.848  22.930  27.521  1.00  0.00    +0.000 H 
ATOM    111  H16 UNL A   1      34.139  21.485  25.052  1.00  0.00    +0.000 H 
ATOM     15  C11 UNL A   1      35.588  23.068  24.941  1.00  0.00    +0.000 C 
ATOM    112  H17 UNL A   1      35.216  21.516  26.399  1.00  0.00    +0.000 H 
ATOM    118  H23 UNL A   1      35.601  25.147  25.014  1.00  0.00    +0.000 H 
ATOM     24  C18 UNL A   1      34.819  24.419  24.959  1.00  0.00    +0.000 C 
ATOM     32  O4  UNL A   1      33.906  24.380  26.073  1.00  0.00    +0.000 O 
BRANCH   15   16
ATOM    113  H18 UNL A   1      34.859  22.080  23.374  1.00  0.00    +0.000 H 
ATOM     16  O3  UNL A   1      35.663  22.581  23.583  1.00  0.00    +0.000 O 
ENDBRANCH   15   16
BRANCH   15   17
ATOM     17  C12 UNL A   1      37.022  22.936  25.496  1.00  0.00    +0.000 C 
ATOM     18  C13 UNL A   1      37.574  24.133  26.038  1.00  0.00    +0.000 C 
ATOM     19  C14 UNL A   1      38.840  24.190  26.624  1.00  0.00    +0.000 C 
ATOM    114  H19 UNL A   1      37.013  24.999  25.995  1.00  0.00    +0.000 H 
ATOM     21  C16 UNL A   1      39.119  21.860  26.156  1.00  0.00    +0.000 C 
ATOM     22  C17 UNL A   1      37.861  21.807  25.525  1.00  0.00    +0.000 C 
ATOM     23 Cl1  UNL A   1      37.534  20.299  24.751  1.00  0.00    +0.000 Cl
ATOM    115  H20 UNL A   1      39.202  25.083  26.994  1.00  0.00    +0.000 H 
ATOM     20  C15 UNL A   1      39.606  23.042  26.707  1.00  0.00    +0.000 C 
ATOM    117  H22 UNL A   1      39.693  21.005  26.211  1.00  0.00    +0.000 H 
ATOM    116  H21 UNL A   1      40.527  23.060  27.172  1.00  0.00    +0.000 H 
ENDBRANCH   15   17
BRANCH   24   25
ATOM    122  H27 UNL A   1      32.655  27.572  22.262  1.00  0.00    +0.000 H 
ATOM    121  H26 UNL A   1      31.790  25.887  20.748  1.00  0.00    +0.000 H 
ATOM    119  H24 UNL A   1      33.821  22.921  22.911  1.00  0.00    +0.000 H 
ATOM    120  H25 UNL A   1      32.404  23.564  21.064  1.00  0.00    +0.000 H 
ATOM     25  C19 UNL A   1      34.033  24.859  23.724  1.00  0.00    +0.000 C 
ATOM     26  C20 UNL A   1      33.561  23.913  22.796  1.00  0.00    +0.000 C 
ATOM     27  C21 UNL A   1      32.749  24.283  21.720  1.00  0.00    +0.000 C 
ATOM     28  C22 UNL A   1      32.404  25.615  21.532  1.00  0.00    +0.000 C 
ATOM     29  C23 UNL A   1      32.892  26.579  22.409  1.00  0.00    +0.000 C 
ATOM     30  C24 UNL A   1      33.703  26.210  23.491  1.00  0.00    +0.000 C 
ATOM     31 Cl2  UNL A   1      34.273  27.505  24.490  1.00  0.00    +0.000 Cl
ENDBRANCH   24   25
ENDBRANCH   11   13
ENDBRANCH   10   11
ENDBRANCH    9   10
ENDBRANCH    8    9
ENDBRANCH    7    8
ENDBRANCH    6    7
ENDBRANCH    5    6
ENDBRANCH    4    5
ENDBRANCH    3    4
ENDBRANCH    2    3
ENDBRANCH   33    2
ENDBRANCH   37   36
BRANCH   41   42
ATOM     42  C33 UNL A   1      43.238  24.584  28.156  1.00  0.00    +0.000 C 
ATOM     43  C34 UNL A   1      42.838  23.286  28.504  1.00  0.00    +0.000 C 
ATOM     44  F1  UNL A   1      42.466  23.010  29.764  1.00  0.00    +0.000 F 
ATOM     45  C35 UNL A   1      42.826  22.263  27.560  1.00  0.00    +0.000 C 
ATOM     46  F2  UNL A   1      42.456  21.025  27.919  1.00  0.00    +0.000 F 
ATOM     47  C36 UNL A   1      43.193  22.521  26.247  1.00  0.00    +0.000 C 
ATOM     48  F3  UNL A   1      43.162  21.539  25.335  1.00  0.00    +0.000 F 
ATOM     49  C37 UNL A   1      43.591  23.797  25.880  1.00  0.00    +0.000 C 
ATOM     50  F4  UNL A   1      43.934  24.052  24.609  1.00  0.00    +0.000 F 
ATOM     51  C38 UNL A   1      43.624  24.817  26.827  1.00  0.00    +0.000 C 
ATOM     52  F5  UNL A   1      44.009  26.044  26.441  1.00  0.00    +0.000 F 
ENDBRANCH   41   42
BRANCH   58   59
ATOM     65  F8  UNL A   1      50.796  26.382  35.428  1.00  0.00    +0.000 F 
ATOM     66  C48 UNL A   1      49.589  27.548  33.765  1.00  0.00    +0.000 C 
ATOM     67  F9  UNL A   1      50.715  28.140  33.345  1.00  0.00    +0.000 F 
ATOM     68  C49 UNL A   1      48.376  27.844  33.149  1.00  0.00    +0.000 C 
ATOM     69  F10 UNL A   1      48.362  28.732  32.143  1.00  0.00    +0.000 F 
ATOM     59  C44 UNL A   1      47.189  27.223  33.561  1.00  0.00    +0.000 C 
ATOM     60  C45 UNL A   1      47.258  26.298  34.614  1.00  0.00    +0.000 C 
ATOM     61  F6  UNL A   1      46.145  25.694  35.056  1.00  0.00    +0.000 F 
ATOM     62  C46 UNL A   1      48.467  26.027  35.247  1.00  0.00    +0.000 C 
ATOM     63  F7  UNL A   1      48.503  25.178  36.284  1.00  0.00    +0.000 F 
ATOM     64  C47 UNL A   1      49.632  26.646  34.819  1.00  0.00    +0.000 C 
ENDBRANCH   58   59
BRANCH   73   74
ATOM     74  C53 UNL A   1      42.284  32.006  34.772  1.00  0.00    +0.000 C 
ATOM     75  C54 UNL A   1      41.602  31.764  35.971  1.00  0.00    +0.000 C 
ATOM     76  F11 UNL A   1      41.065  30.557  36.204  1.00  0.00    +0.000 F 
ATOM     77  C55 UNL A   1      41.433  32.774  36.917  1.00  0.00    +0.000 C 
ATOM     78  F12 UNL A   1      40.735  32.530  38.035  1.00  0.00    +0.000 F 
ATOM     79  C56 UNL A   1      41.970  34.033  36.696  1.00  0.00    +0.000 C 
ATOM     80  F13 UNL A   1      41.811  35.001  37.608  1.00  0.00    +0.000 F 
ATOM     81  C57 UNL A   1      42.667  34.289  35.525  1.00  0.00    +0.000 C 
ATOM     82  F14 UNL A   1      43.202  35.499  35.314  1.00  0.00    +0.000 F 
ATOM     83  C58 UNL A   1      42.809  33.290  34.566  1.00  0.00    +0.000 C 
ATOM     84  F15 UNL A   1      43.476  33.570  33.435  1.00  0.00    +0.000 F 
ENDBRANCH   73   74
TORSDOF 18
ENDMDL
MODEL 5
REMARK VINA RESULT:     -11.6      3.740      9.052
ROOT
ATOM    129  H34 UNL A   1      42.597  24.222  26.565  1.00  0.00    +0.000 H 
ATOM    130  H35 UNL A   1      44.872  27.649  27.171  1.00  0.00    +0.000 H 
ATOM    131  H36 UNL A   1      41.784  30.966  29.339  1.00  0.00    +0.000 H 
ATOM    132  H37 UNL A   1      43.761  32.593  29.352  1.00  0.00    +0.000 H 
ATOM    133  H38 UNL A   1      49.750  25.510  25.458  1.00  0.00    +0.000 H 
ATOM    134  H39 UNL A   1      47.733  23.952  25.198  1.00  0.00    +0.000 H 
ATOM     37  C29 UNL A   1      45.293  25.056  26.189  1.00  0.00    +0.000 C 
ATOM     38  C30 UNL A   1      46.643  25.709  26.126  1.00  0.00    +0.000 C 
ATOM     39  N3  UNL A   1      46.991  26.916  26.500  1.00  0.00    +0.000 N 
ATOM     40  C31 UNL A   1      48.352  27.016  26.252  1.00  0.00    +0.000 C 
ATOM     41  C32 UNL A   1      49.167  28.080  26.454  1.00  0.00    +0.000 C 
ATOM     53  C39 UNL A   1      48.731  29.352  26.971  1.00  0.00    +0.000 C 
ATOM     54  C40 UNL A   1      49.469  30.510  27.147  1.00  0.00    +0.000 C 
ATOM     55  C41 UNL A   1      48.641  31.476  27.729  1.00  0.00    +0.000 C 
ATOM     56  C42 UNL A   1      47.375  30.934  27.875  1.00  0.00    +0.000 C 
ATOM     57  N4  UNL A   1      47.443  29.632  27.403  1.00  0.00    +0.000 N 
ATOM     58  C43 UNL A   1      46.192  31.555  28.413  1.00  0.00    +0.000 C 
ATOM     70  C50 UNL A   1      44.968  30.978  28.469  1.00  0.00    +0.000 C 
ATOM     71  N5  UNL A   1      44.583  29.709  28.062  1.00  0.00    +0.000 N 
ATOM     72  C51 UNL A   1      43.310  29.610  28.355  1.00  0.00    +0.000 C 
ATOM     73  C52 UNL A   1      42.375  28.456  28.131  1.00  0.00    +0.000 C 
ATOM     85  C59 UNL A   1      42.851  27.332  27.566  1.00  0.00    +0.000 C 
ATOM     86  C60 UNL A   1      42.068  26.133  27.297  1.00  0.00    +0.000 C 
ATOM     87  C61 UNL A   1      42.880  25.185  26.809  1.00  0.00    +0.000 C 
ATOM     88  C62 UNL A   1      44.233  25.731  26.676  1.00  0.00    +0.000 C 
ATOM     89  N6  UNL A   1      44.119  27.015  27.142  1.00  0.00    +0.000 N 
ATOM     90  C63 UNL A   1      42.742  30.805  28.993  1.00  0.00    +0.000 C 
ATOM     91  C64 UNL A   1      43.786  31.622  29.005  1.00  0.00    +0.000 C 
ATOM     92  C65 UNL A   1      48.777  25.742  25.710  1.00  0.00    +0.000 C 
ATOM     93  C66 UNL A   1      47.751  24.909  25.581  1.00  0.00    +0.000 C 
ATOM    125  H30 UNL A   1      50.461  30.639  26.891  1.00  0.00    +0.000 H 
ATOM    126  H31 UNL A   1      48.926  32.429  28.003  1.00  0.00    +0.000 H 
ATOM    127  H32 UNL A   1      46.689  29.000  27.378  1.00  0.00    +0.000 H 
ATOM    128  H33 UNL A   1      41.053  26.030  27.458  1.00  0.00    +0.000 H 
ENDROOT
BRANCH   37   36
ATOM     33  C25 UNL A   1      44.888  21.027  24.793  1.00  0.00    +0.000 C 
ATOM     34  C26 UNL A   1      45.424  21.290  26.056  1.00  0.00    +0.000 C 
ATOM     35  C27 UNL A   1      45.464  22.595  26.537  1.00  0.00    +0.000 C 
ATOM     36  C28 UNL A   1      45.080  23.667  25.714  1.00  0.00    +0.000 C 
ATOM    135  H40 UNL A   1      44.338  24.184  23.801  1.00  0.00    +0.000 H 
ATOM    136  H41 UNL A   1      44.119  21.892  23.025  1.00  0.00    +0.000 H 
ATOM    123  H28 UNL A   1      45.792  20.516  26.633  1.00  0.00    +0.000 H 
ATOM    124  H29 UNL A   1      45.776  22.776  27.503  1.00  0.00    +0.000 H 
ATOM     94  C67 UNL A   1      44.605  23.403  24.421  1.00  0.00    +0.000 C 
ATOM     95  C68 UNL A   1      44.492  22.084  23.968  1.00  0.00    +0.000 C 
BRANCH   33    2
ATOM      1  O1  UNL A   1      45.622  19.183  23.546  1.00  0.00    +0.000 O 
ATOM      2  C1  UNL A   1      44.765  19.637  24.292  1.00  0.00    +0.000 C 
BRANCH    2    3
ATOM      3  N1  UNL A   1      43.684  18.870  24.656  1.00  0.00    +0.000 N 
ATOM     96  H1  UNL A   1      43.194  18.448  23.915  1.00  0.00    +0.000 H 
BRANCH    3    4
ATOM     97  H2  UNL A   1      43.932  18.800  26.701  1.00  0.00    +0.000 H 
ATOM     98  H3  UNL A   1      42.863  17.570  26.011  1.00  0.00    +0.000 H 
ATOM      4  C2  UNL A   1      43.164  18.596  25.985  1.00  0.00    +0.000 C 
BRANCH    4    5
ATOM     99  H4  UNL A   1      41.099  18.794  26.391  1.00  0.00    +0.000 H 
ATOM    100  H5  UNL A   1      41.865  20.170  25.539  1.00  0.00    +0.000 H 
ATOM      5  C3  UNL A   1      41.947  19.444  26.321  1.00  0.00    +0.000 C 
BRANCH    5    6
ATOM    102  H7  UNL A   1      41.344  19.778  28.292  1.00  0.00    +0.000 H 
ATOM    101  H6  UNL A   1      43.061  20.190  27.958  1.00  0.00    +0.000 H 
ATOM      6  C4  UNL A   1      42.045  20.234  27.626  1.00  0.00    +0.000 C 
BRANCH    6    7
ATOM    103  H8  UNL A   1      42.523  22.297  27.700  1.00  0.00    +0.000 H 
ATOM      7  C5  UNL A   1      41.640  21.710  27.552  1.00  0.00    +0.000 C 
ATOM    104  H9  UNL A   1      40.890  21.834  28.305  1.00  0.00    +0.000 H 
BRANCH    7    8
ATOM    105  H10 UNL A   1      40.714  21.311  25.685  1.00  0.00    +0.000 H 
ATOM    106  H11 UNL A   1      41.710  22.804  25.767  1.00  0.00    +0.000 H 
ATOM      8  C6  UNL A   1      40.984  22.181  26.247  1.00  0.00    +0.000 C 
BRANCH    8    9
ATOM      9  C7  UNL A   1      39.735  23.045  26.402  1.00  0.00    +0.000 C 
ATOM    107  H12 UNL A   1      39.772  23.833  25.680  1.00  0.00    +0.000 H 
ATOM    108  H13 UNL A   1      39.730  23.421  27.405  1.00  0.00    +0.000 H 
BRANCH    9   10
ATOM     10  N2  UNL A   1      38.510  22.304  26.213  1.00  0.00    +0.000 N 
ATOM    109  H14 UNL A   1      38.387  21.522  26.799  1.00  0.00    +0.000 H 
BRANCH   10   11
ATOM     11  C8  UNL A   1      37.499  22.546  25.330  1.00  0.00    +0.000 C 
ATOM     12  O2  UNL A   1      37.572  22.007  24.224  1.00  0.00    +0.000 O 
BRANCH   11   13
ATOM     13  C9  UNL A   1      36.343  23.489  25.736  1.00  0.00    +0.000 C 
ATOM     14  C10 UNL A   1      35.687  24.149  24.530  1.00  0.00    +0.000 C 
ATOM    110  H15 UNL A   1      36.791  24.244  26.349  1.00  0.00    +0.000 H 
ATOM    111  H16 UNL A   1      36.044  23.703  23.625  1.00  0.00    +0.000 H 
ATOM     15  C11 UNL A   1      34.182  23.917  24.677  1.00  0.00    +0.000 C 
ATOM    112  H17 UNL A   1      35.917  25.193  24.486  1.00  0.00    +0.000 H 
ATOM    118  H23 UNL A   1      33.217  23.023  26.288  1.00  0.00    +0.000 H 
ATOM     24  C18 UNL A   1      34.104  22.785  25.739  1.00  0.00    +0.000 C 
ATOM     32  O4  UNL A   1      35.337  22.806  26.484  1.00  0.00    +0.000 O 
BRANCH   15   16
ATOM    113  H18 UNL A   1      34.403  22.972  22.939  1.00  0.00    +0.000 H 
ATOM     16  O3  UNL A   1      33.686  23.422  23.415  1.00  0.00    +0.000 O 
ENDBRANCH   15   16
BRANCH   15   17
ATOM     17  C12 UNL A   1      33.482  25.278  24.880  1.00  0.00    +0.000 C 
ATOM     18  C13 UNL A   1      32.890  25.470  26.162  1.00  0.00    +0.000 C 
ATOM     19  C14 UNL A   1      32.254  26.655  26.537  1.00  0.00    +0.000 C 
ATOM    114  H19 UNL A   1      32.932  24.697  26.845  1.00  0.00    +0.000 H 
ATOM     21  C16 UNL A   1      32.730  27.551  24.370  1.00  0.00    +0.000 C 
ATOM     22  C17 UNL A   1      33.334  26.342  23.971  1.00  0.00    +0.000 C 
ATOM     23 Cl1  UNL A   1      33.758  26.295  22.299  1.00  0.00    +0.000 Cl
ATOM    115  H20 UNL A   1      31.831  26.743  27.474  1.00  0.00    +0.000 H 
ATOM     20  C15 UNL A   1      32.197  27.710  25.645  1.00  0.00    +0.000 C 
ATOM    117  H22 UNL A   1      32.680  28.335  23.701  1.00  0.00    +0.000 H 
ATOM    116  H21 UNL A   1      31.764  28.606  25.922  1.00  0.00    +0.000 H 
ENDBRANCH   15   17
BRANCH   24   25
ATOM    122  H27 UNL A   1      31.375  19.106  24.780  1.00  0.00    +0.000 H 
ATOM    121  H26 UNL A   1      33.261  17.618  24.453  1.00  0.00    +0.000 H 
ATOM    119  H24 UNL A   1      35.887  20.830  25.082  1.00  0.00    +0.000 H 
ATOM    120  H25 UNL A   1      35.516  18.496  24.577  1.00  0.00    +0.000 H 
ATOM     25  C19 UNL A   1      33.849  21.345  25.292  1.00  0.00    +0.000 C 
ATOM     26  C20 UNL A   1      34.920  20.469  25.042  1.00  0.00    +0.000 C 
ATOM     27  C21 UNL A   1      34.709  19.120  24.740  1.00  0.00    +0.000 C 
ATOM     28  C22 UNL A   1      33.418  18.617  24.659  1.00  0.00    +0.000 C 
ATOM     29  C23 UNL A   1      32.337  19.470  24.859  1.00  0.00    +0.000 C 
ATOM     30  C24 UNL A   1      32.546  20.822  25.167  1.00  0.00    +0.000 C 
ATOM     31 Cl2  UNL A   1      31.120  21.787  25.359  1.00  0.00    +0.000 Cl
ENDBRANCH   24   25
ENDBRANCH   11   13
ENDBRANCH   10   11
ENDBRANCH    9   10
ENDBRANCH    8    9
ENDBRANCH    7    8
ENDBRANCH    6    7
ENDBRANCH    5    6
ENDBRANCH    4    5
ENDBRANCH    3    4
ENDBRANCH    2    3
ENDBRANCH   33    2
ENDBRANCH   37   36
BRANCH   41   42
ATOM     42  C33 UNL A   1      50.624  27.928  26.128  1.00  0.00    +0.000 C 
ATOM     43  C34 UNL A   1      51.571  27.624  27.116  1.00  0.00    +0.000 C 
ATOM     44  F1  UNL A   1      51.205  27.560  28.405  1.00  0.00    +0.000 F 
ATOM     45  C35 UNL A   1      52.903  27.392  26.783  1.00  0.00    +0.000 C 
ATOM     46  F2  UNL A   1      53.796  27.120  27.746  1.00  0.00    +0.000 F 
ATOM     47  C36 UNL A   1      53.309  27.439  25.457  1.00  0.00    +0.000 C 
ATOM     48  F3  UNL A   1      54.588  27.195  25.137  1.00  0.00    +0.000 F 
ATOM     49  C37 UNL A   1      52.389  27.736  24.464  1.00  0.00    +0.000 C 
ATOM     50  F4  UNL A   1      52.776  27.769  23.181  1.00  0.00    +0.000 F 
ATOM     51  C38 UNL A   1      51.061  27.989  24.796  1.00  0.00    +0.000 C 
ATOM     52  F5  UNL A   1      50.192  28.269  23.812  1.00  0.00    +0.000 F 
ENDBRANCH   41   42
BRANCH   58   59
ATOM     65  F8  UNL A   1      46.617  36.816  30.418  1.00  0.00    +0.000 F 
ATOM     66  C48 UNL A   1      46.719  34.484  30.780  1.00  0.00    +0.000 C 
ATOM     67  F9  UNL A   1      47.014  34.685  32.072  1.00  0.00    +0.000 F 
ATOM     68  C49 UNL A   1      46.631  33.187  30.282  1.00  0.00    +0.000 C 
ATOM     69  F10 UNL A   1      46.857  32.158  31.112  1.00  0.00    +0.000 F 
ATOM     59  C44 UNL A   1      46.307  32.953  28.938  1.00  0.00    +0.000 C 
ATOM     60  C45 UNL A   1      46.076  34.064  28.112  1.00  0.00    +0.000 C 
ATOM     61  F6  UNL A   1      45.783  33.890  26.814  1.00  0.00    +0.000 F 
ATOM     62  C46 UNL A   1      46.193  35.359  28.607  1.00  0.00    +0.000 C 
ATOM     63  F7  UNL A   1      46.017  36.405  27.788  1.00  0.00    +0.000 F 
ATOM     64  C47 UNL A   1      46.507  35.568  29.942  1.00  0.00    +0.000 C 
ENDBRANCH   58   59
BRANCH   73   74
ATOM     74  C53 UNL A   1      40.950  28.532  28.541  1.00  0.00    +0.000 C 
ATOM     75  C54 UNL A   1      39.968  29.003  27.660  1.00  0.00    +0.000 C 
ATOM     76  F11 UNL A   1      40.312  29.411  26.430  1.00  0.00    +0.000 F 
ATOM     77  C55 UNL A   1      38.634  29.094  28.054  1.00  0.00    +0.000 C 
ATOM     78  F12 UNL A   1      37.722  29.591  27.209  1.00  0.00    +0.000 F 
ATOM     79  C56 UNL A   1      38.253  28.686  29.324  1.00  0.00    +0.000 C 
ATOM     80  F13 UNL A   1      36.970  28.770  29.700  1.00  0.00    +0.000 F 
ATOM     81  C57 UNL A   1      39.205  28.198  30.206  1.00  0.00    +0.000 C 
ATOM     82  F14 UNL A   1      38.840  27.788  31.428  1.00  0.00    +0.000 F 
ATOM     83  C58 UNL A   1      40.542  28.136  29.824  1.00  0.00    +0.000 C 
ATOM     84  F15 UNL A   1      41.445  27.674  30.702  1.00  0.00    +0.000 F 
ENDBRANCH   73   74
TORSDOF 18
ENDMDL
MODEL 6
REMARK VINA RESULT:     -11.6      4.846      7.400
ROOT
ATOM    129  H34 UNL A   1      36.595  31.900  30.606  1.00  0.00    +0.000 H 
ATOM    130  H35 UNL A   1      39.677  30.974  33.238  1.00  0.00    +0.000 H 
ATOM    131  H36 UNL A   1      42.474  27.518  30.898  1.00  0.00    +0.000 H 
ATOM    132  H37 UNL A   1      43.963  27.510  32.980  1.00  0.00    +0.000 H 
ATOM    133  H38 UNL A   1      38.393  34.793  37.121  1.00  0.00    +0.000 H 
ATOM    134  H39 UNL A   1      36.745  34.640  35.165  1.00  0.00    +0.000 H 
ATOM     37  C29 UNL A   1      37.510  32.752  33.163  1.00  0.00    +0.000 C 
ATOM     38  C30 UNL A   1      38.202  33.053  34.461  1.00  0.00    +0.000 C 
ATOM     39  N3  UNL A   1      39.290  32.517  34.955  1.00  0.00    +0.000 N 
ATOM     40  C31 UNL A   1      39.519  33.159  36.164  1.00  0.00    +0.000 C 
ATOM     41  C32 UNL A   1      40.515  32.941  37.056  1.00  0.00    +0.000 C 
ATOM     53  C39 UNL A   1      41.544  31.945  36.899  1.00  0.00    +0.000 C 
ATOM     54  C40 UNL A   1      42.555  31.604  37.782  1.00  0.00    +0.000 C 
ATOM     55  C41 UNL A   1      43.351  30.622  37.181  1.00  0.00    +0.000 C 
ATOM     56  C42 UNL A   1      42.810  30.320  35.942  1.00  0.00    +0.000 C 
ATOM     57  N4  UNL A   1      41.700  31.136  35.784  1.00  0.00    +0.000 N 
ATOM     58  C43 UNL A   1      43.275  29.363  34.971  1.00  0.00    +0.000 C 
ATOM     70  C50 UNL A   1      42.655  29.079  33.800  1.00  0.00    +0.000 C 
ATOM     71  N5  UNL A   1      41.495  29.626  33.274  1.00  0.00    +0.000 N 
ATOM     72  C51 UNL A   1      41.325  29.052  32.108  1.00  0.00    +0.000 C 
ATOM     73  C52 UNL A   1      40.228  29.257  31.104  1.00  0.00    +0.000 C 
ATOM     85  C59 UNL A   1      39.260  30.152  31.370  1.00  0.00    +0.000 C 
ATOM     86  C60 UNL A   1      38.141  30.463  30.489  1.00  0.00    +0.000 C 
ATOM     87  C61 UNL A   1      37.424  31.456  31.033  1.00  0.00    +0.000 C 
ATOM     88  C62 UNL A   1      38.000  31.811  32.333  1.00  0.00    +0.000 C 
ATOM     89  N6  UNL A   1      39.083  30.978  32.453  1.00  0.00    +0.000 N 
ATOM     90  C63 UNL A   1      42.367  28.078  31.758  1.00  0.00    +0.000 C 
ATOM     91  C64 UNL A   1      43.132  28.105  32.840  1.00  0.00    +0.000 C 
ATOM     92  C65 UNL A   1      38.466  34.141  36.325  1.00  0.00    +0.000 C 
ATOM     93  C66 UNL A   1      37.607  34.092  35.314  1.00  0.00    +0.000 C 
ATOM    125  H30 UNL A   1      42.697  32.004  38.723  1.00  0.00    +0.000 H 
ATOM    126  H31 UNL A   1      44.197  30.197  37.590  1.00  0.00    +0.000 H 
ATOM    127  H32 UNL A   1      41.109  31.140  34.996  1.00  0.00    +0.000 H 
ATOM    128  H33 UNL A   1      37.936  29.996  29.592  1.00  0.00    +0.000 H 
ENDROOT
BRANCH   37   36
ATOM     33  C25 UNL A   1      33.957  34.931  32.173  1.00  0.00    +0.000 C 
ATOM     34  C26 UNL A   1      35.213  35.529  32.052  1.00  0.00    +0.000 C 
ATOM     35  C27 UNL A   1      36.365  34.783  32.285  1.00  0.00    +0.000 C 
ATOM     36  C28 UNL A   1      36.272  33.464  32.760  1.00  0.00    +0.000 C 
ATOM    135  H40 UNL A   1      34.926  31.928  33.312  1.00  0.00    +0.000 H 
ATOM    136  H41 UNL A   1      32.922  33.180  32.749  1.00  0.00    +0.000 H 
ATOM    123  H28 UNL A   1      35.288  36.525  31.789  1.00  0.00    +0.000 H 
ATOM    124  H29 UNL A   1      37.291  35.201  32.108  1.00  0.00    +0.000 H 
ATOM     94  C67 UNL A   1      35.007  32.889  32.945  1.00  0.00    +0.000 C 
ATOM     95  C68 UNL A   1      33.851  33.615  32.635  1.00  0.00    +0.000 C 
BRANCH   33    2
ATOM      1  O1  UNL A   1      31.989  36.060  32.761  1.00  0.00    +0.000 O 
ATOM      2  C1  UNL A   1      32.721  35.684  31.856  1.00  0.00    +0.000 C 
BRANCH    2    3
ATOM      3  N1  UNL A   1      32.394  35.944  30.545  1.00  0.00    +0.000 N 
ATOM     96  H1  UNL A   1      31.598  35.475  30.206  1.00  0.00    +0.000 H 
BRANCH    3    4
ATOM     97  H2  UNL A   1      33.685  37.497  30.132  1.00  0.00    +0.000 H 
ATOM     98  H3  UNL A   1      32.304  37.328  29.038  1.00  0.00    +0.000 H 
ATOM      4  C2  UNL A   1      33.061  36.815  29.593  1.00  0.00    +0.000 C 
BRANCH    4    5
ATOM     99  H4  UNL A   1      34.946  36.184  28.875  1.00  0.00    +0.000 H 
ATOM    100  H5  UNL A   1      33.679  36.436  27.635  1.00  0.00    +0.000 H 
ATOM      5  C3  UNL A   1      33.920  36.046  28.602  1.00  0.00    +0.000 C 
BRANCH    5    6
ATOM    102  H7  UNL A   1      32.942  34.345  29.313  1.00  0.00    +0.000 H 
ATOM    101  H6  UNL A   1      33.291  34.321  27.550  1.00  0.00    +0.000 H 
ATOM      6  C4  UNL A   1      33.647  34.543  28.534  1.00  0.00    +0.000 C 
BRANCH    6    7
ATOM    103  H8  UNL A   1      35.218  33.876  29.789  1.00  0.00    +0.000 H 
ATOM      7  C5  UNL A   1      34.842  33.627  28.818  1.00  0.00    +0.000 C 
ATOM    104  H9  UNL A   1      35.528  33.803  28.015  1.00  0.00    +0.000 H 
BRANCH    7    8
ATOM    105  H10 UNL A   1      34.260  31.826  29.777  1.00  0.00    +0.000 H 
ATOM    106  H11 UNL A   1      35.489  31.664  28.478  1.00  0.00    +0.000 H 
ATOM      8  C6  UNL A   1      34.574  32.116  28.796  1.00  0.00    +0.000 C 
BRANCH    8    9
ATOM      9  C7  UNL A   1      33.512  31.642  27.806  1.00  0.00    +0.000 C 
ATOM    107  H12 UNL A   1      33.283  32.447  27.139  1.00  0.00    +0.000 H 
ATOM    108  H13 UNL A   1      32.657  31.340  28.376  1.00  0.00    +0.000 H 
BRANCH    9   10
ATOM     10  N2  UNL A   1      33.936  30.503  27.026  1.00  0.00    +0.000 N 
ATOM    109  H14 UNL A   1      34.717  30.649  26.444  1.00  0.00    +0.000 H 
BRANCH   10   11
ATOM     11  C8  UNL A   1      33.397  29.251  26.991  1.00  0.00    +0.000 C 
ATOM     12  O2  UNL A   1      34.086  28.325  27.425  1.00  0.00    +0.000 O 
BRANCH   11   13
ATOM     13  C9  UNL A   1      31.985  29.047  26.395  1.00  0.00    +0.000 C 
ATOM     14  C10 UNL A   1      31.869  29.609  24.984  1.00  0.00    +0.000 C 
ATOM    110  H15 UNL A   1      31.321  29.583  27.042  1.00  0.00    +0.000 H 
ATOM    111  H16 UNL A   1      32.834  29.886  24.615  1.00  0.00    +0.000 H 
ATOM     15  C11 UNL A   1      31.273  28.494  24.124  1.00  0.00    +0.000 C 
ATOM    112  H17 UNL A   1      31.255  30.485  24.965  1.00  0.00    +0.000 H 
ATOM    118  H23 UNL A   1      30.603  26.639  24.786  1.00  0.00    +0.000 H 
ATOM     24  C18 UNL A   1      31.469  27.229  25.004  1.00  0.00    +0.000 C 
ATOM     32  O4  UNL A   1      31.612  27.670  26.368  1.00  0.00    +0.000 O 
BRANCH   15   16
ATOM    113  H18 UNL A   1      32.791  27.733  23.085  1.00  0.00    +0.000 H 
ATOM     16  O3  UNL A   1      32.080  28.376  22.932  1.00  0.00    +0.000 O 
ENDBRANCH   15   16
BRANCH   15   17
ATOM     17  C12 UNL A   1      29.880  28.934  23.625  1.00  0.00    +0.000 C 
ATOM     18  C13 UNL A   1      29.747  30.327  23.350  1.00  0.00    +0.000 C 
ATOM     19  C14 UNL A   1      28.574  30.895  22.850  1.00  0.00    +0.000 C 
ATOM    114  H19 UNL A   1      30.554  30.944  23.531  1.00  0.00    +0.000 H 
ATOM     21  C16 UNL A   1      27.559  28.728  22.875  1.00  0.00    +0.000 C 
ATOM     22  C17 UNL A   1      28.725  28.157  23.422  1.00  0.00    +0.000 C 
ATOM     23 Cl1  UNL A   1      28.542  26.502  23.875  1.00  0.00    +0.000 Cl
ATOM    115  H20 UNL A   1      28.522  31.911  22.676  1.00  0.00    +0.000 H 
ATOM     20  C15 UNL A   1      27.483  30.088  22.585  1.00  0.00    +0.000 C 
ATOM    117  H22 UNL A   1      26.743  28.126  22.686  1.00  0.00    +0.000 H 
ATOM    116  H21 UNL A   1      26.622  30.487  22.179  1.00  0.00    +0.000 H 
ENDBRANCH   15   17
BRANCH   24   25
ATOM    122  H27 UNL A   1      33.504  23.728  22.656  1.00  0.00    +0.000 H 
ATOM    121  H26 UNL A   1      35.411  23.651  24.152  1.00  0.00    +0.000 H 
ATOM    119  H24 UNL A   1      33.861  26.921  26.276  1.00  0.00    +0.000 H 
ATOM    120  H25 UNL A   1      35.596  25.273  25.943  1.00  0.00    +0.000 H 
ATOM     25  C19 UNL A   1      32.618  26.266  24.699  1.00  0.00    +0.000 C 
ATOM     26  C20 UNL A   1      33.763  26.231  25.514  1.00  0.00    +0.000 C 
ATOM     27  C21 UNL A   1      34.774  25.285  25.318  1.00  0.00    +0.000 C 
ATOM     28  C22 UNL A   1      34.674  24.361  24.287  1.00  0.00    +0.000 C 
ATOM     29  C23 UNL A   1      33.573  24.399  23.437  1.00  0.00    +0.000 C 
ATOM     30  C24 UNL A   1      32.556  25.344  23.634  1.00  0.00    +0.000 C 
ATOM     31 Cl2  UNL A   1      31.256  25.311  22.490  1.00  0.00    +0.000 Cl
ENDBRANCH   24   25
ENDBRANCH   11   13
ENDBRANCH   10   11
ENDBRANCH    9   10
ENDBRANCH    8    9
ENDBRANCH    7    8
ENDBRANCH    6    7
ENDBRANCH    5    6
ENDBRANCH    4    5
ENDBRANCH    3    4
ENDBRANCH    2    3
ENDBRANCH   33    2
ENDBRANCH   37   36
BRANCH   41   42
ATOM     42  C33 UNL A   1      40.560  33.794  38.289  1.00  0.00    +0.000 C 
ATOM     43  C34 UNL A   1      41.317  34.973  38.340  1.00  0.00    +0.000 C 
ATOM     44  F1  UNL A   1      42.105  35.314  37.310  1.00  0.00    +0.000 F 
ATOM     45  C35 UNL A   1      41.273  35.804  39.457  1.00  0.00    +0.000 C 
ATOM     46  F2  UNL A   1      42.019  36.918  39.493  1.00  0.00    +0.000 F 
ATOM     47  C36 UNL A   1      40.458  35.483  40.533  1.00  0.00    +0.000 C 
ATOM     48  F3  UNL A   1      40.402  36.295  41.599  1.00  0.00    +0.000 F 
ATOM     49  C37 UNL A   1      39.700  34.323  40.503  1.00  0.00    +0.000 C 
ATOM     50  F4  UNL A   1      38.901  34.019  41.536  1.00  0.00    +0.000 F 
ATOM     51  C38 UNL A   1      39.758  33.481  39.397  1.00  0.00    +0.000 C 
ATOM     52  F5  UNL A   1      39.009  32.367  39.394  1.00  0.00    +0.000 F 
ENDBRANCH   41   42
BRANCH   58   59
ATOM     65  F8  UNL A   1      47.993  26.490  36.137  1.00  0.00    +0.000 F 
ATOM     66  C48 UNL A   1      45.642  26.678  36.256  1.00  0.00    +0.000 C 
ATOM     67  F9  UNL A   1      45.569  25.516  36.920  1.00  0.00    +0.000 F 
ATOM     68  C49 UNL A   1      44.477  27.378  35.953  1.00  0.00    +0.000 C 
ATOM     69  F10 UNL A   1      43.296  26.863  36.328  1.00  0.00    +0.000 F 
ATOM     59  C44 UNL A   1      44.530  28.604  35.275  1.00  0.00    +0.000 C 
ATOM     60  C45 UNL A   1      45.790  29.102  34.909  1.00  0.00    +0.000 C 
ATOM     61  F6  UNL A   1      45.889  30.261  34.240  1.00  0.00    +0.000 F 
ATOM     62  C46 UNL A   1      46.950  28.386  35.188  1.00  0.00    +0.000 C 
ATOM     63  F7  UNL A   1      48.138  28.855  34.785  1.00  0.00    +0.000 F 
ATOM     64  C47 UNL A   1      46.875  27.178  35.867  1.00  0.00    +0.000 C 
ENDBRANCH   58   59
BRANCH   73   74
ATOM     74  C53 UNL A   1      40.210  28.506  29.822  1.00  0.00    +0.000 C 
ATOM     75  C54 UNL A   1      40.876  28.992  28.690  1.00  0.00    +0.000 C 
ATOM     76  F11 UNL A   1      41.527  30.163  28.747  1.00  0.00    +0.000 F 
ATOM     77  C55 UNL A   1      40.840  28.296  27.483  1.00  0.00    +0.000 C 
ATOM     78  F12 UNL A   1      41.446  28.807  26.402  1.00  0.00    +0.000 F 
ATOM     79  C56 UNL A   1      40.167  27.088  27.395  1.00  0.00    +0.000 C 
ATOM     80  F13 UNL A   1      40.136  26.418  26.235  1.00  0.00    +0.000 F 
ATOM     81  C57 UNL A   1      39.517  26.578  28.509  1.00  0.00    +0.000 C 
ATOM     82  F14 UNL A   1      38.879  25.402  28.433  1.00  0.00    +0.000 F 
ATOM     83  C58 UNL A   1      39.526  27.287  29.706  1.00  0.00    +0.000 C 
ATOM     84  F15 UNL A   1      38.877  26.778  30.764  1.00  0.00    +0.000 F 
ENDBRANCH   73   74
TORSDOF 18
ENDMDL
MODEL 7
REMARK VINA RESULT:     -11.5      1.016      3.380
ROOT
ATOM    129  H34 UNL A   1      38.713  28.231  30.009  1.00  0.00    +0.000 H 
ATOM    130  H35 UNL A   1      42.592  28.751  28.606  1.00  0.00    +0.000 H 
ATOM    131  H36 UNL A   1      43.832  24.415  26.392  1.00  0.00    +0.000 H 
ATOM    132  H37 UNL A   1      46.101  25.483  25.879  1.00  0.00    +0.000 H 
ATOM    133  H38 UNL A   1      43.061  34.159  29.963  1.00  0.00    +0.000 H 
ATOM    134  H39 UNL A   1      40.883  33.039  30.715  1.00  0.00    +0.000 H 
ATOM     37  C29 UNL A   1      40.654  30.311  29.899  1.00  0.00    +0.000 C 
ATOM     38  C30 UNL A   1      41.810  31.244  29.687  1.00  0.00    +0.000 C 
ATOM     39  N3  UNL A   1      42.956  31.011  29.095  1.00  0.00    +0.000 N 
ATOM     40  C31 UNL A   1      43.662  32.204  29.144  1.00  0.00    +0.000 C 
ATOM     41  C32 UNL A   1      44.909  32.462  28.681  1.00  0.00    +0.000 C 
ATOM     53  C39 UNL A   1      45.757  31.489  28.042  1.00  0.00    +0.000 C 
ATOM     54  C40 UNL A   1      47.061  31.639  27.601  1.00  0.00    +0.000 C 
ATOM     55  C41 UNL A   1      47.461  30.443  26.995  1.00  0.00    +0.000 C 
ATOM     56  C42 UNL A   1      46.422  29.533  27.098  1.00  0.00    +0.000 C 
ATOM     57  N4  UNL A   1      45.385  30.187  27.746  1.00  0.00    +0.000 N 
ATOM     58  C43 UNL A   1      46.376  28.171  26.634  1.00  0.00    +0.000 C 
ATOM     70  C50 UNL A   1      45.340  27.318  26.826  1.00  0.00    +0.000 C 
ATOM     71  N5  UNL A   1      44.131  27.546  27.464  1.00  0.00    +0.000 N 
ATOM     72  C51 UNL A   1      43.454  26.430  27.359  1.00  0.00    +0.000 C 
ATOM     73  C52 UNL A   1      42.081  26.104  27.873  1.00  0.00    +0.000 C 
ATOM     85  C59 UNL A   1      41.390  27.051  28.531  1.00  0.00    +0.000 C 
ATOM     86  C60 UNL A   1      40.049  26.884  29.076  1.00  0.00    +0.000 C 
ATOM     87  C61 UNL A   1      39.640  28.053  29.589  1.00  0.00    +0.000 C 
ATOM     88  C62 UNL A   1      40.716  29.039  29.461  1.00  0.00    +0.000 C 
ATOM     89  N6  UNL A   1      41.720  28.352  28.827  1.00  0.00    +0.000 N 
ATOM     90  C63 UNL A   1      44.156  25.365  26.630  1.00  0.00    +0.000 C 
ATOM     91  C64 UNL A   1      45.315  25.947  26.360  1.00  0.00    +0.000 C 
ATOM     92  C65 UNL A   1      42.811  33.170  29.809  1.00  0.00    +0.000 C 
ATOM     93  C66 UNL A   1      41.668  32.617  30.195  1.00  0.00    +0.000 C 
ATOM    125  H30 UNL A   1      47.640  32.488  27.702  1.00  0.00    +0.000 H 
ATOM    126  H31 UNL A   1      48.374  30.269  26.547  1.00  0.00    +0.000 H 
ATOM    127  H32 UNL A   1      44.512  29.785  27.964  1.00  0.00    +0.000 H 
ATOM    128  H33 UNL A   1      39.502  26.008  29.067  1.00  0.00    +0.000 H 
ENDROOT
BRANCH   37   36
ATOM     33  C25 UNL A   1      37.166  31.778  31.907  1.00  0.00    +0.000 C 
ATOM     34  C26 UNL A   1      37.347  32.007  30.541  1.00  0.00    +0.000 C 
ATOM     35  C27 UNL A   1      38.435  31.446  29.880  1.00  0.00    +0.000 C 
ATOM     36  C28 UNL A   1      39.421  30.750  30.600  1.00  0.00    +0.000 C 
ATOM    135  H40 UNL A   1      39.996  30.087  32.525  1.00  0.00    +0.000 H 
ATOM    136  H41 UNL A   1      38.013  30.929  33.647  1.00  0.00    +0.000 H 
ATOM    123  H28 UNL A   1      36.674  32.593  30.022  1.00  0.00    +0.000 H 
ATOM    124  H29 UNL A   1      38.518  31.541  28.857  1.00  0.00    +0.000 H 
ATOM     94  C67 UNL A   1      39.269  30.580  31.983  1.00  0.00    +0.000 C 
ATOM     95  C68 UNL A   1      38.134  31.078  32.633  1.00  0.00    +0.000 C 
BRANCH   33    2
ATOM      1  O1  UNL A   1      35.995  32.421  33.833  1.00  0.00    +0.000 O 
ATOM      2  C1  UNL A   1      35.974  32.302  32.616  1.00  0.00    +0.000 C 
BRANCH    2    3
ATOM      3  N1  UNL A   1      34.847  32.638  31.904  1.00  0.00    +0.000 N 
ATOM     96  H1  UNL A   1      34.423  31.902  31.408  1.00  0.00    +0.000 H 
BRANCH    3    4
ATOM     97  H2  UNL A   1      34.501  34.547  32.602  1.00  0.00    +0.000 H 
ATOM     98  H3  UNL A   1      33.138  33.763  31.791  1.00  0.00    +0.000 H 
ATOM      4  C2  UNL A   1      34.194  33.931  31.783  1.00  0.00    +0.000 C 
BRANCH    4    5
ATOM     99  H4  UNL A   1      35.595  34.548  30.326  1.00  0.00    +0.000 H 
ATOM    100  H5  UNL A   1      34.212  35.651  30.599  1.00  0.00    +0.000 H 
ATOM      5  C3  UNL A   1      34.541  34.639  30.483  1.00  0.00    +0.000 C 
BRANCH    5    6
ATOM    102  H7  UNL A   1      33.324  33.216  29.561  1.00  0.00    +0.000 H 
ATOM    101  H6  UNL A   1      33.181  34.872  28.878  1.00  0.00    +0.000 H 
ATOM      6  C4  UNL A   1      33.829  34.103  29.241  1.00  0.00    +0.000 C 
BRANCH    6    7
ATOM    103  H8  UNL A   1      35.659  34.192  28.178  1.00  0.00    +0.000 H 
ATOM      7  C5  UNL A   1      34.732  33.666  28.082  1.00  0.00    +0.000 C 
ATOM    104  H9  UNL A   1      34.179  33.892  27.194  1.00  0.00    +0.000 H 
BRANCH    7    8
ATOM    105  H10 UNL A   1      35.463  31.861  28.927  1.00  0.00    +0.000 H 
ATOM    106  H11 UNL A   1      35.732  32.071  27.164  1.00  0.00    +0.000 H 
ATOM      8  C6  UNL A   1      35.055  32.168  27.987  1.00  0.00    +0.000 C 
BRANCH    8    9
ATOM      9  C7  UNL A   1      33.877  31.251  27.665  1.00  0.00    +0.000 C 
ATOM    107  H12 UNL A   1      33.282  31.714  26.906  1.00  0.00    +0.000 H 
ATOM    108  H13 UNL A   1      33.327  31.109  28.573  1.00  0.00    +0.000 H 
BRANCH    9   10
ATOM     10  N2  UNL A   1      34.288  29.947  27.200  1.00  0.00    +0.000 N 
ATOM    109  H14 UNL A   1      35.244  29.851  26.983  1.00  0.00    +0.000 H 
BRANCH   10   11
ATOM     11  C8  UNL A   1      33.525  28.831  27.021  1.00  0.00    +0.000 C 
ATOM     12  O2  UNL A   1      32.462  28.766  27.642  1.00  0.00    +0.000 O 
BRANCH   11   13
ATOM     13  C9  UNL A   1      34.028  27.707  26.087  1.00  0.00    +0.000 C 
ATOM     14  C10 UNL A   1      33.278  26.399  26.303  1.00  0.00    +0.000 C 
ATOM    110  H15 UNL A   1      35.060  27.566  26.338  1.00  0.00    +0.000 H 
ATOM    111  H16 UNL A   1      32.435  26.558  26.942  1.00  0.00    +0.000 H 
ATOM     15  C11 UNL A   1      32.816  25.934  24.921  1.00  0.00    +0.000 C 
ATOM    112  H17 UNL A   1      33.902  25.667  26.771  1.00  0.00    +0.000 H 
ATOM    118  H23 UNL A   1      33.266  26.826  23.097  1.00  0.00    +0.000 H 
ATOM     24  C18 UNL A   1      32.971  27.211  24.050  1.00  0.00    +0.000 C 
ATOM     32  O4  UNL A   1      33.921  28.070  24.710  1.00  0.00    +0.000 O 
BRANCH   15   16
ATOM    113  H18 UNL A   1      31.163  25.520  25.951  1.00  0.00    +0.000 H 
ATOM     16  O3  UNL A   1      31.417  25.589  25.017  1.00  0.00    +0.000 O 
ENDBRANCH   15   16
BRANCH   15   17
ATOM     17  C12 UNL A   1      33.533  24.613  24.570  1.00  0.00    +0.000 C 
ATOM     18  C13 UNL A   1      34.920  24.570  24.899  1.00  0.00    +0.000 C 
ATOM     19  C14 UNL A   1      35.716  23.442  24.694  1.00  0.00    +0.000 C 
ATOM    114  H19 UNL A   1      35.355  25.412  25.307  1.00  0.00    +0.000 H 
ATOM     21  C16 UNL A   1      33.811  22.308  23.793  1.00  0.00    +0.000 C 
ATOM     22  C17 UNL A   1      33.013  23.458  23.956  1.00  0.00    +0.000 C 
ATOM     23 Cl1  UNL A   1      31.439  23.317  23.264  1.00  0.00    +0.000 Cl
ATOM    115  H20 UNL A   1      36.718  23.462  24.939  1.00  0.00    +0.000 H 
ATOM     20  C15 UNL A   1      35.152  22.296  24.163  1.00  0.00    +0.000 C 
ATOM    117  H22 UNL A   1      33.392  21.457  23.389  1.00  0.00    +0.000 H 
ATOM    116  H21 UNL A   1      35.719  21.442  24.042  1.00  0.00    +0.000 H 
ENDBRANCH   15   17
BRANCH   24   25
ATOM    122  H27 UNL A   1      29.325  28.424  21.378  1.00  0.00    +0.000 H 
ATOM    121  H26 UNL A   1      28.812  30.374  22.724  1.00  0.00    +0.000 H 
ATOM    119  H24 UNL A   1      31.909  29.352  25.364  1.00  0.00    +0.000 H 
ATOM    120  H25 UNL A   1      30.091  30.814  24.734  1.00  0.00    +0.000 H 
ATOM     25  C19 UNL A   1      31.738  28.049  23.710  1.00  0.00    +0.000 C 
ATOM     26  C20 UNL A   1      31.379  29.156  24.500  1.00  0.00    +0.000 C 
ATOM     27  C21 UNL A   1      30.322  29.999  24.144  1.00  0.00    +0.000 C 
ATOM     28  C22 UNL A   1      29.581  29.743  22.997  1.00  0.00    +0.000 C 
ATOM     29  C23 UNL A   1      29.885  28.630  22.219  1.00  0.00    +0.000 C 
ATOM     30  C24 UNL A   1      30.948  27.786  22.572  1.00  0.00    +0.000 C 
ATOM     31 Cl2  UNL A   1      31.204  26.417  21.543  1.00  0.00    +0.000 Cl
ENDBRANCH   24   25
ENDBRANCH   11   13
ENDBRANCH   10   11
ENDBRANCH    9   10
ENDBRANCH    8    9
ENDBRANCH    7    8
ENDBRANCH    6    7
ENDBRANCH    5    6
ENDBRANCH    4    5
ENDBRANCH    3    4
ENDBRANCH    2    3
ENDBRANCH   33    2
ENDBRANCH   37   36
BRANCH   41   42
ATOM     42  C33 UNL A   1      45.446  33.855  28.832  1.00  0.00    +0.000 C 
ATOM     43  C34 UNL A   1      46.250  34.220  29.921  1.00  0.00    +0.000 C 
ATOM     44  F1  UNL A   1      46.476  33.348  30.915  1.00  0.00    +0.000 F 
ATOM     45  C35 UNL A   1      46.819  35.489  29.998  1.00  0.00    +0.000 C 
ATOM     46  F2  UNL A   1      47.570  35.823  31.057  1.00  0.00    +0.000 F 
ATOM     47  C36 UNL A   1      46.613  36.408  28.979  1.00  0.00    +0.000 C 
ATOM     48  F3  UNL A   1      47.178  37.622  29.045  1.00  0.00    +0.000 F 
ATOM     49  C37 UNL A   1      45.823  36.068  27.892  1.00  0.00    +0.000 C 
ATOM     50  F4  UNL A   1      45.633  36.950  26.900  1.00  0.00    +0.000 F 
ATOM     51  C38 UNL A   1      45.236  34.808  27.823  1.00  0.00    +0.000 C 
ATOM     52  F5  UNL A   1      44.480  34.506  26.756  1.00  0.00    +0.000 F 
ENDBRANCH   41   42
BRANCH   58   59
ATOM     65  F8  UNL A   1      50.874  26.162  23.875  1.00  0.00    +0.000 F 
ATOM     66  C48 UNL A   1      49.758  26.590  25.913  1.00  0.00    +0.000 C 
ATOM     67  F9  UNL A   1      50.784  26.065  26.599  1.00  0.00    +0.000 F 
ATOM     68  C49 UNL A   1      48.642  27.069  26.592  1.00  0.00    +0.000 C 
ATOM     69  F10 UNL A   1      48.613  26.985  27.931  1.00  0.00    +0.000 F 
ATOM     59  C44 UNL A   1      47.565  27.637  25.896  1.00  0.00    +0.000 C 
ATOM     60  C45 UNL A   1      47.646  27.705  24.497  1.00  0.00    +0.000 C 
ATOM     61  F6  UNL A   1      46.632  28.221  23.787  1.00  0.00    +0.000 F 
ATOM     62  C46 UNL A   1      48.751  27.198  23.820  1.00  0.00    +0.000 C 
ATOM     63  F7  UNL A   1      48.786  27.228  22.480  1.00  0.00    +0.000 F 
ATOM     64  C47 UNL A   1      49.809  26.647  24.528  1.00  0.00    +0.000 C 
ENDBRANCH   58   59
BRANCH   73   74
ATOM     74  C53 UNL A   1      41.474  24.767  27.646  1.00  0.00    +0.000 C 
ATOM     75  C54 UNL A   1      41.942  23.636  28.326  1.00  0.00    +0.000 C 
ATOM     76  F11 UNL A   1      42.966  23.747  29.185  1.00  0.00    +0.000 F 
ATOM     77  C55 UNL A   1      41.385  22.379  28.097  1.00  0.00    +0.000 C 
ATOM     78  F12 UNL A   1      41.882  21.305  28.725  1.00  0.00    +0.000 F 
ATOM     79  C56 UNL A   1      40.330  22.236  27.208  1.00  0.00    +0.000 C 
ATOM     80  F13 UNL A   1      39.793  21.028  26.991  1.00  0.00    +0.000 F 
ATOM     81  C57 UNL A   1      39.838  23.346  26.538  1.00  0.00    +0.000 C 
ATOM     82  F14 UNL A   1      38.808  23.215  25.691  1.00  0.00    +0.000 F 
ATOM     83  C58 UNL A   1      40.414  24.596  26.744  1.00  0.00    +0.000 C 
ATOM     84  F15 UNL A   1      39.927  25.651  26.071  1.00  0.00    +0.000 F 
ENDBRANCH   73   74
TORSDOF 18
ENDMDL
MODEL 8
REMARK VINA RESULT:     -11.4     37.112     41.930
ROOT
ATOM    129  H34 UNL A   1      14.864  56.402   4.788  1.00  0.00    +0.000 H 
ATOM    130  H35 UNL A   1      14.958  52.623   3.056  1.00  0.00    +0.000 H 
ATOM    131  H36 UNL A   1      18.138  52.980  -0.817  1.00  0.00    +0.000 H 
ATOM    132  H37 UNL A   1      17.652  50.507  -1.268  1.00  0.00    +0.000 H 
ATOM    133  H38 UNL A   1      11.742  50.077   6.861  1.00  0.00    +0.000 H 
ATOM    134  H39 UNL A   1      12.008  52.604   7.185  1.00  0.00    +0.000 H 
ATOM     37  C29 UNL A   1      13.747  53.829   5.279  1.00  0.00    +0.000 C 
ATOM     38  C30 UNL A   1      13.320  52.392   5.349  1.00  0.00    +0.000 C 
ATOM     39  N3  UNL A   1      13.641  51.400   4.556  1.00  0.00    +0.000 N 
ATOM     40  C31 UNL A   1      13.003  50.279   5.067  1.00  0.00    +0.000 C 
ATOM     41  C32 UNL A   1      13.013  49.013   4.584  1.00  0.00    +0.000 C 
ATOM     53  C39 UNL A   1      13.709  48.603   3.391  1.00  0.00    +0.000 C 
ATOM     54  C40 UNL A   1      13.722  47.358   2.785  1.00  0.00    +0.000 C 
ATOM     55  C41 UNL A   1      14.580  47.415   1.682  1.00  0.00    +0.000 C 
ATOM     56  C42 UNL A   1      15.068  48.706   1.574  1.00  0.00    +0.000 C 
ATOM     57  N4  UNL A   1      14.523  49.426   2.626  1.00  0.00    +0.000 N 
ATOM     58  C43 UNL A   1      15.970  49.243   0.588  1.00  0.00    +0.000 C 
ATOM     70  C50 UNL A   1      16.357  50.540   0.512  1.00  0.00    +0.000 C 
ATOM     71  N5  UNL A   1      16.011  51.602   1.333  1.00  0.00    +0.000 N 
ATOM     72  C51 UNL A   1      16.666  52.639   0.872  1.00  0.00    +0.000 C 
ATOM     73  C52 UNL A   1      16.666  54.055   1.372  1.00  0.00    +0.000 C 
ATOM     85  C59 UNL A   1      15.921  54.367   2.447  1.00  0.00    +0.000 C 
ATOM     86  C60 UNL A   1      15.830  55.692   3.047  1.00  0.00    +0.000 C 
ATOM     87  C61 UNL A   1      15.068  55.618   4.147  1.00  0.00    +0.000 C 
ATOM     88  C62 UNL A   1      14.567  54.249   4.296  1.00  0.00    +0.000 C 
ATOM     89  N6  UNL A   1      15.119  53.578   3.235  1.00  0.00    +0.000 N 
ATOM     90  C63 UNL A   1      17.512  52.349  -0.292  1.00  0.00    +0.000 C 
ATOM     91  C64 UNL A   1      17.258  51.064  -0.494  1.00  0.00    +0.000 C 
ATOM     92  C65 UNL A   1      12.287  50.706   6.252  1.00  0.00    +0.000 C 
ATOM     93  C66 UNL A   1      12.423  52.011   6.450  1.00  0.00    +0.000 C 
ATOM    125  H30 UNL A   1      13.189  46.530   3.094  1.00  0.00    +0.000 H 
ATOM    126  H31 UNL A   1      14.811  46.627   1.056  1.00  0.00    +0.000 H 
ATOM    127  H32 UNL A   1      14.688  50.380   2.804  1.00  0.00    +0.000 H 
ATOM    128  H33 UNL A   1      16.281  56.547   2.686  1.00  0.00    +0.000 H 
ENDROOT
BRANCH   37   36
ATOM     33  C25 UNL A   1      12.461  56.865   8.014  1.00  0.00    +0.000 C 
ATOM     34  C26 UNL A   1      11.776  56.654   6.815  1.00  0.00    +0.000 C 
ATOM     35  C27 UNL A   1      12.144  55.604   5.979  1.00  0.00    +0.000 C 
ATOM     36  C28 UNL A   1      13.278  54.828   6.272  1.00  0.00    +0.000 C 
ATOM    135  H40 UNL A   1      14.848  54.536   7.660  1.00  0.00    +0.000 H 
ATOM    136  H41 UNL A   1      14.106  56.265   9.197  1.00  0.00    +0.000 H 
ATOM    123  H28 UNL A   1      10.997  57.277   6.548  1.00  0.00    +0.000 H 
ATOM    124  H29 UNL A   1      11.582  55.395   5.141  1.00  0.00    +0.000 H 
ATOM     94  C67 UNL A   1      14.003  55.087   7.444  1.00  0.00    +0.000 C 
ATOM     95  C68 UNL A   1      13.585  56.093   8.323  1.00  0.00    +0.000 C 
BRANCH   33    2
ATOM      1  O1  UNL A   1      12.614  59.008   8.952  1.00  0.00    +0.000 O 
ATOM      2  C1  UNL A   1      12.037  57.929   8.955  1.00  0.00    +0.000 C 
BRANCH    2    3
ATOM      3  N1  UNL A   1      11.009  57.694   9.837  1.00  0.00    +0.000 N 
ATOM     96  H1  UNL A   1      10.215  58.265   9.725  1.00  0.00    +0.000 H 
BRANCH    3    4
ATOM     97  H2  UNL A   1      10.552  57.205  11.787  1.00  0.00    +0.000 H 
ATOM     98  H3  UNL A   1      11.917  56.334  11.072  1.00  0.00    +0.000 H 
ATOM      4  C2  UNL A   1      10.932  56.720  10.912  1.00  0.00    +0.000 C 
BRANCH    4    5
ATOM     99  H4  UNL A   1       9.292  55.887   9.872  1.00  0.00    +0.000 H 
ATOM    100  H5  UNL A   1       9.608  55.215  11.501  1.00  0.00    +0.000 H 
ATOM      5  C3  UNL A   1      10.025  55.547  10.573  1.00  0.00    +0.000 C 
BRANCH    5    6
ATOM    102  H7  UNL A   1      11.730  54.657   9.760  1.00  0.00    +0.000 H 
ATOM    101  H6  UNL A   1      10.667  53.533  10.674  1.00  0.00    +0.000 H 
ATOM      6  C4  UNL A   1      10.732  54.334   9.968  1.00  0.00    +0.000 C 
BRANCH    6    7
ATOM    103  H8  UNL A   1      11.011  53.610   7.996  1.00  0.00    +0.000 H 
ATOM      7  C5  UNL A   1      10.178  53.827   8.632  1.00  0.00    +0.000 C 
ATOM    104  H9  UNL A   1       9.538  54.609   8.279  1.00  0.00    +0.000 H 
BRANCH    7    8
ATOM    105  H10 UNL A   1       9.819  51.783   8.190  1.00  0.00    +0.000 H 
ATOM    106  H11 UNL A   1       8.374  52.850   8.210  1.00  0.00    +0.000 H 
ATOM      8  C6  UNL A   1       9.293  52.574   8.683  1.00  0.00    +0.000 C 
BRANCH    8    9
ATOM      9  C7  UNL A   1       8.910  52.085  10.078  1.00  0.00    +0.000 C 
ATOM    107  H12 UNL A   1       7.875  52.297  10.242  1.00  0.00    +0.000 H 
ATOM    108  H13 UNL A   1       9.538  52.596  10.779  1.00  0.00    +0.000 H 
BRANCH    9   10
ATOM     10  N2  UNL A   1       9.125  50.668  10.258  1.00  0.00    +0.000 N 
ATOM    109  H14 UNL A   1       8.804  50.090   9.528  1.00  0.00    +0.000 H 
BRANCH   10   11
ATOM     11  C8  UNL A   1       9.716  50.026  11.306  1.00  0.00    +0.000 C 
ATOM     12  O2  UNL A   1       9.066  49.928  12.349  1.00  0.00    +0.000 O 
BRANCH   11   13
ATOM     13  C9  UNL A   1      11.155  49.482  11.151  1.00  0.00    +0.000 C 
ATOM     14  C10 UNL A   1      11.846  50.028   9.908  1.00  0.00    +0.000 C 
ATOM    110  H15 UNL A   1      11.052  48.421  11.058  1.00  0.00    +0.000 H 
ATOM    111  H16 UNL A   1      11.261  50.811   9.474  1.00  0.00    +0.000 H 
ATOM     15  C11 UNL A   1      13.199  50.571  10.370  1.00  0.00    +0.000 C 
ATOM    112  H17 UNL A   1      11.965  49.267   9.166  1.00  0.00    +0.000 H 
ATOM    118  H23 UNL A   1      14.000  50.439  12.285  1.00  0.00    +0.000 H 
ATOM     24  C18 UNL A   1      13.027  50.678  11.911  1.00  0.00    +0.000 C 
ATOM     32  O4  UNL A   1      11.963  49.783  12.289  1.00  0.00    +0.000 O 
BRANCH   15   16
ATOM    113  H18 UNL A   1      13.203  52.556  10.508  1.00  0.00    +0.000 H 
ATOM     16  O3  UNL A   1      13.357  51.894   9.815  1.00  0.00    +0.000 O 
ENDBRANCH   15   16
BRANCH   15   17
ATOM     17  C12 UNL A   1      14.323  49.729   9.730  1.00  0.00    +0.000 C 
ATOM     18  C13 UNL A   1      15.112  50.410   8.757  1.00  0.00    +0.000 C 
ATOM     19  C14 UNL A   1      16.198  49.819   8.109  1.00  0.00    +0.000 C 
ATOM    114  H19 UNL A   1      14.868  51.384   8.520  1.00  0.00    +0.000 H 
ATOM     21  C16 UNL A   1      15.788  47.807   9.337  1.00  0.00    +0.000 C 
ATOM     22  C17 UNL A   1      14.664  48.383   9.962  1.00  0.00    +0.000 C 
ATOM     23 Cl1  UNL A   1      13.752  47.271  10.916  1.00  0.00    +0.000 Cl
ATOM    115  H20 UNL A   1      16.733  50.350   7.404  1.00  0.00    +0.000 H 
ATOM     20  C15 UNL A   1      16.555  48.520   8.420  1.00  0.00    +0.000 C 
ATOM    117  H22 UNL A   1      16.048  46.835   9.564  1.00  0.00    +0.000 H 
ATOM    116  H21 UNL A   1      17.379  48.083   7.978  1.00  0.00    +0.000 H 
ENDBRANCH   15   17
BRANCH   24   25
ATOM    122  H27 UNL A   1      14.280  54.791  13.759  1.00  0.00    +0.000 H 
ATOM    121  H26 UNL A   1      12.015  55.336  14.429  1.00  0.00    +0.000 H 
ATOM    119  H24 UNL A   1      10.649  51.790  12.650  1.00  0.00    +0.000 H 
ATOM    120  H25 UNL A   1      10.199  53.842  13.843  1.00  0.00    +0.000 H 
ATOM     25  C19 UNL A   1      12.744  52.039  12.547  1.00  0.00    +0.000 C 
ATOM     26  C20 UNL A   1      11.435  52.411  12.900  1.00  0.00    +0.000 C 
ATOM     27  C21 UNL A   1      11.169  53.603  13.582  1.00  0.00    +0.000 C 
ATOM     28  C22 UNL A   1      12.207  54.465  13.911  1.00  0.00    +0.000 C 
ATOM     29  C23 UNL A   1      13.508  54.144  13.536  1.00  0.00    +0.000 C 
ATOM     30  C24 UNL A   1      13.778  52.948  12.856  1.00  0.00    +0.000 C 
ATOM     31 Cl2  UNL A   1      15.431  52.680  12.416  1.00  0.00    +0.000 Cl
ENDBRANCH   24   25
ENDBRANCH   11   13
ENDBRANCH   10   11
ENDBRANCH    9   10
ENDBRANCH    8    9
ENDBRANCH    7    8
ENDBRANCH    6    7
ENDBRANCH    5    6
ENDBRANCH    4    5
ENDBRANCH    3    4
ENDBRANCH    2    3
ENDBRANCH   33    2
ENDBRANCH   37   36
BRANCH   41   42
ATOM     42  C33 UNL A   1      12.258  47.961   5.340  1.00  0.00    +0.000 C 
ATOM     43  C34 UNL A   1      12.832  47.276   6.420  1.00  0.00    +0.000 C 
ATOM     44  F1  UNL A   1      14.119  47.479   6.741  1.00  0.00    +0.000 F 
ATOM     45  C35 UNL A   1      12.087  46.371   7.172  1.00  0.00    +0.000 C 
ATOM     46  F2  UNL A   1      12.661  45.714   8.190  1.00  0.00    +0.000 F 
ATOM     47  C36 UNL A   1      10.750  46.150   6.873  1.00  0.00    +0.000 C 
ATOM     48  F3  UNL A   1      10.029  45.293   7.611  1.00  0.00    +0.000 F 
ATOM     49  C37 UNL A   1      10.162  46.817   5.810  1.00  0.00    +0.000 C 
ATOM     50  F4  UNL A   1       8.867  46.614   5.527  1.00  0.00    +0.000 F 
ATOM     51  C38 UNL A   1      10.910  47.706   5.044  1.00  0.00    +0.000 C 
ATOM     52  F5  UNL A   1      10.311  48.342   4.024  1.00  0.00    +0.000 F 
ENDBRANCH   41   42
BRANCH   58   59
ATOM     65  F8  UNL A   1      18.055  45.738  -3.317  1.00  0.00    +0.000 F 
ATOM     66  C48 UNL A   1      18.343  46.963  -1.317  1.00  0.00    +0.000 C 
ATOM     67  F9  UNL A   1      19.600  46.512  -1.207  1.00  0.00    +0.000 F 
ATOM     68  C49 UNL A   1      17.822  47.813  -0.346  1.00  0.00    +0.000 C 
ATOM     69  F10 UNL A   1      18.596  48.156   0.695  1.00  0.00    +0.000 F 
ATOM     59  C44 UNL A   1      16.516  48.311  -0.450  1.00  0.00    +0.000 C 
ATOM     60  C45 UNL A   1      15.749  47.925  -1.560  1.00  0.00    +0.000 C 
ATOM     61  F6  UNL A   1      14.487  48.360  -1.692  1.00  0.00    +0.000 F 
ATOM     62  C46 UNL A   1      16.262  47.052  -2.514  1.00  0.00    +0.000 C 
ATOM     63  F7  UNL A   1      15.496  46.657  -3.539  1.00  0.00    +0.000 F 
ATOM     64  C47 UNL A   1      17.561  46.577  -2.396  1.00  0.00    +0.000 C 
ENDBRANCH   58   59
BRANCH   73   74
ATOM     74  C53 UNL A   1      17.488  55.101   0.711  1.00  0.00    +0.000 C 
ATOM     75  C54 UNL A   1      17.048  55.737  -0.457  1.00  0.00    +0.000 C 
ATOM     76  F11 UNL A   1      15.875  55.390  -1.006  1.00  0.00    +0.000 F 
ATOM     77  C55 UNL A   1      17.831  56.703  -1.086  1.00  0.00    +0.000 C 
ATOM     78  F12 UNL A   1      17.408  57.262  -2.228  1.00  0.00    +0.000 F 
ATOM     79  C56 UNL A   1      19.051  57.074  -0.543  1.00  0.00    +0.000 C 
ATOM     80  F13 UNL A   1      19.801  58.006  -1.147  1.00  0.00    +0.000 F 
ATOM     81  C57 UNL A   1      19.498  56.472   0.624  1.00  0.00    +0.000 C 
ATOM     82  F14 UNL A   1      20.669  56.839   1.161  1.00  0.00    +0.000 F 
ATOM     83  C58 UNL A   1      18.731  55.485   1.236  1.00  0.00    +0.000 C 
ATOM     84  F15 UNL A   1      19.194  54.908   2.356  1.00  0.00    +0.000 F 
ENDBRANCH   73   74
TORSDOF 18
ENDMDL
MODEL 9
REMARK VINA RESULT:     -11.4     18.516     23.858
ROOT
ATOM    129  H34 UNL A   1      53.692  19.099   9.120  1.00  0.00    +0.000 H 
ATOM    130  H35 UNL A   1      55.282  19.675  12.918  1.00  0.00    +0.000 H 
ATOM    131  H36 UNL A   1      59.977  17.898  12.712  1.00  0.00    +0.000 H 
ATOM    132  H37 UNL A   1      60.191  18.562  15.175  1.00  0.00    +0.000 H 
ATOM    133  H38 UNL A   1      50.918  22.459  15.041  1.00  0.00    +0.000 H 
ATOM    134  H39 UNL A   1      50.585  21.578  12.658  1.00  0.00    +0.000 H 
ATOM     37  C29 UNL A   1      52.883  20.262  11.589  1.00  0.00    +0.000 C 
ATOM     38  C30 UNL A   1      52.706  20.840  12.963  1.00  0.00    +0.000 C 
ATOM     39  N3  UNL A   1      53.554  20.859  13.962  1.00  0.00    +0.000 N 
ATOM     40  C31 UNL A   1      52.914  21.528  14.995  1.00  0.00    +0.000 C 
ATOM     41  C32 UNL A   1      53.375  21.785  16.243  1.00  0.00    +0.000 C 
ATOM     53  C39 UNL A   1      54.665  21.373  16.734  1.00  0.00    +0.000 C 
ATOM     54  C40 UNL A   1      55.193  21.529  18.005  1.00  0.00    +0.000 C 
ATOM     55  C41 UNL A   1      56.498  21.025  18.003  1.00  0.00    +0.000 C 
ATOM     56  C42 UNL A   1      56.768  20.515  16.744  1.00  0.00    +0.000 C 
ATOM     57  N4  UNL A   1      55.633  20.732  15.976  1.00  0.00    +0.000 N 
ATOM     58  C43 UNL A   1      57.973  19.883  16.273  1.00  0.00    +0.000 C 
ATOM     70  C50 UNL A   1      58.142  19.353  15.037  1.00  0.00    +0.000 C 
ATOM     71  N5  UNL A   1      57.248  19.310  13.978  1.00  0.00    +0.000 N 
ATOM     72  C51 UNL A   1      57.887  18.728  12.994  1.00  0.00    +0.000 C 
ATOM     73  C52 UNL A   1      57.403  18.413  11.607  1.00  0.00    +0.000 C 
ATOM     85  C59 UNL A   1      56.152  18.763  11.259  1.00  0.00    +0.000 C 
ATOM     86  C60 UNL A   1      55.550  18.531   9.951  1.00  0.00    +0.000 C 
ATOM     87  C61 UNL A   1      54.329  19.082   9.933  1.00  0.00    +0.000 C 
ATOM     88  C62 UNL A   1      54.037  19.655  11.250  1.00  0.00    +0.000 C 
ATOM     89  N6  UNL A   1      55.175  19.410  11.975  1.00  0.00    +0.000 N 
ATOM     90  C63 UNL A   1      59.267  18.342  13.315  1.00  0.00    +0.000 C 
ATOM     91  C64 UNL A   1      59.359  18.711  14.584  1.00  0.00    +0.000 C 
ATOM     92  C65 UNL A   1      51.609  21.917  14.500  1.00  0.00    +0.000 C 
ATOM     93  C66 UNL A   1      51.419  21.485  13.259  1.00  0.00    +0.000 C 
ATOM    125  H30 UNL A   1      54.707  21.945  18.815  1.00  0.00    +0.000 H 
ATOM    126  H31 UNL A   1      57.149  21.032  18.804  1.00  0.00    +0.000 H 
ATOM    127  H32 UNL A   1      55.530  20.469  15.033  1.00  0.00    +0.000 H 
ATOM    128  H33 UNL A   1      55.994  18.027   9.168  1.00  0.00    +0.000 H 
ENDROOT
BRANCH   37   36
ATOM     33  C25 UNL A   1      49.883  20.329   8.533  1.00  0.00    +0.000 C 
ATOM     34  C26 UNL A   1      50.101  19.174   9.287  1.00  0.00    +0.000 C 
ATOM     35  C27 UNL A   1      51.012  19.193  10.339  1.00  0.00    +0.000 C 
ATOM     36  C28 UNL A   1      51.803  20.329  10.573  1.00  0.00    +0.000 C 
ATOM    135  H40 UNL A   1      52.217  22.299   9.920  1.00  0.00    +0.000 H 
ATOM    136  H41 UNL A   1      50.513  22.316   8.188  1.00  0.00    +0.000 H 
ATOM    123  H28 UNL A   1      49.588  18.306   9.065  1.00  0.00    +0.000 H 
ATOM    124  H29 UNL A   1      51.105  18.368  10.951  1.00  0.00    +0.000 H 
ATOM     94  C67 UNL A   1      51.628  21.465   9.769  1.00  0.00    +0.000 C 
ATOM     95  C68 UNL A   1      50.657  21.471   8.762  1.00  0.00    +0.000 C 
BRANCH   33    2
ATOM      1  O1  UNL A   1      48.425  21.425   7.060  1.00  0.00    +0.000 O 
ATOM      2  C1  UNL A   1      48.863  20.354   7.457  1.00  0.00    +0.000 C 
BRANCH    2    3
ATOM      3  N1  UNL A   1      48.405  19.174   6.920  1.00  0.00    +0.000 N 
ATOM     96  H1  UNL A   1      48.246  18.448   7.565  1.00  0.00    +0.000 H 
BRANCH    3    4
ATOM     97  H2  UNL A   1      48.630  17.945   5.281  1.00  0.00    +0.000 H 
ATOM     98  H3  UNL A   1      48.457  19.672   4.933  1.00  0.00    +0.000 H 
ATOM      4  C2  UNL A   1      48.121  18.852   5.532  1.00  0.00    +0.000 C 
BRANCH    4    5
ATOM     99  H4  UNL A   1      46.096  19.263   5.974  1.00  0.00    +0.000 H 
ATOM    100  H5  UNL A   1      46.445  17.617   5.363  1.00  0.00    +0.000 H 
ATOM      5  C3  UNL A   1      46.635  18.666   5.269  1.00  0.00    +0.000 C 
BRANCH    5    6
ATOM    102  H7  UNL A   1      47.019  19.510   3.398  1.00  0.00    +0.000 H 
ATOM    101  H6  UNL A   1      45.819  18.171   3.379  1.00  0.00    +0.000 H 
ATOM      6  C4  UNL A   1      46.170  19.057   3.865  1.00  0.00    +0.000 C 
BRANCH    6    7
ATOM    103  H8  UNL A   1      45.370  20.956   4.358  1.00  0.00    +0.000 H 
ATOM      7  C5  UNL A   1      45.053  20.104   3.792  1.00  0.00    +0.000 C 
ATOM    104  H9  UNL A   1      44.182  19.613   4.173  1.00  0.00    +0.000 H 
BRANCH    7    8
ATOM    105  H10 UNL A   1      45.506  20.465   1.750  1.00  0.00    +0.000 H 
ATOM    106  H11 UNL A   1      44.361  21.616   2.518  1.00  0.00    +0.000 H 
ATOM      8  C6  UNL A   1      44.660  20.596   2.393  1.00  0.00    +0.000 C 
BRANCH    8    9
ATOM      9  C7  UNL A   1      43.468  19.892   1.749  1.00  0.00    +0.000 C 
ATOM    107  H12 UNL A   1      42.950  19.338   2.503  1.00  0.00    +0.000 H 
ATOM    108  H13 UNL A   1      43.852  19.254   0.979  1.00  0.00    +0.000 H 
BRANCH    9   10
ATOM     10  N2  UNL A   1      42.539  20.807   1.128  1.00  0.00    +0.000 N 
ATOM    109  H14 UNL A   1      42.490  21.705   1.529  1.00  0.00    +0.000 H 
BRANCH   10   11
ATOM     11  C8  UNL A   1      41.720  20.590   0.059  1.00  0.00    +0.000 C 
ATOM     12  O2  UNL A   1      42.012  19.663  -0.699  1.00  0.00    +0.000 O 
BRANCH   11   13
ATOM     13  C9  UNL A   1      40.502  21.514  -0.165  1.00  0.00    +0.000 C 
ATOM     14  C10 UNL A   1      39.459  20.881  -1.076  1.00  0.00    +0.000 C 
ATOM    110  H15 UNL A   1      40.891  22.394  -0.636  1.00  0.00    +0.000 H 
ATOM    111  H16 UNL A   1      39.695  19.852  -1.249  1.00  0.00    +0.000 H 
ATOM     15  C11 UNL A   1      38.119  21.002  -0.348  1.00  0.00    +0.000 C 
ATOM    112  H17 UNL A   1      39.429  21.367  -2.029  1.00  0.00    +0.000 H 
ATOM    118  H23 UNL A   1      37.770  21.983   1.452  1.00  0.00    +0.000 H 
ATOM     24  C18 UNL A   1      38.541  21.324   1.112  1.00  0.00    +0.000 C 
ATOM     32  O4  UNL A   1      39.872  21.874   1.065  1.00  0.00    +0.000 O 
BRANCH   15   16
ATOM    113  H18 UNL A   1      37.005  19.557   0.449  1.00  0.00    +0.000 H 
ATOM     16  O3  UNL A   1      37.478  19.708  -0.384  1.00  0.00    +0.000 O 
ENDBRANCH   15   16
BRANCH   15   17
ATOM     17  C12 UNL A   1      37.191  21.934  -1.155  1.00  0.00    +0.000 C 
ATOM     18  C13 UNL A   1      36.115  22.507  -0.416  1.00  0.00    +0.000 C 
ATOM     19  C14 UNL A   1      35.204  23.407  -0.971  1.00  0.00    +0.000 C 
ATOM    114  H19 UNL A   1      36.004  22.243   0.576  1.00  0.00    +0.000 H 
ATOM     21  C16 UNL A   1      36.355  23.223  -3.061  1.00  0.00    +0.000 C 
ATOM     22  C17 UNL A   1      37.250  22.280  -2.518  1.00  0.00    +0.000 C 
ATOM     23 Cl1  UNL A   1      38.306  21.572  -3.684  1.00  0.00    +0.000 Cl
ATOM    115  H20 UNL A   1      34.435  23.787  -0.398  1.00  0.00    +0.000 H 
ATOM     20  C15 UNL A   1      35.340  23.788  -2.293  1.00  0.00    +0.000 C 
ATOM    117  H22 UNL A   1      36.452  23.500  -4.050  1.00  0.00    +0.000 H 
ATOM    116  H21 UNL A   1      34.698  24.482  -2.707  1.00  0.00    +0.000 H 
ENDBRANCH   15   17
BRANCH   24   25
ATOM    122  H27 UNL A   1      36.572  18.794   4.521  1.00  0.00    +0.000 H 
ATOM    121  H26 UNL A   1      38.629  17.613   5.022  1.00  0.00    +0.000 H 
ATOM    119  H24 UNL A   1      40.535  19.627   1.873  1.00  0.00    +0.000 H 
ATOM    120  H25 UNL A   1      40.601  18.015   3.671  1.00  0.00    +0.000 H 
ATOM     25  C19 UNL A   1      38.528  20.216   2.165  1.00  0.00    +0.000 C 
ATOM     26  C20 UNL A   1      39.690  19.474   2.445  1.00  0.00    +0.000 C 
ATOM     27  C21 UNL A   1      39.729  18.533   3.479  1.00  0.00    +0.000 C 
ATOM     28  C22 UNL A   1      38.597  18.294   4.247  1.00  0.00    +0.000 C 
ATOM     29  C23 UNL A   1      37.420  18.982   3.966  1.00  0.00    +0.000 C 
ATOM     30  C24 UNL A   1      37.380  19.929   2.934  1.00  0.00    +0.000 C 
ATOM     31 Cl2  UNL A   1      35.850  20.692   2.661  1.00  0.00    +0.000 Cl
ENDBRANCH   24   25
ENDBRANCH   11   13
ENDBRANCH   10   11
ENDBRANCH    9   10
ENDBRANCH    8    9
ENDBRANCH    7    8
ENDBRANCH    6    7
ENDBRANCH    5    6
ENDBRANCH    4    5
ENDBRANCH    3    4
ENDBRANCH    2    3
ENDBRANCH   33    2
ENDBRANCH   37   36
BRANCH   41   42
ATOM     42  C33 UNL A   1      52.492  22.558  17.178  1.00  0.00    +0.000 C 
ATOM     43  C34 UNL A   1      52.401  23.956  17.118  1.00  0.00    +0.000 C 
ATOM     44  F1  UNL A   1      53.186  24.648  16.278  1.00  0.00    +0.000 F 
ATOM     45  C35 UNL A   1      51.507  24.650  17.928  1.00  0.00    +0.000 C 
ATOM     46  F2  UNL A   1      51.448  25.989  17.866  1.00  0.00    +0.000 F 
ATOM     47  C36 UNL A   1      50.673  23.961  18.797  1.00  0.00    +0.000 C 
ATOM     48  F3  UNL A   1      49.798  24.630  19.562  1.00  0.00    +0.000 F 
ATOM     49  C37 UNL A   1      50.746  22.579  18.872  1.00  0.00    +0.000 C 
ATOM     50  F4  UNL A   1      49.932  21.910  19.702  1.00  0.00    +0.000 F 
ATOM     51  C38 UNL A   1      51.654  21.884  18.079  1.00  0.00    +0.000 C 
ATOM     52  F5  UNL A   1      51.698  20.545  18.170  1.00  0.00    +0.000 F 
ENDBRANCH   41   42
BRANCH   58   59
ATOM     65  F8  UNL A   1      62.352  19.523  19.819  1.00  0.00    +0.000 F 
ATOM     66  C48 UNL A   1      61.021  20.808  18.350  1.00  0.00    +0.000 C 
ATOM     67  F9  UNL A   1      61.781  21.887  18.584  1.00  0.00    +0.000 F 
ATOM     68  C49 UNL A   1      59.931  20.901  17.490  1.00  0.00    +0.000 C 
ATOM     69  F10 UNL A   1      59.658  22.083  16.916  1.00  0.00    +0.000 F 
ATOM     59  C44 UNL A   1      59.131  19.782  17.217  1.00  0.00    +0.000 C 
ATOM     60  C45 UNL A   1      59.461  18.568  17.840  1.00  0.00    +0.000 C 
ATOM     61  F6  UNL A   1      58.713  17.475  17.625  1.00  0.00    +0.000 F 
ATOM     62  C46 UNL A   1      60.534  18.486  18.722  1.00  0.00    +0.000 C 
ATOM     63  F7  UNL A   1      60.801  17.330  19.344  1.00  0.00    +0.000 F 
ATOM     64  C47 UNL A   1      61.317  19.604  18.971  1.00  0.00    +0.000 C 
ENDBRANCH   58   59
BRANCH   73   74
ATOM     74  C53 UNL A   1      58.287  17.745  10.619  1.00  0.00    +0.000 C 
ATOM     75  C54 UNL A   1      58.258  16.356  10.445  1.00  0.00    +0.000 C 
ATOM     76  F11 UNL A   1      57.435  15.604  11.191  1.00  0.00    +0.000 F 
ATOM     77  C55 UNL A   1      59.105  15.729   9.532  1.00  0.00    +0.000 C 
ATOM     78  F12 UNL A   1      59.091  14.394   9.419  1.00  0.00    +0.000 F 
ATOM     79  C56 UNL A   1      59.971  16.481   8.755  1.00  0.00    +0.000 C 
ATOM     80  F13 UNL A   1      60.782  15.878   7.875  1.00  0.00    +0.000 F 
ATOM     81  C57 UNL A   1      60.003  17.861   8.896  1.00  0.00    +0.000 C 
ATOM     82  F14 UNL A   1      60.827  18.594   8.135  1.00  0.00    +0.000 F 
ATOM     83  C58 UNL A   1      59.180  18.485   9.830  1.00  0.00    +0.000 C 
ATOM     84  F15 UNL A   1      59.242  19.819   9.956  1.00  0.00    +0.000 F 
ENDBRANCH   73   74
TORSDOF 18
ENDMDL
MODEL 10
REMARK VINA RESULT:     -11.3     36.692     41.152
ROOT
ATOM    129  H34 UNL A   1      12.042  52.583   7.022  1.00  0.00    +0.000 H 
ATOM    130  H35 UNL A   1      14.434  51.632   3.757  1.00  0.00    +0.000 H 
ATOM    131  H36 UNL A   1      13.540  46.785   2.782  1.00  0.00    +0.000 H 
ATOM    132  H37 UNL A   1      15.225  47.000   0.867  1.00  0.00    +0.000 H 
ATOM    133  H38 UNL A   1      16.366  56.800   2.830  1.00  0.00    +0.000 H 
ATOM    134  H39 UNL A   1      14.883  56.554   4.905  1.00  0.00    +0.000 H 
ATOM     37  C29 UNL A   1      13.840  53.920   5.264  1.00  0.00    +0.000 C 
ATOM     38  C30 UNL A   1      14.783  54.402   4.201  1.00  0.00    +0.000 C 
ATOM     39  N3  UNL A   1      15.332  53.726   3.222  1.00  0.00    +0.000 N 
ATOM     40  C31 UNL A   1      16.100  54.637   2.511  1.00  0.00    +0.000 C 
ATOM     41  C32 UNL A   1      16.874  54.414   1.422  1.00  0.00    +0.000 C 
ATOM     53  C39 UNL A   1      17.051  53.127   0.800  1.00  0.00    +0.000 C 
ATOM     54  C40 UNL A   1      17.869  52.789  -0.266  1.00  0.00    +0.000 C 
ATOM     55  C41 UNL A   1      17.672  51.436  -0.561  1.00  0.00    +0.000 C 
ATOM     56  C42 UNL A   1      16.764  50.919   0.349  1.00  0.00    +0.000 C 
ATOM     57  N4  UNL A   1      16.394  51.966   1.180  1.00  0.00    +0.000 N 
ATOM     58  C43 UNL A   1      16.265  49.572   0.449  1.00  0.00    +0.000 C 
ATOM     70  C50 UNL A   1      15.419  49.125   1.408  1.00  0.00    +0.000 C 
ATOM     71  N5  UNL A   1      14.845  49.824   2.458  1.00  0.00    +0.000 N 
ATOM     72  C51 UNL A   1      14.079  48.965   3.085  1.00  0.00    +0.000 C 
ATOM     73  C52 UNL A   1      13.222  49.174   4.300  1.00  0.00    +0.000 C 
ATOM     85  C59 UNL A   1      13.180  50.392   4.867  1.00  0.00    +0.000 C 
ATOM     86  C60 UNL A   1      12.389  50.744   6.039  1.00  0.00    +0.000 C 
ATOM     87  C61 UNL A   1      12.521  52.057   6.273  1.00  0.00    +0.000 C 
ATOM     88  C62 UNL A   1      13.456  52.629   5.300  1.00  0.00    +0.000 C 
ATOM     89  N6  UNL A   1      13.802  51.564   4.509  1.00  0.00    +0.000 N 
ATOM     90  C63 UNL A   1      14.073  47.620   2.495  1.00  0.00    +0.000 C 
ATOM     91  C64 UNL A   1      14.935  47.762   1.498  1.00  0.00    +0.000 C 
ATOM     92  C65 UNL A   1      15.935  55.923   3.158  1.00  0.00    +0.000 C 
ATOM     93  C66 UNL A   1      15.156  55.824   4.229  1.00  0.00    +0.000 C 
ATOM    125  H30 UNL A   1      18.515  53.427  -0.758  1.00  0.00    +0.000 H 
ATOM    126  H31 UNL A   1      18.124  50.912  -1.326  1.00  0.00    +0.000 H 
ATOM    127  H32 UNL A   1      15.759  51.895   1.929  1.00  0.00    +0.000 H 
ATOM    128  H33 UNL A   1      11.818  50.090   6.597  1.00  0.00    +0.000 H 
ENDROOT
BRANCH   37   36
ATOM     33  C25 UNL A   1      12.255  56.390   8.385  1.00  0.00    +0.000 C 
ATOM     34  C26 UNL A   1      13.411  55.635   8.596  1.00  0.00    +0.000 C 
ATOM     35  C27 UNL A   1      13.969  54.911   7.547  1.00  0.00    +0.000 C 
ATOM     36  C28 UNL A   1      13.313  54.835   6.307  1.00  0.00    +0.000 C 
ATOM    135  H40 UNL A   1      11.614  55.478   5.221  1.00  0.00    +0.000 H 
ATOM    136  H41 UNL A   1      10.729  56.871   7.004  1.00  0.00    +0.000 H 
ATOM    123  H28 UNL A   1      13.851  55.614   9.530  1.00  0.00    +0.000 H 
ATOM    124  H29 UNL A   1      14.871  54.428   7.681  1.00  0.00    +0.000 H 
ATOM     94  C67 UNL A   1      12.115  55.541   6.121  1.00  0.00    +0.000 C 
ATOM     95  C68 UNL A   1      11.597  56.332   7.153  1.00  0.00    +0.000 C 
BRANCH   33    2
ATOM      1  O1  UNL A   1      11.896  58.435   9.474  1.00  0.00    +0.000 O 
ATOM      2  C1  UNL A   1      11.686  57.229   9.466  1.00  0.00    +0.000 C 
BRANCH    2    3
ATOM      3  N1  UNL A   1      10.936  56.648  10.462  1.00  0.00    +0.000 N 
ATOM     96  H1  UNL A   1      11.028  55.673  10.548  1.00  0.00    +0.000 H 
BRANCH    3    4
ATOM     97  H2  UNL A   1       9.152  56.667  11.494  1.00  0.00    +0.000 H 
ATOM     98  H3  UNL A   1       9.793  58.251  11.031  1.00  0.00    +0.000 H 
ATOM      4  C2  UNL A   1      10.027  57.276  11.405  1.00  0.00    +0.000 C 
BRANCH    4    5
ATOM     99  H4  UNL A   1      10.436  58.441  13.121  1.00  0.00    +0.000 H 
ATOM    100  H5  UNL A   1      11.689  57.245  12.670  1.00  0.00    +0.000 H 
ATOM      5  C3  UNL A   1      10.645  57.447  12.785  1.00  0.00    +0.000 C 
BRANCH    5    6
ATOM    102  H7  UNL A   1      10.452  56.882  14.785  1.00  0.00    +0.000 H 
ATOM    101  H6  UNL A   1       9.078  56.389  13.737  1.00  0.00    +0.000 H 
ATOM      6  C4  UNL A   1      10.139  56.472  13.848  1.00  0.00    +0.000 C 
BRANCH    6    7
ATOM    103  H8  UNL A   1      10.418  54.608  12.880  1.00  0.00    +0.000 H 
ATOM      7  C5  UNL A   1      10.727  55.058  13.801  1.00  0.00    +0.000 C 
ATOM    104  H9  UNL A   1      10.360  54.571  14.681  1.00  0.00    +0.000 H 
BRANCH    7    8
ATOM    105  H10 UNL A   1      12.488  54.155  14.569  1.00  0.00    +0.000 H 
ATOM    106  H11 UNL A   1      12.601  55.908  14.193  1.00  0.00    +0.000 H 
ATOM      8  C6  UNL A   1      12.255  54.944  13.884  1.00  0.00    +0.000 C 
BRANCH    8    9
ATOM      9  C7  UNL A   1      12.974  54.648  12.569  1.00  0.00    +0.000 C 
ATOM    107  H12 UNL A   1      13.817  55.301  12.486  1.00  0.00    +0.000 H 
ATOM    108  H13 UNL A   1      12.269  54.804  11.778  1.00  0.00    +0.000 H 
BRANCH    9   10
ATOM     10  N2  UNL A   1      13.436  53.283  12.473  1.00  0.00    +0.000 N 
ATOM    109  H14 UNL A   1      14.205  53.050  13.041  1.00  0.00    +0.000 H 
BRANCH   10   11
ATOM     11  C8  UNL A   1      12.946  52.274  11.697  1.00  0.00    +0.000 C 
ATOM     12  O2  UNL A   1      12.319  52.591  10.684  1.00  0.00    +0.000 O 
BRANCH   11   13
ATOM     13  C9  UNL A   1      13.170  50.807  12.128  1.00  0.00    +0.000 C 
ATOM     14  C10 UNL A   1      12.204  49.851  11.440  1.00  0.00    +0.000 C 
ATOM    110  H15 UNL A   1      12.991  50.787  13.183  1.00  0.00    +0.000 H 
ATOM    111  H16 UNL A   1      11.669  50.359  10.666  1.00  0.00    +0.000 H 
ATOM     15  C11 UNL A   1      13.058  48.729  10.845  1.00  0.00    +0.000 C 
ATOM    112  H17 UNL A   1      11.482  49.466  12.129  1.00  0.00    +0.000 H 
ATOM    118  H23 UNL A   1      15.110  48.478  11.075  1.00  0.00    +0.000 H 
ATOM     24  C18 UNL A   1      14.492  49.327  10.873  1.00  0.00    +0.000 C 
ATOM     32  O4  UNL A   1      14.504  50.372  11.865  1.00  0.00    +0.000 O 
BRANCH   15   16
ATOM    113  H18 UNL A   1      13.406  48.247   8.946  1.00  0.00    +0.000 H 
ATOM     16  O3  UNL A   1      12.647  48.541   9.474  1.00  0.00    +0.000 O 
ENDBRANCH   15   16
BRANCH   15   17
ATOM     17  C12 UNL A   1      12.711  47.403  11.555  1.00  0.00    +0.000 C 
ATOM     18  C13 UNL A   1      12.491  46.292  10.691  1.00  0.00    +0.000 C 
ATOM     19  C14 UNL A   1      12.212  45.007  11.159  1.00  0.00    +0.000 C 
ATOM    114  H19 UNL A   1      12.539  46.444   9.671  1.00  0.00    +0.000 H 
ATOM     21  C16 UNL A   1      12.328  45.839  13.399  1.00  0.00    +0.000 C 
ATOM     22  C17 UNL A   1      12.567  47.147  12.931  1.00  0.00    +0.000 C 
ATOM     23 Cl1  UNL A   1      12.563  48.342  14.176  1.00  0.00    +0.000 Cl
ATOM    115  H20 UNL A   1      12.049  44.235  10.493  1.00  0.00    +0.000 H 
ATOM     20  C15 UNL A   1      12.157  44.773  12.521  1.00  0.00    +0.000 C 
ATOM    117  H22 UNL A   1      12.279  45.668  14.415  1.00  0.00    +0.000 H 
ATOM    116  H21 UNL A   1      11.989  43.821  12.882  1.00  0.00    +0.000 H 
ENDBRANCH   15   17
BRANCH   24   25
ATOM    122  H27 UNL A   1      17.085  49.062   6.986  1.00  0.00    +0.000 H 
ATOM    121  H26 UNL A   1      16.870  51.431   6.517  1.00  0.00    +0.000 H 
ATOM    119  H24 UNL A   1      14.354  51.850   9.848  1.00  0.00    +0.000 H 
ATOM    120  H25 UNL A   1      15.477  52.813   7.938  1.00  0.00    +0.000 H 
ATOM     25  C19 UNL A   1      15.101  49.891   9.589  1.00  0.00    +0.000 C 
ATOM     26  C20 UNL A   1      14.952  51.250   9.258  1.00  0.00    +0.000 C 
ATOM     27  C21 UNL A   1      15.592  51.809   8.148  1.00  0.00    +0.000 C 
ATOM     28  C22 UNL A   1      16.383  51.017   7.326  1.00  0.00    +0.000 C 
ATOM     29  C23 UNL A   1      16.515  49.659   7.604  1.00  0.00    +0.000 C 
ATOM     30  C24 UNL A   1      15.878  49.098   8.719  1.00  0.00    +0.000 C 
ATOM     31 Cl2  UNL A   1      16.091  47.393   8.939  1.00  0.00    +0.000 Cl
ENDBRANCH   24   25
ENDBRANCH   11   13
ENDBRANCH   10   11
ENDBRANCH    9   10
ENDBRANCH    8    9
ENDBRANCH    7    8
ENDBRANCH    6    7
ENDBRANCH    5    6
ENDBRANCH    4    5
ENDBRANCH    3    4
ENDBRANCH    2    3
ENDBRANCH   33    2
ENDBRANCH   37   36
BRANCH   41   42
ATOM     42  C33 UNL A   1      17.592  55.582   0.813  1.00  0.00    +0.000 C 
ATOM     43  C34 UNL A   1      18.885  55.943   1.218  1.00  0.00    +0.000 C 
ATOM     44  F1  UNL A   1      19.474  55.307   2.241  1.00  0.00    +0.000 F 
ATOM     45  C35 UNL A   1      19.575  56.969   0.577  1.00  0.00    +0.000 C 
ATOM     46  F2  UNL A   1      20.804  57.310   0.992  1.00  0.00    +0.000 F 
ATOM     47  C36 UNL A   1      18.996  57.637  -0.493  1.00  0.00    +0.000 C 
ATOM     48  F3  UNL A   1      19.671  58.611  -1.121  1.00  0.00    +0.000 F 
ATOM     49  C37 UNL A   1      17.720  57.295  -0.911  1.00  0.00    +0.000 C 
ATOM     50  F4  UNL A   1      17.164  57.930  -1.953  1.00  0.00    +0.000 F 
ATOM     51  C38 UNL A   1      17.020  56.284  -0.259  1.00  0.00    +0.000 C 
ATOM     52  F5  UNL A   1      15.787  55.971  -0.690  1.00  0.00    +0.000 F 
ENDBRANCH   41   42
BRANCH   58   59
ATOM     65  F8  UNL A   1      18.014  45.813  -3.385  1.00  0.00    +0.000 F 
ATOM     66  C48 UNL A   1      18.384  46.990  -1.370  1.00  0.00    +0.000 C 
ATOM     67  F9  UNL A   1      19.563  46.374  -1.212  1.00  0.00    +0.000 F 
ATOM     68  C49 UNL A   1      17.944  47.904  -0.417  1.00  0.00    +0.000 C 
ATOM     69  F10 UNL A   1      18.715  48.141   0.656  1.00  0.00    +0.000 F 
ATOM     59  C44 UNL A   1      16.722  48.574  -0.570  1.00  0.00    +0.000 C 
ATOM     60  C45 UNL A   1      15.955  48.294  -1.712  1.00  0.00    +0.000 C 
ATOM     61  F6  UNL A   1      14.769  48.894  -1.893  1.00  0.00    +0.000 F 
ATOM     62  C46 UNL A   1      16.384  47.358  -2.649  1.00  0.00    +0.000 C 
ATOM     63  F7  UNL A   1      15.613  47.069  -3.706  1.00  0.00    +0.000 F 
ATOM     64  C47 UNL A   1      17.601  46.712  -2.481  1.00  0.00    +0.000 C 
ENDBRANCH   58   59
BRANCH   73   74
ATOM     74  C53 UNL A   1      12.412  48.065   4.867  1.00  0.00    +0.000 C 
ATOM     75  C54 UNL A   1      11.161  47.736   4.331  1.00  0.00    +0.000 C 
ATOM     76  F11 UNL A   1      10.667  48.440   3.301  1.00  0.00    +0.000 F 
ATOM     77  C55 UNL A   1      10.393  46.709   4.878  1.00  0.00    +0.000 C 
ATOM     78  F12 UNL A   1       9.179  46.446   4.377  1.00  0.00    +0.000 F 
ATOM     79  C56 UNL A   1      10.876  45.972   5.949  1.00  0.00    +0.000 C 
ATOM     80  F13 UNL A   1      10.139  44.983   6.471  1.00  0.00    +0.000 F 
ATOM     81  C57 UNL A   1      12.122  46.267   6.482  1.00  0.00    +0.000 C 
ATOM     82  F14 UNL A   1      12.600  45.547   7.506  1.00  0.00    +0.000 F 
ATOM     83  C58 UNL A   1      12.875  47.313   5.957  1.00  0.00    +0.000 C 
ATOM     84  F15 UNL A   1      14.071  47.586   6.502  1.00  0.00    +0.000 F 
ENDBRANCH   73   74
TORSDOF 18
ENDMDL
