MODEL 1
REMARK VINA RESULT:      -8.5      0.000      0.000
ROOT
ATOM     28  C23 UNL A   1      13.987  53.920   5.006  1.00  0.00    +0.000 C 
ATOM     29  C24 UNL A   1      14.923  54.354   3.913  1.00  0.00    +0.000 C 
ATOM     30  N3  UNL A   1      15.378  53.670   2.893  1.00  0.00    +0.000 N 
ATOM     31  C25 UNL A   1      16.182  54.550   2.178  1.00  0.00    +0.000 C 
ATOM     32  C26 UNL A   1      16.932  54.304   1.078  1.00  0.00    +0.000 C 
ATOM     44  C33 UNL A   1      17.019  53.025   0.423  1.00  0.00    +0.000 C 
ATOM     45  C34 UNL A   1      17.765  52.673  -0.688  1.00  0.00    +0.000 C 
ATOM     46  C35 UNL A   1      17.517  51.326  -0.973  1.00  0.00    +0.000 C 
ATOM     47  C36 UNL A   1      16.647  50.831  -0.015  1.00  0.00    +0.000 C 
ATOM     48  N4  UNL A   1      16.341  51.886   0.828  1.00  0.00    +0.000 N 
ATOM     49  C37 UNL A   1      16.133  49.493   0.120  1.00  0.00    +0.000 C 
ATOM     61  C44 UNL A   1      15.265  49.088   1.078  1.00  0.00    +0.000 C 
ATOM     62  N5  UNL A   1      14.708  49.819   2.118  1.00  0.00    +0.000 N 
ATOM     63  C45 UNL A   1      13.924  48.990   2.761  1.00  0.00    +0.000 C 
ATOM     64  C46 UNL A   1      13.093  49.227   3.995  1.00  0.00    +0.000 C 
ATOM     76  C53 UNL A   1      13.120  50.439   4.581  1.00  0.00    +0.000 C 
ATOM     77  C54 UNL A   1      12.376  50.819   5.778  1.00  0.00    +0.000 C 
ATOM     78  C55 UNL A   1      12.603  52.116   6.041  1.00  0.00    +0.000 C 
ATOM     79  C56 UNL A   1      13.538  52.650   5.049  1.00  0.00    +0.000 C 
ATOM     80  N6  UNL A   1      13.800  51.580   4.230  1.00  0.00    +0.000 N 
ATOM     81  C57 UNL A   1      13.867  47.642   2.175  1.00  0.00    +0.000 C 
ATOM     82  C58 UNL A   1      14.738  47.744   1.181  1.00  0.00    +0.000 C 
ATOM     83  C59 UNL A   1      16.110  55.830   2.849  1.00  0.00    +0.000 C 
ATOM     84  C60 UNL A   1      15.393  55.747   3.960  1.00  0.00    +0.000 C 
ATOM    119  H31 UNL A   1      18.395  53.296  -1.216  1.00  0.00    +0.000 H 
ATOM    120  H32 UNL A   1      17.914  50.793  -1.762  1.00  0.00    +0.000 H 
ATOM    121  H33 UNL A   1      15.732  51.834   1.600  1.00  0.00    +0.000 H 
ATOM    122  H34 UNL A   1      11.773  50.191   6.332  1.00  0.00    +0.000 H 
ATOM    123  H35 UNL A   1      12.184  52.651   6.818  1.00  0.00    +0.000 H 
ATOM    124  H36 UNL A   1      14.417  51.626   3.465  1.00  0.00    +0.000 H 
ATOM    125  H37 UNL A   1      13.299  46.830   2.462  1.00  0.00    +0.000 H 
ATOM    126  H38 UNL A   1      15.007  46.964   0.561  1.00  0.00    +0.000 H 
ATOM    127  H39 UNL A   1      16.559  56.694   2.506  1.00  0.00    +0.000 H 
ATOM    128  H40 UNL A   1      15.211  56.472   4.672  1.00  0.00    +0.000 H 
ENDROOT
BRANCH   28   27
ATOM    129  H41 UNL A   1      11.780  55.439   4.926  1.00  0.00    +0.000 H 
ATOM    130  H42 UNL A   1      11.035  57.112   6.515  1.00  0.00    +0.000 H 
ATOM     27  C22 UNL A   1      13.515  54.902   6.014  1.00  0.00    +0.000 C 
ATOM    117  H29 UNL A   1      14.288  56.194   9.021  1.00  0.00    +0.000 H 
ATOM     86  C62 UNL A   1      11.874  56.546   6.716  1.00  0.00    +0.000 C 
ATOM     85  C61 UNL A   1      12.325  55.611   5.787  1.00  0.00    +0.000 C 
ATOM     24  C19 UNL A   1      12.560  56.714   7.923  1.00  0.00    +0.000 C 
ATOM     25  C20 UNL A   1      13.762  56.036   8.148  1.00  0.00    +0.000 C 
ATOM     26  C21 UNL A   1      14.245  55.145   7.189  1.00  0.00    +0.000 C 
ATOM    118  H30 UNL A   1      15.142  54.661   7.343  1.00  0.00    +0.000 H 
BRANCH   24   22
ATOM     22  C18 UNL A   1      12.046  57.615   8.976  1.00  0.00    +0.000 C 
ATOM     23  O2  UNL A   1      12.370  58.800   8.977  1.00  0.00    +0.000 O 
BRANCH   22   21
ATOM    116  H28 UNL A   1      10.909  57.783  10.615  1.00  0.00    +0.000 H 
ATOM     21  N2  UNL A   1      11.236  57.120   9.965  1.00  0.00    +0.000 N 
BRANCH   21   20
ATOM    114  H26 UNL A   1       9.738  55.767  10.387  1.00  0.00    +0.000 H 
ATOM    115  H27 UNL A   1      11.021  55.190   9.312  1.00  0.00    +0.000 H 
ATOM     20  C17 UNL A   1      10.790  55.756  10.191  1.00  0.00    +0.000 C 
BRANCH   20   19
ATOM    113  H25 UNL A   1      10.821  54.355  11.744  1.00  0.00    +0.000 H 
ATOM     19  C16 UNL A   1      11.500  55.091  11.366  1.00  0.00    +0.000 C 
ATOM    112  H24 UNL A   1      11.745  55.851  12.077  1.00  0.00    +0.000 H 
BRANCH   19   18
ATOM     18  C15 UNL A   1      12.785  54.341  11.011  1.00  0.00    +0.000 C 
ATOM    110  H22 UNL A   1      13.360  54.964  10.357  1.00  0.00    +0.000 H 
ATOM    111  H23 UNL A   1      13.269  54.131  11.941  1.00  0.00    +0.000 H 
BRANCH   18   17
ATOM     17  C14 UNL A   1      12.591  52.986  10.322  1.00  0.00    +0.000 C 
ATOM    108  H20 UNL A   1      11.604  52.639  10.550  1.00  0.00    +0.000 H 
ATOM    109  H21 UNL A   1      12.756  53.160   9.279  1.00  0.00    +0.000 H 
BRANCH   17   16
ATOM    106  H18 UNL A   1      13.473  51.717  11.781  1.00  0.00    +0.000 H 
ATOM    107  H19 UNL A   1      13.347  51.031  10.139  1.00  0.00    +0.000 H 
ATOM     16  C13 UNL A   1      13.582  51.891  10.731  1.00  0.00    +0.000 C 
BRANCH   16   15
ATOM    105  H17 UNL A   1      15.655  51.522  10.976  1.00  0.00    +0.000 H 
ATOM     15  C12 UNL A   1      15.042  52.226  10.452  1.00  0.00    +0.000 C 
ATOM    104  H16 UNL A   1      15.240  53.224  10.785  1.00  0.00    +0.000 H 
BRANCH   15   14
ATOM     14  N1  UNL A   1      15.348  52.133   9.035  1.00  0.00    +0.000 N 
ATOM    103  H15 UNL A   1      14.950  52.834   8.469  1.00  0.00    +0.000 H 
BRANCH   14   12
ATOM     12  C11 UNL A   1      16.110  51.210   8.376  1.00  0.00    +0.000 C 
ATOM     13  O1  UNL A   1      17.333  51.273   8.532  1.00  0.00    +0.000 O 
BRANCH   12    9
ATOM      9  C9  UNL A   1      15.483  50.112   7.524  1.00  0.00    +0.000 C 
ATOM    100  H12 UNL A   1      14.699  50.508   6.914  1.00  0.00    +0.000 H 
BRANCH    9    8
ATOM     98  H10 UNL A   1      11.484  48.354   9.187  1.00  0.00    +0.000 H 
ATOM     99  H11 UNL A   1      12.785  50.032   8.039  1.00  0.00    +0.000 H 
ATOM    132  H44 UNL A   1      14.957  46.071   9.777  1.00  0.00    +0.000 H 
ATOM      5  C5  UNL A   1      13.108  47.061   9.554  1.00  0.00    +0.000 C 
ATOM      6  C6  UNL A   1      12.500  48.220   9.070  1.00  0.00    +0.000 C 
ATOM      7  C7  UNL A   1      13.259  49.202   8.427  1.00  0.00    +0.000 C 
ATOM    131  H43 UNL A   1      16.271  47.788   8.701  1.00  0.00    +0.000 H 
ATOM      8  C8  UNL A   1      14.655  49.085   8.297  1.00  0.00    +0.000 C 
ATOM     87  C63 UNL A   1      15.252  47.915   8.795  1.00  0.00    +0.000 C 
ATOM     88  C64 UNL A   1      14.491  46.919   9.417  1.00  0.00    +0.000 C 
BRANCH    5    4
ATOM     97  H9  UNL A   1      12.687  45.019   9.787  1.00  0.00    +0.000 H 
ATOM      4  C4  UNL A   1      12.270  45.944  10.126  1.00  0.00    +0.000 C 
ATOM     96  H8  UNL A   1      11.260  46.067   9.791  1.00  0.00    +0.000 H 
BRANCH    4    2
ATOM      2  C2  UNL A   1      12.280  45.923  11.669  1.00  0.00    +0.000 C 
ATOM     92  H4  UNL A   1      13.184  46.399  11.987  1.00  0.00    +0.000 H 
BRANCH    2    1
ATOM      1  C1  UNL A   1      11.107  46.707  12.265  1.00  0.00    +0.000 C 
ATOM     90  H2  UNL A   1      10.459  47.034  11.477  1.00  0.00    +0.000 H 
ATOM     91  H3  UNL A   1      11.480  47.558  12.796  1.00  0.00    +0.000 H 
ATOM     89  H1  UNL A   1      10.562  46.078  12.937  1.00  0.00    +0.000 H 
ENDBRANCH    2    1
BRANCH    2    3
ATOM      3  C3  UNL A   1      12.249  44.480  12.175  1.00  0.00    +0.000 C 
ATOM     93  H5  UNL A   1      11.239  44.123  12.172  1.00  0.00    +0.000 H 
ATOM     94  H6  UNL A   1      12.637  44.443  13.171  1.00  0.00    +0.000 H 
ATOM     95  H7  UNL A   1      12.847  43.865  11.536  1.00  0.00    +0.000 H 
ENDBRANCH    2    3
ENDBRANCH    4    2
ENDBRANCH    5    4
ENDBRANCH    9    8
BRANCH    9   10
ATOM     10  C10 UNL A   1      16.577  49.583   6.589  1.00  0.00    +0.000 C 
ATOM     11  F1  UNL A   1      16.122  49.501   5.310  1.00  0.00    +0.000 F 
ATOM    101  H13 UNL A   1      16.878  48.610   6.918  1.00  0.00    +0.000 H 
ATOM    102  H14 UNL A   1      17.406  50.259   6.617  1.00  0.00    +0.000 H 
ENDBRANCH    9   10
ENDBRANCH   12    9
ENDBRANCH   14   12
ENDBRANCH   15   14
ENDBRANCH   16   15
ENDBRANCH   17   16
ENDBRANCH   18   17
ENDBRANCH   19   18
ENDBRANCH   20   19
ENDBRANCH   21   20
ENDBRANCH   22   21
ENDBRANCH   24   22
ENDBRANCH   28   27
BRANCH   32   33
ATOM     33  C27 UNL A   1      17.740  55.438   0.520  1.00  0.00    +0.000 C 
ATOM     34  C28 UNL A   1      17.239  56.254  -0.504  1.00  0.00    +0.000 C 
ATOM     35  F2  UNL A   1      16.044  55.989  -1.054  1.00  0.00    +0.000 F 
ATOM     36  C29 UNL A   1      17.976  57.331  -0.988  1.00  0.00    +0.000 C 
ATOM     37  F3  UNL A   1      17.492  58.076  -1.991  1.00  0.00    +0.000 F 
ATOM     38  C30 UNL A   1      19.214  57.630  -0.437  1.00  0.00    +0.000 C 
ATOM     39  F4  UNL A   1      19.916  58.676  -0.895  1.00  0.00    +0.000 F 
ATOM     40  C31 UNL A   1      19.725  56.843   0.585  1.00  0.00    +0.000 C 
ATOM     41  F5  UNL A   1      20.914  57.138   1.124  1.00  0.00    +0.000 F 
ATOM     42  C32 UNL A   1      19.000  55.750   1.053  1.00  0.00    +0.000 C 
ATOM     43  F6  UNL A   1      19.523  55.003   2.036  1.00  0.00    +0.000 F 
ENDBRANCH   32   33
BRANCH   49   50
ATOM     50  C38 UNL A   1      16.606  48.461  -0.860  1.00  0.00    +0.000 C 
ATOM     51  C39 UNL A   1      17.823  47.786  -0.688  1.00  0.00    +0.000 C 
ATOM     52  F7  UNL A   1      18.622  48.089   0.346  1.00  0.00    +0.000 F 
ATOM     53  C40 UNL A   1      18.240  46.822  -1.601  1.00  0.00    +0.000 C 
ATOM     54  F8  UNL A   1      19.427  46.222  -1.442  1.00  0.00    +0.000 F 
ATOM     55  C41 UNL A   1      17.436  46.493  -2.682  1.00  0.00    +0.000 C 
ATOM     56  F9  UNL A   1      17.837  45.561  -3.559  1.00  0.00    +0.000 F 
ATOM     57  C42 UNL A   1      16.220  47.135  -2.861  1.00  0.00    +0.000 C 
ATOM     58  F10 UNL A   1      15.437  46.810  -3.900  1.00  0.00    +0.000 F 
ATOM     59  C43 UNL A   1      15.812  48.119  -1.965  1.00  0.00    +0.000 C 
ATOM     60  F11 UNL A   1      14.637  48.732  -2.170  1.00  0.00    +0.000 F 
ENDBRANCH   49   50
BRANCH   64   65
ATOM     65  C47 UNL A   1      12.269  48.132   4.570  1.00  0.00    +0.000 C 
ATOM     66  C48 UNL A   1      10.900  48.036   4.282  1.00  0.00    +0.000 C 
ATOM     67  F12 UNL A   1      10.324  48.932   3.468  1.00  0.00    +0.000 F 
ATOM     68  C49 UNL A   1      10.107  47.056   4.874  1.00  0.00    +0.000 C 
ATOM     69  F13 UNL A   1       8.790  47.025   4.627  1.00  0.00    +0.000 F 
ATOM     70  C50 UNL A   1      10.673  46.130   5.736  1.00  0.00    +0.000 C 
ATOM     71  F14 UNL A   1       9.908  45.192   6.311  1.00  0.00    +0.000 F 
ATOM     72  C51 UNL A   1      12.031  46.186   6.013  1.00  0.00    +0.000 C 
ATOM     73  F15 UNL A   1      12.584  45.286   6.836  1.00  0.00    +0.000 F 
ATOM     74  C52 UNL A   1      12.820  47.184   5.445  1.00  0.00    +0.000 C 
ATOM     75  F16 UNL A   1      14.125  47.228   5.749  1.00  0.00    +0.000 F 
ENDBRANCH   64   65
TORSDOF 21
ENDMDL
MODEL 2
REMARK VINA RESULT:      -8.4     42.391     50.537
ROOT
ATOM     28  C23 UNL A   1      10.744   2.865  21.481  1.00  0.00    +0.000 C 
ATOM     29  C24 UNL A   1       9.806   3.801  22.190  1.00  0.00    +0.000 C 
ATOM     30  N3  UNL A   1       9.356   4.970  21.807  1.00  0.00    +0.000 N 
ATOM     31  C25 UNL A   1       8.503   5.395  22.816  1.00  0.00    +0.000 C 
ATOM     32  C26 UNL A   1       7.840   6.571  22.922  1.00  0.00    +0.000 C 
ATOM     44  C33 UNL A   1       7.904   7.630  21.950  1.00  0.00    +0.000 C 
ATOM     45  C34 UNL A   1       7.282   8.866  21.976  1.00  0.00    +0.000 C 
ATOM     46  C35 UNL A   1       7.623   9.553  20.806  1.00  0.00    +0.000 C 
ATOM     47  C36 UNL A   1       8.488   8.760  20.071  1.00  0.00    +0.000 C 
ATOM     48  N4  UNL A   1       8.643   7.579  20.778  1.00  0.00    +0.000 N 
ATOM     49  C37 UNL A   1       9.125   9.057  18.815  1.00  0.00    +0.000 C 
ATOM     61  C44 UNL A   1       9.949   8.216  18.144  1.00  0.00    +0.000 C 
ATOM     62  N5  UNL A   1      10.372   6.942  18.496  1.00  0.00    +0.000 N 
ATOM     63  C45 UNL A   1      11.145   6.537  17.518  1.00  0.00    +0.000 C 
ATOM     64  C46 UNL A   1      11.908   5.246  17.380  1.00  0.00    +0.000 C 
ATOM     76  C53 UNL A   1      11.841   4.335  18.369  1.00  0.00    +0.000 C 
ATOM     77  C54 UNL A   1      12.524   3.045  18.382  1.00  0.00    +0.000 C 
ATOM     78  C55 UNL A   1      12.184   2.381  19.498  1.00  0.00    +0.000 C 
ATOM     79  C56 UNL A   1      11.285   3.215  20.298  1.00  0.00    +0.000 C 
ATOM     80  N6  UNL A   1      11.148   4.361  19.556  1.00  0.00    +0.000 N 
ATOM     81  C57 UNL A   1      11.269   7.500  16.414  1.00  0.00    +0.000 C 
ATOM     82  C58 UNL A   1      10.560   8.523  16.868  1.00  0.00    +0.000 C 
ATOM     83  C59 UNL A   1       8.454   4.339  23.804  1.00  0.00    +0.000 C 
ATOM     84  C60 UNL A   1       9.289   3.357  23.494  1.00  0.00    +0.000 C 
ATOM    119  H31 UNL A   1       6.672   9.220  22.729  1.00  0.00    +0.000 H 
ATOM    120  H32 UNL A   1       7.286  10.491  20.537  1.00  0.00    +0.000 H 
ATOM    121  H33 UNL A   1       9.196   6.817  20.490  1.00  0.00    +0.000 H 
ATOM    122  H34 UNL A   1      13.165   2.700  17.650  1.00  0.00    +0.000 H 
ATOM    123  H35 UNL A   1      12.504   1.433  19.751  1.00  0.00    +0.000 H 
ATOM    124  H36 UNL A   1      10.605   5.129  19.845  1.00  0.00    +0.000 H 
ATOM    125  H37 UNL A   1      11.776   7.406  15.521  1.00  0.00    +0.000 H 
ATOM    126  H38 UNL A   1      10.456   9.424  16.375  1.00  0.00    +0.000 H 
ATOM    127  H39 UNL A   1       7.849   4.348  24.640  1.00  0.00    +0.000 H 
ATOM    128  H40 UNL A   1       9.515   2.503  24.027  1.00  0.00    +0.000 H 
ENDROOT
BRANCH   28   27
ATOM    129  H41 UNL A   1      12.789   2.162  23.066  1.00  0.00    +0.000 H 
ATOM    130  H42 UNL A   1      13.339  -0.028  23.948  1.00  0.00    +0.000 H 
ATOM     27  C22 UNL A   1      11.039   1.529  22.059  1.00  0.00    +0.000 C 
ATOM    117  H29 UNL A   1       9.846  -1.611  22.216  1.00  0.00    +0.000 H 
ATOM     86  C62 UNL A   1      12.470   0.108  23.408  1.00  0.00    +0.000 C 
ATOM     85  C61 UNL A   1      12.172   1.358  22.869  1.00  0.00    +0.000 C 
ATOM     24  C19 UNL A   1      11.588  -0.960  23.217  1.00  0.00    +0.000 C 
ATOM     25  C20 UNL A   1      10.472  -0.810  22.389  1.00  0.00    +0.000 C 
ATOM     26  C21 UNL A   1      10.208   0.427  21.799  1.00  0.00    +0.000 C 
ATOM    118  H30 UNL A   1       9.398   0.533  21.170  1.00  0.00    +0.000 H 
BRANCH   24   22
ATOM     22  C18 UNL A   1      11.817  -2.267  23.869  1.00  0.00    +0.000 C 
ATOM     23  O2  UNL A   1      12.068  -3.254  23.182  1.00  0.00    +0.000 O 
BRANCH   22   21
ATOM    116  H28 UNL A   1      10.809  -2.509  25.581  1.00  0.00    +0.000 H 
ATOM     21  N2  UNL A   1      11.720  -2.379  25.232  1.00  0.00    +0.000 N 
BRANCH   21   20
ATOM    114  H26 UNL A   1      12.466  -2.921  27.076  1.00  0.00    +0.000 H 
ATOM    115  H27 UNL A   1      13.662  -2.720  25.786  1.00  0.00    +0.000 H 
ATOM     20  C17 UNL A   1      12.770  -2.334  26.234  1.00  0.00    +0.000 C 
BRANCH   20   19
ATOM    113  H25 UNL A   1      13.023  -0.947  27.778  1.00  0.00    +0.000 H 
ATOM     19  C16 UNL A   1      13.069  -0.916  26.710  1.00  0.00    +0.000 C 
ATOM    112  H24 UNL A   1      12.349  -0.261  26.269  1.00  0.00    +0.000 H 
BRANCH   19   18
ATOM     18  C15 UNL A   1      14.464  -0.393  26.360  1.00  0.00    +0.000 C 
ATOM    110  H22 UNL A   1      15.150  -0.772  27.089  1.00  0.00    +0.000 H 
ATOM    111  H23 UNL A   1      14.663  -0.729  25.365  1.00  0.00    +0.000 H 
BRANCH   18   17
ATOM     17  C14 UNL A   1      14.608   1.133  26.325  1.00  0.00    +0.000 C 
ATOM    108  H20 UNL A   1      15.140   1.393  25.434  1.00  0.00    +0.000 H 
ATOM    109  H21 UNL A   1      13.612   1.522  26.362  1.00  0.00    +0.000 H 
BRANCH   17   16
ATOM    106  H18 UNL A   1      14.867   1.426  28.415  1.00  0.00    +0.000 H 
ATOM    107  H19 UNL A   1      16.365   1.425  27.446  1.00  0.00    +0.000 H 
ATOM     16  C13 UNL A   1      15.348   1.752  27.516  1.00  0.00    +0.000 C 
BRANCH   16   15
ATOM    105  H17 UNL A   1      14.571   3.628  26.908  1.00  0.00    +0.000 H 
ATOM     15  C12 UNL A   1      15.378   3.275  27.517  1.00  0.00    +0.000 C 
ATOM    104  H16 UNL A   1      16.319   3.606  27.128  1.00  0.00    +0.000 H 
BRANCH   15   14
ATOM     14  N1  UNL A   1      15.207   3.809  28.857  1.00  0.00    +0.000 N 
ATOM    103  H15 UNL A   1      15.961   4.340  29.200  1.00  0.00    +0.000 H 
BRANCH   14   12
ATOM     12  C11 UNL A   1      14.146   3.679  29.708  1.00  0.00    +0.000 C 
ATOM     13  O1  UNL A   1      14.267   2.881  30.642  1.00  0.00    +0.000 O 
BRANCH   12    9
ATOM      9  C9  UNL A   1      12.883   4.519  29.551  1.00  0.00    +0.000 C 
ATOM    100  H12 UNL A   1      12.368   4.604  30.485  1.00  0.00    +0.000 H 
BRANCH    9    8
ATOM     98  H10 UNL A   1      11.187   1.395  26.515  1.00  0.00    +0.000 H 
ATOM     99  H11 UNL A   1      12.982   2.483  27.708  1.00  0.00    +0.000 H 
ATOM    132  H44 UNL A   1       8.401   3.835  28.491  1.00  0.00    +0.000 H 
ATOM      5  C5  UNL A   1       9.643   2.507  27.424  1.00  0.00    +0.000 C 
ATOM      6  C6  UNL A   1      10.971   2.145  27.190  1.00  0.00    +0.000 C 
ATOM      7  C7  UNL A   1      12.010   2.793  27.863  1.00  0.00    +0.000 C 
ATOM    131  H43 UNL A   1      10.202   4.980  29.623  1.00  0.00    +0.000 H 
ATOM      8  C8  UNL A   1      11.762   3.859  28.747  1.00  0.00    +0.000 C 
ATOM     87  C63 UNL A   1      10.421   4.214  28.967  1.00  0.00    +0.000 C 
ATOM     88  C64 UNL A   1       9.378   3.551  28.313  1.00  0.00    +0.000 C 
BRANCH    5    4
ATOM     97  H9  UNL A   1       8.089   2.322  26.027  1.00  0.00    +0.000 H 
ATOM      4  C4  UNL A   1       8.519   1.718  26.799  1.00  0.00    +0.000 C 
ATOM     96  H8  UNL A   1       7.803   1.481  27.559  1.00  0.00    +0.000 H 
BRANCH    4    2
ATOM      2  C2  UNL A   1       9.003   0.404  26.150  1.00  0.00    +0.000 C 
ATOM     92  H4  UNL A   1      10.014   0.558  25.837  1.00  0.00    +0.000 H 
BRANCH    2    1
ATOM      1  C1  UNL A   1       8.995  -0.766  27.138  1.00  0.00    +0.000 C 
ATOM     90  H2  UNL A   1       8.276  -0.577  27.909  1.00  0.00    +0.000 H 
ATOM     91  H3  UNL A   1       9.967  -0.870  27.575  1.00  0.00    +0.000 H 
ATOM     89  H1  UNL A   1       8.737  -1.667  26.623  1.00  0.00    +0.000 H 
ENDBRANCH    2    1
BRANCH    2    3
ATOM      3  C3  UNL A   1       8.133   0.065  24.939  1.00  0.00    +0.000 C 
ATOM     93  H5  UNL A   1       8.673   0.280  24.040  1.00  0.00    +0.000 H 
ATOM     94  H6  UNL A   1       7.239   0.651  24.966  1.00  0.00    +0.000 H 
ATOM     95  H7  UNL A   1       7.879  -0.974  24.962  1.00  0.00    +0.000 H 
ENDBRANCH    2    3
ENDBRANCH    4    2
ENDBRANCH    5    4
ENDBRANCH    9    8
BRANCH    9   10
ATOM     10  C10 UNL A   1      13.323   5.926  29.133  1.00  0.00    +0.000 C 
ATOM     11  F1  UNL A   1      13.094   6.130  27.808  1.00  0.00    +0.000 F 
ATOM    101  H13 UNL A   1      14.370   6.038  29.330  1.00  0.00    +0.000 H 
ATOM    102  H14 UNL A   1      12.760   6.642  29.694  1.00  0.00    +0.000 H 
ENDBRANCH    9   10
ENDBRANCH   12    9
ENDBRANCH   14   12
ENDBRANCH   15   14
ENDBRANCH   16   15
ENDBRANCH   17   16
ENDBRANCH   18   17
ENDBRANCH   19   18
ENDBRANCH   20   19
ENDBRANCH   21   20
ENDBRANCH   22   21
ENDBRANCH   24   22
ENDBRANCH   28   27
BRANCH   32   33
ATOM     33  C27 UNL A   1       7.001   6.788  24.147  1.00  0.00    +0.000 C 
ATOM     34  C28 UNL A   1       5.718   6.233  24.258  1.00  0.00    +0.000 C 
ATOM     35  F2  UNL A   1       5.189   5.549  23.232  1.00  0.00    +0.000 F 
ATOM     36  C29 UNL A   1       4.961   6.403  25.413  1.00  0.00    +0.000 C 
ATOM     37  F3  UNL A   1       3.724   5.892  25.484  1.00  0.00    +0.000 F 
ATOM     38  C30 UNL A   1       5.484   7.104  26.490  1.00  0.00    +0.000 C 
ATOM     39  F4  UNL A   1       4.759   7.254  27.608  1.00  0.00    +0.000 F 
ATOM     40  C31 UNL A   1       6.755   7.653  26.407  1.00  0.00    +0.000 C 
ATOM     41  F5  UNL A   1       7.265   8.320  27.451  1.00  0.00    +0.000 F 
ATOM     42  C32 UNL A   1       7.504   7.507  25.242  1.00  0.00    +0.000 C 
ATOM     43  F6  UNL A   1       8.727   8.054  25.188  1.00  0.00    +0.000 F 
ENDBRANCH   32   33
BRANCH   49   50
ATOM     50  C38 UNL A   1       8.878  10.407  18.209  1.00  0.00    +0.000 C 
ATOM     51  C39 UNL A   1       7.797  10.638  17.347  1.00  0.00    +0.000 C 
ATOM     52  F7  UNL A   1       6.979   9.632  17.003  1.00  0.00    +0.000 F 
ATOM     53  C40 UNL A   1       7.576  11.901  16.803  1.00  0.00    +0.000 C 
ATOM     54  F8  UNL A   1       6.564  12.089  15.945  1.00  0.00    +0.000 F 
ATOM     55  C41 UNL A   1       8.409  12.958  17.135  1.00  0.00    +0.000 C 
ATOM     56  F9  UNL A   1       8.192  14.174  16.614  1.00  0.00    +0.000 F 
ATOM     57  C42 UNL A   1       9.473  12.755  18.001  1.00  0.00    +0.000 C 
ATOM     58  F10 UNL A   1      10.273  13.779  18.332  1.00  0.00    +0.000 F 
ATOM     59  C43 UNL A   1       9.714  11.488  18.525  1.00  0.00    +0.000 C 
ATOM     60  F11 UNL A   1      10.758  11.318  19.350  1.00  0.00    +0.000 F 
ENDBRANCH   49   50
BRANCH   64   65
ATOM     65  C47 UNL A   1      12.740   4.989  16.175  1.00  0.00    +0.000 C 
ATOM     66  C48 UNL A   1      14.077   5.408  16.122  1.00  0.00    +0.000 C 
ATOM     67  F12 UNL A   1      14.622   6.036  17.173  1.00  0.00    +0.000 F 
ATOM     68  C49 UNL A   1      14.839   5.234  14.969  1.00  0.00    +0.000 C 
ATOM     69  F13 UNL A   1      16.096   5.698  14.925  1.00  0.00    +0.000 F 
ATOM     70  C50 UNL A   1      14.293   4.606  13.861  1.00  0.00    +0.000 C 
ATOM     71  F14 UNL A   1      15.025   4.446  12.750  1.00  0.00    +0.000 F 
ATOM     72  C51 UNL A   1      12.981   4.156  13.901  1.00  0.00    +0.000 C 
ATOM     73  F15 UNL A   1      12.453   3.538  12.836  1.00  0.00    +0.000 F 
ATOM     74  C52 UNL A   1      12.208   4.356  15.042  1.00  0.00    +0.000 C 
ATOM     75  F16 UNL A   1      10.935   3.931  15.044  1.00  0.00    +0.000 F 
ENDBRANCH   64   65
TORSDOF 21
ENDMDL
MODEL 3
REMARK VINA RESULT:      -8.4     37.117     42.914
ROOT
ATOM     28  C23 UNL A   1      38.234  29.879  29.907  1.00  0.00    +0.000 C 
ATOM     29  C24 UNL A   1      38.458  30.426  31.289  1.00  0.00    +0.000 C 
ATOM     30  N3  UNL A   1      39.481  30.259  32.090  1.00  0.00    +0.000 N 
ATOM     31  C25 UNL A   1      39.193  31.001  33.228  1.00  0.00    +0.000 C 
ATOM     32  C26 UNL A   1      39.909  31.100  34.374  1.00  0.00    +0.000 C 
ATOM     44  C33 UNL A   1      41.158  30.427  34.614  1.00  0.00    +0.000 C 
ATOM     45  C34 UNL A   1      41.949  30.451  35.749  1.00  0.00    +0.000 C 
ATOM     46  C35 UNL A   1      43.077  29.660  35.513  1.00  0.00    +0.000 C 
ATOM     47  C36 UNL A   1      42.969  29.111  34.246  1.00  0.00    +0.000 C 
ATOM     48  N4  UNL A   1      41.793  29.599  33.701  1.00  0.00    +0.000 N 
ATOM     49  C37 UNL A   1      43.873  28.210  33.581  1.00  0.00    +0.000 C 
ATOM     61  C44 UNL A   1      43.706  27.729  32.325  1.00  0.00    +0.000 C 
ATOM     62  N5  UNL A   1      42.670  27.960  31.432  1.00  0.00    +0.000 N 
ATOM     63  C45 UNL A   1      42.971  27.287  30.349  1.00  0.00    +0.000 C 
ATOM     64  C46 UNL A   1      42.190  27.142  29.069  1.00  0.00    +0.000 C 
ATOM     76  C53 UNL A   1      40.999  27.758  28.954  1.00  0.00    +0.000 C 
ATOM     77  C54 UNL A   1      40.128  27.709  27.783  1.00  0.00    +0.000 C 
ATOM     78  C55 UNL A   1      39.053  28.481  28.005  1.00  0.00    +0.000 C 
ATOM     79  C56 UNL A   1      39.141  29.053  29.350  1.00  0.00    +0.000 C 
ATOM     80  N6  UNL A   1      40.323  28.558  29.843  1.00  0.00    +0.000 N 
ATOM     81  C57 UNL A   1      44.258  26.579  30.422  1.00  0.00    +0.000 C 
ATOM     82  C58 UNL A   1      44.640  26.844  31.663  1.00  0.00    +0.000 C 
ATOM     83  C59 UNL A   1      37.928  31.662  32.995  1.00  0.00    +0.000 C 
ATOM     84  C60 UNL A   1      37.403  31.293  31.836  1.00  0.00    +0.000 C 
ATOM    119  H31 UNL A   1      41.742  30.965  36.619  1.00  0.00    +0.000 H 
ATOM    120  H32 UNL A   1      43.858  29.510  36.172  1.00  0.00    +0.000 H 
ATOM    121  H33 UNL A   1      41.458  29.389  32.799  1.00  0.00    +0.000 H 
ATOM    122  H34 UNL A   1      40.310  27.167  26.924  1.00  0.00    +0.000 H 
ATOM    123  H35 UNL A   1      38.286  28.647  27.334  1.00  0.00    +0.000 H 
ATOM    124  H36 UNL A   1      40.654  28.757  30.748  1.00  0.00    +0.000 H 
ATOM    125  H37 UNL A   1      44.738  26.022  29.698  1.00  0.00    +0.000 H 
ATOM    126  H38 UNL A   1      45.495  26.467  32.102  1.00  0.00    +0.000 H 
ATOM    127  H39 UNL A   1      37.491  32.333  33.647  1.00  0.00    +0.000 H 
ATOM    128  H40 UNL A   1      36.491  31.547  31.424  1.00  0.00    +0.000 H 
ENDROOT
BRANCH   28   27
ATOM    129  H41 UNL A   1      36.143  28.370  29.175  1.00  0.00    +0.000 H 
ATOM    130  H42 UNL A   1      34.222  28.993  27.833  1.00  0.00    +0.000 H 
ATOM     27  C22 UNL A   1      37.037  30.288  29.131  1.00  0.00    +0.000 C 
ATOM    117  H29 UNL A   1      35.613  32.961  27.668  1.00  0.00    +0.000 H 
ATOM     86  C62 UNL A   1      34.918  29.706  28.102  1.00  0.00    +0.000 C 
ATOM     85  C61 UNL A   1      36.042  29.342  28.840  1.00  0.00    +0.000 C 
ATOM     24  C19 UNL A   1      34.735  31.040  27.725  1.00  0.00    +0.000 C 
ATOM     25  C20 UNL A   1      35.732  31.985  27.983  1.00  0.00    +0.000 C 
ATOM     26  C21 UNL A   1      36.886  31.606  28.670  1.00  0.00    +0.000 C 
ATOM    118  H30 UNL A   1      37.632  32.297  28.841  1.00  0.00    +0.000 H 
BRANCH   24   22
ATOM     22  C18 UNL A   1      33.501  31.480  27.040  1.00  0.00    +0.000 C 
ATOM     23  O2  UNL A   1      32.928  32.501  27.412  1.00  0.00    +0.000 O 
BRANCH   22   21
ATOM    116  H28 UNL A   1      33.542  30.684  25.204  1.00  0.00    +0.000 H 
ATOM     21  N2  UNL A   1      32.984  30.732  26.013  1.00  0.00    +0.000 N 
BRANCH   21   20
ATOM    114  H26 UNL A   1      30.924  30.703  25.964  1.00  0.00    +0.000 H 
ATOM    115  H27 UNL A   1      31.738  29.425  25.047  1.00  0.00    +0.000 H 
ATOM     20  C17 UNL A   1      31.731  30.001  25.950  1.00  0.00    +0.000 C 
BRANCH   20   19
ATOM    113  H25 UNL A   1      30.613  29.270  27.559  1.00  0.00    +0.000 H 
ATOM     19  C16 UNL A   1      31.556  29.031  27.113  1.00  0.00    +0.000 C 
ATOM    112  H24 UNL A   1      32.386  29.156  27.776  1.00  0.00    +0.000 H 
BRANCH   19   18
ATOM     18  C15 UNL A   1      31.478  27.553  26.724  1.00  0.00    +0.000 C 
ATOM    110  H22 UNL A   1      31.040  27.020  27.542  1.00  0.00    +0.000 H 
ATOM    111  H23 UNL A   1      30.899  27.516  25.826  1.00  0.00    +0.000 H 
BRANCH   18   17
ATOM     17  C14 UNL A   1      32.817  26.887  26.389  1.00  0.00    +0.000 C 
ATOM    108  H20 UNL A   1      33.159  27.285  25.456  1.00  0.00    +0.000 H 
ATOM    109  H21 UNL A   1      33.466  27.101  27.213  1.00  0.00    +0.000 H 
BRANCH   17   16
ATOM    106  H18 UNL A   1      33.301  25.084  25.373  1.00  0.00    +0.000 H 
ATOM    107  H19 UNL A   1      33.237  24.971  27.152  1.00  0.00    +0.000 H 
ATOM     16  C13 UNL A   1      32.780  25.360  26.266  1.00  0.00    +0.000 C 
BRANCH   16   15
ATOM    105  H17 UNL A   1      30.671  25.556  26.352  1.00  0.00    +0.000 H 
ATOM     15  C12 UNL A   1      31.378  24.766  26.202  1.00  0.00    +0.000 C 
ATOM    104  H16 UNL A   1      31.280  24.019  26.962  1.00  0.00    +0.000 H 
BRANCH   15   14
ATOM     14  N1  UNL A   1      31.116  24.159  24.908  1.00  0.00    +0.000 N 
ATOM    103  H15 UNL A   1      31.089  23.175  24.900  1.00  0.00    +0.000 H 
BRANCH   14   12
ATOM     12  C11 UNL A   1      30.903  24.762  23.700  1.00  0.00    +0.000 C 
ATOM     13  O1  UNL A   1      30.141  24.193  22.912  1.00  0.00    +0.000 O 
BRANCH   12    9
ATOM      9  C9  UNL A   1      31.532  26.107  23.352  1.00  0.00    +0.000 C 
ATOM    100  H12 UNL A   1      31.981  26.549  24.215  1.00  0.00    +0.000 H 
BRANCH    9    8
ATOM     98  H10 UNL A   1      27.368  28.214  23.632  1.00  0.00    +0.000 H 
ATOM     99  H11 UNL A   1      28.897  26.398  24.074  1.00  0.00    +0.000 H 
ATOM    132  H44 UNL A   1      30.412  30.274  21.603  1.00  0.00    +0.000 H 
ATOM      5  C5  UNL A   1      28.771  29.406  22.604  1.00  0.00    +0.000 C 
ATOM      6  C6  UNL A   1      28.342  28.271  23.293  1.00  0.00    +0.000 C 
ATOM      7  C7  UNL A   1      29.221  27.210  23.526  1.00  0.00    +0.000 C 
ATOM    131  H43 UNL A   1      31.917  28.422  21.974  1.00  0.00    +0.000 H 
ATOM      8  C8  UNL A   1      30.537  27.224  23.031  1.00  0.00    +0.000 C 
ATOM     87  C63 UNL A   1      30.951  28.371  22.335  1.00  0.00    +0.000 C 
ATOM     88  C64 UNL A   1      30.081  29.444  22.122  1.00  0.00    +0.000 C 
BRANCH    5    4
ATOM     97  H9  UNL A   1      27.542  30.879  23.454  1.00  0.00    +0.000 H 
ATOM      4  C4  UNL A   1      27.862  30.604  22.470  1.00  0.00    +0.000 C 
ATOM     96  H8  UNL A   1      27.035  30.338  21.845  1.00  0.00    +0.000 H 
BRANCH    4    2
ATOM      2  C2  UNL A   1      28.575  31.825  21.853  1.00  0.00    +0.000 C 
ATOM     92  H4  UNL A   1      29.526  31.491  21.495  1.00  0.00    +0.000 H 
BRANCH    2    1
ATOM      1  C1  UNL A   1      27.806  32.402  20.661  1.00  0.00    +0.000 C 
ATOM     90  H2  UNL A   1      26.783  32.554  20.936  1.00  0.00    +0.000 H 
ATOM     91  H3  UNL A   1      27.856  31.717  19.839  1.00  0.00    +0.000 H 
ATOM     89  H1  UNL A   1      28.241  33.336  20.373  1.00  0.00    +0.000 H 
ENDBRANCH    2    1
BRANCH    2    3
ATOM      3  C3  UNL A   1      28.774  32.909  22.914  1.00  0.00    +0.000 C 
ATOM     93  H5  UNL A   1      27.826  33.335  23.170  1.00  0.00    +0.000 H 
ATOM     94  H6  UNL A   1      29.415  33.673  22.527  1.00  0.00    +0.000 H 
ATOM     95  H7  UNL A   1      29.219  32.478  23.786  1.00  0.00    +0.000 H 
ENDBRANCH    2    3
ENDBRANCH    4    2
ENDBRANCH    5    4
ENDBRANCH    9    8
BRANCH    9   10
ATOM     10  C10 UNL A   1      32.647  25.835  22.335  1.00  0.00    +0.000 C 
ATOM     11  F1  UNL A   1      33.808  26.430  22.721  1.00  0.00    +0.000 F 
ATOM    101  H13 UNL A   1      32.353  26.223  21.382  1.00  0.00    +0.000 H 
ATOM    102  H14 UNL A   1      32.805  24.779  22.275  1.00  0.00    +0.000 H 
ENDBRANCH    9   10
ENDBRANCH   12    9
ENDBRANCH   14   12
ENDBRANCH   15   14
ENDBRANCH   16   15
ENDBRANCH   17   16
ENDBRANCH   18   17
ENDBRANCH   19   18
ENDBRANCH   20   19
ENDBRANCH   21   20
ENDBRANCH   22   21
ENDBRANCH   24   22
ENDBRANCH   28   27
BRANCH   32   33
ATOM     33  C27 UNL A   1      39.346  31.954  35.472  1.00  0.00    +0.000 C 
ATOM     34  C28 UNL A   1      38.458  31.428  36.421  1.00  0.00    +0.000 C 
ATOM     35  F2  UNL A   1      38.039  30.157  36.320  1.00  0.00    +0.000 F 
ATOM     36  C29 UNL A   1      37.972  32.214  37.461  1.00  0.00    +0.000 C 
ATOM     37  F3  UNL A   1      37.097  31.699  38.337  1.00  0.00    +0.000 F 
ATOM     38  C30 UNL A   1      38.389  33.530  37.591  1.00  0.00    +0.000 C 
ATOM     39  F4  UNL A   1      37.931  34.282  38.603  1.00  0.00    +0.000 F 
ATOM     40  C31 UNL A   1      39.276  34.069  36.671  1.00  0.00    +0.000 C 
ATOM     41  F5  UNL A   1      39.687  35.337  36.803  1.00  0.00    +0.000 F 
ATOM     42  C32 UNL A   1      39.743  33.293  35.614  1.00  0.00    +0.000 C 
ATOM     43  F6  UNL A   1      40.594  33.843  34.735  1.00  0.00    +0.000 F 
ENDBRANCH   32   33
BRANCH   49   50
ATOM     50  C38 UNL A   1      45.082  27.748  34.339  1.00  0.00    +0.000 C 
ATOM     51  C39 UNL A   1      45.061  26.582  35.118  1.00  0.00    +0.000 C 
ATOM     52  F7  UNL A   1      43.929  25.874  35.242  1.00  0.00    +0.000 F 
ATOM     53  C40 UNL A   1      46.197  26.163  35.804  1.00  0.00    +0.000 C 
ATOM     54  F8  UNL A   1      46.142  25.071  36.580  1.00  0.00    +0.000 F 
ATOM     55  C41 UNL A   1      47.379  26.880  35.700  1.00  0.00    +0.000 C 
ATOM     56  F9  UNL A   1      48.473  26.471  36.358  1.00  0.00    +0.000 F 
ATOM     57  C42 UNL A   1      47.427  28.026  34.919  1.00  0.00    +0.000 C 
ATOM     58  F10 UNL A   1      48.572  28.713  34.808  1.00  0.00    +0.000 F 
ATOM     59  C43 UNL A   1      46.285  28.463  34.253  1.00  0.00    +0.000 C 
ATOM     60  F11 UNL A   1      46.358  29.582  33.516  1.00  0.00    +0.000 F 
ENDBRANCH   49   50
BRANCH   64   65
ATOM     65  C47 UNL A   1      42.721  26.316  27.953  1.00  0.00    +0.000 C 
ATOM     66  C48 UNL A   1      43.510  26.889  26.946  1.00  0.00    +0.000 C 
ATOM     67  F12 UNL A   1      43.806  28.196  26.992  1.00  0.00    +0.000 F 
ATOM     68  C49 UNL A   1      43.950  26.136  25.860  1.00  0.00    +0.000 C 
ATOM     69  F13 UNL A   1      44.652  26.724  24.881  1.00  0.00    +0.000 F 
ATOM     70  C50 UNL A   1      43.641  24.787  25.778  1.00  0.00    +0.000 C 
ATOM     71  F14 UNL A   1      44.057  24.065  24.729  1.00  0.00    +0.000 F 
ATOM     72  C51 UNL A   1      42.886  24.191  26.777  1.00  0.00    +0.000 C 
ATOM     73  F15 UNL A   1      42.595  22.885  26.707  1.00  0.00    +0.000 F 
ATOM     74  C52 UNL A   1      42.420  24.950  27.849  1.00  0.00    +0.000 C 
ATOM     75  F16 UNL A   1      41.673  24.352  28.788  1.00  0.00    +0.000 F 
ENDBRANCH   64   65
TORSDOF 21
ENDMDL
MODEL 4
REMARK VINA RESULT:      -8.3      1.508      7.666
ROOT
ATOM     28  C23 UNL A   1      13.383  53.575   5.871  1.00  0.00    +0.000 C 
ATOM     29  C24 UNL A   1      13.014  52.121   5.775  1.00  0.00    +0.000 C 
ATOM     30  N3  UNL A   1      13.428  51.216   4.924  1.00  0.00    +0.000 N 
ATOM     31  C25 UNL A   1      12.801  50.034   5.295  1.00  0.00    +0.000 C 
ATOM     32  C26 UNL A   1      12.850  48.825   4.688  1.00  0.00    +0.000 C 
ATOM     44  C33 UNL A   1      13.609  48.544   3.498  1.00  0.00    +0.000 C 
ATOM     45  C34 UNL A   1      13.710  47.354   2.797  1.00  0.00    +0.000 C 
ATOM     46  C35 UNL A   1      14.576  47.554   1.718  1.00  0.00    +0.000 C 
ATOM     47  C36 UNL A   1      14.984  48.878   1.724  1.00  0.00    +0.000 C 
ATOM     48  N4  UNL A   1      14.393  49.471   2.827  1.00  0.00    +0.000 N 
ATOM     49  C37 UNL A   1      15.850  49.551   0.792  1.00  0.00    +0.000 C 
ATOM     61  C44 UNL A   1      16.220  50.852   0.877  1.00  0.00    +0.000 C 
ATOM     62  N5  UNL A   1      15.857  51.804   1.819  1.00  0.00    +0.000 N 
ATOM     63  C45 UNL A   1      16.484  52.903   1.480  1.00  0.00    +0.000 C 
ATOM     64  C46 UNL A   1      16.435  54.265   2.122  1.00  0.00    +0.000 C 
ATOM     76  C53 UNL A   1      15.647  54.455   3.198  1.00  0.00    +0.000 C 
ATOM     77  C54 UNL A   1      15.493  55.711   3.924  1.00  0.00    +0.000 C 
ATOM     78  C55 UNL A   1      14.673  55.515   4.969  1.00  0.00    +0.000 C 
ATOM     79  C56 UNL A   1      14.215  54.124   4.966  1.00  0.00    +0.000 C 
ATOM     80  N6  UNL A   1      14.835  53.574   3.871  1.00  0.00    +0.000 N 
ATOM     81  C57 UNL A   1      17.349  52.760   0.299  1.00  0.00    +0.000 C 
ATOM     82  C58 UNL A   1      17.114  51.505  -0.055  1.00  0.00    +0.000 C 
ATOM     83  C59 UNL A   1      12.021  50.322   6.480  1.00  0.00    +0.000 C 
ATOM     84  C60 UNL A   1      12.072  51.611   6.783  1.00  0.00    +0.000 C 
ATOM    119  H31 UNL A   1      13.229  46.473   3.032  1.00  0.00    +0.000 H 
ATOM    120  H32 UNL A   1      14.863  46.836   1.033  1.00  0.00    +0.000 H 
ATOM    121  H33 UNL A   1      14.512  50.411   3.095  1.00  0.00    +0.000 H 
ATOM    122  H34 UNL A   1      15.942  56.606   3.674  1.00  0.00    +0.000 H 
ATOM    123  H35 UNL A   1      14.408  56.230   5.665  1.00  0.00    +0.000 H 
ATOM    124  H36 UNL A   1      14.710  52.638   3.595  1.00  0.00    +0.000 H 
ATOM    125  H37 UNL A   1      17.974  53.454  -0.139  1.00  0.00    +0.000 H 
ATOM    126  H38 UNL A   1      17.517  51.051  -0.890  1.00  0.00    +0.000 H 
ATOM    127  H39 UNL A   1      11.496  49.615   7.018  1.00  0.00    +0.000 H 
ATOM    128  H40 UNL A   1      11.578  52.122   7.532  1.00  0.00    +0.000 H 
ENDROOT
BRANCH   28   27
ATOM    129  H41 UNL A   1      11.115  55.001   5.975  1.00  0.00    +0.000 H 
ATOM    130  H42 UNL A   1      10.302  56.424   7.761  1.00  0.00    +0.000 H 
ATOM     27  C22 UNL A   1      12.870  54.400   6.994  1.00  0.00    +0.000 C 
ATOM    117  H29 UNL A   1      13.590  55.324  10.147  1.00  0.00    +0.000 H 
ATOM     86  C62 UNL A   1      11.163  55.871   7.893  1.00  0.00    +0.000 C 
ATOM     85  C61 UNL A   1      11.652  55.083   6.854  1.00  0.00    +0.000 C 
ATOM     24  C19 UNL A   1      11.842  55.911   9.115  1.00  0.00    +0.000 C 
ATOM     25  C20 UNL A   1      13.070  55.259   9.257  1.00  0.00    +0.000 C 
ATOM     26  C21 UNL A   1      13.589  54.519   8.194  1.00  0.00    +0.000 C 
ATOM    118  H30 UNL A   1      14.506  54.056   8.290  1.00  0.00    +0.000 H 
BRANCH   24   22
ATOM     22  C18 UNL A   1      11.291  56.647  10.273  1.00  0.00    +0.000 C 
ATOM     23  O2  UNL A   1      11.007  57.837  10.160  1.00  0.00    +0.000 O 
BRANCH   22   21
ATOM    116  H28 UNL A   1      11.268  56.567  12.273  1.00  0.00    +0.000 H 
ATOM     21  N2  UNL A   1      11.126  56.008  11.475  1.00  0.00    +0.000 N 
BRANCH   21   20
ATOM    114  H26 UNL A   1       9.706  54.536  11.728  1.00  0.00    +0.000 H 
ATOM    115  H27 UNL A   1      11.227  54.023  10.979  1.00  0.00    +0.000 H 
ATOM     20  C17 UNL A   1      10.772  54.625  11.739  1.00  0.00    +0.000 C 
BRANCH   20   19
ATOM    113  H25 UNL A   1      11.356  53.067  13.007  1.00  0.00    +0.000 H 
ATOM     19  C16 UNL A   1      11.289  54.132  13.087  1.00  0.00    +0.000 C 
ATOM    112  H24 UNL A   1      10.608  54.462  13.843  1.00  0.00    +0.000 H 
BRANCH   19   18
ATOM     18  C15 UNL A   1      12.690  54.619  13.465  1.00  0.00    +0.000 C 
ATOM    110  H22 UNL A   1      12.821  55.597  13.050  1.00  0.00    +0.000 H 
ATOM    111  H23 UNL A   1      12.730  54.595  14.534  1.00  0.00    +0.000 H 
BRANCH   18   17
ATOM     17  C14 UNL A   1      13.847  53.740  12.981  1.00  0.00    +0.000 C 
ATOM    108  H20 UNL A   1      13.790  53.679  11.913  1.00  0.00    +0.000 H 
ATOM    109  H21 UNL A   1      14.741  54.207  13.338  1.00  0.00    +0.000 H 
BRANCH   17   16
ATOM    106  H18 UNL A   1      13.638  52.355  14.580  1.00  0.00    +0.000 H 
ATOM    107  H19 UNL A   1      13.144  51.756  12.974  1.00  0.00    +0.000 H 
ATOM     16  C13 UNL A   1      13.866  52.311  13.535  1.00  0.00    +0.000 C 
BRANCH   16   15
ATOM    105  H17 UNL A   1      14.999  50.542  13.252  1.00  0.00    +0.000 H 
ATOM     15  C12 UNL A   1      15.197  51.588  13.368  1.00  0.00    +0.000 C 
ATOM    104  H16 UNL A   1      15.802  51.766  14.233  1.00  0.00    +0.000 H 
BRANCH   15   14
ATOM     14  N1  UNL A   1      15.910  52.051  12.190  1.00  0.00    +0.000 N 
ATOM    103  H15 UNL A   1      16.282  52.960  12.251  1.00  0.00    +0.000 H 
BRANCH   14   12
ATOM     12  C11 UNL A   1      16.137  51.403  11.009  1.00  0.00    +0.000 C 
ATOM     13  O1  UNL A   1      17.131  50.674  10.947  1.00  0.00    +0.000 O 
BRANCH   12    9
ATOM      9  C9  UNL A   1      15.179  51.526   9.828  1.00  0.00    +0.000 C 
ATOM    100  H12 UNL A   1      14.837  52.534   9.723  1.00  0.00    +0.000 H 
BRANCH    9    8
ATOM     98  H10 UNL A   1      10.577  51.555  10.647  1.00  0.00    +0.000 H 
ATOM     99  H11 UNL A   1      12.732  52.621  10.429  1.00  0.00    +0.000 H 
ATOM    132  H44 UNL A   1      12.323  47.851   9.721  1.00  0.00    +0.000 H 
ATOM      5  C5  UNL A   1      11.267  49.619  10.176  1.00  0.00    +0.000 C 
ATOM      6  C6  UNL A   1      11.405  50.990  10.402  1.00  0.00    +0.000 C 
ATOM      7  C7  UNL A   1      12.658  51.601  10.300  1.00  0.00    +0.000 C 
ATOM    131  H43 UNL A   1      14.492  48.905   9.584  1.00  0.00    +0.000 H 
ATOM      8  C8  UNL A   1      13.819  50.856  10.025  1.00  0.00    +0.000 C 
ATOM     87  C63 UNL A   1      13.663  49.478   9.806  1.00  0.00    +0.000 C 
ATOM     88  C64 UNL A   1      12.407  48.868   9.883  1.00  0.00    +0.000 C 
BRANCH    5    4
ATOM     97  H9  UNL A   1       9.178  49.773  10.060  1.00  0.00    +0.000 H 
ATOM      4  C4  UNL A   1       9.897  48.986  10.155  1.00  0.00    +0.000 C 
ATOM     96  H8  UNL A   1       9.761  48.434  11.063  1.00  0.00    +0.000 H 
BRANCH    4    2
ATOM      2  C2  UNL A   1       9.703  48.029   8.961  1.00  0.00    +0.000 C 
ATOM     92  H4  UNL A   1      10.673  47.686   8.667  1.00  0.00    +0.000 H 
BRANCH    2    1
ATOM      1  C1  UNL A   1       8.869  46.799   9.335  1.00  0.00    +0.000 C 
ATOM     90  H2  UNL A   1       9.273  45.934   8.851  1.00  0.00    +0.000 H 
ATOM     91  H3  UNL A   1       7.857  46.945   9.017  1.00  0.00    +0.000 H 
ATOM     89  H1  UNL A   1       8.894  46.659  10.395  1.00  0.00    +0.000 H 
ENDBRANCH    2    1
BRANCH    2    3
ATOM      3  C3  UNL A   1       9.041  48.768   7.797  1.00  0.00    +0.000 C 
ATOM     93  H5  UNL A   1       9.424  48.392   6.871  1.00  0.00    +0.000 H 
ATOM     94  H6  UNL A   1       9.253  49.814   7.872  1.00  0.00    +0.000 H 
ATOM     95  H7  UNL A   1       7.983  48.615   7.833  1.00  0.00    +0.000 H 
ENDBRANCH    2    3
ENDBRANCH    4    2
ENDBRANCH    5    4
ENDBRANCH    9    8
BRANCH    9   10
ATOM     10  C10 UNL A   1      15.971  51.170   8.565  1.00  0.00    +0.000 C 
ATOM     11  F1  UNL A   1      15.703  52.051   7.563  1.00  0.00    +0.000 F 
ATOM    101  H13 UNL A   1      15.699  50.185   8.247  1.00  0.00    +0.000 H 
ATOM    102  H14 UNL A   1      17.015  51.215   8.791  1.00  0.00    +0.000 H 
ENDBRANCH    9   10
ENDBRANCH   12    9
ENDBRANCH   14   12
ENDBRANCH   15   14
ENDBRANCH   16   15
ENDBRANCH   17   16
ENDBRANCH   18   17
ENDBRANCH   19   18
ENDBRANCH   20   19
ENDBRANCH   21   20
ENDBRANCH   22   21
ENDBRANCH   24   22
ENDBRANCH   28   27
BRANCH   32   33
ATOM     33  C27 UNL A   1      12.042  47.712   5.287  1.00  0.00    +0.000 C 
ATOM     34  C28 UNL A   1      10.807  47.335   4.741  1.00  0.00    +0.000 C 
ATOM     35  F2  UNL A   1      10.291  48.014   3.705  1.00  0.00    +0.000 F 
ATOM     36  C29 UNL A   1      10.081  46.274   5.276  1.00  0.00    +0.000 C 
ATOM     37  F3  UNL A   1       8.887  45.953   4.760  1.00  0.00    +0.000 F 
ATOM     38  C30 UNL A   1      10.590  45.553   6.346  1.00  0.00    +0.000 C 
ATOM     39  F4  UNL A   1       9.896  44.523   6.851  1.00  0.00    +0.000 F 
ATOM     40  C31 UNL A   1      11.815  45.901   6.895  1.00  0.00    +0.000 C 
ATOM     41  F5  UNL A   1      12.312  45.198   7.920  1.00  0.00    +0.000 F 
ATOM     42  C32 UNL A   1      12.531  46.978   6.378  1.00  0.00    +0.000 C 
ATOM     43  F6  UNL A   1      13.709  47.297   6.935  1.00  0.00    +0.000 F 
ENDBRANCH   32   33
BRANCH   49   50
ATOM     50  C38 UNL A   1      16.369  48.763  -0.374  1.00  0.00    +0.000 C 
ATOM     51  C39 UNL A   1      15.613  48.595  -1.543  1.00  0.00    +0.000 C 
ATOM     52  F7  UNL A   1      14.373  49.101  -1.623  1.00  0.00    +0.000 F 
ATOM     53  C40 UNL A   1      16.116  47.870  -2.620  1.00  0.00    +0.000 C 
ATOM     54  F8  UNL A   1      15.359  47.683  -3.709  1.00  0.00    +0.000 F 
ATOM     55  C41 UNL A   1      17.392  47.331  -2.561  1.00  0.00    +0.000 C 
ATOM     56  F9  UNL A   1      17.877  46.638  -3.601  1.00  0.00    +0.000 F 
ATOM     57  C42 UNL A   1      18.164  47.502  -1.421  1.00  0.00    +0.000 C 
ATOM     58  F10 UNL A   1      19.402  46.991  -1.368  1.00  0.00    +0.000 F 
ATOM     59  C43 UNL A   1      17.654  48.202  -0.332  1.00  0.00    +0.000 C 
ATOM     60  F11 UNL A   1      18.418  48.341   0.762  1.00  0.00    +0.000 F 
ENDBRANCH   49   50
BRANCH   64   65
ATOM     65  C47 UNL A   1      17.232  55.389   1.566  1.00  0.00    +0.000 C 
ATOM     66  C48 UNL A   1      18.568  55.581   1.948  1.00  0.00    +0.000 C 
ATOM     67  F12 UNL A   1      19.143  54.736   2.815  1.00  0.00    +0.000 F 
ATOM     68  C49 UNL A   1      19.298  56.674   1.486  1.00  0.00    +0.000 C 
ATOM     69  F13 UNL A   1      20.553  56.866   1.915  1.00  0.00    +0.000 F 
ATOM     70  C50 UNL A   1      18.720  57.574   0.605  1.00  0.00    +0.000 C 
ATOM     71  F14 UNL A   1      19.421  58.630   0.167  1.00  0.00    +0.000 F 
ATOM     72  C51 UNL A   1      17.410  57.389   0.189  1.00  0.00    +0.000 C 
ATOM     73  F15 UNL A   1      16.852  58.251  -0.671  1.00  0.00    +0.000 F 
ATOM     74  C52 UNL A   1      16.669  56.313   0.674  1.00  0.00    +0.000 C 
ATOM     75  F16 UNL A   1      15.397  56.171   0.273  1.00  0.00    +0.000 F 
ENDBRANCH   64   65
TORSDOF 21
ENDMDL
MODEL 5
REMARK VINA RESULT:      -8.2     46.038     50.828
ROOT
ATOM     28  C23 UNL A   1      53.360  19.549  11.593  1.00  0.00    +0.000 C 
ATOM     29  C24 UNL A   1      54.722  18.928  11.463  1.00  0.00    +0.000 C 
ATOM     30  N3  UNL A   1      55.717  18.929  12.315  1.00  0.00    +0.000 N 
ATOM     31  C25 UNL A   1      56.729  18.192  11.714  1.00  0.00    +0.000 C 
ATOM     32  C26 UNL A   1      57.985  17.957  12.164  1.00  0.00    +0.000 C 
ATOM     44  C33 UNL A   1      58.506  18.451  13.412  1.00  0.00    +0.000 C 
ATOM     45  C34 UNL A   1      59.771  18.281  13.947  1.00  0.00    +0.000 C 
ATOM     46  C35 UNL A   1      59.810  18.925  15.188  1.00  0.00    +0.000 C 
ATOM     47  C36 UNL A   1      58.583  19.528  15.407  1.00  0.00    +0.000 C 
ATOM     48  N4  UNL A   1      57.788  19.220  14.315  1.00  0.00    +0.000 N 
ATOM     49  C37 UNL A   1      58.166  20.326  16.530  1.00  0.00    +0.000 C 
ATOM     61  C44 UNL A   1      56.933  20.868  16.681  1.00  0.00    +0.000 C 
ATOM     62  N5  UNL A   1      55.841  20.809  15.827  1.00  0.00    +0.000 N 
ATOM     63  C45 UNL A   1      54.882  21.475  16.422  1.00  0.00    +0.000 C 
ATOM     64  C46 UNL A   1      53.485  21.767  15.941  1.00  0.00    +0.000 C 
ATOM     76  C53 UNL A   1      53.101  21.319  14.731  1.00  0.00    +0.000 C 
ATOM     77  C54 UNL A   1      51.788  21.525  14.129  1.00  0.00    +0.000 C 
ATOM     78  C55 UNL A   1      51.746  20.893  12.944  1.00  0.00    +0.000 C 
ATOM     79  C56 UNL A   1      53.044  20.267  12.687  1.00  0.00    +0.000 C 
ATOM     80  N6  UNL A   1      53.789  20.584  13.796  1.00  0.00    +0.000 N 
ATOM     81  C57 UNL A   1      55.251  22.003  17.744  1.00  0.00    +0.000 C 
ATOM     82  C58 UNL A   1      56.524  21.646  17.831  1.00  0.00    +0.000 C 
ATOM     83  C59 UNL A   1      56.212  17.712  10.451  1.00  0.00    +0.000 C 
ATOM     84  C60 UNL A   1      54.997  18.189  10.221  1.00  0.00    +0.000 C 
ATOM    119  H31 UNL A   1      60.550  17.768  13.507  1.00  0.00    +0.000 H 
ATOM    120  H32 UNL A   1      60.618  18.946  15.831  1.00  0.00    +0.000 H 
ATOM    121  H33 UNL A   1      56.853  19.505  14.199  1.00  0.00    +0.000 H 
ATOM    122  H34 UNL A   1      51.016  22.068  14.546  1.00  0.00    +0.000 H 
ATOM    123  H35 UNL A   1      50.928  20.855  12.315  1.00  0.00    +0.000 H 
ATOM    124  H36 UNL A   1      54.727  20.310  13.911  1.00  0.00    +0.000 H 
ATOM    125  H37 UNL A   1      54.671  22.518  18.425  1.00  0.00    +0.000 H 
ATOM    126  H38 UNL A   1      57.144  21.891  18.619  1.00  0.00    +0.000 H 
ATOM    127  H39 UNL A   1      56.722  17.082   9.813  1.00  0.00    +0.000 H 
ATOM    128  H40 UNL A   1      54.399  18.072   9.388  1.00  0.00    +0.000 H 
ENDROOT
BRANCH   28   27
ATOM    129  H41 UNL A   1      52.655  21.203   9.605  1.00  0.00    +0.000 H 
ATOM    130  H42 UNL A   1      50.933  20.905   7.925  1.00  0.00    +0.000 H 
ATOM     27  C22 UNL A   1      52.340  19.330  10.537  1.00  0.00    +0.000 C 
ATOM    117  H29 UNL A   1      50.138  17.049   9.412  1.00  0.00    +0.000 H 
ATOM     86  C62 UNL A   1      51.146  20.143   8.587  1.00  0.00    +0.000 C 
ATOM     85  C61 UNL A   1      52.108  20.328   9.577  1.00  0.00    +0.000 C 
ATOM     24  C19 UNL A   1      50.469  18.923   8.493  1.00  0.00    +0.000 C 
ATOM     25  C20 UNL A   1      50.669  17.933   9.459  1.00  0.00    +0.000 C 
ATOM     26  C21 UNL A   1      51.590  18.143  10.487  1.00  0.00    +0.000 C 
ATOM    118  H30 UNL A   1      51.722  17.423  11.213  1.00  0.00    +0.000 H 
BRANCH   24   22
ATOM     22  C18 UNL A   1      49.525  18.655   7.388  1.00  0.00    +0.000 C 
ATOM     23  O2  UNL A   1      49.745  17.732   6.608  1.00  0.00    +0.000 O 
BRANCH   22   21
ATOM    116  H28 UNL A   1      47.757  19.413   7.941  1.00  0.00    +0.000 H 
ATOM     21  N2  UNL A   1      48.424  19.454   7.219  1.00  0.00    +0.000 N 
BRANCH   21   20
ATOM    114  H26 UNL A   1      47.626  21.225   6.526  1.00  0.00    +0.000 H 
ATOM    115  H27 UNL A   1      49.017  20.599   5.627  1.00  0.00    +0.000 H 
ATOM     20  C17 UNL A   1      48.101  20.354   6.125  1.00  0.00    +0.000 C 
BRANCH   20   19
ATOM    113  H25 UNL A   1      46.715  18.885   5.584  1.00  0.00    +0.000 H 
ATOM     19  C16 UNL A   1      47.172  19.720   5.095  1.00  0.00    +0.000 C 
ATOM    112  H24 UNL A   1      47.758  19.448   4.243  1.00  0.00    +0.000 H 
BRANCH   19   18
ATOM     18  C15 UNL A   1      46.024  20.612   4.616  1.00  0.00    +0.000 C 
ATOM    110  H22 UNL A   1      45.324  20.707   5.420  1.00  0.00    +0.000 H 
ATOM    111  H23 UNL A   1      46.474  21.538   4.325  1.00  0.00    +0.000 H 
BRANCH   18   17
ATOM     17  C14 UNL A   1      45.265  20.108   3.385  1.00  0.00    +0.000 C 
ATOM    108  H20 UNL A   1      45.951  19.550   2.780  1.00  0.00    +0.000 H 
ATOM    109  H21 UNL A   1      44.450  19.525   3.760  1.00  0.00    +0.000 H 
BRANCH   17   16
ATOM    106  H18 UNL A   1      43.890  21.700   3.082  1.00  0.00    +0.000 H 
ATOM    107  H19 UNL A   1      45.436  21.841   2.203  1.00  0.00    +0.000 H 
ATOM     16  C13 UNL A   1      44.638  21.195   2.506  1.00  0.00    +0.000 C 
BRANCH   16   15
ATOM    105  H17 UNL A   1      44.554  19.840   0.878  1.00  0.00    +0.000 H 
ATOM     15  C12 UNL A   1      43.987  20.677   1.230  1.00  0.00    +0.000 C 
ATOM    104  H16 UNL A   1      43.976  21.462   0.501  1.00  0.00    +0.000 H 
BRANCH   15   14
ATOM     14  N1  UNL A   1      42.624  20.237   1.469  1.00  0.00    +0.000 N 
ATOM    103  H15 UNL A   1      42.341  20.228   2.412  1.00  0.00    +0.000 H 
BRANCH   14   12
ATOM     12  C11 UNL A   1      41.677  19.834   0.570  1.00  0.00    +0.000 C 
ATOM     13  O1  UNL A   1      42.044  19.660  -0.596  1.00  0.00    +0.000 O 
BRANCH   12    9
ATOM      9  C9  UNL A   1      40.237  19.555   0.989  1.00  0.00    +0.000 C 
ATOM    100  H12 UNL A   1      39.884  18.648   0.548  1.00  0.00    +0.000 H 
BRANCH    9    8
ATOM     98  H10 UNL A   1      38.897  23.443  -1.233  1.00  0.00    +0.000 H 
ATOM     99  H11 UNL A   1      40.549  22.002  -0.222  1.00  0.00    +0.000 H 
ATOM    132  H44 UNL A   1      35.905  20.641  -0.327  1.00  0.00    +0.000 H 
ATOM      5  C5  UNL A   1      37.268  22.150  -0.887  1.00  0.00    +0.000 C 
ATOM      6  C6  UNL A   1      38.607  22.540  -0.827  1.00  0.00    +0.000 C 
ATOM      7  C7  UNL A   1      39.558  21.715  -0.219  1.00  0.00    +0.000 C 
ATOM    131  H43 UNL A   1      37.545  19.237   0.757  1.00  0.00    +0.000 H 
ATOM      8  C8  UNL A   1      39.195  20.504   0.396  1.00  0.00    +0.000 C 
ATOM     87  C63 UNL A   1      37.843  20.129   0.331  1.00  0.00    +0.000 C 
ATOM     88  C64 UNL A   1      36.893  20.940  -0.298  1.00  0.00    +0.000 C 
BRANCH    5    4
ATOM     97  H9  UNL A   1      36.809  23.528  -2.401  1.00  0.00    +0.000 H 
ATOM      4  C4  UNL A   1      36.269  22.976  -1.660  1.00  0.00    +0.000 C 
ATOM     96  H8  UNL A   1      35.761  23.626  -0.977  1.00  0.00    +0.000 H 
BRANCH    4    2
ATOM      2  C2  UNL A   1      35.221  22.111  -2.391  1.00  0.00    +0.000 C 
ATOM     92  H4  UNL A   1      35.328  21.110  -2.031  1.00  0.00    +0.000 H 
BRANCH    2    1
ATOM      1  C1  UNL A   1      33.789  22.562  -2.091  1.00  0.00    +0.000 C 
ATOM     90  H2  UNL A   1      33.535  23.388  -2.724  1.00  0.00    +0.000 H 
ATOM     91  H3  UNL A   1      33.717  22.865  -1.067  1.00  0.00    +0.000 H 
ATOM     89  H1  UNL A   1      33.114  21.753  -2.272  1.00  0.00    +0.000 H 
ENDBRANCH    2    1
BRANCH    2    3
ATOM      3  C3  UNL A   1      35.470  22.149  -3.900  1.00  0.00    +0.000 C 
ATOM     93  H5  UNL A   1      34.976  21.320  -4.363  1.00  0.00    +0.000 H 
ATOM     94  H6  UNL A   1      36.521  22.088  -4.090  1.00  0.00    +0.000 H 
ATOM     95  H7  UNL A   1      35.088  23.063  -4.302  1.00  0.00    +0.000 H 
ENDBRANCH    2    3
ENDBRANCH    4    2
ENDBRANCH    5    4
ENDBRANCH    9    8
BRANCH    9   10
ATOM     10  C10 UNL A   1      40.238  19.362   2.510  1.00  0.00    +0.000 C 
ATOM     11  F1  UNL A   1      39.325  20.179   3.101  1.00  0.00    +0.000 F 
ATOM    101  H13 UNL A   1      41.212  19.590   2.891  1.00  0.00    +0.000 H 
ATOM    102  H14 UNL A   1      39.982  18.347   2.726  1.00  0.00    +0.000 H 
ENDBRANCH    9   10
ENDBRANCH   12    9
ENDBRANCH   14   12
ENDBRANCH   15   14
ENDBRANCH   16   15
ENDBRANCH   17   16
ENDBRANCH   18   17
ENDBRANCH   19   18
ENDBRANCH   20   19
ENDBRANCH   21   20
ENDBRANCH   22   21
ENDBRANCH   24   22
ENDBRANCH   28   27
BRANCH   32   33
ATOM     33  C27 UNL A   1      58.896  17.146  11.291  1.00  0.00    +0.000 C 
ATOM     34  C28 UNL A   1      59.722  17.757  10.337  1.00  0.00    +0.000 C 
ATOM     35  F2  UNL A   1      59.660  19.082  10.140  1.00  0.00    +0.000 F 
ATOM     36  C29 UNL A   1      60.596  17.003   9.558  1.00  0.00    +0.000 C 
ATOM     37  F3  UNL A   1      61.351  17.603   8.629  1.00  0.00    +0.000 F 
ATOM     38  C30 UNL A   1      60.682  15.631   9.741  1.00  0.00    +0.000 C 
ATOM     39  F4  UNL A   1      61.535  14.908   9.000  1.00  0.00    +0.000 F 
ATOM     40  C31 UNL A   1      59.883  15.007  10.687  1.00  0.00    +0.000 C 
ATOM     41  F5  UNL A   1      59.974  13.683  10.872  1.00  0.00    +0.000 F 
ATOM     42  C32 UNL A   1      58.989  15.755  11.449  1.00  0.00    +0.000 C 
ATOM     43  F6  UNL A   1      58.223  15.123  12.351  1.00  0.00    +0.000 F 
ENDBRANCH   32   33
BRANCH   49   50
ATOM     50  C38 UNL A   1      59.173  20.596  17.607  1.00  0.00    +0.000 C 
ATOM     51  C39 UNL A   1      59.925  21.779  17.631  1.00  0.00    +0.000 C 
ATOM     52  F7  UNL A   1      59.791  22.684  16.649  1.00  0.00    +0.000 F 
ATOM     53  C40 UNL A   1      60.847  22.018  18.647  1.00  0.00    +0.000 C 
ATOM     54  F8  UNL A   1      61.588  23.134  18.625  1.00  0.00    +0.000 F 
ATOM     55  C41 UNL A   1      61.010  21.097  19.670  1.00  0.00    +0.000 C 
ATOM     56  F9  UNL A   1      61.896  21.332  20.650  1.00  0.00    +0.000 F 
ATOM     57  C42 UNL A   1      60.263  19.929  19.676  1.00  0.00    +0.000 C 
ATOM     58  F10 UNL A   1      60.412  19.044  20.671  1.00  0.00    +0.000 F 
ATOM     59  C43 UNL A   1      59.360  19.674  18.648  1.00  0.00    +0.000 C 
ATOM     60  F11 UNL A   1      58.660  18.530  18.673  1.00  0.00    +0.000 F 
ENDBRANCH   49   50
BRANCH   64   65
ATOM     65  C47 UNL A   1      52.549  22.556  16.784  1.00  0.00    +0.000 C 
ATOM     66  C48 UNL A   1      52.405  23.938  16.597  1.00  0.00    +0.000 C 
ATOM     67  F12 UNL A   1      53.106  24.560  15.638  1.00  0.00    +0.000 F 
ATOM     68  C49 UNL A   1      51.584  24.695  17.430  1.00  0.00    +0.000 C 
ATOM     69  F13 UNL A   1      51.511  26.023  17.266  1.00  0.00    +0.000 F 
ATOM     70  C50 UNL A   1      50.863  24.080  18.442  1.00  0.00    +0.000 C 
ATOM     71  F14 UNL A   1      50.080  24.810  19.248  1.00  0.00    +0.000 F 
ATOM     72  C51 UNL A   1      50.967  22.709  18.627  1.00  0.00    +0.000 C 
ATOM     73  F15 UNL A   1      50.264  22.110  19.597  1.00  0.00    +0.000 F 
ATOM     74  C52 UNL A   1      51.811  21.956  17.814  1.00  0.00    +0.000 C 
ATOM     75  F16 UNL A   1      51.909  20.636  18.031  1.00  0.00    +0.000 F 
ENDBRANCH   64   65
TORSDOF 21
ENDMDL
MODEL 6
REMARK VINA RESULT:      -8.2     45.703     54.900
ROOT
ATOM     28  C23 UNL A   1       2.325  11.018  37.918  1.00  0.00    +0.000 C 
ATOM     29  C24 UNL A   1       1.002  10.604  37.339  1.00  0.00    +0.000 C 
ATOM     30  N3  UNL A   1       0.607   9.421  36.938  1.00  0.00    +0.000 N 
ATOM     31  C25 UNL A   1      -0.707   9.585  36.517  1.00  0.00    +0.000 C 
ATOM     32  C26 UNL A   1      -1.533   8.671  35.955  1.00  0.00    +0.000 C 
ATOM     44  C33 UNL A   1      -1.175   7.302  35.695  1.00  0.00    +0.000 C 
ATOM     45  C34 UNL A   1      -1.938   6.305  35.114  1.00  0.00    +0.000 C 
ATOM     46  C35 UNL A   1      -1.176   5.132  35.086  1.00  0.00    +0.000 C 
ATOM     47  C36 UNL A   1       0.074   5.410  35.614  1.00  0.00    +0.000 C 
ATOM     48  N4  UNL A   1       0.057   6.741  35.995  1.00  0.00    +0.000 N 
ATOM     49  C37 UNL A   1       1.199   4.525  35.762  1.00  0.00    +0.000 C 
ATOM     61  C44 UNL A   1       2.390   4.868  36.310  1.00  0.00    +0.000 C 
ATOM     62  N5  UNL A   1       2.798   6.095  36.814  1.00  0.00    +0.000 N 
ATOM     63  C45 UNL A   1       4.024   5.918  37.243  1.00  0.00    +0.000 C 
ATOM     64  C46 UNL A   1       4.973   6.915  37.854  1.00  0.00    +0.000 C 
ATOM     76  C53 UNL A   1       4.575   8.193  38.003  1.00  0.00    +0.000 C 
ATOM     77  C54 UNL A   1       5.379   9.270  38.572  1.00  0.00    +0.000 C 
ATOM     78  C55 UNL A   1       4.642  10.392  38.613  1.00  0.00    +0.000 C 
ATOM     79  C56 UNL A   1       3.323  10.121  38.038  1.00  0.00    +0.000 C 
ATOM     80  N6  UNL A   1       3.379   8.793  37.692  1.00  0.00    +0.000 N 
ATOM     81  C57 UNL A   1       4.519   4.541  37.090  1.00  0.00    +0.000 C 
ATOM     82  C58 UNL A   1       3.502   3.956  36.474  1.00  0.00    +0.000 C 
ATOM     83  C59 UNL A   1      -1.061  10.967  36.760  1.00  0.00    +0.000 C 
ATOM     84  C60 UNL A   1      -0.021  11.654  37.211  1.00  0.00    +0.000 C 
ATOM    119  H31 UNL A   1      -2.901   6.408  34.762  1.00  0.00    +0.000 H 
ATOM    120  H32 UNL A   1      -1.493   4.215  34.732  1.00  0.00    +0.000 H 
ATOM    121  H33 UNL A   1       0.809   7.218  36.415  1.00  0.00    +0.000 H 
ATOM    122  H34 UNL A   1       6.356   9.183  38.892  1.00  0.00    +0.000 H 
ATOM    123  H35 UNL A   1       4.955  11.300  38.989  1.00  0.00    +0.000 H 
ATOM    124  H36 UNL A   1       2.633   8.317  37.262  1.00  0.00    +0.000 H 
ATOM    125  H37 UNL A   1       5.422   4.137  37.385  1.00  0.00    +0.000 H 
ATOM    126  H38 UNL A   1       3.503   2.976  36.153  1.00  0.00    +0.000 H 
ATOM    127  H39 UNL A   1      -2.000  11.365  36.603  1.00  0.00    +0.000 H 
ATOM    128  H40 UNL A   1       0.052  12.662  37.420  1.00  0.00    +0.000 H 
ENDROOT
BRANCH   28   27
ATOM    129  H41 UNL A   1       2.035  11.947  40.416  1.00  0.00    +0.000 H 
ATOM    130  H42 UNL A   1       2.262  14.222  41.222  1.00  0.00    +0.000 H 
ATOM     27  C22 UNL A   1       2.521  12.406  38.408  1.00  0.00    +0.000 C 
ATOM    117  H29 UNL A   1       3.429  15.476  37.378  1.00  0.00    +0.000 H 
ATOM     86  C62 UNL A   1       2.480  13.998  40.238  1.00  0.00    +0.000 C 
ATOM     85  C61 UNL A   1       2.313  12.699  39.765  1.00  0.00    +0.000 C 
ATOM     24  C19 UNL A   1       2.944  14.998  39.378  1.00  0.00    +0.000 C 
ATOM     25  C20 UNL A   1       3.127  14.725  38.020  1.00  0.00    +0.000 C 
ATOM     26  C21 UNL A   1       2.900  13.437  37.534  1.00  0.00    +0.000 C 
ATOM    118  H30 UNL A   1       3.013  13.240  36.528  1.00  0.00    +0.000 H 
BRANCH   24   22
ATOM     22  C18 UNL A   1       3.239  16.358  39.875  1.00  0.00    +0.000 C 
ATOM     23  O2  UNL A   1       2.317  17.142  40.089  1.00  0.00    +0.000 O 
BRANCH   22   21
ATOM    116  H28 UNL A   1       4.718  17.707  39.914  1.00  0.00    +0.000 H 
ATOM     21  N2  UNL A   1       4.539  16.752  40.066  1.00  0.00    +0.000 N 
BRANCH   21   20
ATOM    114  H26 UNL A   1       5.714  15.070  39.867  1.00  0.00    +0.000 H 
ATOM    115  H27 UNL A   1       6.563  16.559  40.311  1.00  0.00    +0.000 H 
ATOM     20  C17 UNL A   1       5.689  15.958  40.462  1.00  0.00    +0.000 C 
BRANCH   20   19
ATOM    113  H25 UNL A   1       4.690  15.856  42.296  1.00  0.00    +0.000 H 
ATOM     19  C16 UNL A   1       5.652  15.560  41.934  1.00  0.00    +0.000 C 
ATOM    112  H24 UNL A   1       6.464  16.047  42.429  1.00  0.00    +0.000 H 
BRANCH   19   18
ATOM     18  C15 UNL A   1       5.764  14.058  42.205  1.00  0.00    +0.000 C 
ATOM    110  H22 UNL A   1       6.546  13.910  42.921  1.00  0.00    +0.000 H 
ATOM    111  H23 UNL A   1       4.800  13.750  42.551  1.00  0.00    +0.000 H 
BRANCH   18   17
ATOM     17  C14 UNL A   1       6.071  13.187  40.983  1.00  0.00    +0.000 C 
ATOM    108  H20 UNL A   1       5.431  12.330  41.019  1.00  0.00    +0.000 H 
ATOM    109  H21 UNL A   1       5.908  13.810  40.129  1.00  0.00    +0.000 H 
BRANCH   17   16
ATOM    106  H18 UNL A   1       8.169  13.529  41.015  1.00  0.00    +0.000 H 
ATOM    107  H19 UNL A   1       7.639  11.938  41.625  1.00  0.00    +0.000 H 
ATOM     16  C13 UNL A   1       7.517  12.691  40.874  1.00  0.00    +0.000 C 
BRANCH   16   15
ATOM    105  H17 UNL A   1       7.012  11.477  39.212  1.00  0.00    +0.000 H 
ATOM     15  C12 UNL A   1       7.862  12.038  39.542  1.00  0.00    +0.000 C 
ATOM    104  H16 UNL A   1       8.710  11.398  39.675  1.00  0.00    +0.000 H 
BRANCH   15   14
ATOM     14  N1  UNL A   1       8.175  13.030  38.528  1.00  0.00    +0.000 N 
ATOM    103  H15 UNL A   1       9.008  13.534  38.671  1.00  0.00    +0.000 H 
BRANCH   14   12
ATOM     12  C11 UNL A   1       7.475  13.363  37.402  1.00  0.00    +0.000 C 
ATOM     13  O1  UNL A   1       6.334  13.807  37.557  1.00  0.00    +0.000 O 
BRANCH   12    9
ATOM      9  C9  UNL A   1       8.089  13.244  36.011  1.00  0.00    +0.000 C 
ATOM    100  H12 UNL A   1       9.125  12.985  36.076  1.00  0.00    +0.000 H 
BRANCH    9    8
ATOM     98  H10 UNL A   1      10.298  17.226  34.954  1.00  0.00    +0.000 H 
ATOM     99  H11 UNL A   1      10.020  15.188  36.218  1.00  0.00    +0.000 H 
ATOM    132  H44 UNL A   1       6.892  16.280  32.690  1.00  0.00    +0.000 H 
ATOM      5  C5  UNL A   1       8.633  16.909  33.700  1.00  0.00    +0.000 C 
ATOM      6  C6  UNL A   1       9.513  16.593  34.737  1.00  0.00    +0.000 C 
ATOM      7  C7  UNL A   1       9.336  15.425  35.484  1.00  0.00    +0.000 C 
ATOM    131  H43 UNL A   1       6.567  14.283  34.009  1.00  0.00    +0.000 H 
ATOM      8  C8  UNL A   1       8.246  14.566  35.257  1.00  0.00    +0.000 C 
ATOM     87  C63 UNL A   1       7.368  14.901  34.214  1.00  0.00    +0.000 C 
ATOM     88  C64 UNL A   1       7.556  16.056  33.449  1.00  0.00    +0.000 C 
BRANCH    5    4
ATOM     97  H9  UNL A   1       9.321  18.871  33.420  1.00  0.00    +0.000 H 
ATOM      4  C4  UNL A   1       8.903  18.098  32.809  1.00  0.00    +0.000 C 
ATOM     96  H8  UNL A   1       7.981  18.405  32.360  1.00  0.00    +0.000 H 
BRANCH    4    2
ATOM      2  C2  UNL A   1       9.918  17.785  31.690  1.00  0.00    +0.000 C 
ATOM     92  H4  UNL A   1      10.659  17.134  32.106  1.00  0.00    +0.000 H 
BRANCH    2    1
ATOM      1  C1  UNL A   1       9.269  17.056  30.510  1.00  0.00    +0.000 C 
ATOM     90  H2  UNL A   1       9.142  17.739  29.695  1.00  0.00    +0.000 H 
ATOM     91  H3  UNL A   1       8.314  16.675  30.807  1.00  0.00    +0.000 H 
ATOM     89  H1  UNL A   1       9.897  16.246  30.202  1.00  0.00    +0.000 H 
ENDBRANCH    2    1
BRANCH    2    3
ATOM      3  C3  UNL A   1      10.577  19.076  31.203  1.00  0.00    +0.000 C 
ATOM     93  H5  UNL A   1      10.434  19.172  30.146  1.00  0.00    +0.000 H 
ATOM     94  H6  UNL A   1      11.624  19.046  31.419  1.00  0.00    +0.000 H 
ATOM     95  H7  UNL A   1      10.133  19.913  31.700  1.00  0.00    +0.000 H 
ENDBRANCH    2    3
ENDBRANCH    4    2
ENDBRANCH    5    4
ENDBRANCH    9    8
BRANCH    9   10
ATOM     10  C10 UNL A   1       7.367  12.098  35.294  1.00  0.00    +0.000 C 
ATOM     11  F1  UNL A   1       7.911  10.898  35.631  1.00  0.00    +0.000 F 
ATOM    101  H13 UNL A   1       7.453  12.238  34.236  1.00  0.00    +0.000 H 
ATOM    102  H14 UNL A   1       6.339  12.104  35.588  1.00  0.00    +0.000 H 
ENDBRANCH    9   10
ENDBRANCH   12    9
ENDBRANCH   14   12
ENDBRANCH   15   14
ENDBRANCH   16   15
ENDBRANCH   17   16
ENDBRANCH   18   17
ENDBRANCH   19   18
ENDBRANCH   20   19
ENDBRANCH   21   20
ENDBRANCH   22   21
ENDBRANCH   24   22
ENDBRANCH   28   27
BRANCH   32   33
ATOM     33  C27 UNL A   1      -2.907   9.127  35.560  1.00  0.00    +0.000 C 
ATOM     34  C28 UNL A   1      -3.158   9.663  34.289  1.00  0.00    +0.000 C 
ATOM     35  F2  UNL A   1      -2.150   9.840  33.421  1.00  0.00    +0.000 F 
ATOM     36  C29 UNL A   1      -4.442  10.046  33.913  1.00  0.00    +0.000 C 
ATOM     37  F3  UNL A   1      -4.652  10.586  32.705  1.00  0.00    +0.000 F 
ATOM     38  C30 UNL A   1      -5.504   9.872  34.788  1.00  0.00    +0.000 C 
ATOM     39  F4  UNL A   1      -6.742  10.228  34.419  1.00  0.00    +0.000 F 
ATOM     40  C31 UNL A   1      -5.281   9.334  36.047  1.00  0.00    +0.000 C 
ATOM     41  F5  UNL A   1      -6.307   9.155  36.889  1.00  0.00    +0.000 F 
ATOM     42  C32 UNL A   1      -3.993   8.974  36.435  1.00  0.00    +0.000 C 
ATOM     43  F6  UNL A   1      -3.807   8.464  37.661  1.00  0.00    +0.000 F 
ENDBRANCH   32   33
BRANCH   49   50
ATOM     50  C38 UNL A   1       1.055   3.121  35.255  1.00  0.00    +0.000 C 
ATOM     51  C39 UNL A   1       1.417   2.771  33.946  1.00  0.00    +0.000 C 
ATOM     52  F7  UNL A   1       1.859   3.708  33.094  1.00  0.00    +0.000 F 
ATOM     53  C40 UNL A   1       1.288   1.459  33.497  1.00  0.00    +0.000 C 
ATOM     54  F8  UNL A   1       1.595   1.156  32.228  1.00  0.00    +0.000 F 
ATOM     55  C41 UNL A   1       0.827   0.472  34.354  1.00  0.00    +0.000 C 
ATOM     56  F9  UNL A   1       0.708  -0.792  33.920  1.00  0.00    +0.000 F 
ATOM     57  C42 UNL A   1       0.482   0.793  35.658  1.00  0.00    +0.000 C 
ATOM     58  F10 UNL A   1       0.048  -0.164  36.491  1.00  0.00    +0.000 F 
ATOM     59  C43 UNL A   1       0.584   2.108  36.103  1.00  0.00    +0.000 C 
ATOM     60  F11 UNL A   1       0.231   2.391  37.366  1.00  0.00    +0.000 F 
ENDBRANCH   49   50
BRANCH   64   65
ATOM     65  C47 UNL A   1       6.337   6.498  38.271  1.00  0.00    +0.000 C 
ATOM     66  C48 UNL A   1       6.538   5.786  39.461  1.00  0.00    +0.000 C 
ATOM     67  F12 UNL A   1       5.490   5.461  40.231  1.00  0.00    +0.000 F 
ATOM     68  C49 UNL A   1       7.821   5.455  39.894  1.00  0.00    +0.000 C 
ATOM     69  F13 UNL A   1       7.988   4.827  41.066  1.00  0.00    +0.000 F 
ATOM     70  C50 UNL A   1       8.924   5.798  39.127  1.00  0.00    +0.000 C 
ATOM     71  F14 UNL A   1      10.157   5.486  39.548  1.00  0.00    +0.000 F 
ATOM     72  C51 UNL A   1       8.748   6.477  37.931  1.00  0.00    +0.000 C 
ATOM     73  F15 UNL A   1       9.810   6.799  37.181  1.00  0.00    +0.000 F 
ATOM     74  C52 UNL A   1       7.468   6.834  37.511  1.00  0.00    +0.000 C 
ATOM     75  F16 UNL A   1       7.329   7.511  36.362  1.00  0.00    +0.000 F 
ENDBRANCH   64   65
TORSDOF 21
ENDMDL
MODEL 7
REMARK VINA RESULT:      -8.1     45.750     50.623
ROOT
ATOM     28  C23 UNL A   1      52.870  20.341  11.532  1.00  0.00    +0.000 C 
ATOM     29  C24 UNL A   1      52.687  20.973  12.884  1.00  0.00    +0.000 C 
ATOM     30  N3  UNL A   1      53.543  21.085  13.868  1.00  0.00    +0.000 N 
ATOM     31  C25 UNL A   1      52.875  21.773  14.873  1.00  0.00    +0.000 C 
ATOM     32  C26 UNL A   1      53.310  22.081  16.118  1.00  0.00    +0.000 C 
ATOM     44  C33 UNL A   1      54.608  21.737  16.634  1.00  0.00    +0.000 C 
ATOM     45  C34 UNL A   1      55.134  21.990  17.889  1.00  0.00    +0.000 C 
ATOM     46  C35 UNL A   1      56.439  21.486  17.926  1.00  0.00    +0.000 C 
ATOM     47  C36 UNL A   1      56.709  20.885  16.708  1.00  0.00    +0.000 C 
ATOM     48  N4  UNL A   1      55.583  21.056  15.921  1.00  0.00    +0.000 N 
ATOM     49  C37 UNL A   1      57.909  20.205  16.293  1.00  0.00    +0.000 C 
ATOM     61  C44 UNL A   1      58.106  19.657  15.070  1.00  0.00    +0.000 C 
ATOM     62  N5  UNL A   1      57.240  19.601  13.988  1.00  0.00    +0.000 N 
ATOM     63  C45 UNL A   1      57.895  18.983  13.035  1.00  0.00    +0.000 C 
ATOM     64  C46 UNL A   1      57.435  18.611  11.650  1.00  0.00    +0.000 C 
ATOM     76  C53 UNL A   1      56.179  18.917  11.271  1.00  0.00    +0.000 C 
ATOM     77  C54 UNL A   1      55.591  18.620   9.969  1.00  0.00    +0.000 C 
ATOM     78  C55 UNL A   1      54.344  19.118   9.929  1.00  0.00    +0.000 C 
ATOM     79  C56 UNL A   1      54.033  19.739  11.218  1.00  0.00    +0.000 C 
ATOM     80  N6  UNL A   1      55.177  19.560  11.956  1.00  0.00    +0.000 N 
ATOM     81  C57 UNL A   1      59.270  18.609  13.398  1.00  0.00    +0.000 C 
ATOM     82  C58 UNL A   1      59.330  19.001  14.663  1.00  0.00    +0.000 C 
ATOM     83  C59 UNL A   1      51.562  22.102  14.361  1.00  0.00    +0.000 C 
ATOM     84  C60 UNL A   1      51.374  21.578  13.158  1.00  0.00    +0.000 C 
ATOM    119  H31 UNL A   1      54.648  22.469  18.663  1.00  0.00    +0.000 H 
ATOM    120  H32 UNL A   1      57.088  21.552  18.726  1.00  0.00    +0.000 H 
ATOM    121  H33 UNL A   1      55.489  20.741  14.993  1.00  0.00    +0.000 H 
ATOM    122  H34 UNL A   1      56.057  18.109   9.203  1.00  0.00    +0.000 H 
ATOM    123  H35 UNL A   1      53.707  19.070   9.118  1.00  0.00    +0.000 H 
ATOM    124  H36 UNL A   1      55.270  19.865  12.887  1.00  0.00    +0.000 H 
ATOM    125  H37 UNL A   1      59.997  18.160  12.820  1.00  0.00    +0.000 H 
ATOM    126  H38 UNL A   1      60.146  18.855  15.278  1.00  0.00    +0.000 H 
ATOM    127  H39 UNL A   1      50.865  22.670  14.866  1.00  0.00    +0.000 H 
ATOM    128  H40 UNL A   1      50.527  21.591  12.568  1.00  0.00    +0.000 H 
ENDROOT
BRANCH   28   27
ATOM    129  H41 UNL A   1      52.266  22.393   9.917  1.00  0.00    +0.000 H 
ATOM    130  H42 UNL A   1      50.449  22.583   8.323  1.00  0.00    +0.000 H 
ATOM     27  C22 UNL A   1      51.786  20.423  10.521  1.00  0.00    +0.000 C 
ATOM    117  H29 UNL A   1      49.298  18.621   9.152  1.00  0.00    +0.000 H 
ATOM     86  C62 UNL A   1      50.606  21.695   8.825  1.00  0.00    +0.000 C 
ATOM     85  C61 UNL A   1      51.625  21.597   9.769  1.00  0.00    +0.000 C 
ATOM     24  C19 UNL A   1      49.795  20.587   8.560  1.00  0.00    +0.000 C 
ATOM     25  C20 UNL A   1      49.926  19.423   9.321  1.00  0.00    +0.000 C 
ATOM     26  C21 UNL A   1      50.908  19.347  10.309  1.00  0.00    +0.000 C 
ATOM    118  H30 UNL A   1      50.992  18.497  10.887  1.00  0.00    +0.000 H 
BRANCH   24   22
ATOM     22  C18 UNL A   1      48.779  20.622   7.486  1.00  0.00    +0.000 C 
ATOM     23  O2  UNL A   1      48.537  21.680   6.910  1.00  0.00    +0.000 O 
BRANCH   22   21
ATOM    116  H28 UNL A   1      48.060  18.791   7.857  1.00  0.00    +0.000 H 
ATOM     21  N2  UNL A   1      48.089  19.483   7.158  1.00  0.00    +0.000 N 
BRANCH   21   20
ATOM    114  H26 UNL A   1      46.737  19.958   5.676  1.00  0.00    +0.000 H 
ATOM    115  H27 UNL A   1      48.137  18.999   5.168  1.00  0.00    +0.000 H 
ATOM     20  C17 UNL A   1      47.396  19.153   5.926  1.00  0.00    +0.000 C 
BRANCH   20   19
ATOM    113  H25 UNL A   1      45.640  18.153   6.465  1.00  0.00    +0.000 H 
ATOM     19  C16 UNL A   1      46.578  17.870   6.036  1.00  0.00    +0.000 C 
ATOM    112  H24 UNL A   1      47.129  17.176   6.635  1.00  0.00    +0.000 H 
BRANCH   19   18
ATOM     18  C15 UNL A   1      46.249  17.190   4.705  1.00  0.00    +0.000 C 
ATOM    110  H22 UNL A   1      47.009  16.461   4.511  1.00  0.00    +0.000 H 
ATOM    111  H23 UNL A   1      45.271  16.772   4.823  1.00  0.00    +0.000 H 
BRANCH   18   17
ATOM     17  C14 UNL A   1      46.166  18.121   3.491  1.00  0.00    +0.000 C 
ATOM    108  H20 UNL A   1      46.939  18.854   3.585  1.00  0.00    +0.000 H 
ATOM    109  H21 UNL A   1      46.270  17.492   2.631  1.00  0.00    +0.000 H 
BRANCH   17   16
ATOM    106  H18 UNL A   1      44.329  18.865   4.261  1.00  0.00    +0.000 H 
ATOM    107  H19 UNL A   1      45.072  19.840   2.964  1.00  0.00    +0.000 H 
ATOM     16  C13 UNL A   1      44.834  18.858   3.316  1.00  0.00    +0.000 C 
BRANCH   16   15
ATOM    105  H17 UNL A   1      43.046  17.845   2.794  1.00  0.00    +0.000 H 
ATOM     15  C12 UNL A   1      43.901  18.239   2.283  1.00  0.00    +0.000 C 
ATOM    104  H16 UNL A   1      44.423  17.462   1.763  1.00  0.00    +0.000 H 
BRANCH   15   14
ATOM     14  N1  UNL A   1      43.443  19.226   1.321  1.00  0.00    +0.000 N 
ATOM    103  H15 UNL A   1      43.988  19.306   0.505  1.00  0.00    +0.000 H 
BRANCH   14   12
ATOM     12  C11 UNL A   1      42.362  20.059   1.388  1.00  0.00    +0.000 C 
ATOM     13  O1  UNL A   1      42.584  21.258   1.579  1.00  0.00    +0.000 O 
BRANCH   12    9
ATOM      9  C9  UNL A   1      40.940  19.547   1.183  1.00  0.00    +0.000 C 
ATOM    100  H12 UNL A   1      40.916  18.787   0.431  1.00  0.00    +0.000 H 
BRANCH    9    8
ATOM     98  H10 UNL A   1      39.287  21.974  -2.454  1.00  0.00    +0.000 H 
ATOM     99  H11 UNL A   1      40.861  20.476  -1.401  1.00  0.00    +0.000 H 
ATOM    132  H44 UNL A   1      37.148  22.249   1.147  1.00  0.00    +0.000 H 
ATOM      5  C5  UNL A   1      38.072  22.214  -0.748  1.00  0.00    +0.000 C 
ATOM      6  C6  UNL A   1      39.162  21.715  -1.463  1.00  0.00    +0.000 C 
ATOM      7  C7  UNL A   1      40.086  20.868  -0.845  1.00  0.00    +0.000 C 
ATOM    131  H43 UNL A   1      38.769  20.816   2.222  1.00  0.00    +0.000 H 
ATOM      8  C8  UNL A   1      39.983  20.538   0.518  1.00  0.00    +0.000 C 
ATOM     87  C63 UNL A   1      38.884  21.053   1.225  1.00  0.00    +0.000 C 
ATOM     88  C64 UNL A   1      37.945  21.881   0.602  1.00  0.00    +0.000 C 
BRANCH    5    4
ATOM     97  H9  UNL A   1      37.449  23.457  -2.319  1.00  0.00    +0.000 H 
ATOM      4  C4  UNL A   1      37.005  23.018  -1.450  1.00  0.00    +0.000 C 
ATOM     96  H8  UNL A   1      36.638  23.764  -0.775  1.00  0.00    +0.000 H 
BRANCH    4    2
ATOM      2  C2  UNL A   1      35.819  22.150  -1.919  1.00  0.00    +0.000 C 
ATOM     92  H4  UNL A   1      35.974  21.164  -1.533  1.00  0.00    +0.000 H 
BRANCH    2    1
ATOM      1  C1  UNL A   1      34.480  22.657  -1.375  1.00  0.00    +0.000 C 
ATOM     90  H2  UNL A   1      34.071  21.932  -0.702  1.00  0.00    +0.000 H 
ATOM     91  H3  UNL A   1      33.801  22.812  -2.188  1.00  0.00    +0.000 H 
ATOM     89  H1  UNL A   1      34.632  23.580  -0.855  1.00  0.00    +0.000 H 
ENDBRANCH    2    1
BRANCH    2    3
ATOM      3  C3  UNL A   1      35.773  22.105  -3.447  1.00  0.00    +0.000 C 
ATOM     93  H5  UNL A   1      36.770  22.047  -3.833  1.00  0.00    +0.000 H 
ATOM     94  H6  UNL A   1      35.300  22.991  -3.816  1.00  0.00    +0.000 H 
ATOM     95  H7  UNL A   1      35.217  21.247  -3.763  1.00  0.00    +0.000 H 
ENDBRANCH    2    3
ENDBRANCH    4    2
ENDBRANCH    5    4
ENDBRANCH    9    8
BRANCH    9   10
ATOM     10  C10 UNL A   1      40.495  18.906   2.503  1.00  0.00    +0.000 C 
ATOM     11  F1  UNL A   1      41.205  19.411   3.548  1.00  0.00    +0.000 F 
ATOM    101  H13 UNL A   1      40.652  17.849   2.450  1.00  0.00    +0.000 H 
ATOM    102  H14 UNL A   1      39.459  19.122   2.656  1.00  0.00    +0.000 H 
ENDBRANCH    9   10
ENDBRANCH   12    9
ENDBRANCH   14   12
ENDBRANCH   15   14
ENDBRANCH   16   15
ENDBRANCH   17   16
ENDBRANCH   18   17
ENDBRANCH   19   18
ENDBRANCH   20   19
ENDBRANCH   21   20
ENDBRANCH   22   21
ENDBRANCH   24   22
ENDBRANCH   28   27
BRANCH   32   33
ATOM     33  C27 UNL A   1      52.362  22.811  17.023  1.00  0.00    +0.000 C 
ATOM     34  C28 UNL A   1      51.560  22.123  17.945  1.00  0.00    +0.000 C 
ATOM     35  F2  UNL A   1      51.578  20.782  17.985  1.00  0.00    +0.000 F 
ATOM     36  C29 UNL A   1      50.714  22.809  18.811  1.00  0.00    +0.000 C 
ATOM     37  F3  UNL A   1      49.931  22.129  19.660  1.00  0.00    +0.000 F 
ATOM     38  C30 UNL A   1      50.676  24.195  18.794  1.00  0.00    +0.000 C 
ATOM     39  F4  UNL A   1      49.871  24.855  19.639  1.00  0.00    +0.000 F 
ATOM     40  C31 UNL A   1      51.469  24.898  17.898  1.00  0.00    +0.000 C 
ATOM     41  F5  UNL A   1      51.441  26.237  17.889  1.00  0.00    +0.000 F 
ATOM     42  C32 UNL A   1      52.297  24.213  17.012  1.00  0.00    +0.000 C 
ATOM     43  F6  UNL A   1      53.047  24.919  16.153  1.00  0.00    +0.000 F 
ENDBRANCH   32   33
BRANCH   49   50
ATOM     50  C38 UNL A   1      59.019  20.075  17.293  1.00  0.00    +0.000 C 
ATOM     51  C39 UNL A   1      59.834  21.164  17.633  1.00  0.00    +0.000 C 
ATOM     52  F7  UNL A   1      59.666  22.348  17.026  1.00  0.00    +0.000 F 
ATOM     53  C40 UNL A   1      60.852  21.027  18.573  1.00  0.00    +0.000 C 
ATOM     54  F8  UNL A   1      61.649  22.068  18.849  1.00  0.00    +0.000 F 
ATOM     55  C41 UNL A   1      61.052  19.813  19.211  1.00  0.00    +0.000 C 
ATOM     56  F9  UNL A   1      62.030  19.684  20.119  1.00  0.00    +0.000 F 
ATOM     57  C42 UNL A   1      60.245  18.727  18.903  1.00  0.00    +0.000 C 
ATOM     58  F10 UNL A   1      60.431  17.556  19.528  1.00  0.00    +0.000 F 
ATOM     59  C43 UNL A   1      59.244  18.853  17.944  1.00  0.00    +0.000 C 
ATOM     60  F11 UNL A   1      58.487  17.783  17.658  1.00  0.00    +0.000 F 
ENDBRANCH   49   50
BRANCH   64   65
ATOM     65  C47 UNL A   1      58.349  17.899  10.719  1.00  0.00    +0.000 C 
ATOM     66  C48 UNL A   1      58.389  16.498  10.683  1.00  0.00    +0.000 C 
ATOM     67  F12 UNL A   1      57.585  15.785  11.485  1.00  0.00    +0.000 F 
ATOM     68  C49 UNL A   1      59.295  15.825   9.866  1.00  0.00    +0.000 C 
ATOM     69  F13 UNL A   1      59.353  14.486   9.896  1.00  0.00    +0.000 F 
ATOM     70  C50 UNL A   1      60.152  16.538   9.042  1.00  0.00    +0.000 C 
ATOM     71  F14 UNL A   1      61.028  15.890   8.262  1.00  0.00    +0.000 F 
ATOM     72  C51 UNL A   1      60.110  17.925   9.039  1.00  0.00    +0.000 C 
ATOM     73  F15 UNL A   1      60.928  18.617   8.236  1.00  0.00    +0.000 F 
ATOM     74  C52 UNL A   1      59.225  18.599   9.878  1.00  0.00    +0.000 C 
ATOM     75  F16 UNL A   1      59.223  19.941   9.871  1.00  0.00    +0.000 F 
ENDBRANCH   64   65
TORSDOF 21
ENDMDL
MODEL 8
REMARK VINA RESULT:      -8.1     38.177     43.453
ROOT
ATOM     28  C23 UNL A   1      39.803  28.909  29.276  1.00  0.00    +0.000 C 
ATOM     29  C24 UNL A   1      40.633  29.812  30.145  1.00  0.00    +0.000 C 
ATOM     30  N3  UNL A   1      41.880  29.681  30.522  1.00  0.00    +0.000 N 
ATOM     31  C25 UNL A   1      42.162  30.803  31.290  1.00  0.00    +0.000 C 
ATOM     32  C26 UNL A   1      43.299  31.103  31.962  1.00  0.00    +0.000 C 
ATOM     44  C33 UNL A   1      44.471  30.269  31.987  1.00  0.00    +0.000 C 
ATOM     45  C34 UNL A   1      45.666  30.478  32.654  1.00  0.00    +0.000 C 
ATOM     46  C35 UNL A   1      46.520  29.407  32.368  1.00  0.00    +0.000 C 
ATOM     47  C36 UNL A   1      45.842  28.513  31.556  1.00  0.00    +0.000 C 
ATOM     48  N4  UNL A   1      44.591  29.059  31.321  1.00  0.00    +0.000 N 
ATOM     49  C37 UNL A   1      46.303  27.254  31.032  1.00  0.00    +0.000 C 
ATOM     61  C44 UNL A   1      45.583  26.440  30.223  1.00  0.00    +0.000 C 
ATOM     62  N5  UNL A   1      44.290  26.603  29.746  1.00  0.00    +0.000 N 
ATOM     63  C45 UNL A   1      44.050  25.558  28.994  1.00  0.00    +0.000 C 
ATOM     64  C46 UNL A   1      42.793  25.188  28.249  1.00  0.00    +0.000 C 
ATOM     76  C53 UNL A   1      41.720  25.997  28.333  1.00  0.00    +0.000 C 
ATOM     77  C54 UNL A   1      40.437  25.772  27.674  1.00  0.00    +0.000 C 
ATOM     78  C55 UNL A   1      39.623  26.808  27.937  1.00  0.00    +0.000 C 
ATOM     79  C56 UNL A   1      40.317  27.754  28.813  1.00  0.00    +0.000 C 
ATOM     80  N6  UNL A   1      41.551  27.183  29.005  1.00  0.00    +0.000 N 
ATOM     81  C57 UNL A   1      45.184  24.629  28.879  1.00  0.00    +0.000 C 
ATOM     82  C58 UNL A   1      46.074  25.190  29.684  1.00  0.00    +0.000 C 
ATOM     83  C59 UNL A   1      40.976  31.632  31.281  1.00  0.00    +0.000 C 
ATOM     84  C60 UNL A   1      39.982  31.036  30.637  1.00  0.00    +0.000 C 
ATOM    119  H31 UNL A   1      45.889  31.285  33.257  1.00  0.00    +0.000 H 
ATOM    120  H32 UNL A   1      47.490  29.303  32.705  1.00  0.00    +0.000 H 
ATOM    121  H33 UNL A   1      43.891  28.649  30.763  1.00  0.00    +0.000 H 
ATOM    122  H34 UNL A   1      40.194  24.950  27.100  1.00  0.00    +0.000 H 
ATOM    123  H35 UNL A   1      38.662  26.920  27.578  1.00  0.00    +0.000 H 
ATOM    124  H36 UNL A   1      42.249  27.585  29.570  1.00  0.00    +0.000 H 
ATOM    125  H37 UNL A   1      45.265  23.766  28.319  1.00  0.00    +0.000 H 
ATOM    126  H38 UNL A   1      46.999  24.786  29.900  1.00  0.00    +0.000 H 
ATOM    127  H39 UNL A   1      40.912  32.564  31.719  1.00  0.00    +0.000 H 
ATOM    128  H40 UNL A   1      39.007  31.350  30.513  1.00  0.00    +0.000 H 
ENDROOT
BRANCH   28   27
ATOM    129  H41 UNL A   1      37.565  28.799  30.748  1.00  0.00    +0.000 H 
ATOM    130  H42 UNL A   1      35.297  29.366  30.102  1.00  0.00    +0.000 H 
ATOM     27  C22 UNL A   1      38.428  29.311  28.885  1.00  0.00    +0.000 C 
ATOM    117  H29 UNL A   1      36.680  30.635  26.335  1.00  0.00    +0.000 H 
ATOM     86  C62 UNL A   1      36.078  29.532  29.448  1.00  0.00    +0.000 C 
ATOM     85  C61 UNL A   1      37.376  29.171  29.804  1.00  0.00    +0.000 C 
ATOM     24  C19 UNL A   1      35.836  30.121  28.203  1.00  0.00    +0.000 C 
ATOM     25  C20 UNL A   1      36.869  30.238  27.269  1.00  0.00    +0.000 C 
ATOM     26  C21 UNL A   1      38.158  29.820  27.604  1.00  0.00    +0.000 C 
ATOM    118  H30 UNL A   1      38.916  29.886  26.909  1.00  0.00    +0.000 H 
BRANCH   24   22
ATOM     22  C18 UNL A   1      34.492  30.617  27.840  1.00  0.00    +0.000 C 
ATOM     23  O2  UNL A   1      34.330  31.808  27.585  1.00  0.00    +0.000 O 
BRANCH   22   21
ATOM    116  H28 UNL A   1      33.286  29.234  28.640  1.00  0.00    +0.000 H 
ATOM     21  N2  UNL A   1      33.426  29.755  27.816  1.00  0.00    +0.000 N 
BRANCH   21   20
ATOM    114  H26 UNL A   1      32.025  28.542  26.913  1.00  0.00    +0.000 H 
ATOM    115  H27 UNL A   1      31.746  30.285  26.771  1.00  0.00    +0.000 H 
ATOM     20  C17 UNL A   1      32.474  29.500  26.750  1.00  0.00    +0.000 C 
BRANCH   20   19
ATOM    113  H25 UNL A   1      33.946  30.186  25.433  1.00  0.00    +0.000 H 
ATOM     19  C16 UNL A   1      33.120  29.508  25.369  1.00  0.00    +0.000 C 
ATOM    112  H24 UNL A   1      32.379  29.804  24.658  1.00  0.00    +0.000 H 
BRANCH   19   18
ATOM     18  C15 UNL A   1      33.705  28.168  24.915  1.00  0.00    +0.000 C 
ATOM    110  H22 UNL A   1      33.037  27.746  24.192  1.00  0.00    +0.000 H 
ATOM    111  H23 UNL A   1      34.677  28.389  24.527  1.00  0.00    +0.000 H 
BRANCH   18   17
ATOM     17  C14 UNL A   1      33.919  27.132  26.022  1.00  0.00    +0.000 C 
ATOM    108  H20 UNL A   1      34.930  27.218  26.364  1.00  0.00    +0.000 H 
ATOM    109  H21 UNL A   1      33.190  27.350  26.775  1.00  0.00    +0.000 H 
BRANCH   17   16
ATOM    106  H18 UNL A   1      34.074  25.043  26.385  1.00  0.00    +0.000 H 
ATOM    107  H19 UNL A   1      32.625  25.562  25.483  1.00  0.00    +0.000 H 
ATOM     16  C13 UNL A   1      33.681  25.674  25.615  1.00  0.00    +0.000 C 
BRANCH   16   15
ATOM    105  H17 UNL A   1      35.373  25.104  24.471  1.00  0.00    +0.000 H 
ATOM     15  C12 UNL A   1      34.330  25.274  24.295  1.00  0.00    +0.000 C 
ATOM    104  H16 UNL A   1      34.188  26.062  23.584  1.00  0.00    +0.000 H 
BRANCH   15   14
ATOM     14  N1  UNL A   1      33.751  24.051  23.767  1.00  0.00    +0.000 N 
ATOM    103  H15 UNL A   1      34.073  23.218  24.180  1.00  0.00    +0.000 H 
BRANCH   14   12
ATOM     12  C11 UNL A   1      32.822  23.895  22.777  1.00  0.00    +0.000 C 
ATOM     13  O1  UNL A   1      33.215  23.436  21.701  1.00  0.00    +0.000 O 
BRANCH   12    9
ATOM      9  C9  UNL A   1      31.348  24.220  23.001  1.00  0.00    +0.000 C 
ATOM    100  H12 UNL A   1      30.782  24.037  22.112  1.00  0.00    +0.000 H 
BRANCH    9    8
ATOM     98  H10 UNL A   1      31.488  28.695  21.656  1.00  0.00    +0.000 H 
ATOM     99  H11 UNL A   1      32.077  26.364  21.443  1.00  0.00    +0.000 H 
ATOM    132  H44 UNL A   1      29.155  27.792  25.027  1.00  0.00    +0.000 H 
ATOM      5  C5  UNL A   1      30.251  28.433  23.344  1.00  0.00    +0.000 C 
ATOM      6  C6  UNL A   1      31.113  28.010  22.331  1.00  0.00    +0.000 C 
ATOM      7  C7  UNL A   1      31.472  26.663  22.224  1.00  0.00    +0.000 C 
ATOM    131  H43 UNL A   1      29.810  25.473  24.863  1.00  0.00    +0.000 H 
ATOM      8  C8  UNL A   1      31.029  25.708  23.156  1.00  0.00    +0.000 C 
ATOM     87  C63 UNL A   1      30.168  26.151  24.172  1.00  0.00    +0.000 C 
ATOM     88  C64 UNL A   1      29.787  27.493  24.267  1.00  0.00    +0.000 C 
BRANCH    5    4
ATOM     97  H9  UNL A   1      30.365  30.427  22.703  1.00  0.00    +0.000 H 
ATOM      4  C4  UNL A   1      29.758  29.859  23.377  1.00  0.00    +0.000 C 
ATOM     96  H8  UNL A   1      29.836  30.225  24.381  1.00  0.00    +0.000 H 
BRANCH    4    2
ATOM      2  C2  UNL A   1      28.293  29.993  22.913  1.00  0.00    +0.000 C 
ATOM     92  H4  UNL A   1      27.802  29.070  23.142  1.00  0.00    +0.000 H 
BRANCH    2    1
ATOM      1  C1  UNL A   1      27.552  31.110  23.654  1.00  0.00    +0.000 C 
ATOM     90  H2  UNL A   1      26.783  30.684  24.265  1.00  0.00    +0.000 H 
ATOM     91  H3  UNL A   1      27.112  31.778  22.943  1.00  0.00    +0.000 H 
ATOM     89  H1  UNL A   1      28.241  31.648  24.271  1.00  0.00    +0.000 H 
ENDBRANCH    2    1
BRANCH    2    3
ATOM      3  C3  UNL A   1      28.240  30.248  21.406  1.00  0.00    +0.000 C 
ATOM     93  H5  UNL A   1      28.883  29.554  20.905  1.00  0.00    +0.000 H 
ATOM     94  H6  UNL A   1      28.565  31.246  21.202  1.00  0.00    +0.000 H 
ATOM     95  H7  UNL A   1      27.237  30.121  21.058  1.00  0.00    +0.000 H 
ENDBRANCH    2    3
ENDBRANCH    4    2
ENDBRANCH    5    4
ENDBRANCH    9    8
BRANCH    9   10
ATOM     10  C10 UNL A   1      30.833  23.266  24.085  1.00  0.00    +0.000 C 
ATOM     11  F1  UNL A   1      31.238  23.673  25.318  1.00  0.00    +0.000 F 
ATOM    101  H13 UNL A   1      31.215  22.284  23.897  1.00  0.00    +0.000 H 
ATOM    102  H14 UNL A   1      29.764  23.263  24.057  1.00  0.00    +0.000 H 
ENDBRANCH    9   10
ENDBRANCH   12    9
ENDBRANCH   14   12
ENDBRANCH   15   14
ENDBRANCH   16   15
ENDBRANCH   17   16
ENDBRANCH   18   17
ENDBRANCH   19   18
ENDBRANCH   20   19
ENDBRANCH   21   20
ENDBRANCH   22   21
ENDBRANCH   24   22
ENDBRANCH   28   27
BRANCH   32   33
ATOM     33  C27 UNL A   1      43.325  32.380  32.749  1.00  0.00    +0.000 C 
ATOM     34  C28 UNL A   1      42.953  32.410  34.100  1.00  0.00    +0.000 C 
ATOM     35  F2  UNL A   1      42.498  31.298  34.699  1.00  0.00    +0.000 F 
ATOM     36  C29 UNL A   1      43.019  33.589  34.836  1.00  0.00    +0.000 C 
ATOM     37  F3  UNL A   1      42.626  33.601  36.117  1.00  0.00    +0.000 F 
ATOM     38  C30 UNL A   1      43.487  34.753  34.244  1.00  0.00    +0.000 C 
ATOM     39  F4  UNL A   1      43.563  35.885  34.958  1.00  0.00    +0.000 F 
ATOM     40  C31 UNL A   1      43.871  34.744  32.911  1.00  0.00    +0.000 C 
ATOM     41  F5  UNL A   1      44.334  35.865  32.342  1.00  0.00    +0.000 F 
ATOM     42  C32 UNL A   1      43.781  33.572  32.166  1.00  0.00    +0.000 C 
ATOM     43  F6  UNL A   1      44.152  33.596  30.877  1.00  0.00    +0.000 F 
ENDBRANCH   32   33
BRANCH   49   50
ATOM     50  C38 UNL A   1      47.676  26.795  31.425  1.00  0.00    +0.000 C 
ATOM     51  C39 UNL A   1      48.818  27.208  30.724  1.00  0.00    +0.000 C 
ATOM     52  F7  UNL A   1      48.699  27.995  29.644  1.00  0.00    +0.000 F 
ATOM     53  C40 UNL A   1      50.085  26.782  31.111  1.00  0.00    +0.000 C 
ATOM     54  F8  UNL A   1      51.159  27.152  30.399  1.00  0.00    +0.000 F 
ATOM     55  C41 UNL A   1      50.237  25.963  32.220  1.00  0.00    +0.000 C 
ATOM     56  F9  UNL A   1      51.459  25.557  32.593  1.00  0.00    +0.000 F 
ATOM     57  C42 UNL A   1      49.122  25.558  32.938  1.00  0.00    +0.000 C 
ATOM     58  F10 UNL A   1      49.268  24.776  34.017  1.00  0.00    +0.000 F 
ATOM     59  C43 UNL A   1      47.850  25.960  32.538  1.00  0.00    +0.000 C 
ATOM     60  F11 UNL A   1      46.789  25.542  33.245  1.00  0.00    +0.000 F 
ENDBRANCH   49   50
BRANCH   64   65
ATOM     65  C47 UNL A   1      42.733  23.937  27.448  1.00  0.00    +0.000 C 
ATOM     66  C48 UNL A   1      42.374  22.720  28.043  1.00  0.00    +0.000 C 
ATOM     67  F12 UNL A   1      42.065  22.678  29.347  1.00  0.00    +0.000 F 
ATOM     68  C49 UNL A   1      42.386  21.532  27.315  1.00  0.00    +0.000 C 
ATOM     69  F13 UNL A   1      42.096  20.374  27.924  1.00  0.00    +0.000 F 
ATOM     70  C50 UNL A   1      42.722  21.544  25.970  1.00  0.00    +0.000 C 
ATOM     71  F14 UNL A   1      42.741  20.400  25.272  1.00  0.00    +0.000 F 
ATOM     72  C51 UNL A   1      43.053  22.741  25.353  1.00  0.00    +0.000 C 
ATOM     73  F15 UNL A   1      43.367  22.759  24.051  1.00  0.00    +0.000 F 
ATOM     74  C52 UNL A   1      43.070  23.925  26.087  1.00  0.00    +0.000 C 
ATOM     75  F16 UNL A   1      43.417  25.064  25.469  1.00  0.00    +0.000 F 
ENDBRANCH   64   65
TORSDOF 21
ENDMDL
MODEL 9
REMARK VINA RESULT:      -8.1     34.166     37.632
ROOT
ATOM     28  C23 UNL A   1      46.414  50.688  18.146  1.00  0.00    +0.000 C 
ATOM     29  C24 UNL A   1      46.700  51.968  17.410  1.00  0.00    +0.000 C 
ATOM     30  N3  UNL A   1      47.719  52.782  17.532  1.00  0.00    +0.000 N 
ATOM     31  C25 UNL A   1      47.507  53.792  16.602  1.00  0.00    +0.000 C 
ATOM     32  C26 UNL A   1      48.245  54.906  16.383  1.00  0.00    +0.000 C 
ATOM     44  C33 UNL A   1      49.441  55.244  17.108  1.00  0.00    +0.000 C 
ATOM     45  C34 UNL A   1      50.249  56.359  16.971  1.00  0.00    +0.000 C 
ATOM     46  C35 UNL A   1      51.309  56.247  17.877  1.00  0.00    +0.000 C 
ATOM     47  C36 UNL A   1      51.138  55.081  18.605  1.00  0.00    +0.000 C 
ATOM     48  N4  UNL A   1      49.996  54.469  18.116  1.00  0.00    +0.000 N 
ATOM     49  C37 UNL A   1      51.959  54.562  19.668  1.00  0.00    +0.000 C 
ATOM     61  C44 UNL A   1      51.736  53.397  20.322  1.00  0.00    +0.000 C 
ATOM     62  N5  UNL A   1      50.708  52.481  20.151  1.00  0.00    +0.000 N 
ATOM     63  C45 UNL A   1      50.939  51.516  21.006  1.00  0.00    +0.000 C 
ATOM     64  C46 UNL A   1      50.131  50.276  21.285  1.00  0.00    +0.000 C 
ATOM     76  C53 UNL A   1      48.989  50.070  20.602  1.00  0.00    +0.000 C 
ATOM     77  C54 UNL A   1      48.100  48.924  20.763  1.00  0.00    +0.000 C 
ATOM     78  C55 UNL A   1      47.091  49.025  19.882  1.00  0.00    +0.000 C 
ATOM     79  C56 UNL A   1      47.244  50.265  19.118  1.00  0.00    +0.000 C 
ATOM     80  N6  UNL A   1      48.391  50.826  19.623  1.00  0.00    +0.000 N 
ATOM     81  C57 UNL A   1      52.168  51.695  21.794  1.00  0.00    +0.000 C 
ATOM     82  C58 UNL A   1      52.589  52.878  21.371  1.00  0.00    +0.000 C 
ATOM     83  C59 UNL A   1      46.294  53.462  15.887  1.00  0.00    +0.000 C 
ATOM     84  C60 UNL A   1      45.724  52.376  16.388  1.00  0.00    +0.000 C 
ATOM    119  H31 UNL A   1      50.096  57.139  16.314  1.00  0.00    +0.000 H 
ATOM    120  H32 UNL A   1      52.085  56.919  17.984  1.00  0.00    +0.000 H 
ATOM    121  H33 UNL A   1      49.632  53.613  18.436  1.00  0.00    +0.000 H 
ATOM    122  H34 UNL A   1      48.226  48.159  21.444  1.00  0.00    +0.000 H 
ATOM    123  H35 UNL A   1      46.330  48.339  19.762  1.00  0.00    +0.000 H 
ATOM    124  H36 UNL A   1      48.751  51.687  19.312  1.00  0.00    +0.000 H 
ATOM    125  H37 UNL A   1      52.592  51.065  22.493  1.00  0.00    +0.000 H 
ATOM    126  H38 UNL A   1      53.418  53.368  21.743  1.00  0.00    +0.000 H 
ATOM    127  H39 UNL A   1      45.921  54.002  15.090  1.00  0.00    +0.000 H 
ATOM    128  H40 UNL A   1      44.829  51.932  16.129  1.00  0.00    +0.000 H 
ENDROOT
BRANCH   28   27
ATOM    129  H41 UNL A   1      46.314  48.659  16.397  1.00  0.00    +0.000 H 
ATOM    130  H42 UNL A   1      44.394  47.354  15.698  1.00  0.00    +0.000 H 
ATOM     27  C22 UNL A   1      45.240  49.861  17.768  1.00  0.00    +0.000 C 
ATOM    117  H29 UNL A   1      41.973  49.432  18.444  1.00  0.00    +0.000 H 
ATOM     86  C62 UNL A   1      44.295  48.061  16.444  1.00  0.00    +0.000 C 
ATOM     85  C61 UNL A   1      45.388  48.837  16.819  1.00  0.00    +0.000 C 
ATOM     24  C19 UNL A   1      43.063  48.240  17.081  1.00  0.00    +0.000 C 
ATOM     25  C20 UNL A   1      42.895  49.275  18.006  1.00  0.00    +0.000 C 
ATOM     26  C21 UNL A   1      43.976  50.092  18.336  1.00  0.00    +0.000 C 
ATOM    118  H30 UNL A   1      43.848  50.870  19.001  1.00  0.00    +0.000 H 
BRANCH   24   22
ATOM     22  C18 UNL A   1      41.914  47.358  16.787  1.00  0.00    +0.000 C 
ATOM     23  O2  UNL A   1      41.131  47.656  15.888  1.00  0.00    +0.000 O 
BRANCH   22   21
ATOM    116  H28 UNL A   1      41.921  46.311  18.493  1.00  0.00    +0.000 H 
ATOM     21  N2  UNL A   1      41.708  46.228  17.536  1.00  0.00    +0.000 N 
BRANCH   21   20
ATOM    114  H26 UNL A   1      40.409  45.065  16.436  1.00  0.00    +0.000 H 
ATOM    115  H27 UNL A   1      42.037  44.407  16.658  1.00  0.00    +0.000 H 
ATOM     20  C17 UNL A   1      41.221  44.925  17.118  1.00  0.00    +0.000 C 
BRANCH   20   19
ATOM    113  H25 UNL A   1      40.752  43.062  17.944  1.00  0.00    +0.000 H 
ATOM     19  C16 UNL A   1      40.736  44.075  18.287  1.00  0.00    +0.000 C 
ATOM    112  H24 UNL A   1      39.761  44.417  18.564  1.00  0.00    +0.000 H 
BRANCH   19   18
ATOM     18  C15 UNL A   1      41.623  44.114  19.534  1.00  0.00    +0.000 C 
ATOM    110  H22 UNL A   1      42.198  45.017  19.500  1.00  0.00    +0.000 H 
ATOM    111  H23 UNL A   1      40.958  44.058  20.369  1.00  0.00    +0.000 H 
BRANCH   18   17
ATOM     17  C14 UNL A   1      42.596  42.941  19.689  1.00  0.00    +0.000 C 
ATOM    108  H20 UNL A   1      42.323  42.190  18.976  1.00  0.00    +0.000 H 
ATOM    109  H21 UNL A   1      43.574  43.347  19.535  1.00  0.00    +0.000 H 
BRANCH   17   16
ATOM    106  H18 UNL A   1      42.046  41.388  21.033  1.00  0.00    +0.000 H 
ATOM    107  H19 UNL A   1      43.653  42.111  21.309  1.00  0.00    +0.000 H 
ATOM     16  C13 UNL A   1      42.624  42.288  21.076  1.00  0.00    +0.000 C 
BRANCH   16   15
ATOM    105  H17 UNL A   1      41.263  42.630  22.664  1.00  0.00    +0.000 H 
ATOM     15  C12 UNL A   1      42.066  43.159  22.194  1.00  0.00    +0.000 C 
ATOM    104  H16 UNL A   1      41.721  44.083  21.778  1.00  0.00    +0.000 H 
BRANCH   15   14
ATOM     14  N1  UNL A   1      43.075  43.443  23.200  1.00  0.00    +0.000 N 
ATOM    103  H15 UNL A   1      42.740  43.544  24.120  1.00  0.00    +0.000 H 
BRANCH   14   12
ATOM     12  C11 UNL A   1      44.425  43.591  23.049  1.00  0.00    +0.000 C 
ATOM     13  O1  UNL A   1      45.108  42.563  23.038  1.00  0.00    +0.000 O 
BRANCH   12    9
ATOM      9  C9  UNL A   1      45.066  44.961  22.849  1.00  0.00    +0.000 C 
ATOM    100  H12 UNL A   1      44.324  45.731  22.864  1.00  0.00    +0.000 H 
BRANCH    9    8
ATOM     98  H10 UNL A   1      48.277  44.578  19.474  1.00  0.00    +0.000 H 
ATOM     99  H11 UNL A   1      47.464  44.236  21.721  1.00  0.00    +0.000 H 
ATOM    132  H44 UNL A   1      44.668  46.469  18.462  1.00  0.00    +0.000 H 
ATOM      5  C5  UNL A   1      46.530  45.529  18.774  1.00  0.00    +0.000 C 
ATOM      6  C6  UNL A   1      47.334  44.909  19.732  1.00  0.00    +0.000 C 
ATOM      7  C7  UNL A   1      46.871  44.734  21.039  1.00  0.00    +0.000 C 
ATOM    131  H43 UNL A   1      43.888  46.200  20.732  1.00  0.00    +0.000 H 
ATOM      8  C8  UNL A   1      45.616  45.220  21.446  1.00  0.00    +0.000 C 
ATOM     87  C63 UNL A   1      44.822  45.847  20.472  1.00  0.00    +0.000 C 
ATOM     88  C64 UNL A   1      45.272  46.001  19.157  1.00  0.00    +0.000 C 
BRANCH    5    4
ATOM     97  H9  UNL A   1      46.469  46.420  16.877  1.00  0.00    +0.000 H 
ATOM      4  C4  UNL A   1      46.976  45.597  17.334  1.00  0.00    +0.000 C 
ATOM     96  H8  UNL A   1      46.733  44.669  16.857  1.00  0.00    +0.000 H 
BRANCH    4    2
ATOM      2  C2  UNL A   1      48.492  45.843  17.193  1.00  0.00    +0.000 C 
ATOM     92  H4  UNL A   1      48.975  45.329  17.997  1.00  0.00    +0.000 H 
BRANCH    2    1
ATOM      1  C1  UNL A   1      49.050  45.282  15.881  1.00  0.00    +0.000 C 
ATOM     90  H2  UNL A   1      48.261  45.206  15.162  1.00  0.00    +0.000 H 
ATOM     91  H3  UNL A   1      49.465  44.311  16.058  1.00  0.00    +0.000 H 
ATOM     89  H1  UNL A   1      49.812  45.934  15.509  1.00  0.00    +0.000 H 
ENDBRANCH    2    1
BRANCH    2    3
ATOM      3  C3  UNL A   1      48.791  47.341  17.283  1.00  0.00    +0.000 C 
ATOM     93  H5  UNL A   1      49.785  47.484  17.655  1.00  0.00    +0.000 H 
ATOM     94  H6  UNL A   1      48.093  47.805  17.947  1.00  0.00    +0.000 H 
ATOM     95  H7  UNL A   1      48.707  47.781  16.312  1.00  0.00    +0.000 H 
ENDBRANCH    2    3
ENDBRANCH    4    2
ENDBRANCH    5    4
ENDBRANCH    9    8
BRANCH    9   10
ATOM     10  C10 UNL A   1      46.006  45.199  24.036  1.00  0.00    +0.000 C 
ATOM     11  F1  UNL A   1      45.304  45.556  25.145  1.00  0.00    +0.000 F 
ATOM    101  H13 UNL A   1      46.693  45.982  23.788  1.00  0.00    +0.000 H 
ATOM    102  H14 UNL A   1      46.534  44.292  24.241  1.00  0.00    +0.000 H 
ENDBRANCH    9   10
ENDBRANCH   12    9
ENDBRANCH   14   12
ENDBRANCH   15   14
ENDBRANCH   16   15
ENDBRANCH   17   16
ENDBRANCH   18   17
ENDBRANCH   19   18
ENDBRANCH   20   19
ENDBRANCH   21   20
ENDBRANCH   22   21
ENDBRANCH   24   22
ENDBRANCH   28   27
BRANCH   32   33
ATOM     33  C27 UNL A   1      47.768  55.859  15.327  1.00  0.00    +0.000 C 
ATOM     34  C28 UNL A   1      47.062  57.023  15.663  1.00  0.00    +0.000 C 
ATOM     35  F2  UNL A   1      46.739  57.270  16.942  1.00  0.00    +0.000 F 
ATOM     36  C29 UNL A   1      46.658  57.924  14.683  1.00  0.00    +0.000 C 
ATOM     37  F3  UNL A   1      45.954  59.012  15.023  1.00  0.00    +0.000 F 
ATOM     38  C30 UNL A   1      46.979  57.695  13.353  1.00  0.00    +0.000 C 
ATOM     39  F4  UNL A   1      46.602  58.572  12.412  1.00  0.00    +0.000 F 
ATOM     40  C31 UNL A   1      47.687  56.556  12.999  1.00  0.00    +0.000 C 
ATOM     41  F5  UNL A   1      48.007  56.340  11.716  1.00  0.00    +0.000 F 
ATOM     42  C32 UNL A   1      48.069  55.639  13.975  1.00  0.00    +0.000 C 
ATOM     43  F6  UNL A   1      48.746  54.544  13.601  1.00  0.00    +0.000 F 
ENDBRANCH   32   33
BRANCH   49   50
ATOM     50  C38 UNL A   1      53.140  55.379  20.101  1.00  0.00    +0.000 C 
ATOM     51  C39 UNL A   1      53.007  56.438  21.010  1.00  0.00    +0.000 C 
ATOM     52  F7  UNL A   1      51.797  56.777  21.480  1.00  0.00    +0.000 F 
ATOM     53  C40 UNL A   1      54.117  57.178  21.410  1.00  0.00    +0.000 C 
ATOM     54  F8  UNL A   1      53.961  58.215  22.244  1.00  0.00    +0.000 F 
ATOM     55  C41 UNL A   1      55.379  56.853  20.936  1.00  0.00    +0.000 C 
ATOM     56  F9  UNL A   1      56.446  57.564  21.326  1.00  0.00    +0.000 F 
ATOM     57  C42 UNL A   1      55.534  55.798  20.050  1.00  0.00    +0.000 C 
ATOM     58  F10 UNL A   1      56.755  55.476  19.599  1.00  0.00    +0.000 F 
ATOM     59  C43 UNL A   1      54.424  55.073  19.627  1.00  0.00    +0.000 C 
ATOM     60  F11 UNL A   1      54.603  54.065  18.759  1.00  0.00    +0.000 F 
ENDBRANCH   49   50
BRANCH   64   65
ATOM     65  C47 UNL A   1      50.578  49.301  22.314  1.00  0.00    +0.000 C 
ATOM     66  C48 UNL A   1      51.372  48.200  21.964  1.00  0.00    +0.000 C 
ATOM     67  F12 UNL A   1      51.748  48.026  20.689  1.00  0.00    +0.000 F 
ATOM     68  C49 UNL A   1      51.735  47.244  22.911  1.00  0.00    +0.000 C 
ATOM     69  F13 UNL A   1      52.444  46.170  22.536  1.00  0.00    +0.000 F 
ATOM     70  C50 UNL A   1      51.341  47.389  24.232  1.00  0.00    +0.000 C 
ATOM     71  F14 UNL A   1      51.683  46.465  25.140  1.00  0.00    +0.000 F 
ATOM     72  C51 UNL A   1      50.580  48.486  24.608  1.00  0.00    +0.000 C 
ATOM     73  F15 UNL A   1      50.207  48.636  25.886  1.00  0.00    +0.000 F 
ATOM     74  C52 UNL A   1      50.192  49.427  23.657  1.00  0.00    +0.000 C 
ATOM     75  F16 UNL A   1      49.436  50.465  24.045  1.00  0.00    +0.000 F 
ENDBRANCH   64   65
TORSDOF 21
ENDMDL
MODEL 10
REMARK VINA RESULT:      -8.0     47.577     52.490
ROOT
ATOM     28  C23 UNL A   1      56.711  19.051  10.617  1.00  0.00    +0.000 C 
ATOM     29  C24 UNL A   1      55.358  19.654  10.363  1.00  0.00    +0.000 C 
ATOM     30  N3  UNL A   1      54.612  20.380  11.158  1.00  0.00    +0.000 N 
ATOM     31  C25 UNL A   1      53.478  20.700  10.423  1.00  0.00    +0.000 C 
ATOM     32  C26 UNL A   1      52.376  21.380  10.823  1.00  0.00    +0.000 C 
ATOM     44  C33 UNL A   1      52.191  21.922  12.143  1.00  0.00    +0.000 C 
ATOM     45  C34 UNL A   1      51.103  22.611  12.649  1.00  0.00    +0.000 C 
ATOM     46  C35 UNL A   1      51.382  22.957  13.975  1.00  0.00    +0.000 C 
ATOM     47  C36 UNL A   1      52.627  22.448  14.306  1.00  0.00    +0.000 C 
ATOM     48  N4  UNL A   1      53.117  21.826  13.170  1.00  0.00    +0.000 N 
ATOM     49  C37 UNL A   1      53.319  22.526  15.566  1.00  0.00    +0.000 C 
ATOM     61  C44 UNL A   1      54.551  22.018  15.808  1.00  0.00    +0.000 C 
ATOM     62  N5  UNL A   1      55.390  21.318  14.953  1.00  0.00    +0.000 N 
ATOM     63  C45 UNL A   1      56.471  21.055  15.645  1.00  0.00    +0.000 C 
ATOM     64  C46 UNL A   1      57.701  20.288  15.236  1.00  0.00    +0.000 C 
ATOM     76  C53 UNL A   1      57.764  19.760  13.999  1.00  0.00    +0.000 C 
ATOM     77  C54 UNL A   1      58.883  18.992  13.461  1.00  0.00    +0.000 C 
ATOM     78  C55 UNL A   1      58.620  18.674  12.183  1.00  0.00    +0.000 C 
ATOM     79  C56 UNL A   1      57.297  19.186  11.822  1.00  0.00    +0.000 C 
ATOM     80  N6  UNL A   1      56.859  19.805  12.967  1.00  0.00    +0.000 N 
ATOM     81  C57 UNL A   1      56.452  21.594  17.013  1.00  0.00    +0.000 C 
ATOM     82  C58 UNL A   1      55.242  22.129  17.075  1.00  0.00    +0.000 C 
ATOM     83  C59 UNL A   1      53.656  20.137   9.102  1.00  0.00    +0.000 C 
ATOM     84  C60 UNL A   1      54.774  19.430   9.031  1.00  0.00    +0.000 C 
ATOM    119  H31 UNL A   1      50.236  22.832  12.136  1.00  0.00    +0.000 H 
ATOM    120  H32 UNL A   1      50.764  23.499  14.600  1.00  0.00    +0.000 H 
ATOM    121  H33 UNL A   1      53.993  21.381  13.103  1.00  0.00    +0.000 H 
ATOM    122  H34 UNL A   1      59.737  18.735  13.979  1.00  0.00    +0.000 H 
ATOM    123  H35 UNL A   1      59.251  18.152  11.555  1.00  0.00    +0.000 H 
ATOM    124  H36 UNL A   1      55.979  20.241  13.040  1.00  0.00    +0.000 H 
ATOM    125  H37 UNL A   1      57.188  21.563  17.736  1.00  0.00    +0.000 H 
ATOM    126  H38 UNL A   1      54.843  22.570  17.918  1.00  0.00    +0.000 H 
ATOM    127  H39 UNL A   1      52.998  20.270   8.318  1.00  0.00    +0.000 H 
ATOM    128  H40 UNL A   1      55.141  18.870   8.245  1.00  0.00    +0.000 H 
ENDROOT
BRANCH   28   27
ATOM    129  H41 UNL A   1      56.724  16.428  10.066  1.00  0.00    +0.000 H 
ATOM    130  H42 UNL A   1      57.958  15.248   8.345  1.00  0.00    +0.000 H 
ATOM     27  C22 UNL A   1      57.429  18.348   9.524  1.00  0.00    +0.000 C 
ATOM    117  H29 UNL A   1      59.433  18.907   6.882  1.00  0.00    +0.000 H 
ATOM     86  C62 UNL A   1      57.991  16.278   8.390  1.00  0.00    +0.000 C 
ATOM     85  C61 UNL A   1      57.314  16.955   9.402  1.00  0.00    +0.000 C 
ATOM     24  C19 UNL A   1      58.717  16.999   7.436  1.00  0.00    +0.000 C 
ATOM     25  C20 UNL A   1      58.863  18.383   7.564  1.00  0.00    +0.000 C 
ATOM     26  C21 UNL A   1      58.233  19.053   8.614  1.00  0.00    +0.000 C 
ATOM    118  H30 UNL A   1      58.359  20.071   8.722  1.00  0.00    +0.000 H 
BRANCH   24   22
ATOM     22  C18 UNL A   1      59.353  16.321   6.287  1.00  0.00    +0.000 C 
ATOM     23  O2  UNL A   1      60.530  15.978   6.357  1.00  0.00    +0.000 O 
BRANCH   22   21
ATOM    116  H28 UNL A   1      58.932  15.339   4.594  1.00  0.00    +0.000 H 
ATOM     21  N2  UNL A   1      58.637  16.105   5.137  1.00  0.00    +0.000 N 
BRANCH   21   20
ATOM    114  H26 UNL A   1      57.466  17.801   5.086  1.00  0.00    +0.000 H 
ATOM    115  H27 UNL A   1      57.648  16.940   3.549  1.00  0.00    +0.000 H 
ATOM     20  C17 UNL A   1      57.506  16.845   4.606  1.00  0.00    +0.000 C 
BRANCH   20   19
ATOM    113  H25 UNL A   1      56.425  15.139   5.147  1.00  0.00    +0.000 H 
ATOM     19  C16 UNL A   1      56.177  16.130   4.831  1.00  0.00    +0.000 C 
ATOM    112  H24 UNL A   1      55.626  16.162   3.915  1.00  0.00    +0.000 H 
BRANCH   19   18
ATOM     18  C15 UNL A   1      55.297  16.722   5.935  1.00  0.00    +0.000 C 
ATOM    110  H22 UNL A   1      55.930  17.276   6.598  1.00  0.00    +0.000 H 
ATOM    111  H23 UNL A   1      54.565  17.320   5.437  1.00  0.00    +0.000 H 
BRANCH   18   17
ATOM     17  C14 UNL A   1      54.514  15.704   6.771  1.00  0.00    +0.000 C 
ATOM    108  H20 UNL A   1      53.720  15.321   6.163  1.00  0.00    +0.000 H 
ATOM    109  H21 UNL A   1      55.223  14.962   7.072  1.00  0.00    +0.000 H 
BRANCH   17   16
ATOM    106  H18 UNL A   1      54.451  15.854   8.890  1.00  0.00    +0.000 H 
ATOM    107  H19 UNL A   1      53.950  17.316   8.001  1.00  0.00    +0.000 H 
ATOM     16  C13 UNL A   1      53.898  16.249   8.064  1.00  0.00    +0.000 C 
BRANCH   16   15
ATOM    105  H17 UNL A   1      52.302  15.528   9.258  1.00  0.00    +0.000 H 
ATOM     15  C12 UNL A   1      52.429  15.896   8.261  1.00  0.00    +0.000 C 
ATOM    104  H16 UNL A   1      52.150  15.151   7.544  1.00  0.00    +0.000 H 
BRANCH   15   14
ATOM     14  N1  UNL A   1      51.574  17.058   8.089  1.00  0.00    +0.000 N 
ATOM    103  H15 UNL A   1      51.703  17.778   8.748  1.00  0.00    +0.000 H 
BRANCH   14   12
ATOM     12  C11 UNL A   1      50.618  17.293   7.143  1.00  0.00    +0.000 C 
ATOM     13  O1  UNL A   1      49.444  17.076   7.460  1.00  0.00    +0.000 O 
BRANCH   12    9
ATOM      9  C9  UNL A   1      50.969  17.850   5.767  1.00  0.00    +0.000 C 
ATOM    100  H12 UNL A   1      50.083  18.057   5.206  1.00  0.00    +0.000 H 
BRANCH    9    8
ATOM     98  H10 UNL A   1      51.405  13.628   3.807  1.00  0.00    +0.000 H 
ATOM     99  H11 UNL A   1      50.453  15.177   5.396  1.00  0.00    +0.000 H 
ATOM    132  H44 UNL A   1      53.765  16.716   2.221  1.00  0.00    +0.000 H 
ATOM      5  C5  UNL A   1      52.644  15.050   2.865  1.00  0.00    +0.000 C 
ATOM      6  C6  UNL A   1      51.707  14.615   3.803  1.00  0.00    +0.000 C 
ATOM      7  C7  UNL A   1      51.176  15.507   4.739  1.00  0.00    +0.000 C 
ATOM    131  H43 UNL A   1      52.873  18.246   3.864  1.00  0.00    +0.000 H 
ATOM      8  C8  UNL A   1      51.603  16.846   4.804  1.00  0.00    +0.000 C 
ATOM     87  C63 UNL A   1      52.551  17.265   3.856  1.00  0.00    +0.000 C 
ATOM     88  C64 UNL A   1      53.066  16.381   2.903  1.00  0.00    +0.000 C 
BRANCH    5    4
ATOM     97  H9  UNL A   1      52.476  14.264   0.927  1.00  0.00    +0.000 H 
ATOM      4  C4  UNL A   1      53.116  14.121   1.773  1.00  0.00    +0.000 C 
ATOM     96  H8  UNL A   1      53.070  13.115   2.137  1.00  0.00    +0.000 H 
BRANCH    4    2
ATOM      2  C2  UNL A   1      54.561  14.418   1.321  1.00  0.00    +0.000 C 
ATOM     92  H4  UNL A   1      54.726  15.467   1.454  1.00  0.00    +0.000 H 
BRANCH    2    1
ATOM      1  C1  UNL A   1      55.596  13.674   2.170  1.00  0.00    +0.000 C 
ATOM     90  H2  UNL A   1      56.558  13.748   1.705  1.00  0.00    +0.000 H 
ATOM     91  H3  UNL A   1      55.317  12.643   2.249  1.00  0.00    +0.000 H 
ATOM     89  H1  UNL A   1      55.638  14.109   3.146  1.00  0.00    +0.000 H 
ENDBRANCH    2    1
BRANCH    2    3
ATOM      3  C3  UNL A   1      54.737  14.049  -0.152  1.00  0.00    +0.000 C 
ATOM     93  H5  UNL A   1      53.832  13.613  -0.521  1.00  0.00    +0.000 H 
ATOM     94  H6  UNL A   1      55.537  13.346  -0.251  1.00  0.00    +0.000 H 
ATOM     95  H7  UNL A   1      54.964  14.929  -0.716  1.00  0.00    +0.000 H 
ENDBRANCH    2    3
ENDBRANCH    4    2
ENDBRANCH    5    4
ENDBRANCH    9    8
BRANCH    9   10
ATOM     10  C10 UNL A   1      51.699  19.179   5.990  1.00  0.00    +0.000 C 
ATOM     11  F1  UNL A   1      50.960  20.221   5.523  1.00  0.00    +0.000 F 
ATOM    101  H13 UNL A   1      52.636  19.155   5.474  1.00  0.00    +0.000 H 
ATOM    102  H14 UNL A   1      51.855  19.312   7.040  1.00  0.00    +0.000 H 
ENDBRANCH    9   10
ENDBRANCH   12    9
ENDBRANCH   14   12
ENDBRANCH   15   14
ENDBRANCH   16   15
ENDBRANCH   17   16
ENDBRANCH   18   17
ENDBRANCH   19   18
ENDBRANCH   20   19
ENDBRANCH   21   20
ENDBRANCH   22   21
ENDBRANCH   24   22
ENDBRANCH   28   27
BRANCH   32   33
ATOM     33  C27 UNL A   1      51.271  21.559   9.825  1.00  0.00    +0.000 C 
ATOM     34  C28 UNL A   1      50.384  20.514   9.527  1.00  0.00    +0.000 C 
ATOM     35  F2  UNL A   1      50.554  19.305  10.084  1.00  0.00    +0.000 F 
ATOM     36  C29 UNL A   1      49.334  20.699   8.632  1.00  0.00    +0.000 C 
ATOM     37  F3  UNL A   1      48.519  19.677   8.336  1.00  0.00    +0.000 F 
ATOM     38  C30 UNL A   1      49.133  21.938   8.042  1.00  0.00    +0.000 C 
ATOM     39  F4  UNL A   1      48.113  22.118   7.191  1.00  0.00    +0.000 F 
ATOM     40  C31 UNL A   1      49.991  22.989   8.331  1.00  0.00    +0.000 C 
ATOM     41  F5  UNL A   1      49.790  24.189   7.771  1.00  0.00    +0.000 F 
ATOM     42  C32 UNL A   1      51.057  22.800   9.206  1.00  0.00    +0.000 C 
ATOM     43  F6  UNL A   1      51.875  23.832   9.461  1.00  0.00    +0.000 F 
ENDBRANCH   32   33
BRANCH   49   50
ATOM     50  C38 UNL A   1      52.618  23.204  16.706  1.00  0.00    +0.000 C 
ATOM     51  C39 UNL A   1      52.679  24.593  16.886  1.00  0.00    +0.000 C 
ATOM     52  F7  UNL A   1      53.415  25.349  16.057  1.00  0.00    +0.000 F 
ATOM     53  C40 UNL A   1      52.012  25.206  17.943  1.00  0.00    +0.000 C 
ATOM     54  F8  UNL A   1      52.121  26.529  18.122  1.00  0.00    +0.000 F 
ATOM     55  C41 UNL A   1      51.250  24.448  18.819  1.00  0.00    +0.000 C 
ATOM     56  F9  UNL A   1      50.604  25.040  19.833  1.00  0.00    +0.000 F 
ATOM     57  C42 UNL A   1      51.161  23.074  18.648  1.00  0.00    +0.000 C 
ATOM     58  F10 UNL A   1      50.415  22.342  19.487  1.00  0.00    +0.000 F 
ATOM     59  C43 UNL A   1      51.848  22.455  17.608  1.00  0.00    +0.000 C 
ATOM     60  F11 UNL A   1      51.755  21.123  17.476  1.00  0.00    +0.000 F 
ENDBRANCH   49   50
BRANCH   64   65
ATOM     65  C47 UNL A   1      58.824  20.101  16.192  1.00  0.00    +0.000 C 
ATOM     66  C48 UNL A   1      59.912  20.985  16.205  1.00  0.00    +0.000 C 
ATOM     67  F12 UNL A   1      59.939  22.023  15.357  1.00  0.00    +0.000 F 
ATOM     68  C49 UNL A   1      61.000  20.774  17.048  1.00  0.00    +0.000 C 
ATOM     69  F13 UNL A   1      62.054  21.602  16.996  1.00  0.00    +0.000 F 
ATOM     70  C50 UNL A   1      61.007  19.697  17.920  1.00  0.00    +0.000 C 
ATOM     71  F14 UNL A   1      62.058  19.490  18.725  1.00  0.00    +0.000 F 
ATOM     72  C51 UNL A   1      59.929  18.825  17.946  1.00  0.00    +0.000 C 
ATOM     73  F15 UNL A   1      59.926  17.789  18.795  1.00  0.00    +0.000 F 
ATOM     74  C52 UNL A   1      58.852  19.017  17.083  1.00  0.00    +0.000 C 
ATOM     75  F16 UNL A   1      57.834  18.145  17.113  1.00  0.00    +0.000 F 
ENDBRANCH   64   65
TORSDOF 21
ENDMDL
