MODEL 1
REMARK VINA RESULT:     -10.7      0.000      0.000
ROOT
ATOM     33  C23 UNL A   1      38.034  30.009  29.788  1.00  0.00    +0.000 C 
ATOM     34  C24 UNL A   1      39.084  29.093  29.230  1.00  0.00    +0.000 C 
ATOM     35  N5  UNL A   1      40.208  28.695  29.771  1.00  0.00    +0.000 N 
ATOM     36  C25 UNL A   1      40.779  27.821  28.856  1.00  0.00    +0.000 C 
ATOM     37  C26 UNL A   1      41.973  27.184  28.928  1.00  0.00    +0.000 C 
ATOM     49  C33 UNL A   1      42.900  27.324  30.021  1.00  0.00    +0.000 C 
ATOM     50  C34 UNL A   1      44.172  26.792  30.145  1.00  0.00    +0.000 C 
ATOM     51  C35 UNL A   1      44.667  27.135  31.409  1.00  0.00    +0.000 C 
ATOM     52  C36 UNL A   1      43.726  27.923  32.051  1.00  0.00    +0.000 C 
ATOM     53  N6  UNL A   1      42.651  28.038  31.184  1.00  0.00    +0.000 N 
ATOM     54  C37 UNL A   1      43.797  28.521  33.360  1.00  0.00    +0.000 C 
ATOM     66  C44 UNL A   1      42.855  29.341  33.891  1.00  0.00    +0.000 C 
ATOM     67  N7  UNL A   1      41.652  29.758  33.339  1.00  0.00    +0.000 N 
ATOM     68  C45 UNL A   1      41.088  30.522  34.243  1.00  0.00    +0.000 C 
ATOM     69  C46 UNL A   1      39.774  31.252  34.178  1.00  0.00    +0.000 C 
ATOM     81  C53 UNL A   1      39.029  31.171  33.059  1.00  0.00    +0.000 C 
ATOM     82  C54 UNL A   1      37.734  31.816  32.860  1.00  0.00    +0.000 C 
ATOM     83  C55 UNL A   1      37.243  31.449  31.666  1.00  0.00    +0.000 C 
ATOM     84  C56 UNL A   1      38.209  30.577  30.997  1.00  0.00    +0.000 C 
ATOM     85  N8  UNL A   1      39.251  30.490  31.887  1.00  0.00    +0.000 N 
ATOM     86  C57 UNL A   1      41.867  30.665  35.481  1.00  0.00    +0.000 C 
ATOM     87  C58 UNL A   1      42.949  29.951  35.200  1.00  0.00    +0.000 C 
ATOM     88  C59 UNL A   1      39.855  27.708  27.748  1.00  0.00    +0.000 C 
ATOM     89  C60 UNL A   1      38.822  28.524  27.900  1.00  0.00    +0.000 C 
ATOM    119  H25 UNL A   1      44.670  26.240  29.430  1.00  0.00    +0.000 H 
ATOM    120  H26 UNL A   1      45.580  26.849  31.797  1.00  0.00    +0.000 H 
ATOM    121  H27 UNL A   1      41.831  28.553  31.365  1.00  0.00    +0.000 H 
ATOM    122  H28 UNL A   1      37.272  32.451  33.529  1.00  0.00    +0.000 H 
ATOM    123  H29 UNL A   1      36.329  31.736  31.282  1.00  0.00    +0.000 H 
ATOM    124  H30 UNL A   1      40.077  29.987  31.704  1.00  0.00    +0.000 H 
ATOM    125  H31 UNL A   1      41.632  31.183  36.341  1.00  0.00    +0.000 H 
ATOM    126  H32 UNL A   1      43.755  29.845  35.836  1.00  0.00    +0.000 H 
ATOM    127  H33 UNL A   1      39.984  27.074  26.943  1.00  0.00    +0.000 H 
ATOM    128  H34 UNL A   1      38.039  28.712  27.254  1.00  0.00    +0.000 H 
ENDROOT
BRANCH   33   32
ATOM    129  H35 UNL A   1      37.182  32.237  28.570  1.00  0.00    +0.000 H 
ATOM    130  H36 UNL A   1      35.110  32.616  27.370  1.00  0.00    +0.000 H 
ATOM    117  H23 UNL A   1      33.995  28.613  28.020  1.00  0.00    +0.000 H 
ATOM    118  H24 UNL A   1      35.965  28.293  29.402  1.00  0.00    +0.000 H 
ATOM     90  C61 UNL A   1      36.500  31.470  28.467  1.00  0.00    +0.000 C 
ATOM     91  C62 UNL A   1      35.329  31.679  27.741  1.00  0.00    +0.000 C 
ATOM     29  C19 UNL A   1      34.450  30.615  27.518  1.00  0.00    +0.000 C 
ATOM     30  C20 UNL A   1      34.673  29.383  28.139  1.00  0.00    +0.000 C 
ATOM     31  C21 UNL A   1      35.815  29.193  28.922  1.00  0.00    +0.000 C 
ATOM     32  C22 UNL A   1      36.759  30.224  29.058  1.00  0.00    +0.000 C 
BRANCH   29   27
ATOM     27  C18 UNL A   1      33.266  30.765  26.643  1.00  0.00    +0.000 C 
ATOM     28  O5  UNL A   1      32.474  31.680  26.846  1.00  0.00    +0.000 O 
BRANCH   27   26
ATOM     26  N4  UNL A   1      33.037  29.872  25.625  1.00  0.00    +0.000 N 
ATOM    116  H22 UNL A   1      33.684  29.910  24.883  1.00  0.00    +0.000 H 
BRANCH   26   25
ATOM     25  C17 UNL A   1      31.987  28.879  25.477  1.00  0.00    +0.000 C 
ATOM    114  H20 UNL A   1      31.132  29.201  26.034  1.00  0.00    +0.000 H 
ATOM    115  H21 UNL A   1      31.773  28.793  24.432  1.00  0.00    +0.000 H 
BRANCH   25   24
ATOM    113  H19 UNL A   1      31.544  26.872  25.836  1.00  0.00    +0.000 H 
ATOM    112  H18 UNL A   1      32.710  27.598  26.994  1.00  0.00    +0.000 H 
ATOM     24  C16 UNL A   1      32.401  27.498  25.975  1.00  0.00    +0.000 C 
BRANCH   24   23
ATOM    111  H17 UNL A   1      34.337  27.527  25.200  1.00  0.00    +0.000 H 
ATOM    110  H16 UNL A   1      33.162  26.561  24.236  1.00  0.00    +0.000 H 
ATOM     23  C15 UNL A   1      33.535  26.819  25.205  1.00  0.00    +0.000 C 
BRANCH   23   22
ATOM    108  H14 UNL A   1      34.583  25.828  26.754  1.00  0.00    +0.000 H 
ATOM    109  H15 UNL A   1      33.296  24.877  25.927  1.00  0.00    +0.000 H 
ATOM     22  C14 UNL A   1      34.122  25.551  25.830  1.00  0.00    +0.000 C 
BRANCH   22   21
ATOM    106  H12 UNL A   1      34.643  24.302  24.206  1.00  0.00    +0.000 H 
ATOM    107  H13 UNL A   1      35.861  25.542  24.686  1.00  0.00    +0.000 H 
ATOM     21  C13 UNL A   1      35.160  24.796  25.001  1.00  0.00    +0.000 C 
BRANCH   21   20
ATOM    105  H11 UNL A   1      35.667  23.756  26.750  1.00  0.00    +0.000 H 
ATOM     20  C12 UNL A   1      35.993  23.750  25.730  1.00  0.00    +0.000 C 
ATOM    104  H10 UNL A   1      37.026  24.008  25.620  1.00  0.00    +0.000 H 
BRANCH   20   19
ATOM     19  N3  UNL A   1      35.809  22.392  25.246  1.00  0.00    +0.000 N 
ATOM    103  H9  UNL A   1      36.606  21.995  24.825  1.00  0.00    +0.000 H 
BRANCH   19   17
ATOM     17  C11 UNL A   1      34.706  21.568  25.277  1.00  0.00    +0.000 C 
ATOM     18  O4  UNL A   1      34.870  20.347  25.231  1.00  0.00    +0.000 O 
BRANCH   17   16
ATOM    131  H37 UNL A   1      32.803  22.191  23.420  1.00  0.00    +0.000 H 
ATOM    100  H6  UNL A   1      29.942  23.830  26.030  1.00  0.00    +0.000 H 
ATOM    101  H7  UNL A   1      31.192  22.941  27.921  1.00  0.00    +0.000 H 
ATOM     11  C6  UNL A   1      31.328  23.147  24.588  1.00  0.00    +0.000 C 
ATOM     12  C7  UNL A   1      30.836  23.336  25.879  1.00  0.00    +0.000 C 
ATOM     13  C8  UNL A   1      31.567  22.850  26.965  1.00  0.00    +0.000 C 
ATOM     14  C9  UNL A   1      32.807  22.240  26.755  1.00  0.00    +0.000 C 
ATOM     16  C10 UNL A   1      33.321  22.078  25.459  1.00  0.00    +0.000 C 
ATOM     92  C63 UNL A   1      32.518  22.442  24.379  1.00  0.00    +0.000 C 
BRANCH   11   10
ATOM     10  C5  UNL A   1      30.690  23.829  23.443  1.00  0.00    +0.000 C 
ATOM     99  H5  UNL A   1      29.789  23.486  23.072  1.00  0.00    +0.000 H 
BRANCH   10    9
ATOM      9  N2  UNL A   1      31.263  24.859  22.905  1.00  0.00    +0.000 N 
BRANCH    9    8
ATOM     97  H3  UNL A   1      27.801  27.491  24.121  1.00  0.00    +0.000 H 
ATOM     98  H4  UNL A   1      29.037  25.402  24.114  1.00  0.00    +0.000 H 
ATOM    132  H38 UNL A   1      32.020  27.159  21.735  1.00  0.00    +0.000 H 
ATOM    133  H39 UNL A   1      30.801  29.259  21.750  1.00  0.00    +0.000 H 
ATOM      6  C2  UNL A   1      28.700  27.423  23.618  1.00  0.00    +0.000 C 
ATOM      5  C1  UNL A   1      29.211  28.527  22.935  1.00  0.00    +0.000 C 
ATOM      7  C3  UNL A   1      29.418  26.222  23.616  1.00  0.00    +0.000 C 
ATOM      8  C4  UNL A   1      30.643  26.115  22.949  1.00  0.00    +0.000 C 
ATOM     93  C64 UNL A   1      31.131  27.230  22.253  1.00  0.00    +0.000 C 
ATOM     94  C65 UNL A   1      30.426  28.438  22.251  1.00  0.00    +0.000 C 
BRANCH    5    2
ATOM      2  S1  UNL A   1      28.313  30.051  22.943  1.00  0.00    +0.000 S 
ATOM      3  O1  UNL A   1      29.146  31.091  23.491  1.00  0.00    +0.000 O 
ATOM      4  O2  UNL A   1      26.973  29.789  23.420  1.00  0.00    +0.000 O 
BRANCH    2    1
ATOM      1  N1  UNL A   1      28.172  30.408  21.306  1.00  0.00    +0.000 N 
ATOM     95  H1  UNL A   1      28.919  31.046  21.032  1.00  0.00    +0.000 H 
ATOM     96  H2  UNL A   1      27.269  30.846  21.130  1.00  0.00    +0.000 H 
ENDBRANCH    2    1
ENDBRANCH    5    2
ENDBRANCH    9    8
ENDBRANCH   10    9
ENDBRANCH   11   10
BRANCH   14   15
ATOM    102  H8  UNL A   1      33.863  22.475  28.449  1.00  0.00    +0.000 H 
ATOM     15  O3  UNL A   1      33.480  21.838  27.879  1.00  0.00    +0.000 O 
ENDBRANCH   14   15
ENDBRANCH   17   16
ENDBRANCH   19   17
ENDBRANCH   20   19
ENDBRANCH   21   20
ENDBRANCH   22   21
ENDBRANCH   23   22
ENDBRANCH   24   23
ENDBRANCH   25   24
ENDBRANCH   26   25
ENDBRANCH   27   26
ENDBRANCH   29   27
ENDBRANCH   33   32
BRANCH   37   38
ATOM     38  C27 UNL A   1      42.341  26.267  27.797  1.00  0.00    +0.000 C 
ATOM     39  C28 UNL A   1      41.804  24.976  27.684  1.00  0.00    +0.000 C 
ATOM     40  F1  UNL A   1      40.964  24.510  28.621  1.00  0.00    +0.000 F 
ATOM     41  C29 UNL A   1      42.162  24.140  26.629  1.00  0.00    +0.000 C 
ATOM     42  F2  UNL A   1      41.679  22.891  26.573  1.00  0.00    +0.000 F 
ATOM     43  C30 UNL A   1      43.031  24.591  25.647  1.00  0.00    +0.000 C 
ATOM     44  F3  UNL A   1      43.372  23.787  24.630  1.00  0.00    +0.000 F 
ATOM     45  C31 UNL A   1      43.553  25.873  25.723  1.00  0.00    +0.000 C 
ATOM     46  F4  UNL A   1      44.382  26.316  24.768  1.00  0.00    +0.000 F 
ATOM     47  C32 UNL A   1      43.222  26.700  26.794  1.00  0.00    +0.000 C 
ATOM     48  F5  UNL A   1      43.760  27.928  26.849  1.00  0.00    +0.000 F 
ENDBRANCH   37   38
BRANCH   54   55
ATOM     65  F10 UNL A   1      46.146  30.132  33.329  1.00  0.00    +0.000 F 
ATOM     55  C38 UNL A   1      45.007  28.231  34.197  1.00  0.00    +0.000 C 
ATOM     56  C39 UNL A   1      45.061  27.109  35.038  1.00  0.00    +0.000 C 
ATOM     57  F6  UNL A   1      43.994  26.304  35.157  1.00  0.00    +0.000 F 
ATOM     58  C40 UNL A   1      46.201  26.828  35.785  1.00  0.00    +0.000 C 
ATOM     59  F7  UNL A   1      46.215  25.773  36.613  1.00  0.00    +0.000 F 
ATOM     60  C41 UNL A   1      47.319  27.643  35.683  1.00  0.00    +0.000 C 
ATOM     61  F8  UNL A   1      48.420  27.363  36.394  1.00  0.00    +0.000 F 
ATOM     62  C42 UNL A   1      47.293  28.749  34.848  1.00  0.00    +0.000 C 
ATOM     63  F9  UNL A   1      48.377  29.530  34.737  1.00  0.00    +0.000 F 
ATOM     64  C43 UNL A   1      46.144  29.050  34.122  1.00  0.00    +0.000 C 
ENDBRANCH   54   55
BRANCH   69   70
ATOM     70  C47 UNL A   1      39.287  32.058  35.328  1.00  0.00    +0.000 C 
ATOM     71  C48 UNL A   1      39.592  33.421  35.435  1.00  0.00    +0.000 C 
ATOM     72  F11 UNL A   1      40.368  34.007  34.510  1.00  0.00    +0.000 F 
ATOM     73  C49 UNL A   1      39.125  34.181  36.505  1.00  0.00    +0.000 C 
ATOM     74  F12 UNL A   1      39.460  35.475  36.600  1.00  0.00    +0.000 F 
ATOM     75  C50 UNL A   1      38.324  33.599  37.475  1.00  0.00    +0.000 C 
ATOM     76  F13 UNL A   1      37.865  34.335  38.497  1.00  0.00    +0.000 F 
ATOM     77  C51 UNL A   1      38.000  32.253  37.386  1.00  0.00    +0.000 C 
ATOM     78  F14 UNL A   1      37.209  31.692  38.310  1.00  0.00    +0.000 F 
ATOM     79  C52 UNL A   1      38.489  31.487  36.331  1.00  0.00    +0.000 C 
ATOM     80  F15 UNL A   1      38.161  30.187  36.269  1.00  0.00    +0.000 F 
ENDBRANCH   69   70
TORSDOF 21
ENDMDL
MODEL 2
REMARK VINA RESULT:     -10.6     20.532     25.138
ROOT
ATOM     33  C23 UNL A   1      53.209  19.963  11.623  1.00  0.00    +0.000 C 
ATOM     34  C24 UNL A   1      54.558  19.331  11.432  1.00  0.00    +0.000 C 
ATOM     35  N5  UNL A   1      55.572  19.279  12.258  1.00  0.00    +0.000 N 
ATOM     36  C25 UNL A   1      56.551  18.540  11.607  1.00  0.00    +0.000 C 
ATOM     37  C26 UNL A   1      57.807  18.249  12.025  1.00  0.00    +0.000 C 
ATOM     49  C33 UNL A   1      58.368  18.693  13.275  1.00  0.00    +0.000 C 
ATOM     50  C34 UNL A   1      59.658  18.529  13.748  1.00  0.00    +0.000 C 
ATOM     51  C35 UNL A   1      59.721  19.062  15.040  1.00  0.00    +0.000 C 
ATOM     52  C36 UNL A   1      58.485  19.604  15.353  1.00  0.00    +0.000 C 
ATOM     53  N6  UNL A   1      57.667  19.379  14.257  1.00  0.00    +0.000 N 
ATOM     54  C37 UNL A   1      58.076  20.272  16.563  1.00  0.00    +0.000 C 
ATOM     66  C44 UNL A   1      56.860  20.838  16.764  1.00  0.00    +0.000 C 
ATOM     67  N7  UNL A   1      55.770  20.887  15.907  1.00  0.00    +0.000 N 
ATOM     68  C45 UNL A   1      54.827  21.522  16.561  1.00  0.00    +0.000 C 
ATOM     69  C46 UNL A   1      53.434  21.869  16.113  1.00  0.00    +0.000 C 
ATOM     81  C53 UNL A   1      53.036  21.529  14.872  1.00  0.00    +0.000 C 
ATOM     82  C54 UNL A   1      51.716  21.793  14.308  1.00  0.00    +0.000 C 
ATOM     83  C55 UNL A   1      51.645  21.242  13.086  1.00  0.00    +0.000 C 
ATOM     84  C56 UNL A   1      52.931  20.624  12.763  1.00  0.00    +0.000 C 
ATOM     85  N8  UNL A   1      53.705  20.868  13.871  1.00  0.00    +0.000 N 
ATOM     86  C57 UNL A   1      55.212  21.937  17.918  1.00  0.00    +0.000 C 
ATOM     87  C58 UNL A   1      56.470  21.524  17.978  1.00  0.00    +0.000 C 
ATOM     88  C59 UNL A   1      55.991  18.121  10.340  1.00  0.00    +0.000 C 
ATOM     89  C60 UNL A   1      54.786  18.639  10.154  1.00  0.00    +0.000 C 
ATOM    119  H25 UNL A   1      60.439  18.091  13.236  1.00  0.00    +0.000 H 
ATOM    120  H26 UNL A   1      60.548  19.052  15.657  1.00  0.00    +0.000 H 
ATOM    121  H27 UNL A   1      56.728  19.665  14.184  1.00  0.00    +0.000 H 
ATOM    122  H28 UNL A   1      50.959  22.317  14.774  1.00  0.00    +0.000 H 
ATOM    123  H29 UNL A   1      50.814  21.252  12.473  1.00  0.00    +0.000 H 
ATOM    124  H30 UNL A   1      54.648  20.595  13.942  1.00  0.00    +0.000 H 
ATOM    125  H31 UNL A   1      54.649  22.421  18.635  1.00  0.00    +0.000 H 
ATOM    126  H32 UNL A   1      57.092  21.673  18.788  1.00  0.00    +0.000 H 
ATOM    127  H33 UNL A   1      56.469  17.502   9.667  1.00  0.00    +0.000 H 
ATOM    128  H34 UNL A   1      54.168  18.574   9.330  1.00  0.00    +0.000 H 
ENDROOT
BRANCH   33   32
ATOM    129  H35 UNL A   1      52.398  21.713   9.765  1.00  0.00    +0.000 H 
ATOM    130  H36 UNL A   1      50.668  21.455   8.087  1.00  0.00    +0.000 H 
ATOM    117  H23 UNL A   1      49.987  17.513   9.386  1.00  0.00    +0.000 H 
ATOM    118  H24 UNL A   1      51.564  17.844  11.202  1.00  0.00    +0.000 H 
ATOM     90  C61 UNL A   1      51.877  20.825   9.696  1.00  0.00    +0.000 C 
ATOM     91  C62 UNL A   1      50.912  20.665   8.704  1.00  0.00    +0.000 C 
ATOM     29  C19 UNL A   1      50.275  19.431   8.547  1.00  0.00    +0.000 C 
ATOM     30  C20 UNL A   1      50.500  18.406   9.470  1.00  0.00    +0.000 C 
ATOM     31  C21 UNL A   1      51.419  18.590  10.505  1.00  0.00    +0.000 C 
ATOM     32  C22 UNL A   1      52.146  19.788  10.602  1.00  0.00    +0.000 C 
BRANCH   29   27
ATOM     27  C18 UNL A   1      49.344  19.183   7.422  1.00  0.00    +0.000 C 
ATOM     28  O5  UNL A   1      48.255  19.747   7.402  1.00  0.00    +0.000 O 
BRANCH   27   26
ATOM     26  N4  UNL A   1      49.683  18.307   6.421  1.00  0.00    +0.000 N 
ATOM    116  H22 UNL A   1      48.925  17.832   6.008  1.00  0.00    +0.000 H 
BRANCH   26   25
ATOM     25  C17 UNL A   1      50.989  17.975   5.877  1.00  0.00    +0.000 C 
ATOM    114  H20 UNL A   1      51.041  18.337   4.872  1.00  0.00    +0.000 H 
ATOM    115  H21 UNL A   1      51.723  18.433   6.505  1.00  0.00    +0.000 H 
BRANCH   25   24
ATOM    113  H19 UNL A   1      50.588  16.054   6.584  1.00  0.00    +0.000 H 
ATOM    112  H18 UNL A   1      52.297  16.331   6.104  1.00  0.00    +0.000 H 
ATOM     24  C16 UNL A   1      51.264  16.475   5.869  1.00  0.00    +0.000 C 
BRANCH   24   23
ATOM    111  H17 UNL A   1      51.803  15.081   4.414  1.00  0.00    +0.000 H 
ATOM    110  H16 UNL A   1      50.867  16.486   3.789  1.00  0.00    +0.000 H 
ATOM     23  C15 UNL A   1      50.977  15.746   4.554  1.00  0.00    +0.000 C 
BRANCH   23   22
ATOM    108  H14 UNL A   1      49.756  14.299   3.609  1.00  0.00    +0.000 H 
ATOM    109  H15 UNL A   1      49.789  14.261   5.409  1.00  0.00    +0.000 H 
ATOM     22  C14 UNL A   1      49.733  14.856   4.522  1.00  0.00    +0.000 C 
BRANCH   22   21
ATOM    106  H12 UNL A   1      47.889  15.228   5.487  1.00  0.00    +0.000 H 
ATOM    107  H13 UNL A   1      48.613  16.610   4.582  1.00  0.00    +0.000 H 
ATOM     21  C13 UNL A   1      48.381  15.565   4.598  1.00  0.00    +0.000 C 
BRANCH   21   20
ATOM    105  H11 UNL A   1      46.801  14.522   3.697  1.00  0.00    +0.000 H 
ATOM     20  C12 UNL A   1      47.426  15.350   3.432  1.00  0.00    +0.000 C 
ATOM    104  H10 UNL A   1      48.007  15.169   2.552  1.00  0.00    +0.000 H 
BRANCH   20   19
ATOM     19  N3  UNL A   1      46.538  16.470   3.168  1.00  0.00    +0.000 N 
ATOM    103  H9  UNL A   1      46.729  16.957   2.335  1.00  0.00    +0.000 H 
BRANCH   19   17
ATOM     17  C11 UNL A   1      45.474  16.963   3.891  1.00  0.00    +0.000 C 
ATOM     18  O4  UNL A   1      45.054  16.318   4.854  1.00  0.00    +0.000 O 
BRANCH   17   16
ATOM    131  H37 UNL A   1      42.925  17.610   3.152  1.00  0.00    +0.000 H 
ATOM    100  H6  UNL A   1      43.520  21.721   2.505  1.00  0.00    +0.000 H 
ATOM    101  H7  UNL A   1      45.691  21.556   3.597  1.00  0.00    +0.000 H 
ATOM     11  C6  UNL A   1      43.100  19.658   2.673  1.00  0.00    +0.000 C 
ATOM     12  C7  UNL A   1      43.872  20.808   2.830  1.00  0.00    +0.000 C 
ATOM     13  C8  UNL A   1      45.129  20.707   3.431  1.00  0.00    +0.000 C 
ATOM     14  C9  UNL A   1      45.624  19.456   3.810  1.00  0.00    +0.000 C 
ATOM     16  C10 UNL A   1      44.862  18.292   3.623  1.00  0.00    +0.000 C 
ATOM     92  C63 UNL A   1      43.557  18.425   3.150  1.00  0.00    +0.000 C 
BRANCH   11   10
ATOM     10  C5  UNL A   1      41.868  19.696   1.857  1.00  0.00    +0.000 C 
ATOM     99  H5  UNL A   1      41.168  18.942   1.940  1.00  0.00    +0.000 H 
BRANCH   10    9
ATOM      9  N2  UNL A   1      41.669  20.679   1.037  1.00  0.00    +0.000 N 
BRANCH    9    8
ATOM     97  H3  UNL A   1      38.817  22.110  -2.157  1.00  0.00    +0.000 H 
ATOM     98  H4  UNL A   1      40.993  21.391  -1.360  1.00  0.00    +0.000 H 
ATOM    132  H38 UNL A   1      39.400  20.772   2.477  1.00  0.00    +0.000 H 
ATOM    133  H39 UNL A   1      37.213  21.473   1.686  1.00  0.00    +0.000 H 
ATOM      6  C2  UNL A   1      38.939  21.821  -1.174  1.00  0.00    +0.000 C 
ATOM      5  C1  UNL A   1      37.856  21.845  -0.293  1.00  0.00    +0.000 C 
ATOM      7  C3  UNL A   1      40.190  21.401  -0.712  1.00  0.00    +0.000 C 
ATOM      8  C4  UNL A   1      40.371  20.996   0.615  1.00  0.00    +0.000 C 
ATOM     93  C64 UNL A   1      39.276  21.044   1.489  1.00  0.00    +0.000 C 
ATOM     94  C65 UNL A   1      38.018  21.457   1.039  1.00  0.00    +0.000 C 
BRANCH    5    2
ATOM      2  S1  UNL A   1      36.269  22.365  -0.875  1.00  0.00    +0.000 S 
ATOM      3  O1  UNL A   1      35.797  21.432  -1.866  1.00  0.00    +0.000 O 
ATOM      4  O2  UNL A   1      36.311  23.793  -1.101  1.00  0.00    +0.000 O 
BRANCH    2    1
ATOM      1  N1  UNL A   1      35.285  22.126   0.467  1.00  0.00    +0.000 N 
ATOM     95  H1  UNL A   1      34.309  22.241   0.197  1.00  0.00    +0.000 H 
ATOM     96  H2  UNL A   1      35.522  22.808   1.188  1.00  0.00    +0.000 H 
ENDBRANCH    2    1
ENDBRANCH    5    2
ENDBRANCH    9    8
ENDBRANCH   10    9
ENDBRANCH   11   10
BRANCH   14   15
ATOM    102  H8  UNL A   1      47.585  19.023   3.887  1.00  0.00    +0.000 H 
ATOM     15  O3  UNL A   1      46.885  19.444   4.346  1.00  0.00    +0.000 O 
ENDBRANCH   14   15
ENDBRANCH   17   16
ENDBRANCH   19   17
ENDBRANCH   20   19
ENDBRANCH   21   20
ENDBRANCH   22   21
ENDBRANCH   23   22
ENDBRANCH   24   23
ENDBRANCH   25   24
ENDBRANCH   26   25
ENDBRANCH   27   26
ENDBRANCH   29   27
ENDBRANCH   33   32
BRANCH   37   38
ATOM     38  C27 UNL A   1      58.661  17.402  11.125  1.00  0.00    +0.000 C 
ATOM     39  C28 UNL A   1      58.672  16.003  11.215  1.00  0.00    +0.000 C 
ATOM     40  F1  UNL A   1      57.937  15.381  12.149  1.00  0.00    +0.000 F 
ATOM     41  C29 UNL A   1      59.474  15.236  10.373  1.00  0.00    +0.000 C 
ATOM     42  F2  UNL A   1      59.510  13.904  10.515  1.00  0.00    +0.000 F 
ATOM     43  C30 UNL A   1      60.248  15.849   9.400  1.00  0.00    +0.000 C 
ATOM     44  F3  UNL A   1      61.017  15.110   8.588  1.00  0.00    +0.000 F 
ATOM     45  C31 UNL A   1      60.233  17.230   9.274  1.00  0.00    +0.000 C 
ATOM     46  F4  UNL A   1      60.970  17.824   8.326  1.00  0.00    +0.000 F 
ATOM     47  C32 UNL A   1      59.456  18.002  10.135  1.00  0.00    +0.000 C 
ATOM     48  F5  UNL A   1      59.478  19.336  10.000  1.00  0.00    +0.000 F 
ENDBRANCH   37   38
BRANCH   54   55
ATOM     65  F10 UNL A   1      59.669  22.581  17.058  1.00  0.00    +0.000 F 
ATOM     55  C38 UNL A   1      59.072  20.363  17.682  1.00  0.00    +0.000 C 
ATOM     56  C39 UNL A   1      59.298  19.282  18.547  1.00  0.00    +0.000 C 
ATOM     57  F6  UNL A   1      58.574  18.159  18.426  1.00  0.00    +0.000 F 
ATOM     58  C40 UNL A   1      60.248  19.363  19.561  1.00  0.00    +0.000 C 
ATOM     59  F7  UNL A   1      60.419  18.332  20.401  1.00  0.00    +0.000 F 
ATOM     60  C41 UNL A   1      61.011  20.512  19.710  1.00  0.00    +0.000 C 
ATOM     61  F8  UNL A   1      61.934  20.582  20.679  1.00  0.00    +0.000 F 
ATOM     62  C42 UNL A   1      60.813  21.587  18.858  1.00  0.00    +0.000 C 
ATOM     63  F9  UNL A   1      61.559  22.693  18.992  1.00  0.00    +0.000 F 
ATOM     64  C43 UNL A   1      59.843  21.521  17.862  1.00  0.00    +0.000 C 
ENDBRANCH   54   55
BRANCH   69   70
ATOM     70  C47 UNL A   1      52.492  22.579  17.018  1.00  0.00    +0.000 C 
ATOM     71  C48 UNL A   1      52.334  23.969  16.948  1.00  0.00    +0.000 C 
ATOM     72  F11 UNL A   1      53.069  24.683  16.083  1.00  0.00    +0.000 F 
ATOM     73  C49 UNL A   1      51.442  24.634  17.786  1.00  0.00    +0.000 C 
ATOM     74  F12 UNL A   1      51.335  25.968  17.722  1.00  0.00    +0.000 F 
ATOM     75  C50 UNL A   1      50.672  23.920  18.691  1.00  0.00    +0.000 C 
ATOM     76  F13 UNL A   1      49.804  24.560  19.487  1.00  0.00    +0.000 F 
ATOM     77  C51 UNL A   1      50.803  22.541  18.771  1.00  0.00    +0.000 C 
ATOM     78  F14 UNL A   1      50.046  21.845  19.630  1.00  0.00    +0.000 F 
ATOM     79  C52 UNL A   1      51.715  21.879  17.953  1.00  0.00    +0.000 C 
ATOM     80  F15 UNL A   1      51.823  20.545  18.052  1.00  0.00    +0.000 F 
ENDBRANCH   69   70
TORSDOF 21
ENDMDL
MODEL 3
REMARK VINA RESULT:     -10.4      0.928      2.217
ROOT
ATOM     33  C23 UNL A   1      37.966  30.036  29.851  1.00  0.00    +0.000 C 
ATOM     34  C24 UNL A   1      38.999  29.100  29.294  1.00  0.00    +0.000 C 
ATOM     35  N5  UNL A   1      40.107  28.669  29.843  1.00  0.00    +0.000 N 
ATOM     36  C25 UNL A   1      40.666  27.790  28.926  1.00  0.00    +0.000 C 
ATOM     37  C26 UNL A   1      41.843  27.122  29.004  1.00  0.00    +0.000 C 
ATOM     49  C33 UNL A   1      42.762  27.230  30.108  1.00  0.00    +0.000 C 
ATOM     50  C34 UNL A   1      44.019  26.666  30.240  1.00  0.00    +0.000 C 
ATOM     51  C35 UNL A   1      44.510  26.986  31.512  1.00  0.00    +0.000 C 
ATOM     52  C36 UNL A   1      43.581  27.790  32.152  1.00  0.00    +0.000 C 
ATOM     53  N6  UNL A   1      42.518  27.940  31.275  1.00  0.00    +0.000 N 
ATOM     54  C37 UNL A   1      43.653  28.375  33.467  1.00  0.00    +0.000 C 
ATOM     66  C44 UNL A   1      42.726  29.213  33.995  1.00  0.00    +0.000 C 
ATOM     67  N7  UNL A   1      41.539  29.665  33.435  1.00  0.00    +0.000 N 
ATOM     68  C45 UNL A   1      40.985  30.434  34.340  1.00  0.00    +0.000 C 
ATOM     69  C46 UNL A   1      39.690  31.196  34.269  1.00  0.00    +0.000 C 
ATOM     81  C53 UNL A   1      38.955  31.144  33.142  1.00  0.00    +0.000 C 
ATOM     82  C54 UNL A   1      37.679  31.822  32.935  1.00  0.00    +0.000 C 
ATOM     83  C55 UNL A   1      37.191  31.478  31.733  1.00  0.00    +0.000 C 
ATOM     84  C56 UNL A   1      38.142  30.589  31.066  1.00  0.00    +0.000 C 
ATOM     85  N8  UNL A   1      39.172  30.468  31.966  1.00  0.00    +0.000 N 
ATOM     86  C57 UNL A   1      41.754  30.546  35.587  1.00  0.00    +0.000 C 
ATOM     87  C58 UNL A   1      42.821  29.809  35.311  1.00  0.00    +0.000 C 
ATOM     88  C59 UNL A   1      39.751  27.709  27.807  1.00  0.00    +0.000 C 
ATOM     89  C60 UNL A   1      38.737  28.549  27.956  1.00  0.00    +0.000 C 
ATOM    119  H25 UNL A   1      44.511  26.109  29.525  1.00  0.00    +0.000 H 
ATOM    120  H26 UNL A   1      45.411  26.673  31.907  1.00  0.00    +0.000 H 
ATOM    121  H27 UNL A   1      41.709  28.473  31.452  1.00  0.00    +0.000 H 
ATOM    122  H28 UNL A   1      37.225  32.462  33.605  1.00  0.00    +0.000 H 
ATOM    123  H29 UNL A   1      36.288  31.791  31.342  1.00  0.00    +0.000 H 
ATOM    124  H30 UNL A   1      39.988  29.947  31.786  1.00  0.00    +0.000 H 
ATOM    125  H31 UNL A   1      41.524  31.063  36.450  1.00  0.00    +0.000 H 
ATOM    126  H32 UNL A   1      43.618  29.678  35.954  1.00  0.00    +0.000 H 
ATOM    127  H33 UNL A   1      39.873  27.080  26.998  1.00  0.00    +0.000 H 
ATOM    128  H34 UNL A   1      37.966  28.761  27.304  1.00  0.00    +0.000 H 
ENDROOT
BRANCH   33   32
ATOM    129  H35 UNL A   1      37.185  32.293  28.637  1.00  0.00    +0.000 H 
ATOM    130  H36 UNL A   1      35.135  32.733  27.421  1.00  0.00    +0.000 H 
ATOM    117  H23 UNL A   1      33.909  28.757  28.034  1.00  0.00    +0.000 H 
ATOM    118  H24 UNL A   1      35.856  28.377  29.434  1.00  0.00    +0.000 H 
ATOM     90  C61 UNL A   1      36.484  31.545  28.523  1.00  0.00    +0.000 C 
ATOM     91  C62 UNL A   1      35.326  31.788  27.788  1.00  0.00    +0.000 C 
ATOM     29  C19 UNL A   1      34.422  30.749  27.550  1.00  0.00    +0.000 C 
ATOM     30  C20 UNL A   1      34.606  29.508  28.165  1.00  0.00    +0.000 C 
ATOM     31  C21 UNL A   1      35.734  29.284  28.957  1.00  0.00    +0.000 C 
ATOM     32  C22 UNL A   1      36.704  30.289  29.109  1.00  0.00    +0.000 C 
BRANCH   29   27
ATOM     27  C18 UNL A   1      33.251  30.935  26.664  1.00  0.00    +0.000 C 
ATOM     28  O5  UNL A   1      32.495  31.884  26.850  1.00  0.00    +0.000 O 
BRANCH   27   26
ATOM     26  N4  UNL A   1      32.993  30.040  25.656  1.00  0.00    +0.000 N 
ATOM    116  H22 UNL A   1      33.663  30.020  24.933  1.00  0.00    +0.000 H 
BRANCH   26   25
ATOM     25  C17 UNL A   1      31.883  29.116  25.492  1.00  0.00    +0.000 C 
ATOM    114  H20 UNL A   1      30.972  29.676  25.485  1.00  0.00    +0.000 H 
ATOM    115  H21 UNL A   1      32.036  28.592  24.572  1.00  0.00    +0.000 H 
BRANCH   25   24
ATOM    113  H19 UNL A   1      30.764  27.889  26.755  1.00  0.00    +0.000 H 
ATOM    112  H18 UNL A   1      32.307  28.478  27.462  1.00  0.00    +0.000 H 
ATOM     24  C16 UNL A   1      31.808  28.077  26.605  1.00  0.00    +0.000 C 
BRANCH   24   23
ATOM    111  H17 UNL A   1      31.896  26.346  25.445  1.00  0.00    +0.000 H 
ATOM    110  H16 UNL A   1      32.341  26.108  27.174  1.00  0.00    +0.000 H 
ATOM     23  C15 UNL A   1      32.430  26.714  26.296  1.00  0.00    +0.000 C 
BRANCH   23   22
ATOM    108  H14 UNL A   1      34.056  27.549  25.228  1.00  0.00    +0.000 H 
ATOM    109  H15 UNL A   1      34.455  26.753  26.794  1.00  0.00    +0.000 H 
ATOM     22  C14 UNL A   1      33.903  26.713  25.879  1.00  0.00    +0.000 C 
BRANCH   22   21
ATOM    106  H12 UNL A   1      33.569  24.827  24.986  1.00  0.00    +0.000 H 
ATOM    107  H13 UNL A   1      34.885  25.831  24.271  1.00  0.00    +0.000 H 
ATOM     21  C13 UNL A   1      34.410  25.466  25.157  1.00  0.00    +0.000 C 
BRANCH   21   20
ATOM    105  H11 UNL A   1      34.960  24.009  26.562  1.00  0.00    +0.000 H 
ATOM     20  C12 UNL A   1      35.475  24.644  25.871  1.00  0.00    +0.000 C 
ATOM    104  H10 UNL A   1      36.153  25.319  26.351  1.00  0.00    +0.000 H 
BRANCH   20   19
ATOM     19  N3  UNL A   1      36.245  23.771  25.001  1.00  0.00    +0.000 N 
ATOM    103  H9  UNL A   1      37.210  23.748  25.192  1.00  0.00    +0.000 H 
BRANCH   19   17
ATOM     17  C11 UNL A   1      35.848  22.971  23.952  1.00  0.00    +0.000 C 
ATOM     18  O4  UNL A   1      36.655  22.715  23.056  1.00  0.00    +0.000 O 
BRANCH   17   16
ATOM    131  H37 UNL A   1      33.522  23.821  22.800  1.00  0.00    +0.000 H 
ATOM    100  H6  UNL A   1      31.008  20.761  24.210  1.00  0.00    +0.000 H 
ATOM    101  H7  UNL A   1      32.971  19.503  24.913  1.00  0.00    +0.000 H 
ATOM     11  C6  UNL A   1      32.120  22.423  23.529  1.00  0.00    +0.000 C 
ATOM     12  C7  UNL A   1      31.952  21.164  24.103  1.00  0.00    +0.000 C 
ATOM     13  C8  UNL A   1      33.076  20.455  24.531  1.00  0.00    +0.000 C 
ATOM     14  C9  UNL A   1      34.344  21.036  24.440  1.00  0.00    +0.000 C 
ATOM     16  C10 UNL A   1      34.513  22.318  23.894  1.00  0.00    +0.000 C 
ATOM     92  C63 UNL A   1      33.400  22.954  23.345  1.00  0.00    +0.000 C 
BRANCH   11   10
ATOM     10  C5  UNL A   1      30.945  23.281  23.263  1.00  0.00    +0.000 C 
ATOM     99  H5  UNL A   1      30.408  23.166  22.389  1.00  0.00    +0.000 H 
BRANCH   10    9
ATOM      9  N2  UNL A   1      30.591  24.176  24.129  1.00  0.00    +0.000 N 
BRANCH    9    8
ATOM     97  H3  UNL A   1      27.907  27.803  23.960  1.00  0.00    +0.000 H 
ATOM     98  H4  UNL A   1      28.501  25.581  24.734  1.00  0.00    +0.000 H 
ATOM    132  H38 UNL A   1      32.075  25.754  22.536  1.00  0.00    +0.000 H 
ATOM    133  H39 UNL A   1      31.500  27.985  21.768  1.00  0.00    +0.000 H 
ATOM      6  C2  UNL A   1      28.795  27.370  23.661  1.00  0.00    +0.000 C 
ATOM      5  C1  UNL A   1      29.660  28.055  22.806  1.00  0.00    +0.000 C 
ATOM      7  C3  UNL A   1      29.143  26.092  24.109  1.00  0.00    +0.000 C 
ATOM      8  C4  UNL A   1      30.348  25.495  23.723  1.00  0.00    +0.000 C 
ATOM     93  C64 UNL A   1      31.196  26.192  22.850  1.00  0.00    +0.000 C 
ATOM     94  C65 UNL A   1      30.862  27.473  22.398  1.00  0.00    +0.000 C 
BRANCH    5    2
ATOM      2  S1  UNL A   1      29.229  29.677  22.245  1.00  0.00    +0.000 S 
ATOM      3  O1  UNL A   1      27.849  29.684  21.828  1.00  0.00    +0.000 O 
ATOM      4  O2  UNL A   1      30.301  30.171  21.410  1.00  0.00    +0.000 O 
BRANCH    2    1
ATOM      1  N1  UNL A   1      29.272  30.584  23.659  1.00  0.00    +0.000 N 
ATOM     95  H1  UNL A   1      30.223  30.912  23.824  1.00  0.00    +0.000 H 
ATOM     96  H2  UNL A   1      28.971  30.005  24.443  1.00  0.00    +0.000 H 
ENDBRANCH    2    1
ENDBRANCH    5    2
ENDBRANCH    9    8
ENDBRANCH   10    9
ENDBRANCH   11   10
BRANCH   14   15
ATOM    102  H8  UNL A   1      35.825  19.679  24.373  1.00  0.00    +0.000 H 
ATOM     15  O3  UNL A   1      35.386  20.291  24.929  1.00  0.00    +0.000 O 
ENDBRANCH   14   15
ENDBRANCH   17   16
ENDBRANCH   19   17
ENDBRANCH   20   19
ENDBRANCH   21   20
ENDBRANCH   22   21
ENDBRANCH   23   22
ENDBRANCH   24   23
ENDBRANCH   25   24
ENDBRANCH   26   25
ENDBRANCH   27   26
ENDBRANCH   29   27
ENDBRANCH   33   32
BRANCH   37   38
ATOM     38  C27 UNL A   1      42.200  26.207  27.869  1.00  0.00    +0.000 C 
ATOM     39  C28 UNL A   1      43.060  26.607  26.836  1.00  0.00    +0.000 C 
ATOM     40  F1  UNL A   1      43.561  27.852  26.818  1.00  0.00    +0.000 F 
ATOM     41  C29 UNL A   1      43.375  25.743  25.789  1.00  0.00    +0.000 C 
ATOM     42  F2  UNL A   1      44.154  26.167  24.784  1.00  0.00    +0.000 F 
ATOM     43  C30 UNL A   1      42.871  24.451  25.777  1.00  0.00    +0.000 C 
ATOM     44  F3  UNL A   1      43.178  23.619  24.772  1.00  0.00    +0.000 F 
ATOM     45  C31 UNL A   1      42.040  24.025  26.802  1.00  0.00    +0.000 C 
ATOM     46  F4  UNL A   1      41.562  22.773  26.799  1.00  0.00    +0.000 F 
ATOM     47  C32 UNL A   1      41.698  24.896  27.833  1.00  0.00    +0.000 C 
ATOM     48  F5  UNL A   1      40.877  24.459  28.800  1.00  0.00    +0.000 F 
ENDBRANCH   37   38
BRANCH   54   55
ATOM     65  F10 UNL A   1      43.764  26.130  35.216  1.00  0.00    +0.000 F 
ATOM     55  C38 UNL A   1      44.847  28.048  34.314  1.00  0.00    +0.000 C 
ATOM     56  C39 UNL A   1      45.989  28.863  34.312  1.00  0.00    +0.000 C 
ATOM     57  F6  UNL A   1      46.057  29.926  33.496  1.00  0.00    +0.000 F 
ATOM     58  C40 UNL A   1      47.078  28.571  35.128  1.00  0.00    +0.000 C 
ATOM     59  F7  UNL A   1      48.175  29.342  35.080  1.00  0.00    +0.000 F 
ATOM     60  C41 UNL A   1      47.037  27.478  35.981  1.00  0.00    +0.000 C 
ATOM     61  F8  UNL A   1      48.082  27.206  36.774  1.00  0.00    +0.000 F 
ATOM     62  C42 UNL A   1      45.914  26.666  36.008  1.00  0.00    +0.000 C 
ATOM     63  F9  UNL A   1      45.866  25.618  36.842  1.00  0.00    +0.000 F 
ATOM     64  C43 UNL A   1      44.834  26.938  35.173  1.00  0.00    +0.000 C 
ENDBRANCH   54   55
BRANCH   69   70
ATOM     70  C47 UNL A   1      39.211  32.004  35.421  1.00  0.00    +0.000 C 
ATOM     71  C48 UNL A   1      38.392  31.439  36.407  1.00  0.00    +0.000 C 
ATOM     72  F11 UNL A   1      37.997  30.162  36.298  1.00  0.00    +0.000 F 
ATOM     73  C49 UNL A   1      37.953  32.191  37.495  1.00  0.00    +0.000 C 
ATOM     74  F12 UNL A   1      37.143  31.635  38.406  1.00  0.00    +0.000 F 
ATOM     75  C50 UNL A   1      38.345  33.513  37.631  1.00  0.00    +0.000 C 
ATOM     76  F13 UNL A   1      37.933  34.232  38.685  1.00  0.00    +0.000 F 
ATOM     77  C51 UNL A   1      39.164  34.092  36.672  1.00  0.00    +0.000 C 
ATOM     78  F14 UNL A   1      39.562  35.364  36.811  1.00  0.00    +0.000 F 
ATOM     79  C52 UNL A   1      39.581  33.349  35.571  1.00  0.00    +0.000 C 
ATOM     80  F15 UNL A   1      40.372  33.933  34.658  1.00  0.00    +0.000 F 
ENDBRANCH   69   70
TORSDOF 21
ENDMDL
MODEL 4
REMARK VINA RESULT:     -10.3      1.858      4.075
ROOT
ATOM     33  C23 UNL A   1      38.307  30.351  29.969  1.00  0.00    +0.000 C 
ATOM     34  C24 UNL A   1      39.281  29.362  29.397  1.00  0.00    +0.000 C 
ATOM     35  N5  UNL A   1      40.325  28.807  29.960  1.00  0.00    +0.000 N 
ATOM     36  C25 UNL A   1      40.847  27.936  29.012  1.00  0.00    +0.000 C 
ATOM     37  C26 UNL A   1      41.959  27.167  29.094  1.00  0.00    +0.000 C 
ATOM     49  C33 UNL A   1      42.837  27.132  30.236  1.00  0.00    +0.000 C 
ATOM     50  C34 UNL A   1      44.035  26.455  30.381  1.00  0.00    +0.000 C 
ATOM     51  C35 UNL A   1      44.496  26.658  31.687  1.00  0.00    +0.000 C 
ATOM     52  C36 UNL A   1      43.612  27.502  32.339  1.00  0.00    +0.000 C 
ATOM     53  N6  UNL A   1      42.604  27.792  31.433  1.00  0.00    +0.000 N 
ATOM     54  C37 UNL A   1      43.677  28.003  33.688  1.00  0.00    +0.000 C 
ATOM     66  C44 UNL A   1      42.802  28.885  34.232  1.00  0.00    +0.000 C 
ATOM     67  N7  UNL A   1      41.682  29.469  33.656  1.00  0.00    +0.000 N 
ATOM     68  C45 UNL A   1      41.156  30.231  34.584  1.00  0.00    +0.000 C 
ATOM     69  C46 UNL A   1      39.934  31.104  34.511  1.00  0.00    +0.000 C 
ATOM     81  C53 UNL A   1      39.245  31.179  33.356  1.00  0.00    +0.000 C 
ATOM     82  C54 UNL A   1      38.040  31.976  33.143  1.00  0.00    +0.000 C 
ATOM     83  C55 UNL A   1      37.577  31.744  31.905  1.00  0.00    +0.000 C 
ATOM     84  C56 UNL A   1      38.477  30.816  31.221  1.00  0.00    +0.000 C 
ATOM     85  N8  UNL A   1      39.455  30.556  32.150  1.00  0.00    +0.000 N 
ATOM     86  C57 UNL A   1      41.879  30.205  35.864  1.00  0.00    +0.000 C 
ATOM     87  C58 UNL A   1      42.891  29.395  35.584  1.00  0.00    +0.000 C 
ATOM     88  C59 UNL A   1      39.976  27.999  27.858  1.00  0.00    +0.000 C 
ATOM     89  C60 UNL A   1      39.031  28.913  28.019  1.00  0.00    +0.000 C 
ATOM    119  H25 UNL A   1      44.508  25.899  29.652  1.00  0.00    +0.000 H 
ATOM    120  H26 UNL A   1      45.350  26.247  32.095  1.00  0.00    +0.000 H 
ATOM    121  H27 UNL A   1      41.836  28.382  31.612  1.00  0.00    +0.000 H 
ATOM    122  H28 UNL A   1      37.614  32.614  33.833  1.00  0.00    +0.000 H 
ATOM    123  H29 UNL A   1      36.721  32.155  31.501  1.00  0.00    +0.000 H 
ATOM    124  H30 UNL A   1      40.231  29.977  31.970  1.00  0.00    +0.000 H 
ATOM    125  H31 UNL A   1      41.656  30.689  36.747  1.00  0.00    +0.000 H 
ATOM    126  H32 UNL A   1      43.646  29.159  36.247  1.00  0.00    +0.000 H 
ATOM    127  H33 UNL A   1      40.079  27.409  27.017  1.00  0.00    +0.000 H 
ATOM    128  H34 UNL A   1      38.308  29.228  27.352  1.00  0.00    +0.000 H 
ENDROOT
BRANCH   33   32
ATOM    129  H35 UNL A   1      36.217  28.834  29.258  1.00  0.00    +0.000 H 
ATOM    130  H36 UNL A   1      34.241  29.462  28.001  1.00  0.00    +0.000 H 
ATOM    117  H23 UNL A   1      35.619  33.431  27.807  1.00  0.00    +0.000 H 
ATOM    118  H24 UNL A   1      37.693  32.760  28.874  1.00  0.00    +0.000 H 
ATOM     90  C61 UNL A   1      36.099  29.808  28.939  1.00  0.00    +0.000 C 
ATOM     91  C62 UNL A   1      34.943  30.176  28.252  1.00  0.00    +0.000 C 
ATOM     29  C19 UNL A   1      34.737  31.514  27.904  1.00  0.00    +0.000 C 
ATOM     30  C20 UNL A   1      35.749  32.454  28.115  1.00  0.00    +0.000 C 
ATOM     31  C21 UNL A   1      36.936  32.072  28.744  1.00  0.00    +0.000 C 
ATOM     32  C22 UNL A   1      37.103  30.753  29.198  1.00  0.00    +0.000 C 
BRANCH   29   27
ATOM     27  C18 UNL A   1      33.465  31.963  27.295  1.00  0.00    +0.000 C 
ATOM     28  O5  UNL A   1      32.984  33.043  27.624  1.00  0.00    +0.000 O 
BRANCH   27   26
ATOM     26  N4  UNL A   1      32.810  31.168  26.387  1.00  0.00    +0.000 N 
ATOM    116  H22 UNL A   1      33.192  31.169  25.479  1.00  0.00    +0.000 H 
BRANCH   26   25
ATOM     25  C17 UNL A   1      31.641  30.324  26.563  1.00  0.00    +0.000 C 
ATOM    114  H20 UNL A   1      30.929  30.849  27.165  1.00  0.00    +0.000 H 
ATOM    115  H21 UNL A   1      31.255  30.104  25.590  1.00  0.00    +0.000 H 
BRANCH   25   24
ATOM    113  H19 UNL A   1      31.060  28.692  27.727  1.00  0.00    +0.000 H 
ATOM    112  H18 UNL A   1      32.787  29.158  27.904  1.00  0.00    +0.000 H 
ATOM     24  C16 UNL A   1      31.964  28.995  27.239  1.00  0.00    +0.000 C 
BRANCH   24   23
ATOM    111  H17 UNL A   1      31.591  27.845  25.540  1.00  0.00    +0.000 H 
ATOM    110  H16 UNL A   1      32.366  26.946  26.894  1.00  0.00    +0.000 H 
ATOM     23  C15 UNL A   1      32.336  27.840  26.307  1.00  0.00    +0.000 C 
BRANCH   23   22
ATOM    108  H14 UNL A   1      34.300  28.610  26.143  1.00  0.00    +0.000 H 
ATOM    109  H15 UNL A   1      34.035  26.955  25.484  1.00  0.00    +0.000 H 
ATOM     22  C14 UNL A   1      33.673  27.958  25.572  1.00  0.00    +0.000 C 
BRANCH   22   21
ATOM    106  H12 UNL A   1      32.599  28.693  23.906  1.00  0.00    +0.000 H 
ATOM    107  H13 UNL A   1      34.259  29.356  24.146  1.00  0.00    +0.000 H 
ATOM     21  C13 UNL A   1      33.624  28.494  24.143  1.00  0.00    +0.000 C 
BRANCH   21   20
ATOM    105  H11 UNL A   1      34.409  26.654  23.514  1.00  0.00    +0.000 H 
ATOM     20  C12 UNL A   1      34.183  27.592  23.050  1.00  0.00    +0.000 C 
ATOM    104  H10 UNL A   1      35.044  28.069  22.630  1.00  0.00    +0.000 H 
BRANCH   20   19
ATOM     19  N3  UNL A   1      33.251  27.307  21.972  1.00  0.00    +0.000 N 
ATOM    103  H9  UNL A   1      33.431  27.791  21.134  1.00  0.00    +0.000 H 
BRANCH   19   17
ATOM     17  C11 UNL A   1      32.156  26.472  21.927  1.00  0.00    +0.000 C 
ATOM     18  O4  UNL A   1      31.934  25.832  20.897  1.00  0.00    +0.000 O 
BRANCH   17   16
ATOM    131  H37 UNL A   1      32.368  24.634  23.937  1.00  0.00    +0.000 H 
ATOM    100  H6  UNL A   1      28.689  25.392  25.824  1.00  0.00    +0.000 H 
ATOM    101  H7  UNL A   1      28.450  27.419  24.495  1.00  0.00    +0.000 H 
ATOM     11  C6  UNL A   1      30.508  24.819  24.916  1.00  0.00    +0.000 C 
ATOM     12  C7  UNL A   1      29.394  25.634  25.112  1.00  0.00    +0.000 C 
ATOM     13  C8  UNL A   1      29.244  26.781  24.329  1.00  0.00    +0.000 C 
ATOM     14  C9  UNL A   1      30.170  27.067  23.323  1.00  0.00    +0.000 C 
ATOM     16  C10 UNL A   1      31.276  26.230  23.101  1.00  0.00    +0.000 C 
ATOM     92  C63 UNL A   1      31.486  25.167  23.979  1.00  0.00    +0.000 C 
BRANCH   11   10
ATOM     10  C5  UNL A   1      30.586  23.498  25.575  1.00  0.00    +0.000 C 
ATOM     99  H5  UNL A   1      29.912  22.756  25.329  1.00  0.00    +0.000 H 
BRANCH   10    9
ATOM      9  N2  UNL A   1      31.503  23.273  26.461  1.00  0.00    +0.000 N 
BRANCH    9    8
ATOM     97  H3  UNL A   1      35.994  23.628  26.764  1.00  0.00    +0.000 H 
ATOM     98  H4  UNL A   1      33.728  24.127  27.476  1.00  0.00    +0.000 H 
ATOM    132  H38 UNL A   1      32.216  21.582  24.497  1.00  0.00    +0.000 H 
ATOM    133  H39 UNL A   1      34.480  21.061  23.787  1.00  0.00    +0.000 H 
ATOM      6  C2  UNL A   1      35.192  23.189  26.286  1.00  0.00    +0.000 C 
ATOM      5  C1  UNL A   1      35.402  22.309  25.223  1.00  0.00    +0.000 C 
ATOM      7  C3  UNL A   1      33.885  23.470  26.696  1.00  0.00    +0.000 C 
ATOM      8  C4  UNL A   1      32.787  22.875  26.065  1.00  0.00    +0.000 C 
ATOM     93  C64 UNL A   1      33.017  22.008  24.988  1.00  0.00    +0.000 C 
ATOM     94  C65 UNL A   1      34.319  21.714  24.571  1.00  0.00    +0.000 C 
BRANCH    5    2
ATOM      2  S1  UNL A   1      37.054  21.942  24.707  1.00  0.00    +0.000 S 
ATOM      3  O1  UNL A   1      37.979  22.405  25.709  1.00  0.00    +0.000 O 
ATOM      4  O2  UNL A   1      37.181  22.282  23.307  1.00  0.00    +0.000 O 
BRANCH    2    1
ATOM      1  N1  UNL A   1      37.106  20.264  24.794  1.00  0.00    +0.000 N 
ATOM     95  H1  UNL A   1      36.815  19.868  23.900  1.00  0.00    +0.000 H 
ATOM     96  H2  UNL A   1      36.477  19.942  25.529  1.00  0.00    +0.000 H 
ENDBRANCH    2    1
ENDBRANCH    5    2
ENDBRANCH    9    8
ENDBRANCH   10    9
ENDBRANCH   11   10
BRANCH   14   15
ATOM    102  H8  UNL A   1      30.336  28.292  21.739  1.00  0.00    +0.000 H 
ATOM     15  O3  UNL A   1      29.920  28.185  22.571  1.00  0.00    +0.000 O 
ENDBRANCH   14   15
ENDBRANCH   17   16
ENDBRANCH   19   17
ENDBRANCH   20   19
ENDBRANCH   21   20
ENDBRANCH   22   21
ENDBRANCH   23   22
ENDBRANCH   24   23
ENDBRANCH   25   24
ENDBRANCH   26   25
ENDBRANCH   27   26
ENDBRANCH   29   27
ENDBRANCH   33   32
BRANCH   37   38
ATOM     38  C27 UNL A   1      42.286  26.290  27.920  1.00  0.00    +0.000 C 
ATOM     39  C28 UNL A   1      41.673  25.043  27.731  1.00  0.00    +0.000 C 
ATOM     40  F1  UNL A   1      40.793  24.581  28.633  1.00  0.00    +0.000 F 
ATOM     41  C29 UNL A   1      41.994  24.243  26.637  1.00  0.00    +0.000 C 
ATOM     42  F2  UNL A   1      41.436  23.031  26.508  1.00  0.00    +0.000 F 
ATOM     43  C30 UNL A   1      42.902  24.691  25.690  1.00  0.00    +0.000 C 
ATOM     44  F3  UNL A   1      43.207  23.922  24.635  1.00  0.00    +0.000 F 
ATOM     45  C31 UNL A   1      43.501  25.932  25.841  1.00  0.00    +0.000 C 
ATOM     46  F4  UNL A   1      44.369  26.373  24.920  1.00  0.00    +0.000 F 
ATOM     47  C32 UNL A   1      43.206  26.721  26.951  1.00  0.00    +0.000 C 
ATOM     48  F5  UNL A   1      43.817  27.908  27.078  1.00  0.00    +0.000 F 
ENDBRANCH   37   38
BRANCH   54   55
ATOM     65  F10 UNL A   1      43.523  25.662  35.305  1.00  0.00    +0.000 F 
ATOM     55  C38 UNL A   1      44.803  27.525  34.558  1.00  0.00    +0.000 C 
ATOM     56  C39 UNL A   1      46.008  28.237  34.647  1.00  0.00    +0.000 C 
ATOM     57  F6  UNL A   1      46.200  29.334  33.898  1.00  0.00    +0.000 F 
ATOM     58  C40 UNL A   1      47.034  27.806  35.483  1.00  0.00    +0.000 C 
ATOM     59  F7  UNL A   1      48.193  28.480  35.521  1.00  0.00    +0.000 F 
ATOM     60  C41 UNL A   1      46.864  26.676  36.268  1.00  0.00    +0.000 C 
ATOM     61  F8  UNL A   1      47.849  26.270  37.082  1.00  0.00    +0.000 F 
ATOM     62  C42 UNL A   1      45.676  25.965  36.206  1.00  0.00    +0.000 C 
ATOM     63  F9  UNL A   1      45.504  24.880  36.975  1.00  0.00    +0.000 F 
ATOM     64  C43 UNL A   1      44.659  26.375  35.350  1.00  0.00    +0.000 C 
ENDBRANCH   54   55
BRANCH   69   70
ATOM     70  C47 UNL A   1      39.476  31.883  35.692  1.00  0.00    +0.000 C 
ATOM     71  C48 UNL A   1      39.984  33.162  35.953  1.00  0.00    +0.000 C 
ATOM     72  F11 UNL A   1      40.927  33.683  35.155  1.00  0.00    +0.000 F 
ATOM     73  C49 UNL A   1      39.546  33.899  37.052  1.00  0.00    +0.000 C 
ATOM     74  F12 UNL A   1      40.073  35.106  37.298  1.00  0.00    +0.000 F 
ATOM     75  C50 UNL A   1      38.574  33.382  37.894  1.00  0.00    +0.000 C 
ATOM     76  F13 UNL A   1      38.144  34.097  38.943  1.00  0.00    +0.000 F 
ATOM     77  C51 UNL A   1      38.048  32.122  37.649  1.00  0.00    +0.000 C 
ATOM     78  F14 UNL A   1      37.094  31.627  38.449  1.00  0.00    +0.000 F 
ATOM     79  C52 UNL A   1      38.505  31.373  36.567  1.00  0.00    +0.000 C 
ATOM     80  F15 UNL A   1      37.981  30.157  36.354  1.00  0.00    +0.000 F 
ENDBRANCH   69   70
TORSDOF 21
ENDMDL
MODEL 5
REMARK VINA RESULT:     -10.2      3.948      6.267
ROOT
ATOM     33  C23 UNL A   1      41.650  26.495  27.595  1.00  0.00    +0.000 C 
ATOM     34  C24 UNL A   1      43.046  26.802  27.135  1.00  0.00    +0.000 C 
ATOM     35  N5  UNL A   1      43.775  27.867  27.355  1.00  0.00    +0.000 N 
ATOM     36  C25 UNL A   1      44.999  27.618  26.747  1.00  0.00    +0.000 C 
ATOM     37  C26 UNL A   1      46.074  28.437  26.649  1.00  0.00    +0.000 C 
ATOM     49  C33 UNL A   1      46.124  29.776  27.177  1.00  0.00    +0.000 C 
ATOM     50  C34 UNL A   1      47.132  30.715  27.051  1.00  0.00    +0.000 C 
ATOM     51  C35 UNL A   1      46.770  31.847  27.792  1.00  0.00    +0.000 C 
ATOM     52  C36 UNL A   1      45.515  31.632  28.338  1.00  0.00    +0.000 C 
ATOM     53  N6  UNL A   1      45.126  30.361  27.944  1.00  0.00    +0.000 N 
ATOM     54  C37 UNL A   1      44.729  32.516  29.161  1.00  0.00    +0.000 C 
ATOM     66  C44 UNL A   1      43.473  32.255  29.600  1.00  0.00    +0.000 C 
ATOM     67  N7  UNL A   1      42.693  31.126  29.391  1.00  0.00    +0.000 N 
ATOM     68  C45 UNL A   1      41.570  31.342  30.032  1.00  0.00    +0.000 C 
ATOM     69  C46 UNL A   1      40.359  30.456  30.142  1.00  0.00    +0.000 C 
ATOM     81  C53 UNL A   1      40.348  29.271  29.502  1.00  0.00    +0.000 C 
ATOM     82  C54 UNL A   1      39.249  28.310  29.526  1.00  0.00    +0.000 C 
ATOM     83  C55 UNL A   1      39.617  27.209  28.853  1.00  0.00    +0.000 C 
ATOM     84  C56 UNL A   1      40.962  27.405  28.311  1.00  0.00    +0.000 C 
ATOM     85  N8  UNL A   1      41.306  28.669  28.723  1.00  0.00    +0.000 N 
ATOM     86  C57 UNL A   1      41.516  32.632  30.734  1.00  0.00    +0.000 C 
ATOM     87  C58 UNL A   1      42.687  33.162  30.411  1.00  0.00    +0.000 C 
ATOM     88  C59 UNL A   1      44.931  26.283  26.194  1.00  0.00    +0.000 C 
ATOM     89  C60 UNL A   1      43.724  25.760  26.349  1.00  0.00    +0.000 C 
ATOM    119  H25 UNL A   1      47.999  30.603  26.504  1.00  0.00    +0.000 H 
ATOM    120  H26 UNL A   1      47.342  32.697  27.912  1.00  0.00    +0.000 H 
ATOM    121  H27 UNL A   1      44.268  29.936  28.173  1.00  0.00    +0.000 H 
ATOM    122  H28 UNL A   1      38.337  28.453  29.988  1.00  0.00    +0.000 H 
ATOM    123  H29 UNL A   1      39.043  26.359  28.736  1.00  0.00    +0.000 H 
ATOM    124  H30 UNL A   1      42.157  29.102  28.485  1.00  0.00    +0.000 H 
ATOM    125  H31 UNL A   1      40.764  33.021  31.324  1.00  0.00    +0.000 H 
ATOM    126  H32 UNL A   1      42.999  34.102  30.702  1.00  0.00    +0.000 H 
ATOM    127  H33 UNL A   1      45.721  25.801  25.736  1.00  0.00    +0.000 H 
ATOM    128  H34 UNL A   1      43.355  24.858  26.007  1.00  0.00    +0.000 H 
ENDROOT
BRANCH   33   32
ATOM    129  H35 UNL A   1      39.697  25.851  25.879  1.00  0.00    +0.000 H 
ATOM    130  H36 UNL A   1      38.705  23.680  25.452  1.00  0.00    +0.000 H 
ATOM    117  H23 UNL A   1      41.356  21.920  28.202  1.00  0.00    +0.000 H 
ATOM    118  H24 UNL A   1      42.201  24.118  28.788  1.00  0.00    +0.000 H 
ATOM     90  C61 UNL A   1      40.041  25.019  26.384  1.00  0.00    +0.000 C 
ATOM     91  C62 UNL A   1      39.498  23.767  26.106  1.00  0.00    +0.000 C 
ATOM     29  C19 UNL A   1      40.028  22.627  26.718  1.00  0.00    +0.000 C 
ATOM     30  C20 UNL A   1      41.004  22.757  27.710  1.00  0.00    +0.000 C 
ATOM     31  C21 UNL A   1      41.502  24.020  28.037  1.00  0.00    +0.000 C 
ATOM     32  C22 UNL A   1      41.053  25.158  27.346  1.00  0.00    +0.000 C 
BRANCH   29   27
ATOM     27  C18 UNL A   1      39.567  21.270  26.348  1.00  0.00    +0.000 C 
ATOM     28  O5  UNL A   1      40.112  20.289  26.844  1.00  0.00    +0.000 O 
BRANCH   27   26
ATOM     26  N4  UNL A   1      38.555  21.105  25.435  1.00  0.00    +0.000 N 
ATOM    116  H22 UNL A   1      38.840  20.780  24.549  1.00  0.00    +0.000 H 
BRANCH   26   25
ATOM     25  C17 UNL A   1      37.128  21.336  25.576  1.00  0.00    +0.000 C 
ATOM    114  H20 UNL A   1      36.627  20.391  25.572  1.00  0.00    +0.000 H 
ATOM    115  H21 UNL A   1      36.978  21.863  26.495  1.00  0.00    +0.000 H 
BRANCH   25   24
ATOM    113  H19 UNL A   1      35.744  21.629  24.042  1.00  0.00    +0.000 H 
ATOM    112  H18 UNL A   1      37.342  22.403  23.764  1.00  0.00    +0.000 H 
ATOM     24  C16 UNL A   1      36.552  22.196  24.456  1.00  0.00    +0.000 C 
BRANCH   24   23
ATOM    111  H17 UNL A   1      36.734  24.245  24.798  1.00  0.00    +0.000 H 
ATOM    110  H16 UNL A   1      35.552  23.413  25.871  1.00  0.00    +0.000 H 
ATOM     23  C15 UNL A   1      35.941  23.533  24.881  1.00  0.00    +0.000 C 
BRANCH   23   22
ATOM    108  H14 UNL A   1      33.906  24.022  24.566  1.00  0.00    +0.000 H 
ATOM    109  H15 UNL A   1      35.115  25.073  23.744  1.00  0.00    +0.000 H 
ATOM     22  C14 UNL A   1      34.814  24.080  24.003  1.00  0.00    +0.000 C 
BRANCH   22   21
ATOM    106  H12 UNL A   1      35.164  23.874  21.928  1.00  0.00    +0.000 H 
ATOM    107  H13 UNL A   1      34.852  22.352  22.844  1.00  0.00    +0.000 H 
ATOM     21  C13 UNL A   1      34.578  23.372  22.670  1.00  0.00    +0.000 C 
BRANCH   21   20
ATOM    105  H11 UNL A   1      33.170  23.607  21.134  1.00  0.00    +0.000 H 
ATOM     20  C12 UNL A   1      33.142  23.318  22.164  1.00  0.00    +0.000 C 
ATOM    104  H10 UNL A   1      32.551  23.976  22.766  1.00  0.00    +0.000 H 
BRANCH   20   19
ATOM     19  N3  UNL A   1      32.538  21.997  22.208  1.00  0.00    +0.000 N 
ATOM    103  H9  UNL A   1      32.254  21.647  21.333  1.00  0.00    +0.000 H 
BRANCH   19   17
ATOM     17  C11 UNL A   1      32.297  21.154  23.269  1.00  0.00    +0.000 C 
ATOM     18  O4  UNL A   1      32.075  19.961  23.048  1.00  0.00    +0.000 O 
BRANCH   17   16
ATOM    131  H37 UNL A   1      30.880  23.067  24.607  1.00  0.00    +0.000 H 
ATOM    100  H6  UNL A   1      33.018  22.966  28.226  1.00  0.00    +0.000 H 
ATOM    101  H7  UNL A   1      34.108  20.913  27.499  1.00  0.00    +0.000 H 
ATOM     11  C6  UNL A   1      31.930  23.213  26.432  1.00  0.00    +0.000 C 
ATOM     12  C7  UNL A   1      32.830  22.581  27.288  1.00  0.00    +0.000 C 
ATOM     13  C8  UNL A   1      33.476  21.419  26.859  1.00  0.00    +0.000 C 
ATOM     14  C9  UNL A   1      33.265  20.940  25.564  1.00  0.00    +0.000 C 
ATOM     16  C10 UNL A   1      32.384  21.594  24.687  1.00  0.00    +0.000 C 
ATOM     92  C63 UNL A   1      31.643  22.670  25.176  1.00  0.00    +0.000 C 
BRANCH   11   10
ATOM     10  C5  UNL A   1      31.396  24.549  26.772  1.00  0.00    +0.000 C 
ATOM     99  H5  UNL A   1      30.537  24.635  27.337  1.00  0.00    +0.000 H 
BRANCH   10    9
ATOM      9  N2  UNL A   1      32.010  25.613  26.359  1.00  0.00    +0.000 N 
BRANCH    9    8
ATOM     97  H3  UNL A   1      31.532  29.707  24.517  1.00  0.00    +0.000 H 
ATOM     98  H4  UNL A   1      32.627  28.097  25.966  1.00  0.00    +0.000 H 
ATOM    132  H38 UNL A   1      29.945  25.119  24.709  1.00  0.00    +0.000 H 
ATOM    133  H39 UNL A   1      28.852  26.716  23.243  1.00  0.00    +0.000 H 
ATOM      6  C2  UNL A   1      31.198  28.731  24.553  1.00  0.00    +0.000 C 
ATOM      5  C1  UNL A   1      30.111  28.329  23.775  1.00  0.00    +0.000 C 
ATOM      7  C3  UNL A   1      31.829  27.800  25.383  1.00  0.00    +0.000 C 
ATOM      8  C4  UNL A   1      31.396  26.470  25.436  1.00  0.00    +0.000 C 
ATOM     93  C64 UNL A   1      30.292  26.089  24.661  1.00  0.00    +0.000 C 
ATOM     94  C65 UNL A   1      29.654  27.010  23.823  1.00  0.00    +0.000 C 
BRANCH    5    2
ATOM      2  S1  UNL A   1      29.315  29.501  22.716  1.00  0.00    +0.000 S 
ATOM      3  O1  UNL A   1      27.967  29.063  22.452  1.00  0.00    +0.000 O 
ATOM      4  O2  UNL A   1      30.238  29.869  21.666  1.00  0.00    +0.000 O 
BRANCH    2    1
ATOM      1  N1  UNL A   1      29.159  30.851  23.706  1.00  0.00    +0.000 N 
ATOM     95  H1  UNL A   1      29.602  30.665  24.605  1.00  0.00    +0.000 H 
ATOM     96  H2  UNL A   1      28.170  31.055  23.848  1.00  0.00    +0.000 H 
ENDBRANCH    2    1
ENDBRANCH    5    2
ENDBRANCH    9    8
ENDBRANCH   10    9
ENDBRANCH   11   10
BRANCH   14   15
ATOM    102  H8  UNL A   1      34.529  19.402  25.837  1.00  0.00    +0.000 H 
ATOM     15  O3  UNL A   1      33.976  19.823  25.209  1.00  0.00    +0.000 O 
ENDBRANCH   14   15
ENDBRANCH   17   16
ENDBRANCH   19   17
ENDBRANCH   20   19
ENDBRANCH   21   20
ENDBRANCH   22   21
ENDBRANCH   23   22
ENDBRANCH   24   23
ENDBRANCH   25   24
ENDBRANCH   26   25
ENDBRANCH   27   26
ENDBRANCH   29   27
ENDBRANCH   33   32
BRANCH   37   38
ATOM     38  C27 UNL A   1      47.292  27.904  25.951  1.00  0.00    +0.000 C 
ATOM     39  C28 UNL A   1      47.380  27.844  24.553  1.00  0.00    +0.000 C 
ATOM     40  F1  UNL A   1      46.343  28.234  23.794  1.00  0.00    +0.000 F 
ATOM     41  C29 UNL A   1      48.518  27.342  23.925  1.00  0.00    +0.000 C 
ATOM     42  F2  UNL A   1      48.555  27.244  22.589  1.00  0.00    +0.000 F 
ATOM     43  C30 UNL A   1      49.604  26.928  24.681  1.00  0.00    +0.000 C 
ATOM     44  F3  UNL A   1      50.699  26.448  24.076  1.00  0.00    +0.000 F 
ATOM     45  C31 UNL A   1      49.551  27.002  26.064  1.00  0.00    +0.000 C 
ATOM     46  F4  UNL A   1      50.604  26.615  26.796  1.00  0.00    +0.000 F 
ATOM     47  C32 UNL A   1      48.402  27.474  26.695  1.00  0.00    +0.000 C 
ATOM     48  F5  UNL A   1      48.375  27.515  28.036  1.00  0.00    +0.000 F 
ENDBRANCH   37   38
BRANCH   54   55
ATOM     65  F10 UNL A   1      46.284  32.880  31.520  1.00  0.00    +0.000 F 
ATOM     55  C38 UNL A   1      45.337  33.830  29.554  1.00  0.00    +0.000 C 
ATOM     56  C39 UNL A   1      45.145  34.984  28.779  1.00  0.00    +0.000 C 
ATOM     57  F6  UNL A   1      44.460  34.916  27.627  1.00  0.00    +0.000 F 
ATOM     58  C40 UNL A   1      45.684  36.206  29.169  1.00  0.00    +0.000 C 
ATOM     59  F7  UNL A   1      45.521  37.287  28.392  1.00  0.00    +0.000 F 
ATOM     60  C41 UNL A   1      46.397  36.307  30.355  1.00  0.00    +0.000 C 
ATOM     61  F8  UNL A   1      46.903  37.488  30.735  1.00  0.00    +0.000 F 
ATOM     62  C42 UNL A   1      46.587  35.182  31.142  1.00  0.00    +0.000 C 
ATOM     63  F9  UNL A   1      47.264  35.280  32.296  1.00  0.00    +0.000 F 
ATOM     64  C43 UNL A   1      46.076  33.952  30.741  1.00  0.00    +0.000 C 
ENDBRANCH   54   55
BRANCH   69   70
ATOM     70  C47 UNL A   1      39.177  30.869  30.944  1.00  0.00    +0.000 C 
ATOM     71  C48 UNL A   1      38.108  31.556  30.354  1.00  0.00    +0.000 C 
ATOM     72  F11 UNL A   1      38.161  31.884  29.054  1.00  0.00    +0.000 F 
ATOM     73  C49 UNL A   1      36.994  31.931  31.101  1.00  0.00    +0.000 C 
ATOM     74  F12 UNL A   1      36.001  32.616  30.519  1.00  0.00    +0.000 F 
ATOM     75  C50 UNL A   1      36.916  31.606  32.446  1.00  0.00    +0.000 C 
ATOM     76  F13 UNL A   1      35.838  31.956  33.161  1.00  0.00    +0.000 F 
ATOM     77  C51 UNL A   1      37.958  30.917  33.051  1.00  0.00    +0.000 C 
ATOM     78  F14 UNL A   1      37.878  30.583  34.346  1.00  0.00    +0.000 F 
ATOM     79  C52 UNL A   1      39.084  30.565  32.310  1.00  0.00    +0.000 C 
ATOM     80  F15 UNL A   1      40.078  29.901  32.920  1.00  0.00    +0.000 F 
ENDBRANCH   69   70
TORSDOF 21
ENDMDL
MODEL 6
REMARK VINA RESULT:     -10.2     37.121     42.697
ROOT
ATOM     33  C23 UNL A   1      14.203  53.880   5.138  1.00  0.00    +0.000 C 
ATOM     34  C24 UNL A   1      15.113  54.346   4.039  1.00  0.00    +0.000 C 
ATOM     35  N5  UNL A   1      15.602  53.673   3.028  1.00  0.00    +0.000 N 
ATOM     36  C25 UNL A   1      16.341  54.587   2.288  1.00  0.00    +0.000 C 
ATOM     37  C26 UNL A   1      17.085  54.369   1.177  1.00  0.00    +0.000 C 
ATOM     49  C33 UNL A   1      17.250  53.082   0.552  1.00  0.00    +0.000 C 
ATOM     50  C34 UNL A   1      18.054  52.741  -0.521  1.00  0.00    +0.000 C 
ATOM     51  C35 UNL A   1      17.833  51.392  -0.822  1.00  0.00    +0.000 C 
ATOM     52  C36 UNL A   1      16.930  50.879   0.095  1.00  0.00    +0.000 C 
ATOM     53  N6  UNL A   1      16.588  51.925   0.939  1.00  0.00    +0.000 N 
ATOM     54  C37 UNL A   1      16.412  49.538   0.194  1.00  0.00    +0.000 C 
ATOM     66  C44 UNL A   1      15.579  49.097   1.170  1.00  0.00    +0.000 C 
ATOM     67  N7  UNL A   1      15.038  49.801   2.236  1.00  0.00    +0.000 N 
ATOM     68  C45 UNL A   1      14.283  48.946   2.884  1.00  0.00    +0.000 C 
ATOM     69  C46 UNL A   1      13.462  49.161   4.126  1.00  0.00    +0.000 C 
ATOM     81  C53 UNL A   1      13.472  50.369   4.723  1.00  0.00    +0.000 C 
ATOM     82  C54 UNL A   1      12.720  50.722   5.923  1.00  0.00    +0.000 C 
ATOM     83  C55 UNL A   1      12.900  52.027   6.182  1.00  0.00    +0.000 C 
ATOM     84  C56 UNL A   1      13.815  52.592   5.191  1.00  0.00    +0.000 C 
ATOM     85  N8  UNL A   1      14.125  51.528   4.380  1.00  0.00    +0.000 N 
ATOM     86  C57 UNL A   1      14.250  47.602   2.290  1.00  0.00    +0.000 C 
ATOM     87  C58 UNL A   1      15.082  47.741   1.267  1.00  0.00    +0.000 C 
ATOM     88  C59 UNL A   1      16.194  55.872   2.937  1.00  0.00    +0.000 C 
ATOM     89  C60 UNL A   1      15.499  55.765   4.060  1.00  0.00    +0.000 C 
ATOM    119  H25 UNL A   1      18.705  53.371  -1.014  1.00  0.00    +0.000 H 
ATOM    120  H26 UNL A   1      18.268  50.868  -1.597  1.00  0.00    +0.000 H 
ATOM    121  H27 UNL A   1      15.969  51.857   1.701  1.00  0.00    +0.000 H 
ATOM    122  H28 UNL A   1      12.144  50.074   6.482  1.00  0.00    +0.000 H 
ATOM    123  H29 UNL A   1      12.461  52.549   6.958  1.00  0.00    +0.000 H 
ATOM    124  H30 UNL A   1      14.755  51.589   3.625  1.00  0.00    +0.000 H 
ATOM    125  H31 UNL A   1      13.718  46.771   2.591  1.00  0.00    +0.000 H 
ATOM    126  H32 UNL A   1      15.342  46.978   0.623  1.00  0.00    +0.000 H 
ATOM    127  H33 UNL A   1      16.582  56.757   2.574  1.00  0.00    +0.000 H 
ATOM    128  H34 UNL A   1      15.284  56.488   4.765  1.00  0.00    +0.000 H 
ENDROOT
BRANCH   33   32
ATOM    129  H35 UNL A   1      15.294  54.700   7.443  1.00  0.00    +0.000 H 
ATOM    130  H36 UNL A   1      14.420  56.279   9.061  1.00  0.00    +0.000 H 
ATOM    117  H23 UNL A   1      11.071  56.949   6.608  1.00  0.00    +0.000 H 
ATOM    118  H24 UNL A   1      11.836  55.212   5.094  1.00  0.00    +0.000 H 
ATOM     90  C61 UNL A   1      14.390  55.166   7.270  1.00  0.00    +0.000 C 
ATOM     91  C62 UNL A   1      13.910  56.104   8.182  1.00  0.00    +0.000 C 
ATOM     29  C19 UNL A   1      12.734  56.806   7.903  1.00  0.00    +0.000 C 
ATOM     30  C20 UNL A   1      11.967  56.469   6.784  1.00  0.00    +0.000 C 
ATOM     31  C21 UNL A   1      12.416  55.481   5.904  1.00  0.00    +0.000 C 
ATOM     32  C22 UNL A   1      13.652  54.850   6.119  1.00  0.00    +0.000 C 
BRANCH   29   27
ATOM     27  C18 UNL A   1      12.266  57.902   8.780  1.00  0.00    +0.000 C 
ATOM     28  O5  UNL A   1      12.759  59.020   8.669  1.00  0.00    +0.000 O 
BRANCH   27   26
ATOM     26  N4  UNL A   1      11.305  57.667   9.732  1.00  0.00    +0.000 N 
ATOM    116  H22 UNL A   1      11.136  58.417  10.350  1.00  0.00    +0.000 H 
BRANCH   26   25
ATOM     25  C17 UNL A   1      10.498  56.482   9.968  1.00  0.00    +0.000 C 
ATOM    114  H20 UNL A   1       9.568  56.783  10.400  1.00  0.00    +0.000 H 
ATOM    115  H21 UNL A   1      10.361  55.996   9.025  1.00  0.00    +0.000 H 
BRANCH   25   24
ATOM    113  H19 UNL A   1      10.532  55.418  11.762  1.00  0.00    +0.000 H 
ATOM    112  H18 UNL A   1      12.154  55.846  11.118  1.00  0.00    +0.000 H 
ATOM     24  C16 UNL A   1      11.170  55.484  10.905  1.00  0.00    +0.000 C 
BRANCH   24   23
ATOM    111  H17 UNL A   1      10.943  54.087   9.373  1.00  0.00    +0.000 H 
ATOM    110  H16 UNL A   1      10.739  53.415  11.030  1.00  0.00    +0.000 H 
ATOM     23  C15 UNL A   1      11.301  54.052  10.380  1.00  0.00    +0.000 C 
BRANCH   23   22
ATOM    108  H14 UNL A   1      12.673  52.451  10.556  1.00  0.00    +0.000 H 
ATOM    109  H15 UNL A   1      13.030  53.671   9.279  1.00  0.00    +0.000 H 
ATOM     22  C14 UNL A   1      12.719  53.486  10.286  1.00  0.00    +0.000 C 
BRANCH   22   21
ATOM    106  H12 UNL A   1      14.709  54.110  10.630  1.00  0.00    +0.000 H 
ATOM    107  H13 UNL A   1      13.412  55.133  11.353  1.00  0.00    +0.000 H 
ATOM     21  C13 UNL A   1      13.782  54.147  11.163  1.00  0.00    +0.000 C 
BRANCH   21   20
ATOM    105  H11 UNL A   1      13.171  52.911  12.743  1.00  0.00    +0.000 H 
ATOM     20  C12 UNL A   1      14.015  53.536  12.538  1.00  0.00    +0.000 C 
ATOM    104  H10 UNL A   1      14.126  54.333  13.244  1.00  0.00    +0.000 H 
BRANCH   20   19
ATOM     19  N3  UNL A   1      15.190  52.685  12.626  1.00  0.00    +0.000 N 
ATOM    103  H9  UNL A   1      16.049  53.166  12.600  1.00  0.00    +0.000 H 
BRANCH   19   17
ATOM     17  C11 UNL A   1      15.303  51.317  12.738  1.00  0.00    +0.000 C 
ATOM     18  O4  UNL A   1      15.058  50.784  13.822  1.00  0.00    +0.000 O 
BRANCH   17   16
ATOM    131  H37 UNL A   1      13.639  49.874  11.123  1.00  0.00    +0.000 H 
ATOM    100  H6  UNL A   1      16.578  47.822   8.925  1.00  0.00    +0.000 H 
ATOM    101  H7  UNL A   1      18.271  49.317   9.836  1.00  0.00    +0.000 H 
ATOM     11  C6  UNL A   1      14.994  48.686  10.025  1.00  0.00    +0.000 C 
ATOM     12  C7  UNL A   1      16.320  48.541   9.618  1.00  0.00    +0.000 C 
ATOM     13  C8  UNL A   1      17.294  49.381  10.163  1.00  0.00    +0.000 C 
ATOM     14  C9  UNL A   1      16.946  50.308  11.148  1.00  0.00    +0.000 C 
ATOM     16  C10 UNL A   1      15.618  50.434  11.583  1.00  0.00    +0.000 C 
ATOM     92  C63 UNL A   1      14.635  49.687  10.933  1.00  0.00    +0.000 C 
BRANCH   11   10
ATOM     10  C5  UNL A   1      13.983  47.683   9.630  1.00  0.00    +0.000 C 
ATOM     99  H5  UNL A   1      14.145  47.078   8.809  1.00  0.00    +0.000 H 
BRANCH   10    9
ATOM      9  N2  UNL A   1      12.892  47.563  10.318  1.00  0.00    +0.000 N 
BRANCH    9    8
ATOM     97  H3  UNL A   1       8.820  45.884   9.323  1.00  0.00    +0.000 H 
ATOM     98  H4  UNL A   1      10.950  45.857  10.487  1.00  0.00    +0.000 H 
ATOM    132  H38 UNL A   1      12.012  49.486   8.657  1.00  0.00    +0.000 H 
ATOM    133  H39 UNL A   1       9.877  49.533   7.501  1.00  0.00    +0.000 H 
ATOM      6  C2  UNL A   1       9.496  46.652   9.185  1.00  0.00    +0.000 C 
ATOM      5  C1  UNL A   1       9.194  47.710   8.326  1.00  0.00    +0.000 C 
ATOM      7  C3  UNL A   1      10.722  46.643   9.858  1.00  0.00    +0.000 C 
ATOM      8  C4  UNL A   1      11.644  47.682   9.691  1.00  0.00    +0.000 C 
ATOM     93  C64 UNL A   1      11.331  48.726   8.810  1.00  0.00    +0.000 C 
ATOM     94  C65 UNL A   1      10.106  48.751   8.136  1.00  0.00    +0.000 C 
BRANCH    5    2
ATOM      2  S1  UNL A   1       7.640  47.733   7.481  1.00  0.00    +0.000 S 
ATOM      3  O1  UNL A   1       7.805  48.377   6.202  1.00  0.00    +0.000 O 
ATOM      4  O2  UNL A   1       6.613  48.115   8.423  1.00  0.00    +0.000 O 
BRANCH    2    1
ATOM      1  N1  UNL A   1       7.383  46.108   7.133  1.00  0.00    +0.000 N 
ATOM     95  H1  UNL A   1       7.790  45.887   6.224  1.00  0.00    +0.000 H 
ATOM     96  H2  UNL A   1       6.381  45.920   7.112  1.00  0.00    +0.000 H 
ENDBRANCH    2    1
ENDBRANCH    5    2
ENDBRANCH    9    8
ENDBRANCH   10    9
ENDBRANCH   11   10
BRANCH   14   15
ATOM    102  H8  UNL A   1      17.834  51.958  11.875  1.00  0.00    +0.000 H 
ATOM     15  O3  UNL A   1      17.973  51.057  11.663  1.00  0.00    +0.000 O 
ENDBRANCH   14   15
ENDBRANCH   17   16
ENDBRANCH   19   17
ENDBRANCH   20   19
ENDBRANCH   21   20
ENDBRANCH   22   21
ENDBRANCH   23   22
ENDBRANCH   24   23
ENDBRANCH   25   24
ENDBRANCH   26   25
ENDBRANCH   27   26
ENDBRANCH   29   27
ENDBRANCH   33   32
BRANCH   37   38
ATOM     38  C27 UNL A   1      17.771  55.552   0.556  1.00  0.00    +0.000 C 
ATOM     39  C28 UNL A   1      17.179  56.298  -0.473  1.00  0.00    +0.000 C 
ATOM     40  F1  UNL A   1      15.980  55.942  -0.961  1.00  0.00    +0.000 F 
ATOM     41  C29 UNL A   1      17.835  57.390  -1.038  1.00  0.00    +0.000 C 
ATOM     42  F2  UNL A   1      17.272  58.053  -2.057  1.00  0.00    +0.000 F 
ATOM     43  C30 UNL A   1      19.076  57.781  -0.558  1.00  0.00    +0.000 C 
ATOM     44  F3  UNL A   1      19.704  58.833  -1.099  1.00  0.00    +0.000 F 
ATOM     45  C31 UNL A   1      19.669  57.074   0.477  1.00  0.00    +0.000 C 
ATOM     46  F4  UNL A   1      20.862  57.458   0.951  1.00  0.00    +0.000 F 
ATOM     47  C32 UNL A   1      19.030  55.963   1.022  1.00  0.00    +0.000 C 
ATOM     48  F5  UNL A   1      19.640  55.290   2.009  1.00  0.00    +0.000 F 
ENDBRANCH   37   38
BRANCH   54   55
ATOM     65  F10 UNL A   1      14.907  49.017  -2.168  1.00  0.00    +0.000 F 
ATOM     55  C38 UNL A   1      16.833  48.547  -0.851  1.00  0.00    +0.000 C 
ATOM     56  C39 UNL A   1      18.002  47.785  -0.705  1.00  0.00    +0.000 C 
ATOM     57  F6  UNL A   1      18.805  47.979   0.352  1.00  0.00    +0.000 F 
ATOM     58  C40 UNL A   1      18.367  46.843  -1.663  1.00  0.00    +0.000 C 
ATOM     59  F7  UNL A   1      19.510  46.155  -1.522  1.00  0.00    +0.000 F 
ATOM     60  C41 UNL A   1      17.557  46.622  -2.766  1.00  0.00    +0.000 C 
ATOM     61  F8  UNL A   1      17.904  45.705  -3.680  1.00  0.00    +0.000 F 
ATOM     62  C42 UNL A   1      16.391  47.354  -2.924  1.00  0.00    +0.000 C 
ATOM     63  F9  UNL A   1      15.599  47.132  -3.983  1.00  0.00    +0.000 F 
ATOM     64  C43 UNL A   1      16.037  48.318  -1.984  1.00  0.00    +0.000 C 
ENDBRANCH   54   55
BRANCH   69   70
ATOM     70  C47 UNL A   1      12.643  48.063   4.704  1.00  0.00    +0.000 C 
ATOM     71  C48 UNL A   1      13.103  47.318   5.797  1.00  0.00    +0.000 C 
ATOM     72  F11 UNL A   1      14.317  47.566   6.312  1.00  0.00    +0.000 F 
ATOM     73  C49 UNL A   1      12.331  46.298   6.348  1.00  0.00    +0.000 C 
ATOM     74  F12 UNL A   1      12.809  45.578   7.372  1.00  0.00    +0.000 F 
ATOM     75  C50 UNL A   1      11.075  46.020   5.833  1.00  0.00    +0.000 C 
ATOM     76  F13 UNL A   1      10.327  45.047   6.373  1.00  0.00    +0.000 F 
ATOM     77  C51 UNL A   1      10.593  46.752   4.757  1.00  0.00    +0.000 C 
ATOM     78  F14 UNL A   1       9.371  46.500   4.270  1.00  0.00    +0.000 F 
ATOM     79  C52 UNL A   1      11.376  47.754   4.189  1.00  0.00    +0.000 C 
ATOM     80  F15 UNL A   1      10.887  48.445   3.148  1.00  0.00    +0.000 F 
ENDBRANCH   69   70
TORSDOF 21
ENDMDL
MODEL 7
REMARK VINA RESULT:     -10.1     20.413     25.671
ROOT
ATOM     33  C23 UNL A   1      52.836  20.769  11.633  1.00  0.00    +0.000 C 
ATOM     34  C24 UNL A   1      54.125  20.055  11.343  1.00  0.00    +0.000 C 
ATOM     35  N5  UNL A   1      55.169  19.886  12.115  1.00  0.00    +0.000 N 
ATOM     36  C25 UNL A   1      56.061  19.117  11.380  1.00  0.00    +0.000 C 
ATOM     37  C26 UNL A   1      57.311  18.716  11.720  1.00  0.00    +0.000 C 
ATOM     49  C33 UNL A   1      57.958  19.050  12.962  1.00  0.00    +0.000 C 
ATOM     50  C34 UNL A   1      59.252  18.770  13.363  1.00  0.00    +0.000 C 
ATOM     51  C35 UNL A   1      59.412  19.225  14.676  1.00  0.00    +0.000 C 
ATOM     52  C36 UNL A   1      58.234  19.835  15.077  1.00  0.00    +0.000 C 
ATOM     53  N6  UNL A   1      57.354  19.729  14.012  1.00  0.00    +0.000 N 
ATOM     54  C37 UNL A   1      57.930  20.462  16.338  1.00  0.00    +0.000 C 
ATOM     66  C44 UNL A   1      56.769  21.100  16.627  1.00  0.00    +0.000 C 
ATOM     67  N7  UNL A   1      55.647  21.273  15.829  1.00  0.00    +0.000 N 
ATOM     68  C45 UNL A   1      54.784  21.936  16.560  1.00  0.00    +0.000 C 
ATOM     69  C46 UNL A   1      53.401  22.404  16.199  1.00  0.00    +0.000 C 
ATOM     81  C53 UNL A   1      52.924  22.162  14.963  1.00  0.00    +0.000 C 
ATOM     82  C54 UNL A   1      51.602  22.548  14.478  1.00  0.00    +0.000 C 
ATOM     83  C55 UNL A   1      51.436  22.071  13.235  1.00  0.00    +0.000 C 
ATOM     84  C56 UNL A   1      52.658  21.383  12.818  1.00  0.00    +0.000 C 
ATOM     85  N8  UNL A   1      53.497  21.511  13.898  1.00  0.00    +0.000 N 
ATOM     86  C57 UNL A   1      55.259  22.247  17.916  1.00  0.00    +0.000 C 
ATOM     87  C58 UNL A   1      56.485  21.744  17.893  1.00  0.00    +0.000 C 
ATOM     88  C59 UNL A   1      55.416  18.809  10.122  1.00  0.00    +0.000 C 
ATOM     89  C60 UNL A   1      54.244  19.420  10.022  1.00  0.00    +0.000 C 
ATOM    119  H25 UNL A   1      59.976  18.307  12.791  1.00  0.00    +0.000 H 
ATOM    120  H26 UNL A   1      60.264  19.123  15.250  1.00  0.00    +0.000 H 
ATOM    121  H27 UNL A   1      56.435  20.084  13.999  1.00  0.00    +0.000 H 
ATOM    122  H28 UNL A   1      50.907  23.098  15.007  1.00  0.00    +0.000 H 
ATOM    123  H29 UNL A   1      50.582  22.174  12.664  1.00  0.00    +0.000 H 
ATOM    124  H30 UNL A   1      54.420  21.169  13.908  1.00  0.00    +0.000 H 
ATOM    125  H31 UNL A   1      54.766  22.730  18.683  1.00  0.00    +0.000 H 
ATOM    126  H32 UNL A   1      57.152  21.804  18.678  1.00  0.00    +0.000 H 
ATOM    127  H33 UNL A   1      55.816  18.195   9.395  1.00  0.00    +0.000 H 
ATOM    128  H34 UNL A   1      53.587  19.444   9.227  1.00  0.00    +0.000 H 
ENDROOT
BRANCH   33   32
ATOM    129  H35 UNL A   1      52.386  22.406   9.561  1.00  0.00    +0.000 H 
ATOM    130  H36 UNL A   1      50.572  22.358   7.954  1.00  0.00    +0.000 H 
ATOM    117  H23 UNL A   1      49.027  18.904   9.789  1.00  0.00    +0.000 H 
ATOM    118  H24 UNL A   1      50.715  19.076  11.525  1.00  0.00    +0.000 H 
ATOM     90  C61 UNL A   1      51.665  21.669   9.620  1.00  0.00    +0.000 C 
ATOM     91  C62 UNL A   1      50.647  21.620   8.670  1.00  0.00    +0.000 C 
ATOM     29  C19 UNL A   1      49.727  20.568   8.691  1.00  0.00    +0.000 C 
ATOM     30  C20 UNL A   1      49.741  19.649   9.744  1.00  0.00    +0.000 C 
ATOM     31  C21 UNL A   1      50.722  19.737  10.734  1.00  0.00    +0.000 C 
ATOM     32  C22 UNL A   1      51.717  20.725  10.657  1.00  0.00    +0.000 C 
BRANCH   29   27
ATOM     27  C18 UNL A   1      48.716  20.409   7.622  1.00  0.00    +0.000 C 
ATOM     28  O5  UNL A   1      48.035  21.373   7.284  1.00  0.00    +0.000 O 
BRANCH   27   26
ATOM     26  N4  UNL A   1      48.518  19.187   7.029  1.00  0.00    +0.000 N 
ATOM    116  H22 UNL A   1      47.575  18.930   6.906  1.00  0.00    +0.000 H 
BRANCH   26   25
ATOM     25  C17 UNL A   1      49.489  18.215   6.554  1.00  0.00    +0.000 C 
ATOM    114  H20 UNL A   1      49.625  17.471   7.310  1.00  0.00    +0.000 H 
ATOM    115  H21 UNL A   1      49.105  17.797   5.647  1.00  0.00    +0.000 H 
BRANCH   25   24
ATOM    113  H19 UNL A   1      50.746  19.878   6.467  1.00  0.00    +0.000 H 
ATOM    112  H18 UNL A   1      51.062  18.637   5.206  1.00  0.00    +0.000 H 
ATOM     24  C16 UNL A   1      50.844  18.837   6.235  1.00  0.00    +0.000 C 
BRANCH   24   23
ATOM    111  H17 UNL A   1      52.348  19.187   7.637  1.00  0.00    +0.000 H 
ATOM    110  H16 UNL A   1      52.760  17.951   6.394  1.00  0.00    +0.000 H 
ATOM     23  C15 UNL A   1      52.026  18.339   7.069  1.00  0.00    +0.000 C 
BRANCH   23   22
ATOM    108  H14 UNL A   1      51.660  17.725   9.061  1.00  0.00    +0.000 H 
ATOM    109  H15 UNL A   1      50.817  16.792   7.771  1.00  0.00    +0.000 H 
ATOM     22  C14 UNL A   1      51.724  17.253   8.103  1.00  0.00    +0.000 C 
BRANCH   22   21
ATOM    106  H12 UNL A   1      52.828  15.864   9.252  1.00  0.00    +0.000 H 
ATOM    107  H13 UNL A   1      52.344  15.331   7.599  1.00  0.00    +0.000 H 
ATOM     21  C13 UNL A   1      52.735  16.113   8.215  1.00  0.00    +0.000 C 
BRANCH   21   20
ATOM    105  H11 UNL A   1      54.819  15.936   8.371  1.00  0.00    +0.000 H 
ATOM     20  C12 UNL A   1      54.135  16.381   7.678  1.00  0.00    +0.000 C 
ATOM    104  H10 UNL A   1      54.262  17.440   7.588  1.00  0.00    +0.000 H 
BRANCH   20   19
ATOM     19  N3  UNL A   1      54.407  15.779   6.384  1.00  0.00    +0.000 N 
ATOM    103  H9  UNL A   1      54.855  14.903   6.424  1.00  0.00    +0.000 H 
BRANCH   19   17
ATOM     17  C11 UNL A   1      54.143  16.230   5.109  1.00  0.00    +0.000 C 
ATOM     18  O4  UNL A   1      54.906  17.052   4.596  1.00  0.00    +0.000 O 
BRANCH   17   16
ATOM    131  H37 UNL A   1      51.442  16.390   5.482  1.00  0.00    +0.000 H 
ATOM    100  H6  UNL A   1      50.257  13.892   2.315  1.00  0.00    +0.000 H 
ATOM    101  H7  UNL A   1      52.526  13.969   1.435  1.00  0.00    +0.000 H 
ATOM     11  C6  UNL A   1      50.705  15.068   4.012  1.00  0.00    +0.000 C 
ATOM     12  C7  UNL A   1      50.997  14.398   2.825  1.00  0.00    +0.000 C 
ATOM     13  C8  UNL A   1      52.305  14.420   2.336  1.00  0.00    +0.000 C 
ATOM     14  C9  UNL A   1      53.314  15.053   3.067  1.00  0.00    +0.000 C 
ATOM     16  C10 UNL A   1      53.029  15.700   4.279  1.00  0.00    +0.000 C 
ATOM     92  C63 UNL A   1      51.697  15.789   4.684  1.00  0.00    +0.000 C 
BRANCH   11   10
ATOM     10  C5  UNL A   1      49.388  14.889   4.661  1.00  0.00    +0.000 C 
ATOM     99  H5  UNL A   1      49.314  14.360   5.545  1.00  0.00    +0.000 H 
BRANCH   10    9
ATOM      9  N2  UNL A   1      48.328  15.397   4.118  1.00  0.00    +0.000 N 
BRANCH    9    8
ATOM     97  H3  UNL A   1      44.259  16.604   5.657  1.00  0.00    +0.000 H 
ATOM     98  H4  UNL A   1      46.430  17.068   4.677  1.00  0.00    +0.000 H 
ATOM    132  H38 UNL A   1      47.347  12.970   4.734  1.00  0.00    +0.000 H 
ATOM    133  H39 UNL A   1      45.171  12.492   5.699  1.00  0.00    +0.000 H 
ATOM      6  C2  UNL A   1      44.912  15.831   5.456  1.00  0.00    +0.000 C 
ATOM      5  C1  UNL A   1      44.557  14.514   5.750  1.00  0.00    +0.000 C 
ATOM      7  C3  UNL A   1      46.162  16.094   4.887  1.00  0.00    +0.000 C 
ATOM      8  C4  UNL A   1      47.056  15.057   4.598  1.00  0.00    +0.000 C 
ATOM     93  C64 UNL A   1      46.689  13.742   4.917  1.00  0.00    +0.000 C 
ATOM     94  C65 UNL A   1      45.440  13.465   5.482  1.00  0.00    +0.000 C 
BRANCH    5    2
ATOM      2  S1  UNL A   1      42.973  14.175   6.461  1.00  0.00    +0.000 S 
ATOM      3  O1  UNL A   1      43.135  13.876   7.862  1.00  0.00    +0.000 O 
ATOM      4  O2  UNL A   1      42.241  13.316   5.557  1.00  0.00    +0.000 O 
BRANCH    2    1
ATOM      1  N1  UNL A   1      42.214  15.674   6.411  1.00  0.00    +0.000 N 
ATOM     95  H1  UNL A   1      42.914  16.412   6.485  1.00  0.00    +0.000 H 
ATOM     96  H2  UNL A   1      41.557  15.749   7.187  1.00  0.00    +0.000 H 
ENDBRANCH    2    1
ENDBRANCH    5    2
ENDBRANCH    9    8
ENDBRANCH   10    9
ENDBRANCH   11   10
BRANCH   14   15
ATOM    102  H8  UNL A   1      54.715  14.570   1.709  1.00  0.00    +0.000 H 
ATOM     15  O3  UNL A   1      54.577  14.983   2.539  1.00  0.00    +0.000 O 
ENDBRANCH   14   15
ENDBRANCH   17   16
ENDBRANCH   19   17
ENDBRANCH   20   19
ENDBRANCH   21   20
ENDBRANCH   22   21
ENDBRANCH   23   22
ENDBRANCH   24   23
ENDBRANCH   25   24
ENDBRANCH   26   25
ENDBRANCH   27   26
ENDBRANCH   29   27
ENDBRANCH   33   32
BRANCH   37   38
ATOM     38  C27 UNL A   1      58.058  17.862  10.737  1.00  0.00    +0.000 C 
ATOM     39  C28 UNL A   1      58.871  18.418   9.738  1.00  0.00    +0.000 C 
ATOM     40  F1  UNL A   1      58.969  19.751   9.612  1.00  0.00    +0.000 F 
ATOM     41  C29 UNL A   1      59.553  17.608   8.833  1.00  0.00    +0.000 C 
ATOM     42  F2  UNL A   1      60.278  18.164   7.853  1.00  0.00    +0.000 F 
ATOM     43  C30 UNL A   1      59.469  16.227   8.935  1.00  0.00    +0.000 C 
ATOM     44  F3  UNL A   1      60.128  15.448   8.066  1.00  0.00    +0.000 F 
ATOM     45  C31 UNL A   1      58.693  15.654   9.931  1.00  0.00    +0.000 C 
ATOM     46  F4  UNL A   1      58.621  14.321  10.040  1.00  0.00    +0.000 F 
ATOM     47  C32 UNL A   1      57.985  16.463  10.818  1.00  0.00    +0.000 C 
ATOM     48  F5  UNL A   1      57.228  15.877  11.758  1.00  0.00    +0.000 F 
ENDBRANCH   37   38
BRANCH   54   55
ATOM     65  F10 UNL A   1      58.365  18.204  18.018  1.00  0.00    +0.000 F 
ATOM     55  C38 UNL A   1      58.979  20.421  17.410  1.00  0.00    +0.000 C 
ATOM     56  C39 UNL A   1      59.802  21.528  17.669  1.00  0.00    +0.000 C 
ATOM     57  F6  UNL A   1      59.707  22.630  16.911  1.00  0.00    +0.000 F 
ATOM     58  C40 UNL A   1      60.748  21.493  18.689  1.00  0.00    +0.000 C 
ATOM     59  F7  UNL A   1      61.551  22.548  18.892  1.00  0.00    +0.000 F 
ATOM     60  C41 UNL A   1      60.870  20.366  19.488  1.00  0.00    +0.000 C 
ATOM     61  F8  UNL A   1      61.773  20.340  20.478  1.00  0.00    +0.000 F 
ATOM     62  C42 UNL A   1      60.058  19.267  19.259  1.00  0.00    +0.000 C 
ATOM     63  F9  UNL A   1      60.164  18.182  20.040  1.00  0.00    +0.000 F 
ATOM     64  C43 UNL A   1      59.131  19.286  18.221  1.00  0.00    +0.000 C 
ENDBRANCH   54   55
BRANCH   69   70
ATOM     70  C47 UNL A   1      52.555  23.128  17.184  1.00  0.00    +0.000 C 
ATOM     71  C48 UNL A   1      52.611  24.523  17.296  1.00  0.00    +0.000 C 
ATOM     72  F11 UNL A   1      53.466  25.221  16.535  1.00  0.00    +0.000 F 
ATOM     73  C49 UNL A   1      51.808  25.204  18.210  1.00  0.00    +0.000 C 
ATOM     74  F12 UNL A   1      51.906  26.535  18.320  1.00  0.00    +0.000 F 
ATOM     75  C50 UNL A   1      50.918  24.505  19.010  1.00  0.00    +0.000 C 
ATOM     76  F13 UNL A   1      50.137  25.163  19.878  1.00  0.00    +0.000 F 
ATOM     77  C51 UNL A   1      50.837  23.124  18.909  1.00  0.00    +0.000 C 
ATOM     78  F14 UNL A   1      49.963  22.447  19.666  1.00  0.00    +0.000 F 
ATOM     79  C52 UNL A   1      51.658  22.440  18.016  1.00  0.00    +0.000 C 
ATOM     80  F15 UNL A   1      51.561  21.104  17.940  1.00  0.00    +0.000 F 
ENDBRANCH   69   70
TORSDOF 21
ENDMDL
MODEL 8
REMARK VINA RESULT:     -10.1      5.759      9.648
ROOT
ATOM     33  C23 UNL A   1      40.523  27.910  29.007  1.00  0.00    +0.000 C 
ATOM     34  C24 UNL A   1      41.901  27.966  29.601  1.00  0.00    +0.000 C 
ATOM     35  N5  UNL A   1      42.437  28.888  30.361  1.00  0.00    +0.000 N 
ATOM     36  C25 UNL A   1      43.710  28.428  30.670  1.00  0.00    +0.000 C 
ATOM     37  C26 UNL A   1      44.680  29.046  31.387  1.00  0.00    +0.000 C 
ATOM     49  C33 UNL A   1      44.547  30.357  31.968  1.00  0.00    +0.000 C 
ATOM     50  C34 UNL A   1      45.502  31.105  32.634  1.00  0.00    +0.000 C 
ATOM     51  C35 UNL A   1      44.896  32.285  33.084  1.00  0.00    +0.000 C 
ATOM     52  C36 UNL A   1      43.579  32.294  32.655  1.00  0.00    +0.000 C 
ATOM     53  N6  UNL A   1      43.381  31.109  31.963  1.00  0.00    +0.000 N 
ATOM     54  C37 UNL A   1      42.573  33.304  32.864  1.00  0.00    +0.000 C 
ATOM     66  C44 UNL A   1      41.318  33.268  32.349  1.00  0.00    +0.000 C 
ATOM     67  N7  UNL A   1      40.729  32.292  31.559  1.00  0.00    +0.000 N 
ATOM     68  C45 UNL A   1      39.504  32.703  31.335  1.00  0.00    +0.000 C 
ATOM     69  C46 UNL A   1      38.417  32.043  30.531  1.00  0.00    +0.000 C 
ATOM     81  C53 UNL A   1      38.672  30.876  29.909  1.00  0.00    +0.000 C 
ATOM     82  C54 UNL A   1      37.715  30.122  29.105  1.00  0.00    +0.000 C 
ATOM     83  C55 UNL A   1      38.285  28.972  28.713  1.00  0.00    +0.000 C 
ATOM     84  C56 UNL A   1      39.663  28.928  29.201  1.00  0.00    +0.000 C 
ATOM     85  N8  UNL A   1      39.814  30.113  29.878  1.00  0.00    +0.000 N 
ATOM     86  C57 UNL A   1      39.173  33.984  31.974  1.00  0.00    +0.000 C 
ATOM     87  C58 UNL A   1      40.323  34.300  32.552  1.00  0.00    +0.000 C 
ATOM     88  C59 UNL A   1      43.847  27.123  30.059  1.00  0.00    +0.000 C 
ATOM     89  C60 UNL A   1      42.782  26.820  29.333  1.00  0.00    +0.000 C 
ATOM    119  H25 UNL A   1      46.489  30.842  32.772  1.00  0.00    +0.000 H 
ATOM    120  H26 UNL A   1      45.354  33.022  33.642  1.00  0.00    +0.000 H 
ATOM    121  H27 UNL A   1      42.538  30.841  31.530  1.00  0.00    +0.000 H 
ATOM    122  H28 UNL A   1      36.755  30.423  28.877  1.00  0.00    +0.000 H 
ATOM    123  H29 UNL A   1      37.823  28.235  28.157  1.00  0.00    +0.000 H 
ATOM    124  H30 UNL A   1      40.660  30.390  30.300  1.00  0.00    +0.000 H 
ATOM    125  H31 UNL A   1      38.280  34.501  31.973  1.00  0.00    +0.000 H 
ATOM    126  H32 UNL A   1      40.488  35.173  33.079  1.00  0.00    +0.000 H 
ATOM    127  H33 UNL A   1      44.669  26.509  30.173  1.00  0.00    +0.000 H 
ATOM    128  H34 UNL A   1      42.613  25.995  28.735  1.00  0.00    +0.000 H 
ENDROOT
BRANCH   33   32
ATOM    129  H35 UNL A   1      41.066  27.192  26.484  1.00  0.00    +0.000 H 
ATOM    130  H36 UNL A   1      40.338  25.220  25.275  1.00  0.00    +0.000 H 
ATOM    117  H23 UNL A   1      38.350  23.838  28.714  1.00  0.00    +0.000 H 
ATOM    118  H24 UNL A   1      38.895  25.908  29.857  1.00  0.00    +0.000 H 
ATOM     90  C61 UNL A   1      40.477  26.487  26.956  1.00  0.00    +0.000 C 
ATOM     91  C62 UNL A   1      40.095  25.336  26.271  1.00  0.00    +0.000 C 
ATOM     29  C19 UNL A   1      39.379  24.336  26.937  1.00  0.00    +0.000 C 
ATOM     30  C20 UNL A   1      38.926  24.553  28.241  1.00  0.00    +0.000 C 
ATOM     31  C21 UNL A   1      39.253  25.737  28.905  1.00  0.00    +0.000 C 
ATOM     32  C22 UNL A   1      40.067  26.697  28.281  1.00  0.00    +0.000 C 
BRANCH   29   27
ATOM     27  C18 UNL A   1      39.072  23.044  26.283  1.00  0.00    +0.000 C 
ATOM     28  O5  UNL A   1      38.051  22.933  25.611  1.00  0.00    +0.000 O 
BRANCH   27   26
ATOM     26  N4  UNL A   1      39.906  21.967  26.448  1.00  0.00    +0.000 N 
ATOM    116  H22 UNL A   1      39.457  21.090  26.468  1.00  0.00    +0.000 H 
BRANCH   26   25
ATOM     25  C17 UNL A   1      41.351  21.923  26.595  1.00  0.00    +0.000 C 
ATOM    114  H20 UNL A   1      41.714  21.030  26.132  1.00  0.00    +0.000 H 
ATOM    115  H21 UNL A   1      41.747  22.802  26.132  1.00  0.00    +0.000 H 
BRANCH   25   24
ATOM    113  H19 UNL A   1      42.583  21.205  28.119  1.00  0.00    +0.000 H 
ATOM    112  H18 UNL A   1      40.945  21.710  28.659  1.00  0.00    +0.000 H 
ATOM     24  C16 UNL A   1      41.799  21.931  28.053  1.00  0.00    +0.000 C 
BRANCH   24   23
ATOM    111  H17 UNL A   1      41.747  23.578  29.331  1.00  0.00    +0.000 H 
ATOM    110  H16 UNL A   1      42.496  23.904  27.727  1.00  0.00    +0.000 H 
ATOM     23  C15 UNL A   1      42.408  23.240  28.562  1.00  0.00    +0.000 C 
BRANCH   23   22
ATOM    108  H14 UNL A   1      43.766  23.759  30.099  1.00  0.00    +0.000 H 
ATOM    109  H15 UNL A   1      43.930  22.100  29.417  1.00  0.00    +0.000 H 
ATOM     22  C14 UNL A   1      43.783  23.142  29.225  1.00  0.00    +0.000 C 
BRANCH   22   21
ATOM    106  H12 UNL A   1      44.923  24.628  28.244  1.00  0.00    +0.000 H 
ATOM    107  H13 UNL A   1      45.841  23.235  28.927  1.00  0.00    +0.000 H 
ATOM     21  C13 UNL A   1      44.983  23.569  28.381  1.00  0.00    +0.000 C 
BRANCH   21   20
ATOM    105  H11 UNL A   1      44.133  22.619  26.716  1.00  0.00    +0.000 H 
ATOM     20  C12 UNL A   1      45.115  22.933  27.003  1.00  0.00    +0.000 C 
ATOM    104  H10 UNL A   1      45.809  22.122  27.074  1.00  0.00    +0.000 H 
BRANCH   20   19
ATOM     19  N3  UNL A   1      45.580  23.839  25.966  1.00  0.00    +0.000 N 
ATOM    103  H9  UNL A   1      46.461  23.614  25.588  1.00  0.00    +0.000 H 
BRANCH   19   17
ATOM     17  C11 UNL A   1      44.993  24.961  25.423  1.00  0.00    +0.000 C 
ATOM     18  O4  UNL A   1      43.976  24.833  24.740  1.00  0.00    +0.000 O 
BRANCH   17   16
ATOM    131  H37 UNL A   1      43.913  26.922  26.988  1.00  0.00    +0.000 H 
ATOM    100  H6  UNL A   1      46.566  30.021  25.972  1.00  0.00    +0.000 H 
ATOM    101  H7  UNL A   1      48.026  28.390  24.904  1.00  0.00    +0.000 H 
ATOM     11  C6  UNL A   1      45.089  28.600  26.484  1.00  0.00    +0.000 C 
ATOM     12  C7  UNL A   1      46.290  29.028  25.921  1.00  0.00    +0.000 C 
ATOM     13  C8  UNL A   1      47.113  28.097  25.284  1.00  0.00    +0.000 C 
ATOM     14  C9  UNL A   1      46.701  26.767  25.163  1.00  0.00    +0.000 C 
ATOM     16  C10 UNL A   1      45.476  26.340  25.701  1.00  0.00    +0.000 C 
ATOM     92  C63 UNL A   1      44.732  27.249  26.453  1.00  0.00    +0.000 C 
BRANCH   11   10
ATOM     10  C5  UNL A   1      44.105  29.589  26.974  1.00  0.00    +0.000 C 
ATOM     99  H5  UNL A   1      43.173  29.654  26.535  1.00  0.00    +0.000 H 
BRANCH   10    9
ATOM      9  N2  UNL A   1      44.415  30.374  27.957  1.00  0.00    +0.000 N 
BRANCH    9    8
ATOM     97  H3  UNL A   1      43.003  34.270  29.748  1.00  0.00    +0.000 H 
ATOM     98  H4  UNL A   1      43.562  31.911  29.859  1.00  0.00    +0.000 H 
ATOM    132  H38 UNL A   1      44.687  31.973  25.813  1.00  0.00    +0.000 H 
ATOM    133  H39 UNL A   1      44.147  34.337  25.694  1.00  0.00    +0.000 H 
ATOM      6  C2  UNL A   1      43.366  33.784  28.913  1.00  0.00    +0.000 C 
ATOM      5  C1  UNL A   1      43.533  34.476  27.712  1.00  0.00    +0.000 C 
ATOM      7  C3  UNL A   1      43.694  32.426  28.974  1.00  0.00    +0.000 C 
ATOM      8  C4  UNL A   1      44.197  31.754  27.855  1.00  0.00    +0.000 C 
ATOM     93  C64 UNL A   1      44.342  32.461  26.653  1.00  0.00    +0.000 C 
ATOM     94  C65 UNL A   1      44.022  33.820  26.579  1.00  0.00    +0.000 C 
BRANCH    5    2
ATOM      2  S1  UNL A   1      43.129  36.196  27.631  1.00  0.00    +0.000 S 
ATOM      3  O1  UNL A   1      42.806  36.545  26.270  1.00  0.00    +0.000 O 
ATOM      4  O2  UNL A   1      44.094  36.929  28.419  1.00  0.00    +0.000 O 
BRANCH    2    1
ATOM      1  N1  UNL A   1      41.674  36.275  28.469  1.00  0.00    +0.000 N 
ATOM     95  H1  UNL A   1      41.763  36.934  29.243  1.00  0.00    +0.000 H 
ATOM     96  H2  UNL A   1      41.441  35.352  28.834  1.00  0.00    +0.000 H 
ENDBRANCH    2    1
ENDBRANCH    5    2
ENDBRANCH    9    8
ENDBRANCH   10    9
ENDBRANCH   11   10
BRANCH   14   15
ATOM    102  H8  UNL A   1      47.279  25.560  23.664  1.00  0.00    +0.000 H 
ATOM     15  O3  UNL A   1      47.547  25.932  24.480  1.00  0.00    +0.000 O 
ENDBRANCH   14   15
ENDBRANCH   17   16
ENDBRANCH   19   17
ENDBRANCH   20   19
ENDBRANCH   21   20
ENDBRANCH   22   21
ENDBRANCH   23   22
ENDBRANCH   24   23
ENDBRANCH   25   24
ENDBRANCH   26   25
ENDBRANCH   27   26
ENDBRANCH   29   27
ENDBRANCH   33   32
BRANCH   37   38
ATOM     38  C27 UNL A   1      45.971  28.306  31.593  1.00  0.00    +0.000 C 
ATOM     39  C28 UNL A   1      46.189  27.493  32.714  1.00  0.00    +0.000 C 
ATOM     40  F1  UNL A   1      45.248  27.387  33.665  1.00  0.00    +0.000 F 
ATOM     41  C29 UNL A   1      47.396  26.818  32.888  1.00  0.00    +0.000 C 
ATOM     42  F2  UNL A   1      47.602  26.092  33.995  1.00  0.00    +0.000 F 
ATOM     43  C30 UNL A   1      48.390  26.910  31.926  1.00  0.00    +0.000 C 
ATOM     44  F3  UNL A   1      49.549  26.258  32.092  1.00  0.00    +0.000 F 
ATOM     45  C31 UNL A   1      48.186  27.687  30.795  1.00  0.00    +0.000 C 
ATOM     46  F4  UNL A   1      49.139  27.767  29.857  1.00  0.00    +0.000 F 
ATOM     47  C32 UNL A   1      46.993  28.387  30.634  1.00  0.00    +0.000 C 
ATOM     48  F5  UNL A   1      46.835  29.145  29.538  1.00  0.00    +0.000 F 
ENDBRANCH   37   38
BRANCH   54   55
ATOM     65  F10 UNL A   1      43.521  35.758  31.773  1.00  0.00    +0.000 F 
ATOM     55  C38 UNL A   1      42.939  34.493  33.703  1.00  0.00    +0.000 C 
ATOM     56  C39 UNL A   1      42.860  34.451  35.103  1.00  0.00    +0.000 C 
ATOM     57  F6  UNL A   1      42.390  33.356  35.719  1.00  0.00    +0.000 F 
ATOM     58  C40 UNL A   1      43.235  35.547  35.874  1.00  0.00    +0.000 C 
ATOM     59  F7  UNL A   1      43.113  35.498  37.209  1.00  0.00    +0.000 F 
ATOM     60  C41 UNL A   1      43.724  36.693  35.265  1.00  0.00    +0.000 C 
ATOM     61  F8  UNL A   1      44.097  37.742  36.011  1.00  0.00    +0.000 F 
ATOM     62  C42 UNL A   1      43.823  36.751  33.884  1.00  0.00    +0.000 C 
ATOM     63  F9  UNL A   1      44.309  37.853  33.294  1.00  0.00    +0.000 F 
ATOM     64  C43 UNL A   1      43.422  35.669  33.107  1.00  0.00    +0.000 C 
ENDBRANCH   54   55
BRANCH   69   70
ATOM     70  C47 UNL A   1      37.068  32.658  30.414  1.00  0.00    +0.000 C 
ATOM     71  C48 UNL A   1      36.108  32.486  31.419  1.00  0.00    +0.000 C 
ATOM     72  F11 UNL A   1      36.386  31.725  32.488  1.00  0.00    +0.000 F 
ATOM     73  C49 UNL A   1      34.848  33.073  31.317  1.00  0.00    +0.000 C 
ATOM     74  F12 UNL A   1      33.936  32.866  32.277  1.00  0.00    +0.000 F 
ATOM     75  C50 UNL A   1      34.534  33.862  30.222  1.00  0.00    +0.000 C 
ATOM     76  F13 UNL A   1      33.327  34.437  30.131  1.00  0.00    +0.000 F 
ATOM     77  C51 UNL A   1      35.473  34.055  29.219  1.00  0.00    +0.000 C 
ATOM     78  F14 UNL A   1      35.181  34.834  28.168  1.00  0.00    +0.000 F 
ATOM     79  C52 UNL A   1      36.723  33.447  29.307  1.00  0.00    +0.000 C 
ATOM     80  F15 UNL A   1      37.612  33.648  28.322  1.00  0.00    +0.000 F 
ENDBRANCH   69   70
TORSDOF 21
ENDMDL
MODEL 9
REMARK VINA RESULT:     -10.1     17.837     23.976
ROOT
ATOM     33  C23 UNL A   1      25.947  35.562  45.506  1.00  0.00    +0.000 C 
ATOM     34  C24 UNL A   1      25.775  36.690  46.482  1.00  0.00    +0.000 C 
ATOM     35  N5  UNL A   1      26.619  37.635  46.813  1.00  0.00    +0.000 N 
ATOM     36  C25 UNL A   1      25.945  38.445  47.716  1.00  0.00    +0.000 C 
ATOM     37  C26 UNL A   1      26.407  39.527  48.389  1.00  0.00    +0.000 C 
ATOM     49  C33 UNL A   1      27.750  40.035  48.280  1.00  0.00    +0.000 C 
ATOM     50  C34 UNL A   1      28.341  41.068  48.986  1.00  0.00    +0.000 C 
ATOM     51  C35 UNL A   1      29.637  41.251  48.490  1.00  0.00    +0.000 C 
ATOM     52  C36 UNL A   1      29.871  40.301  47.510  1.00  0.00    +0.000 C 
ATOM     53  N6  UNL A   1      28.708  39.554  47.399  1.00  0.00    +0.000 N 
ATOM     54  C37 UNL A   1      31.063  40.090  46.729  1.00  0.00    +0.000 C 
ATOM     66  C44 UNL A   1      31.237  39.087  45.833  1.00  0.00    +0.000 C 
ATOM     67  N7  UNL A   1      30.348  38.090  45.458  1.00  0.00    +0.000 N 
ATOM     68  C45 UNL A   1      30.969  37.376  44.550  1.00  0.00    +0.000 C 
ATOM     69  C46 UNL A   1      30.483  36.165  43.803  1.00  0.00    +0.000 C 
ATOM     81  C53 UNL A   1      29.256  35.676  44.066  1.00  0.00    +0.000 C 
ATOM     82  C54 UNL A   1      28.652  34.517  43.415  1.00  0.00    +0.000 C 
ATOM     83  C55 UNL A   1      27.395  34.371  43.861  1.00  0.00    +0.000 C 
ATOM     84  C56 UNL A   1      27.118  35.401  44.863  1.00  0.00    +0.000 C 
ATOM     85  N8  UNL A   1      28.290  36.113  44.940  1.00  0.00    +0.000 N 
ATOM     86  C57 UNL A   1      32.324  37.851  44.236  1.00  0.00    +0.000 C 
ATOM     87  C58 UNL A   1      32.449  38.875  45.069  1.00  0.00    +0.000 C 
ATOM     88  C59 UNL A   1      24.605  37.911  47.842  1.00  0.00    +0.000 C 
ATOM     89  C60 UNL A   1      24.469  36.790  47.151  1.00  0.00    +0.000 C 
ATOM    119  H25 UNL A   1      27.903  41.608  49.749  1.00  0.00    +0.000 H 
ATOM    120  H26 UNL A   1      30.304  41.974  48.801  1.00  0.00    +0.000 H 
ATOM    121  H27 UNL A   1      28.581  38.794  46.786  1.00  0.00    +0.000 H 
ATOM    122  H28 UNL A   1      29.117  33.909  42.722  1.00  0.00    +0.000 H 
ATOM    123  H29 UNL A   1      26.729  33.648  43.546  1.00  0.00    +0.000 H 
ATOM    124  H30 UNL A   1      28.425  36.865  45.561  1.00  0.00    +0.000 H 
ATOM    125  H31 UNL A   1      32.999  37.484  43.548  1.00  0.00    +0.000 H 
ATOM    126  H32 UNL A   1      33.302  39.449  45.160  1.00  0.00    +0.000 H 
ATOM    127  H33 UNL A   1      23.854  38.347  48.400  1.00  0.00    +0.000 H 
ATOM    128  H34 UNL A   1      23.659  36.152  47.096  1.00  0.00    +0.000 H 
ENDROOT
BRANCH   33   32
ATOM    129  H35 UNL A   1      25.572  33.011  46.231  1.00  0.00    +0.000 H 
ATOM    130  H36 UNL A   1      23.718  31.539  45.707  1.00  0.00    +0.000 H 
ATOM    117  H23 UNL A   1      21.810  34.667  43.643  1.00  0.00    +0.000 H 
ATOM    118  H24 UNL A   1      23.758  36.074  43.981  1.00  0.00    +0.000 H 
ATOM     90  C61 UNL A   1      24.780  33.361  45.669  1.00  0.00    +0.000 C 
ATOM     91  C62 UNL A   1      23.697  32.525  45.404  1.00  0.00    +0.000 C 
ATOM     29  C19 UNL A   1      22.582  33.026  44.727  1.00  0.00    +0.000 C 
ATOM     30  C20 UNL A   1      22.611  34.317  44.191  1.00  0.00    +0.000 C 
ATOM     31  C21 UNL A   1      23.726  35.132  44.399  1.00  0.00    +0.000 C 
ATOM     32  C22 UNL A   1      24.803  34.674  45.175  1.00  0.00    +0.000 C 
BRANCH   29   27
ATOM     27  C18 UNL A   1      21.361  32.209  44.546  1.00  0.00    +0.000 C 
ATOM     28  O5  UNL A   1      21.045  31.833  43.421  1.00  0.00    +0.000 O 
BRANCH   27   26
ATOM     26  N4  UNL A   1      20.569  31.896  45.622  1.00  0.00    +0.000 N 
ATOM    116  H22 UNL A   1      19.735  31.419  45.403  1.00  0.00    +0.000 H 
BRANCH   26   25
ATOM     25  C17 UNL A   1      20.774  32.159  47.037  1.00  0.00    +0.000 C 
ATOM    114  H20 UNL A   1      20.418  31.319  47.595  1.00  0.00    +0.000 H 
ATOM    115  H21 UNL A   1      21.822  32.321  47.183  1.00  0.00    +0.000 H 
BRANCH   25   24
ATOM    113  H19 UNL A   1      19.709  33.182  48.510  1.00  0.00    +0.000 H 
ATOM    112  H18 UNL A   1      19.257  33.616  46.826  1.00  0.00    +0.000 H 
ATOM     24  C16 UNL A   1      20.045  33.409  47.519  1.00  0.00    +0.000 C 
BRANCH   24   23
ATOM    111  H17 UNL A   1      21.872  34.394  47.316  1.00  0.00    +0.000 H 
ATOM    110  H16 UNL A   1      20.852  34.989  48.675  1.00  0.00    +0.000 H 
ATOM     23  C15 UNL A   1      20.896  34.673  47.653  1.00  0.00    +0.000 C 
BRANCH   23   22
ATOM    108  H14 UNL A   1      21.204  36.646  46.953  1.00  0.00    +0.000 H 
ATOM    109  H15 UNL A   1      20.476  35.488  45.781  1.00  0.00    +0.000 H 
ATOM     22  C14 UNL A   1      20.493  35.865  46.782  1.00  0.00    +0.000 C 
BRANCH   22   21
ATOM    106  H12 UNL A   1      18.618  35.841  47.757  1.00  0.00    +0.000 H 
ATOM    107  H13 UNL A   1      19.267  37.462  47.306  1.00  0.00    +0.000 H 
ATOM     21  C13 UNL A   1      19.100  36.446  47.017  1.00  0.00    +0.000 C 
BRANCH   21   20
ATOM    105  H11 UNL A   1      18.783  36.800  44.974  1.00  0.00    +0.000 H 
ATOM     20  C12 UNL A   1      18.175  36.522  45.809  1.00  0.00    +0.000 C 
ATOM    104  H10 UNL A   1      17.406  37.236  46.021  1.00  0.00    +0.000 H 
BRANCH   20   19
ATOM     19  N3  UNL A   1      17.540  35.262  45.458  1.00  0.00    +0.000 N 
ATOM    103  H9  UNL A   1      16.758  35.029  46.008  1.00  0.00    +0.000 H 
BRANCH   19   17
ATOM     17  C11 UNL A   1      17.852  34.339  44.485  1.00  0.00    +0.000 C 
ATOM     18  O4  UNL A   1      18.975  34.362  43.977  1.00  0.00    +0.000 O 
BRANCH   17   16
ATOM    131  H37 UNL A   1      17.784  31.716  45.243  1.00  0.00    +0.000 H 
ATOM    100  H6  UNL A   1      14.779  30.414  42.608  1.00  0.00    +0.000 H 
ATOM    101  H7  UNL A   1      14.255  32.736  42.093  1.00  0.00    +0.000 H 
ATOM     11  C6  UNL A   1      16.379  30.894  43.901  1.00  0.00    +0.000 C 
ATOM     12  C7  UNL A   1      15.335  31.178  43.021  1.00  0.00    +0.000 C 
ATOM     13  C8  UNL A   1      15.054  32.509  42.705  1.00  0.00    +0.000 C 
ATOM     14  C9  UNL A   1      15.854  33.533  43.219  1.00  0.00    +0.000 C 
ATOM     16  C10 UNL A   1      16.926  33.248  44.079  1.00  0.00    +0.000 C 
ATOM     92  C63 UNL A   1      17.108  31.929  44.494  1.00  0.00    +0.000 C 
BRANCH   11   10
ATOM     10  C5  UNL A   1      16.834  29.500  44.088  1.00  0.00    +0.000 C 
ATOM     99  H5  UNL A   1      17.040  29.145  45.036  1.00  0.00    +0.000 H 
BRANCH   10    9
ATOM      9  N2  UNL A   1      16.973  28.724  43.060  1.00  0.00    +0.000 N 
BRANCH    9    8
ATOM     97  H3  UNL A   1      14.508  25.160  44.327  1.00  0.00    +0.000 H 
ATOM     98  H4  UNL A   1      16.048  26.988  44.746  1.00  0.00    +0.000 H 
ATOM    132  H38 UNL A   1      15.761  28.169  40.725  1.00  0.00    +0.000 H 
ATOM    133  H39 UNL A   1      14.205  26.354  40.299  1.00  0.00    +0.000 H 
ATOM      6  C2  UNL A   1      14.770  25.802  43.563  1.00  0.00    +0.000 C 
ATOM      5  C1  UNL A   1      14.245  25.623  42.282  1.00  0.00    +0.000 C 
ATOM      7  C3  UNL A   1      15.653  26.859  43.801  1.00  0.00    +0.000 C 
ATOM      8  C4  UNL A   1      16.010  27.746  42.779  1.00  0.00    +0.000 C 
ATOM     93  C64 UNL A   1      15.487  27.539  41.495  1.00  0.00    +0.000 C 
ATOM     94  C65 UNL A   1      14.598  26.489  41.244  1.00  0.00    +0.000 C 
BRANCH    5    2
ATOM      2  S1  UNL A   1      13.119  24.293  41.978  1.00  0.00    +0.000 S 
ATOM      3  O1  UNL A   1      13.229  23.883  40.600  1.00  0.00    +0.000 O 
ATOM      4  O2  UNL A   1      11.854  24.613  42.600  1.00  0.00    +0.000 O 
BRANCH    2    1
ATOM      1  N1  UNL A   1      13.782  23.033  42.871  1.00  0.00    +0.000 N 
ATOM     95  H1  UNL A   1      14.354  23.414  43.624  1.00  0.00    +0.000 H 
ATOM     96  H2  UNL A   1      14.361  22.454  42.264  1.00  0.00    +0.000 H 
ENDBRANCH    2    1
ENDBRANCH    5    2
ENDBRANCH    9    8
ENDBRANCH   10    9
ENDBRANCH   11   10
BRANCH   14   15
ATOM    102  H8  UNL A   1      16.214  35.387  42.532  1.00  0.00    +0.000 H 
ATOM     15  O3  UNL A   1      15.538  34.805  42.818  1.00  0.00    +0.000 O 
ENDBRANCH   14   15
ENDBRANCH   17   16
ENDBRANCH   19   17
ENDBRANCH   20   19
ENDBRANCH   21   20
ENDBRANCH   22   21
ENDBRANCH   23   22
ENDBRANCH   24   23
ENDBRANCH   25   24
ENDBRANCH   26   25
ENDBRANCH   27   26
ENDBRANCH   29   27
ENDBRANCH   33   32
BRANCH   37   38
ATOM     38  C27 UNL A   1      25.449  40.242  49.297  1.00  0.00    +0.000 C 
ATOM     39  C28 UNL A   1      25.305  39.892  50.648  1.00  0.00    +0.000 C 
ATOM     40  F1  UNL A   1      26.004  38.866  51.157  1.00  0.00    +0.000 F 
ATOM     41  C29 UNL A   1      24.407  40.566  51.472  1.00  0.00    +0.000 C 
ATOM     42  F2  UNL A   1      24.246  40.176  52.745  1.00  0.00    +0.000 F 
ATOM     43  C30 UNL A   1      23.666  41.627  50.975  1.00  0.00    +0.000 C 
ATOM     44  F3  UNL A   1      22.806  42.278  51.770  1.00  0.00    +0.000 F 
ATOM     45  C31 UNL A   1      23.812  42.009  49.650  1.00  0.00    +0.000 C 
ATOM     46  F4  UNL A   1      23.108  43.043  49.170  1.00  0.00    +0.000 F 
ATOM     47  C32 UNL A   1      24.686  41.317  48.815  1.00  0.00    +0.000 C 
ATOM     48  F5  UNL A   1      24.789  41.699  47.533  1.00  0.00    +0.000 F 
ENDBRANCH   37   38
BRANCH   54   55
ATOM     65  F10 UNL A   1      33.395  39.443  48.232  1.00  0.00    +0.000 F 
ATOM     55  C38 UNL A   1      32.207  41.041  46.928  1.00  0.00    +0.000 C 
ATOM     56  C39 UNL A   1      32.177  42.339  46.398  1.00  0.00    +0.000 C 
ATOM     57  F6  UNL A   1      31.142  42.735  45.641  1.00  0.00    +0.000 F 
ATOM     58  C40 UNL A   1      33.227  43.226  46.617  1.00  0.00    +0.000 C 
ATOM     59  F7  UNL A   1      33.196  44.448  46.066  1.00  0.00    +0.000 F 
ATOM     60  C41 UNL A   1      34.311  42.845  47.394  1.00  0.00    +0.000 C 
ATOM     61  F8  UNL A   1      35.315  43.705  47.614  1.00  0.00    +0.000 F 
ATOM     62  C42 UNL A   1      34.355  41.571  47.939  1.00  0.00    +0.000 C 
ATOM     63  F9  UNL A   1      35.394  41.205  48.702  1.00  0.00    +0.000 F 
ATOM     64  C43 UNL A   1      33.321  40.671  47.698  1.00  0.00    +0.000 C 
ENDBRANCH   54   55
BRANCH   69   70
ATOM     70  C47 UNL A   1      31.335  35.501  42.782  1.00  0.00    +0.000 C 
ATOM     71  C48 UNL A   1      32.140  34.405  43.116  1.00  0.00    +0.000 C 
ATOM     72  F11 UNL A   1      32.180  33.965  44.383  1.00  0.00    +0.000 F 
ATOM     73  C49 UNL A   1      32.929  33.773  42.157  1.00  0.00    +0.000 C 
ATOM     74  F12 UNL A   1      33.715  32.747  42.511  1.00  0.00    +0.000 F 
ATOM     75  C50 UNL A   1      32.908  34.208  40.841  1.00  0.00    +0.000 C 
ATOM     76  F13 UNL A   1      33.656  33.591  39.917  1.00  0.00    +0.000 F 
ATOM     77  C51 UNL A   1      32.110  35.286  40.484  1.00  0.00    +0.000 C 
ATOM     78  F14 UNL A   1      32.071  35.697  39.209  1.00  0.00    +0.000 F 
ATOM     79  C52 UNL A   1      31.342  35.935  41.448  1.00  0.00    +0.000 C 
ATOM     80  F15 UNL A   1      30.581  36.975  41.076  1.00  0.00    +0.000 F 
ENDBRANCH   69   70
TORSDOF 21
ENDMDL
MODEL 10
REMARK VINA RESULT:     -10.0      4.196      6.820
ROOT
ATOM     33  C23 UNL A   1      42.278  25.722  27.693  1.00  0.00    +0.000 C 
ATOM     34  C24 UNL A   1      43.615  26.153  27.163  1.00  0.00    +0.000 C 
ATOM     35  N5  UNL A   1      44.206  27.318  27.255  1.00  0.00    +0.000 N 
ATOM     36  C25 UNL A   1      45.441  27.165  26.639  1.00  0.00    +0.000 C 
ATOM     37  C26 UNL A   1      46.401  28.098  26.428  1.00  0.00    +0.000 C 
ATOM     49  C33 UNL A   1      46.287  29.479  26.819  1.00  0.00    +0.000 C 
ATOM     50  C34 UNL A   1      47.164  30.520  26.570  1.00  0.00    +0.000 C 
ATOM     51  C35 UNL A   1      46.672  31.667  27.204  1.00  0.00    +0.000 C 
ATOM     52  C36 UNL A   1      45.464  31.353  27.806  1.00  0.00    +0.000 C 
ATOM     53  N6  UNL A   1      45.235  30.010  27.552  1.00  0.00    +0.000 N 
ATOM     54  C37 UNL A   1      44.586  32.211  28.559  1.00  0.00    +0.000 C 
ATOM     66  C44 UNL A   1      43.380  31.841  29.059  1.00  0.00    +0.000 C 
ATOM     67  N7  UNL A   1      42.749  30.608  28.987  1.00  0.00    +0.000 N 
ATOM     68  C45 UNL A   1      41.618  30.744  29.636  1.00  0.00    +0.000 C 
ATOM     69  C46 UNL A   1      40.532  29.730  29.869  1.00  0.00    +0.000 C 
ATOM     81  C53 UNL A   1      40.662  28.493  29.351  1.00  0.00    +0.000 C 
ATOM     82  C54 UNL A   1      39.697  27.409  29.504  1.00  0.00    +0.000 C 
ATOM     83  C55 UNL A   1      40.192  26.300  28.932  1.00  0.00    +0.000 C 
ATOM     84  C56 UNL A   1      41.491  26.607  28.334  1.00  0.00    +0.000 C 
ATOM     85  N8  UNL A   1      41.677  27.940  28.609  1.00  0.00    +0.000 N 
ATOM     86  C57 UNL A   1      41.411  32.083  30.207  1.00  0.00    +0.000 C 
ATOM     87  C58 UNL A   1      42.499  32.720  29.799  1.00  0.00    +0.000 C 
ATOM     88  C59 UNL A   1      45.536  25.782  26.224  1.00  0.00    +0.000 C 
ATOM     89  C60 UNL A   1      44.408  25.130  26.466  1.00  0.00    +0.000 C 
ATOM    119  H25 UNL A   1      48.029  30.463  26.011  1.00  0.00    +0.000 H 
ATOM    120  H26 UNL A   1      47.133  32.590  27.222  1.00  0.00    +0.000 H 
ATOM    121  H27 UNL A   1      44.443  29.506  27.848  1.00  0.00    +0.000 H 
ATOM    122  H28 UNL A   1      38.782  27.483  29.975  1.00  0.00    +0.000 H 
ATOM    123  H29 UNL A   1      39.729  25.377  28.918  1.00  0.00    +0.000 H 
ATOM    124  H30 UNL A   1      42.462  28.450  28.303  1.00  0.00    +0.000 H 
ATOM    125  H31 UNL A   1      40.624  32.433  30.777  1.00  0.00    +0.000 H 
ATOM    126  H32 UNL A   1      42.692  33.717  29.985  1.00  0.00    +0.000 H 
ATOM    127  H33 UNL A   1      46.373  25.358  25.794  1.00  0.00    +0.000 H 
ATOM    128  H34 UNL A   1      44.153  24.159  26.227  1.00  0.00    +0.000 H 
ENDROOT
BRANCH   33   32
ATOM    129  H35 UNL A   1      40.893  24.542  25.728  1.00  0.00    +0.000 H 
ATOM    130  H36 UNL A   1      40.187  22.230  25.543  1.00  0.00    +0.000 H 
ATOM    117  H23 UNL A   1      42.123  21.343  29.171  1.00  0.00    +0.000 H 
ATOM    118  H24 UNL A   1      42.643  23.695  29.464  1.00  0.00    +0.000 H 
ATOM     90  C61 UNL A   1      41.143  23.867  26.468  1.00  0.00    +0.000 C 
ATOM     91  C62 UNL A   1      40.772  22.530  26.339  1.00  0.00    +0.000 C 
ATOM     29  C19 UNL A   1      41.192  21.597  27.291  1.00  0.00    +0.000 C 
ATOM     30  C20 UNL A   1      41.861  22.025  28.441  1.00  0.00    +0.000 C 
ATOM     31  C21 UNL A   1      42.175  23.376  28.603  1.00  0.00    +0.000 C 
ATOM     32  C22 UNL A   1      41.854  24.302  27.597  1.00  0.00    +0.000 C 
BRANCH   29   27
ATOM     27  C18 UNL A   1      40.932  20.150  27.117  1.00  0.00    +0.000 C 
ATOM     28  O5  UNL A   1      41.219  19.370  28.020  1.00  0.00    +0.000 O 
BRANCH   27   26
ATOM     26  N4  UNL A   1      40.399  19.676  25.944  1.00  0.00    +0.000 N 
ATOM    116  H22 UNL A   1      41.054  19.496  25.230  1.00  0.00    +0.000 H 
BRANCH   26   25
ATOM     25  C17 UNL A   1      39.016  19.398  25.595  1.00  0.00    +0.000 C 
ATOM    114  H20 UNL A   1      38.995  18.910  24.644  1.00  0.00    +0.000 H 
ATOM    115  H21 UNL A   1      38.608  18.783  26.370  1.00  0.00    +0.000 H 
BRANCH   25   24
ATOM    113  H19 UNL A   1      38.716  21.346  24.911  1.00  0.00    +0.000 H 
ATOM    112  H18 UNL A   1      37.980  20.997  26.513  1.00  0.00    +0.000 H 
ATOM     24  C16 UNL A   1      38.160  20.658  25.514  1.00  0.00    +0.000 C 
BRANCH   24   23
ATOM    111  H17 UNL A   1      36.267  19.791  25.405  1.00  0.00    +0.000 H 
ATOM    110  H16 UNL A   1      36.989  20.207  23.809  1.00  0.00    +0.000 H 
ATOM     23  C15 UNL A   1      36.805  20.507  24.820  1.00  0.00    +0.000 C 
BRANCH   23   22
ATOM    108  H14 UNL A   1      34.897  21.421  24.850  1.00  0.00    +0.000 H 
ATOM    109  H15 UNL A   1      36.242  22.357  25.597  1.00  0.00    +0.000 H 
ATOM     22  C14 UNL A   1      35.913  21.749  24.781  1.00  0.00    +0.000 C 
BRANCH   22   21
ATOM    106  H12 UNL A   1      36.902  23.248  23.665  1.00  0.00    +0.000 H 
ATOM    107  H13 UNL A   1      36.067  21.962  22.716  1.00  0.00    +0.000 H 
ATOM     21  C13 UNL A   1      36.030  22.639  23.544  1.00  0.00    +0.000 C 
BRANCH   21   20
ATOM    105  H11 UNL A   1      35.245  24.371  22.661  1.00  0.00    +0.000 H 
ATOM     20  C12 UNL A   1      34.858  23.565  23.250  1.00  0.00    +0.000 C 
ATOM    104  H10 UNL A   1      34.446  23.891  24.183  1.00  0.00    +0.000 H 
BRANCH   20   19
ATOM     19  N3  UNL A   1      33.792  22.957  22.471  1.00  0.00    +0.000 N 
ATOM    103  H9  UNL A   1      33.975  22.893  21.506  1.00  0.00    +0.000 H 
BRANCH   19   17
ATOM     17  C11 UNL A   1      32.569  22.457  22.858  1.00  0.00    +0.000 C 
ATOM     18  O4  UNL A   1      32.035  21.584  22.170  1.00  0.00    +0.000 O 
BRANCH   17   16
ATOM    131  H37 UNL A   1      31.382  24.814  23.561  1.00  0.00    +0.000 H 
ATOM    100  H6  UNL A   1      30.613  23.912  27.594  1.00  0.00    +0.000 H 
ATOM    101  H7  UNL A   1      31.142  21.577  27.150  1.00  0.00    +0.000 H 
ATOM     11  C6  UNL A   1      31.042  24.550  25.626  1.00  0.00    +0.000 C 
ATOM     12  C7  UNL A   1      30.932  23.619  26.658  1.00  0.00    +0.000 C 
ATOM     13  C8  UNL A   1      31.263  22.285  26.409  1.00  0.00    +0.000 C 
ATOM     14  C9  UNL A   1      31.756  21.909  25.157  1.00  0.00    +0.000 C 
ATOM     16  C10 UNL A   1      31.899  22.851  24.126  1.00  0.00    +0.000 C 
ATOM     92  C63 UNL A   1      31.435  24.148  24.346  1.00  0.00    +0.000 C 
BRANCH   11   10
ATOM     10  C5  UNL A   1      30.904  25.994  25.912  1.00  0.00    +0.000 C 
ATOM     99  H5  UNL A   1      30.290  26.315  26.678  1.00  0.00    +0.000 H 
BRANCH   10    9
ATOM      9  N2  UNL A   1      31.556  26.857  25.198  1.00  0.00    +0.000 N 
BRANCH    9    8
ATOM     97  H3  UNL A   1      30.574  31.181  24.350  1.00  0.00    +0.000 H 
ATOM     98  H4  UNL A   1      31.824  29.420  25.457  1.00  0.00    +0.000 H 
ATOM    132  H38 UNL A   1      29.662  26.522  23.319  1.00  0.00    +0.000 H 
ATOM    133  H39 UNL A   1      28.417  28.276  22.192  1.00  0.00    +0.000 H 
ATOM      6  C2  UNL A   1      30.383  30.192  24.126  1.00  0.00    +0.000 C 
ATOM      5  C1  UNL A   1      29.404  29.857  23.191  1.00  0.00    +0.000 C 
ATOM      7  C3  UNL A   1      31.105  29.174  24.759  1.00  0.00    +0.000 C 
ATOM      8  C4  UNL A   1      30.867  27.828  24.460  1.00  0.00    +0.000 C 
ATOM     93  C64 UNL A   1      29.867  27.510  23.531  1.00  0.00    +0.000 C 
ATOM     94  C65 UNL A   1      29.141  28.518  22.887  1.00  0.00    +0.000 C 
BRANCH    5    2
ATOM      2  S1  UNL A   1      28.495  31.140  22.380  1.00  0.00    +0.000 S 
ATOM      3  O1  UNL A   1      27.800  30.586  21.245  1.00  0.00    +0.000 O 
ATOM      4  O2  UNL A   1      29.340  32.309  22.286  1.00  0.00    +0.000 O 
BRANCH    2    1
ATOM      1  N1  UNL A   1      27.296  31.510  23.499  1.00  0.00    +0.000 N 
ATOM     95  H1  UNL A   1      26.380  31.364  23.076  1.00  0.00    +0.000 H 
ATOM     96  H2  UNL A   1      27.388  32.484  23.786  1.00  0.00    +0.000 H 
ENDBRANCH    2    1
ENDBRANCH    5    2
ENDBRANCH    9    8
ENDBRANCH   10    9
ENDBRANCH   11   10
BRANCH   14   15
ATOM    102  H8  UNL A   1      32.645  20.178  25.657  1.00  0.00    +0.000 H 
ATOM     15  O3  UNL A   1      32.102  20.591  25.015  1.00  0.00    +0.000 O 
ENDBRANCH   14   15
ENDBRANCH   17   16
ENDBRANCH   19   17
ENDBRANCH   20   19
ENDBRANCH   21   20
ENDBRANCH   22   21
ENDBRANCH   23   22
ENDBRANCH   24   23
ENDBRANCH   25   24
ENDBRANCH   26   25
ENDBRANCH   27   26
ENDBRANCH   29   27
ENDBRANCH   33   32
BRANCH   37   38
ATOM     38  C27 UNL A   1      47.665  27.653  25.751  1.00  0.00    +0.000 C 
ATOM     39  C28 UNL A   1      48.803  27.276  26.479  1.00  0.00    +0.000 C 
ATOM     40  F1  UNL A   1      48.800  27.342  27.819  1.00  0.00    +0.000 F 
ATOM     41  C29 UNL A   1      49.968  26.870  25.831  1.00  0.00    +0.000 C 
ATOM     42  F2  UNL A   1      51.060  26.568  26.546  1.00  0.00    +0.000 F 
ATOM     43  C30 UNL A   1      50.005  26.795  24.447  1.00  0.00    +0.000 C 
ATOM     44  F3  UNL A   1      51.124  26.402  23.824  1.00  0.00    +0.000 F 
ATOM     45  C31 UNL A   1      48.883  27.138  23.707  1.00  0.00    +0.000 C 
ATOM     46  F4  UNL A   1      48.911  27.053  22.370  1.00  0.00    +0.000 F 
ATOM     47  C32 UNL A   1      47.727  27.574  24.351  1.00  0.00    +0.000 C 
ATOM     48  F5  UNL A   1      46.666  27.916  23.605  1.00  0.00    +0.000 F 
ENDBRANCH   37   38
BRANCH   54   55
ATOM     65  F10 UNL A   1      43.896  34.381  26.848  1.00  0.00    +0.000 F 
ATOM     55  C38 UNL A   1      45.027  33.625  28.801  1.00  0.00    +0.000 C 
ATOM     56  C39 UNL A   1      45.844  33.958  29.891  1.00  0.00    +0.000 C 
ATOM     57  F6  UNL A   1      46.197  33.018  30.781  1.00  0.00    +0.000 F 
ATOM     58  C40 UNL A   1      46.277  35.266  30.088  1.00  0.00    +0.000 C 
ATOM     59  F7  UNL A   1      47.025  35.569  31.159  1.00  0.00    +0.000 F 
ATOM     60  C41 UNL A   1      45.928  36.259  29.185  1.00  0.00    +0.000 C 
ATOM     61  F8  UNL A   1      46.356  37.515  29.369  1.00  0.00    +0.000 F 
ATOM     62  C42 UNL A   1      45.131  35.949  28.093  1.00  0.00    +0.000 C 
ATOM     63  F9  UNL A   1      44.804  36.904  27.211  1.00  0.00    +0.000 F 
ATOM     64  C43 UNL A   1      44.672  34.648  27.909  1.00  0.00    +0.000 C 
ENDBRANCH   54   55
BRANCH   69   70
ATOM     70  C47 UNL A   1      39.321  30.070  30.661  1.00  0.00    +0.000 C 
ATOM     71  C48 UNL A   1      38.189  30.621  30.046  1.00  0.00    +0.000 C 
ATOM     72  F11 UNL A   1      38.203  30.885  28.731  1.00  0.00    +0.000 F 
ATOM     73  C49 UNL A   1      37.048  30.929  30.784  1.00  0.00    +0.000 C 
ATOM     74  F12 UNL A   1      35.991  31.485  30.177  1.00  0.00    +0.000 F 
ATOM     75  C50 UNL A   1      37.008  30.668  32.145  1.00  0.00    +0.000 C 
ATOM     76  F13 UNL A   1      35.905  30.952  32.852  1.00  0.00    +0.000 F 
ATOM     77  C51 UNL A   1      38.113  30.114  32.774  1.00  0.00    +0.000 C 
ATOM     78  F14 UNL A   1      38.071  29.842  34.085  1.00  0.00    +0.000 F 
ATOM     79  C52 UNL A   1      39.264  29.832  32.042  1.00  0.00    +0.000 C 
ATOM     80  F15 UNL A   1      40.319  29.297  32.675  1.00  0.00    +0.000 F 
ENDBRANCH   69   70
TORSDOF 21
ENDMDL
