MODEL 1
REMARK VINA RESULT:     -10.0      0.000      0.000
ROOT
ATOM    129  H35 UNL A   1      15.373  47.311  -0.157  1.00  0.00    +0.000 H 
ATOM    130  H36 UNL A   1      13.386  47.515   1.448  1.00  0.00    +0.000 H 
ATOM     36  C29 UNL A   1      13.042  50.136   2.519  1.00  0.00    +0.000 C 
ATOM     37  C30 UNL A   1      14.063  49.678   1.520  1.00  0.00    +0.000 C 
ATOM     38  N4  UNL A   1      15.003  50.372   0.927  1.00  0.00    +0.000 N 
ATOM     39  C31 UNL A   1      15.684  49.475   0.119  1.00  0.00    +0.000 C 
ATOM     40  C32 UNL A   1      16.727  49.714  -0.711  1.00  0.00    +0.000 C 
ATOM     52  C39 UNL A   1      17.324  51.005  -0.931  1.00  0.00    +0.000 C 
ATOM     53  C40 UNL A   1      18.286  51.366  -1.859  1.00  0.00    +0.000 C 
ATOM     54  C41 UNL A   1      18.592  52.719  -1.668  1.00  0.00    +0.000 C 
ATOM     55  C42 UNL A   1      17.810  53.200  -0.631  1.00  0.00    +0.000 C 
ATOM     56  N5  UNL A   1      17.024  52.144  -0.202  1.00  0.00    +0.000 N 
ATOM     57  C43 UNL A   1      17.788  54.519  -0.056  1.00  0.00    +0.000 C 
ATOM     69  C50 UNL A   1      16.889  54.948   0.860  1.00  0.00    +0.000 C 
ATOM     70  N6  UNL A   1      15.852  54.244   1.452  1.00  0.00    +0.000 N 
ATOM     71  C51 UNL A   1      15.272  55.082   2.272  1.00  0.00    +0.000 C 
ATOM     72  C52 UNL A   1      14.103  54.853   3.181  1.00  0.00    +0.000 C 
ATOM     84  C59 UNL A   1      13.531  53.637   3.243  1.00  0.00    +0.000 C 
ATOM     85  C60 UNL A   1      12.405  53.278   4.100  1.00  0.00    +0.000 C 
ATOM     86  C61 UNL A   1      12.126  51.976   3.932  1.00  0.00    +0.000 C 
ATOM     87  C62 UNL A   1      13.040  51.417   2.936  1.00  0.00    +0.000 C 
ATOM     88  N7  UNL A   1      13.837  52.475   2.580  1.00  0.00    +0.000 N 
ATOM     89  C63 UNL A   1      15.874  56.423   2.293  1.00  0.00    +0.000 C 
ATOM     90  C64 UNL A   1      16.853  56.290   1.408  1.00  0.00    +0.000 C 
ATOM     91  C65 UNL A   1      15.060  48.180   0.304  1.00  0.00    +0.000 C 
ATOM     92  C66 UNL A   1      14.035  48.258   1.143  1.00  0.00    +0.000 C 
ATOM    121  H27 UNL A   1      18.706  50.745  -2.568  1.00  0.00    +0.000 H 
ATOM    122  H28 UNL A   1      19.282  53.265  -2.209  1.00  0.00    +0.000 H 
ATOM    123  H29 UNL A   1      16.351  52.195   0.516  1.00  0.00    +0.000 H 
ATOM    124  H30 UNL A   1      11.904  53.921   4.732  1.00  0.00    +0.000 H 
ATOM    125  H31 UNL A   1      11.386  51.453   4.426  1.00  0.00    +0.000 H 
ATOM    126  H32 UNL A   1      14.557  52.408   1.912  1.00  0.00    +0.000 H 
ATOM    127  H33 UNL A   1      15.606  57.250   2.849  1.00  0.00    +0.000 H 
ATOM    128  H34 UNL A   1      17.506  57.044   1.143  1.00  0.00    +0.000 H 
ENDROOT
BRANCH   36   35
ATOM     33  C26 UNL A   1      11.463  47.485   4.713  1.00  0.00    +0.000 C 
ATOM     34  C27 UNL A   1      12.347  48.460   4.242  1.00  0.00    +0.000 C 
ATOM     35  C28 UNL A   1      12.045  49.197   3.086  1.00  0.00    +0.000 C 
ATOM    132  H38 UNL A   1       9.031  47.865   2.439  1.00  0.00    +0.000 H 
ATOM    131  H37 UNL A   1      10.601  49.496   1.571  1.00  0.00    +0.000 H 
ATOM    119  H25 UNL A   1      11.716  46.914   5.534  1.00  0.00    +0.000 H 
ATOM    120  H26 UNL A   1      13.228  48.641   4.749  1.00  0.00    +0.000 H 
ATOM     93  C67 UNL A   1      10.830  48.966   2.426  1.00  0.00    +0.000 C 
ATOM     94  C68 UNL A   1       9.929  48.020   2.922  1.00  0.00    +0.000 C 
ATOM     32  C25 UNL A   1      10.237  47.281   4.072  1.00  0.00    +0.000 C 
BRANCH   32    2
ATOM      1  O1  UNL A   1       8.771  45.504   3.647  1.00  0.00    +0.000 O 
ATOM      2  C1  UNL A   1       9.279  46.230   4.499  1.00  0.00    +0.000 C 
BRANCH    2    3
ATOM      3  N1  UNL A   1       8.937  46.057   5.815  1.00  0.00    +0.000 N 
ATOM     95  H1  UNL A   1       8.191  46.618   6.126  1.00  0.00    +0.000 H 
BRANCH    3    4
ATOM     97  H3  UNL A   1       8.691  44.629   7.256  1.00  0.00    +0.000 H 
ATOM      4  C2  UNL A   1       9.500  45.177   6.822  1.00  0.00    +0.000 C 
ATOM     96  H2  UNL A   1      10.212  44.531   6.351  1.00  0.00    +0.000 H 
BRANCH    4    5
ATOM     98  H4  UNL A   1       9.630  45.781   8.841  1.00  0.00    +0.000 H 
ATOM     99  H5  UNL A   1      10.251  46.948   7.620  1.00  0.00    +0.000 H 
ATOM      5  C3  UNL A   1      10.198  45.930   7.948  1.00  0.00    +0.000 C 
BRANCH    5    6
ATOM    100  H6  UNL A   1      12.288  46.196   7.718  1.00  0.00    +0.000 H 
ATOM    101  H7  UNL A   1      11.727  44.503   7.925  1.00  0.00    +0.000 H 
ATOM      6  C4  UNL A   1      11.643  45.522   8.242  1.00  0.00    +0.000 C 
BRANCH    6    7
ATOM    103  H9  UNL A   1      11.137  45.542  10.268  1.00  0.00    +0.000 H 
ATOM    102  H8  UNL A   1      12.666  44.672   9.890  1.00  0.00    +0.000 H 
ATOM      7  C5  UNL A   1      12.054  45.532   9.716  1.00  0.00    +0.000 C 
BRANCH    7    8
ATOM    105  H11 UNL A   1      13.652  46.381  10.768  1.00  0.00    +0.000 H 
ATOM    104  H10 UNL A   1      13.121  47.326   9.333  1.00  0.00    +0.000 H 
ATOM      8  C6  UNL A   1      12.831  46.765  10.198  1.00  0.00    +0.000 C 
BRANCH    8    9
ATOM      9  C7  UNL A   1      12.084  47.710  11.139  1.00  0.00    +0.000 C 
ATOM    106  H12 UNL A   1      11.817  47.169  12.023  1.00  0.00    +0.000 H 
ATOM    107  H13 UNL A   1      11.223  48.069  10.614  1.00  0.00    +0.000 H 
BRANCH    9   10
ATOM     10  N2  UNL A   1      12.872  48.868  11.525  1.00  0.00    +0.000 N 
ATOM    108  H14 UNL A   1      12.925  49.056  12.490  1.00  0.00    +0.000 H 
BRANCH   10   11
ATOM     11  C8  UNL A   1      13.550  49.730  10.701  1.00  0.00    +0.000 C 
ATOM     12  O2  UNL A   1      12.956  50.345   9.817  1.00  0.00    +0.000 O 
BRANCH   11   13
ATOM     13  C9  UNL A   1      14.989  49.974  10.883  1.00  0.00    +0.000 C 
ATOM     14  C10 UNL A   1      15.370  50.913  11.851  1.00  0.00    +0.000 C 
ATOM    109  H15 UNL A   1      14.652  51.391  12.416  1.00  0.00    +0.000 H 
ATOM     15  C11 UNL A   1      16.722  51.205  12.052  1.00  0.00    +0.000 C 
ATOM     17  C13 UNL A   1      17.304  49.656  10.300  1.00  0.00    +0.000 C 
ATOM     18  C14 UNL A   1      15.952  49.352  10.086  1.00  0.00    +0.000 C 
ATOM    110  H16 UNL A   1      17.001  51.886  12.775  1.00  0.00    +0.000 H 
ATOM    112  H18 UNL A   1      18.026  49.191   9.729  1.00  0.00    +0.000 H 
ATOM     16  C12 UNL A   1      17.690  50.576  11.274  1.00  0.00    +0.000 C 
ATOM    111  H17 UNL A   1      18.689  50.790  11.419  1.00  0.00    +0.000 H 
BRANCH   18   19
ATOM     19  N3  UNL A   1      15.694  48.327   9.179  1.00  0.00    +0.000 N 
BRANCH   19   20
ATOM    113  H19 UNL A   1      17.227  48.120   7.848  1.00  0.00    +0.000 H 
ATOM     20  C15 UNL A   1      16.226  48.320   7.999  1.00  0.00    +0.000 C 
BRANCH   20   21
ATOM     26  C20 UNL A   1      17.682  50.856   3.239  1.00  0.00    +0.000 C 
ATOM    117  H23 UNL A   1      18.677  49.201   2.378  1.00  0.00    +0.000 H 
ATOM    114  H20 UNL A   1      14.629  50.338   7.762  1.00  0.00    +0.000 H 
ATOM    115  H21 UNL A   1      16.472  52.275   4.245  1.00  0.00    +0.000 H 
ATOM    116  H22 UNL A   1      18.240  51.562   2.733  1.00  0.00    +0.000 H 
ATOM     21  C16 UNL A   1      15.305  48.619   6.883  1.00  0.00    +0.000 C 
ATOM     22  C17 UNL A   1      14.953  49.915   6.879  1.00  0.00    +0.000 C 
ATOM     23  O3  UNL A   1      15.007  50.716   5.745  1.00  0.00    +0.000 O 
ATOM     24  C18 UNL A   1      15.951  50.316   4.820  1.00  0.00    +0.000 C 
ATOM    118  H24 UNL A   1      17.386  47.528   3.588  1.00  0.00    +0.000 H 
ATOM     25  C19 UNL A   1      16.675  51.271   4.119  1.00  0.00    +0.000 C 
ATOM     27  C21 UNL A   1      17.942  49.493   3.040  1.00  0.00    +0.000 C 
ATOM     28  C22 UNL A   1      17.209  48.533   3.735  1.00  0.00    +0.000 C 
ATOM     29  C23 UNL A   1      16.233  48.961   4.632  1.00  0.00    +0.000 C 
ATOM     30  C24 UNL A   1      15.572  48.028   5.550  1.00  0.00    +0.000 C 
ATOM     31  O4  UNL A   1      15.351  46.860   5.272  1.00  0.00    +0.000 O 
ENDBRANCH   20   21
ENDBRANCH   19   20
ENDBRANCH   18   19
ENDBRANCH   11   13
ENDBRANCH   10   11
ENDBRANCH    9   10
ENDBRANCH    8    9
ENDBRANCH    7    8
ENDBRANCH    6    7
ENDBRANCH    5    6
ENDBRANCH    4    5
ENDBRANCH    3    4
ENDBRANCH    2    3
ENDBRANCH   32    2
ENDBRANCH   36   35
BRANCH   40   41
ATOM     41  C33 UNL A   1      17.294  48.551  -1.458  1.00  0.00    +0.000 C 
ATOM     42  C34 UNL A   1      16.838  48.220  -2.741  1.00  0.00    +0.000 C 
ATOM     43  F1  UNL A   1      15.833  48.912  -3.300  1.00  0.00    +0.000 F 
ATOM     44  C35 UNL A   1      17.410  47.169  -3.451  1.00  0.00    +0.000 C 
ATOM     45  F2  UNL A   1      16.955  46.860  -4.673  1.00  0.00    +0.000 F 
ATOM     46  C36 UNL A   1      18.451  46.438  -2.895  1.00  0.00    +0.000 C 
ATOM     47  F3  UNL A   1      19.003  45.428  -3.582  1.00  0.00    +0.000 F 
ATOM     48  C37 UNL A   1      18.915  46.750  -1.626  1.00  0.00    +0.000 C 
ATOM     49  F4  UNL A   1      19.920  46.044  -1.089  1.00  0.00    +0.000 F 
ATOM     50  C38 UNL A   1      18.340  47.797  -0.910  1.00  0.00    +0.000 C 
ATOM     51  F5  UNL A   1      18.806  48.079   0.316  1.00  0.00    +0.000 F 
ENDBRANCH   40   41
BRANCH   57   58
ATOM     65  C48 UNL A   1      19.763  56.944  -2.214  1.00  0.00    +0.000 C 
ATOM     66  F9  UNL A   1      19.711  57.457  -3.451  1.00  0.00    +0.000 F 
ATOM     67  C49 UNL A   1      18.784  56.048  -1.793  1.00  0.00    +0.000 C 
ATOM     68  F10 UNL A   1      17.798  55.717  -2.639  1.00  0.00    +0.000 F 
ATOM     58  C44 UNL A   1      18.822  55.500  -0.504  1.00  0.00    +0.000 C 
ATOM     59  C45 UNL A   1      19.868  55.879   0.349  1.00  0.00    +0.000 C 
ATOM     60  F6  UNL A   1      19.931  55.390   1.597  1.00  0.00    +0.000 F 
ATOM     61  C46 UNL A   1      20.839  56.782  -0.073  1.00  0.00    +0.000 C 
ATOM     62  F7  UNL A   1      21.818  57.150   0.764  1.00  0.00    +0.000 F 
ATOM     63  C47 UNL A   1      20.788  57.311  -1.354  1.00  0.00    +0.000 C 
ATOM     64  F8  UNL A   1      21.722  58.184  -1.757  1.00  0.00    +0.000 F 
ENDBRANCH   57   58
BRANCH   72   73
ATOM     73  C53 UNL A   1      13.571  55.945   4.026  1.00  0.00    +0.000 C 
ATOM     74  C54 UNL A   1      12.567  56.796   3.549  1.00  0.00    +0.000 C 
ATOM     75  F11 UNL A   1      12.111  56.657   2.295  1.00  0.00    +0.000 F 
ATOM     76  C55 UNL A   1      12.041  57.800   4.356  1.00  0.00    +0.000 C 
ATOM     77  F12 UNL A   1      11.087  58.612   3.877  1.00  0.00    +0.000 F 
ATOM     78  C56 UNL A   1      12.503  57.964   5.654  1.00  0.00    +0.000 C 
ATOM     79  F13 UNL A   1      11.990  58.927   6.432  1.00  0.00    +0.000 F 
ATOM     80  C57 UNL A   1      13.498  57.132   6.144  1.00  0.00    +0.000 C 
ATOM     81  F14 UNL A   1      13.945  57.287   7.397  1.00  0.00    +0.000 F 
ATOM     82  C58 UNL A   1      14.034  56.134   5.334  1.00  0.00    +0.000 C 
ATOM     83  F15 UNL A   1      14.998  55.342   5.826  1.00  0.00    +0.000 F 
ENDBRANCH   72   73
TORSDOF 18
ENDMDL
MODEL 2
REMARK VINA RESULT:      -9.7      3.177      8.234
ROOT
ATOM    129  H35 UNL A   1      16.743  56.767   2.426  1.00  0.00    +0.000 H 
ATOM    130  H36 UNL A   1      15.216  56.623   4.479  1.00  0.00    +0.000 H 
ATOM     36  C29 UNL A   1      14.130  54.024   4.918  1.00  0.00    +0.000 C 
ATOM     37  C30 UNL A   1      15.092  54.448   3.849  1.00  0.00    +0.000 C 
ATOM     38  N4  UNL A   1      15.638  53.729   2.901  1.00  0.00    +0.000 N 
ATOM     39  C31 UNL A   1      16.429  54.602   2.170  1.00  0.00    +0.000 C 
ATOM     40  C32 UNL A   1      17.213  54.331   1.099  1.00  0.00    +0.000 C 
ATOM     52  C39 UNL A   1      17.394  53.026   0.521  1.00  0.00    +0.000 C 
ATOM     53  C40 UNL A   1      18.278  52.635  -0.470  1.00  0.00    +0.000 C 
ATOM     54  C41 UNL A   1      18.060  51.278  -0.740  1.00  0.00    +0.000 C 
ATOM     55  C42 UNL A   1      17.050  50.826   0.091  1.00  0.00    +0.000 C 
ATOM     56  N5  UNL A   1      16.664  51.903   0.873  1.00  0.00    +0.000 N 
ATOM     57  C43 UNL A   1      16.461  49.516   0.164  1.00  0.00    +0.000 C 
ATOM     69  C50 UNL A   1      15.577  49.115   1.107  1.00  0.00    +0.000 C 
ATOM     70  N6  UNL A   1      15.035  49.848   2.152  1.00  0.00    +0.000 N 
ATOM     71  C51 UNL A   1      14.229  49.032   2.781  1.00  0.00    +0.000 C 
ATOM     72  C52 UNL A   1      13.370  49.295   3.981  1.00  0.00    +0.000 C 
ATOM     84  C59 UNL A   1      13.345  50.523   4.530  1.00  0.00    +0.000 C 
ATOM     85  C60 UNL A   1      12.539  50.914   5.681  1.00  0.00    +0.000 C 
ATOM     86  C61 UNL A   1      12.733  52.220   5.928  1.00  0.00    +0.000 C 
ATOM     87  C62 UNL A   1      13.698  52.748   4.963  1.00  0.00    +0.000 C 
ATOM     88  N7  UNL A   1      14.010  51.670   4.174  1.00  0.00    +0.000 N 
ATOM     89  C63 UNL A   1      14.168  47.679   2.208  1.00  0.00    +0.000 C 
ATOM     90  C64 UNL A   1      15.015  47.782   1.191  1.00  0.00    +0.000 C 
ATOM     91  C65 UNL A   1      16.285  55.911   2.774  1.00  0.00    +0.000 C 
ATOM     92  C66 UNL A   1      15.487  55.864   3.834  1.00  0.00    +0.000 C 
ATOM    121  H27 UNL A   1      18.977  53.239  -0.931  1.00  0.00    +0.000 H 
ATOM    122  H28 UNL A   1      18.566  50.712  -1.440  1.00  0.00    +0.000 H 
ATOM    123  H29 UNL A   1      15.974  51.874   1.575  1.00  0.00    +0.000 H 
ATOM    124  H30 UNL A   1      11.920  50.289   6.221  1.00  0.00    +0.000 H 
ATOM    125  H31 UNL A   1      12.275  52.763   6.676  1.00  0.00    +0.000 H 
ATOM    126  H32 UNL A   1      14.648  51.714   3.427  1.00  0.00    +0.000 H 
ATOM    127  H33 UNL A   1      13.613  46.865   2.514  1.00  0.00    +0.000 H 
ATOM    128  H34 UNL A   1      15.244  47.012   0.545  1.00  0.00    +0.000 H 
ENDROOT
BRANCH   36   35
ATOM     33  C26 UNL A   1      11.987  56.680   6.557  1.00  0.00    +0.000 C 
ATOM     34  C27 UNL A   1      12.416  55.681   5.680  1.00  0.00    +0.000 C 
ATOM     35  C28 UNL A   1      13.614  54.989   5.918  1.00  0.00    +0.000 C 
ATOM    132  H38 UNL A   1      14.455  56.467   8.814  1.00  0.00    +0.000 H 
ATOM    131  H37 UNL A   1      15.246  54.794   7.248  1.00  0.00    +0.000 H 
ATOM    119  H25 UNL A   1      11.131  57.217   6.347  1.00  0.00    +0.000 H 
ATOM    120  H26 UNL A   1      11.848  55.448   4.850  1.00  0.00    +0.000 H 
ATOM     93  C67 UNL A   1      14.360  55.290   7.066  1.00  0.00    +0.000 C 
ATOM     94  C68 UNL A   1      13.907  56.260   7.964  1.00  0.00    +0.000 C 
ATOM     32  C25 UNL A   1      12.715  56.954   7.719  1.00  0.00    +0.000 C 
BRANCH   32    2
ATOM      1  O1  UNL A   1      12.972  59.083   8.661  1.00  0.00    +0.000 O 
ATOM      2  C1  UNL A   1      12.333  58.033   8.663  1.00  0.00    +0.000 C 
BRANCH    2    3
ATOM      3  N1  UNL A   1      11.295  57.885   9.547  1.00  0.00    +0.000 N 
ATOM     95  H1  UNL A   1      10.647  58.626   9.552  1.00  0.00    +0.000 H 
BRANCH    3    4
ATOM     97  H3  UNL A   1      11.934  56.379  10.770  1.00  0.00    +0.000 H 
ATOM      4  C2  UNL A   1      11.001  56.811  10.477  1.00  0.00    +0.000 C 
ATOM     96  H2  UNL A   1      10.469  57.218  11.311  1.00  0.00    +0.000 H 
BRANCH    4    5
ATOM     98  H4  UNL A   1       9.663  56.108   9.002  1.00  0.00    +0.000 H 
ATOM     99  H5  UNL A   1       9.502  55.374  10.636  1.00  0.00    +0.000 H 
ATOM      5  C3  UNL A   1      10.159  55.701   9.857  1.00  0.00    +0.000 C 
BRANCH    5    6
ATOM    100  H6  UNL A   1      11.803  54.371   9.998  1.00  0.00    +0.000 H 
ATOM    101  H7  UNL A   1      11.097  54.581   8.361  1.00  0.00    +0.000 H 
ATOM      6  C4  UNL A   1      10.914  54.449   9.407  1.00  0.00    +0.000 C 
BRANCH    6    7
ATOM    103  H9  UNL A   1       9.122  53.401   9.635  1.00  0.00    +0.000 H 
ATOM    102  H8  UNL A   1      10.368  52.544   8.662  1.00  0.00    +0.000 H 
ATOM      7  C5  UNL A   1      10.151  53.128   9.531  1.00  0.00    +0.000 C 
BRANCH    7    8
ATOM    105  H11 UNL A   1      11.085  52.885  11.388  1.00  0.00    +0.000 H 
ATOM    104  H10 UNL A   1       9.542  51.980  11.208  1.00  0.00    +0.000 H 
ATOM      8  C6  UNL A   1      10.472  52.271  10.763  1.00  0.00    +0.000 C 
BRANCH    8    9
ATOM      9  C7  UNL A   1      11.285  51.001  10.509  1.00  0.00    +0.000 C 
ATOM    106  H12 UNL A   1      10.866  50.207  11.091  1.00  0.00    +0.000 H 
ATOM    107  H13 UNL A   1      12.297  51.209  10.786  1.00  0.00    +0.000 H 
BRANCH    9   10
ATOM     10  N2  UNL A   1      11.290  50.599   9.113  1.00  0.00    +0.000 N 
ATOM    108  H14 UNL A   1      11.527  51.297   8.460  1.00  0.00    +0.000 H 
BRANCH   10   11
ATOM     11  C8  UNL A   1      11.002  49.360   8.598  1.00  0.00    +0.000 C 
ATOM     12  O2  UNL A   1      10.247  49.246   7.635  1.00  0.00    +0.000 O 
BRANCH   11   13
ATOM     13  C9  UNL A   1      11.624  48.148   9.154  1.00  0.00    +0.000 C 
ATOM     14  C10 UNL A   1      10.773  47.149   9.645  1.00  0.00    +0.000 C 
ATOM    109  H15 UNL A   1       9.750  47.272   9.592  1.00  0.00    +0.000 H 
ATOM     15  C11 UNL A   1      11.306  45.987  10.207  1.00  0.00    +0.000 C 
ATOM     17  C13 UNL A   1      13.529  46.836   9.824  1.00  0.00    +0.000 C 
ATOM     18  C14 UNL A   1      13.010  48.009   9.257  1.00  0.00    +0.000 C 
ATOM    110  H16 UNL A   1      10.679  45.245  10.554  1.00  0.00    +0.000 H 
ATOM    112  H18 UNL A   1      14.551  46.714   9.891  1.00  0.00    +0.000 H 
ATOM     16  C12 UNL A   1      12.686  45.830  10.297  1.00  0.00    +0.000 C 
ATOM    111  H17 UNL A   1      13.084  44.974  10.713  1.00  0.00    +0.000 H 
BRANCH   18   19
ATOM     19  N3  UNL A   1      13.942  48.883   8.703  1.00  0.00    +0.000 N 
BRANCH   19   20
ATOM    113  H19 UNL A   1      15.605  47.712   8.870  1.00  0.00    +0.000 H 
ATOM     20  C15 UNL A   1      15.214  48.664   8.801  1.00  0.00    +0.000 C 
BRANCH   20   21
ATOM     26  C20 UNL A   1      14.042  53.396  11.529  1.00  0.00    +0.000 C 
ATOM    117  H23 UNL A   1      14.503  52.680  13.465  1.00  0.00    +0.000 H 
ATOM    114  H20 UNL A   1      15.324  50.541   7.028  1.00  0.00    +0.000 H 
ATOM    115  H21 UNL A   1      13.839  53.903   9.482  1.00  0.00    +0.000 H 
ATOM    116  H22 UNL A   1      13.359  54.095  11.859  1.00  0.00    +0.000 H 
ATOM     21  C16 UNL A   1      16.068  49.870   8.811  1.00  0.00    +0.000 C 
ATOM     22  C17 UNL A   1      15.584  50.814   7.988  1.00  0.00    +0.000 C 
ATOM     23  O3  UNL A   1      15.413  52.140   8.367  1.00  0.00    +0.000 O 
ATOM     24  C18 UNL A   1      15.202  52.314   9.721  1.00  0.00    +0.000 C 
ATOM    118  H24 UNL A   1      16.097  51.007  12.694  1.00  0.00    +0.000 H 
ATOM     25  C19 UNL A   1      14.305  53.279  10.158  1.00  0.00    +0.000 C 
ATOM     27  C21 UNL A   1      14.695  52.573  12.456  1.00  0.00    +0.000 C 
ATOM     28  C22 UNL A   1      15.604  51.611  12.019  1.00  0.00    +0.000 C 
ATOM     29  C23 UNL A   1      15.831  51.482  10.650  1.00  0.00    +0.000 C 
ATOM     30  C24 UNL A   1      16.603  50.363  10.102  1.00  0.00    +0.000 C 
ATOM     31  O4  UNL A   1      17.532  49.837  10.695  1.00  0.00    +0.000 O 
ENDBRANCH   20   21
ENDBRANCH   19   20
ENDBRANCH   18   19
ENDBRANCH   11   13
ENDBRANCH   10   11
ENDBRANCH    9   10
ENDBRANCH    8    9
ENDBRANCH    7    8
ENDBRANCH    6    7
ENDBRANCH    5    6
ENDBRANCH    4    5
ENDBRANCH    3    4
ENDBRANCH    2    3
ENDBRANCH   32    2
ENDBRANCH   36   35
BRANCH   40   41
ATOM     41  C33 UNL A   1      17.951  55.474   0.480  1.00  0.00    +0.000 C 
ATOM     42  C34 UNL A   1      19.200  55.882   0.967  1.00  0.00    +0.000 C 
ATOM     43  F1  UNL A   1      19.731  55.287   2.046  1.00  0.00    +0.000 F 
ATOM     44  C35 UNL A   1      19.904  56.910   0.349  1.00  0.00    +0.000 C 
ATOM     45  F2  UNL A   1      21.093  57.294   0.834  1.00  0.00    +0.000 F 
ATOM     46  C36 UNL A   1      19.376  57.542  -0.769  1.00  0.00    +0.000 C 
ATOM     47  F3  UNL A   1      20.058  58.530  -1.365  1.00  0.00    +0.000 F 
ATOM     48  C37 UNL A   1      18.141  57.153  -1.265  1.00  0.00    +0.000 C 
ATOM     49  F4  UNL A   1      17.631  57.762  -2.344  1.00  0.00    +0.000 F 
ATOM     50  C38 UNL A   1      17.431  56.128  -0.645  1.00  0.00    +0.000 C 
ATOM     51  F5  UNL A   1      16.238  55.771  -1.143  1.00  0.00    +0.000 F 
ENDBRANCH   40   41
BRANCH   57   58
ATOM     65  C48 UNL A   1      16.422  47.344  -2.954  1.00  0.00    +0.000 C 
ATOM     66  F9  UNL A   1      15.654  47.155  -4.036  1.00  0.00    +0.000 F 
ATOM     67  C49 UNL A   1      16.065  48.299  -2.006  1.00  0.00    +0.000 C 
ATOM     68  F10 UNL A   1      14.951  49.021  -2.199  1.00  0.00    +0.000 F 
ATOM     58  C44 UNL A   1      16.855  48.509  -0.868  1.00  0.00    +0.000 C 
ATOM     59  C45 UNL A   1      18.013  47.735  -0.711  1.00  0.00    +0.000 C 
ATOM     60  F6  UNL A   1      18.806  47.918   0.357  1.00  0.00    +0.000 F 
ATOM     61  C46 UNL A   1      18.372  46.788  -1.665  1.00  0.00    +0.000 C 
ATOM     62  F7  UNL A   1      19.495  46.074  -1.509  1.00  0.00    +0.000 F 
ATOM     63  C47 UNL A   1      17.576  46.591  -2.783  1.00  0.00    +0.000 C 
ATOM     64  F8  UNL A   1      17.925  45.681  -3.704  1.00  0.00    +0.000 F 
ENDBRANCH   57   58
BRANCH   72   73
ATOM     73  C53 UNL A   1      12.535  48.224   4.568  1.00  0.00    +0.000 C 
ATOM     74  C54 UNL A   1      13.065  47.339   5.514  1.00  0.00    +0.000 C 
ATOM     75  F11 UNL A   1      14.358  47.425   5.862  1.00  0.00    +0.000 F 
ATOM     76  C55 UNL A   1      12.269  46.355   6.094  1.00  0.00    +0.000 C 
ATOM     77  F12 UNL A   1      12.799  45.510   6.990  1.00  0.00    +0.000 F 
ATOM     78  C56 UNL A   1      10.932  46.245   5.744  1.00  0.00    +0.000 C 
ATOM     79  F13 UNL A   1      10.166  45.302   6.308  1.00  0.00    +0.000 F 
ATOM     80  C57 UNL A   1      10.389  47.112   4.807  1.00  0.00    +0.000 C 
ATOM     81  F14 UNL A   1       9.097  47.010   4.469  1.00  0.00    +0.000 F 
ATOM     82  C58 UNL A   1      11.185  48.090   4.218  1.00  0.00    +0.000 C 
ATOM     83  F15 UNL A   1      10.642  48.917   3.313  1.00  0.00    +0.000 F 
ENDBRANCH   72   73
TORSDOF 18
ENDMDL
MODEL 3
REMARK VINA RESULT:      -9.6      3.198      8.282
ROOT
ATOM    129  H35 UNL A   1      13.121  51.157   6.704  1.00  0.00    +0.000 H 
ATOM    130  H36 UNL A   1      13.417  53.703   6.719  1.00  0.00    +0.000 H 
ATOM     36  C29 UNL A   1      14.804  54.709   4.439  1.00  0.00    +0.000 C 
ATOM     37  C30 UNL A   1      14.417  53.288   4.726  1.00  0.00    +0.000 C 
ATOM     38  N4  UNL A   1      14.624  52.217   4.002  1.00  0.00    +0.000 N 
ATOM     39  C31 UNL A   1      14.092  51.161   4.726  1.00  0.00    +0.000 C 
ATOM     40  C32 UNL A   1      14.040  49.850   4.388  1.00  0.00    +0.000 C 
ATOM     52  C39 UNL A   1      14.527  49.300   3.151  1.00  0.00    +0.000 C 
ATOM     53  C40 UNL A   1      14.386  48.012   2.663  1.00  0.00    +0.000 C 
ATOM     54  C41 UNL A   1      15.067  47.930   1.442  1.00  0.00    +0.000 C 
ATOM     55  C42 UNL A   1      15.618  49.170   1.166  1.00  0.00    +0.000 C 
ATOM     56  N5  UNL A   1      15.262  50.006   2.212  1.00  0.00    +0.000 N 
ATOM     57  C43 UNL A   1      16.424  49.569   0.044  1.00  0.00    +0.000 C 
ATOM     69  C50 UNL A   1      16.802  50.840  -0.225  1.00  0.00    +0.000 C 
ATOM     70  N6  UNL A   1      16.539  51.993   0.500  1.00  0.00    +0.000 N 
ATOM     71  C51 UNL A   1      17.120  52.966  -0.154  1.00  0.00    +0.000 C 
ATOM     72  C52 UNL A   1      17.170  54.426   0.181  1.00  0.00    +0.000 C 
ATOM     84  C59 UNL A   1      16.590  54.875   1.308  1.00  0.00    +0.000 C 
ATOM     85  C60 UNL A   1      16.587  56.263   1.759  1.00  0.00    +0.000 C 
ATOM     86  C61 UNL A   1      15.953  56.338   2.941  1.00  0.00    +0.000 C 
ATOM     87  C62 UNL A   1      15.484  55.004   3.315  1.00  0.00    +0.000 C 
ATOM     88  N7  UNL A   1      15.904  54.199   2.286  1.00  0.00    +0.000 N 
ATOM     89  C63 UNL A   1      17.816  52.543  -1.378  1.00  0.00    +0.000 C 
ATOM     90  C64 UNL A   1      17.586  51.237  -1.378  1.00  0.00    +0.000 C 
ATOM     91  C65 UNL A   1      13.561  51.715   5.955  1.00  0.00    +0.000 C 
ATOM     92  C66 UNL A   1      13.715  53.033   5.992  1.00  0.00    +0.000 C 
ATOM    121  H27 UNL A   1      13.871  47.244   3.121  1.00  0.00    +0.000 H 
ATOM    122  H28 UNL A   1      15.144  47.089   0.848  1.00  0.00    +0.000 H 
ATOM    123  H29 UNL A   1      15.498  50.960   2.280  1.00  0.00    +0.000 H 
ATOM    124  H30 UNL A   1      17.005  57.060   1.253  1.00  0.00    +0.000 H 
ATOM    125  H31 UNL A   1      15.819  57.198   3.495  1.00  0.00    +0.000 H 
ATOM    126  H32 UNL A   1      15.730  53.231   2.252  1.00  0.00    +0.000 H 
ATOM    127  H33 UNL A   1      18.345  53.112  -2.057  1.00  0.00    +0.000 H 
ATOM    128  H34 UNL A   1      17.921  50.587  -2.105  1.00  0.00    +0.000 H 
ENDROOT
BRANCH   36   35
ATOM     33  C26 UNL A   1      12.981  57.573   6.114  1.00  0.00    +0.000 C 
ATOM     34  C27 UNL A   1      13.245  56.464   5.307  1.00  0.00    +0.000 C 
ATOM     35  C28 UNL A   1      14.480  55.801   5.387  1.00  0.00    +0.000 C 
ATOM    132  H38 UNL A   1      15.857  57.644   7.835  1.00  0.00    +0.000 H 
ATOM    131  H37 UNL A   1      16.350  55.773   6.374  1.00  0.00    +0.000 H 
ATOM    119  H25 UNL A   1      12.091  58.084   6.013  1.00  0.00    +0.000 H 
ATOM    120  H26 UNL A   1      12.527  56.128   4.647  1.00  0.00    +0.000 H 
ATOM     93  C67 UNL A   1      15.436  56.247   6.311  1.00  0.00    +0.000 C 
ATOM     94  C68 UNL A   1      15.154  57.331   7.147  1.00  0.00    +0.000 C 
ATOM     32  C25 UNL A   1      13.922  57.994   7.059  1.00  0.00    +0.000 C 
BRANCH   32    2
ATOM      1  O1  UNL A   1      14.684  59.894   8.197  1.00  0.00    +0.000 O 
ATOM      2  C1  UNL A   1      13.717  59.191   7.911  1.00  0.00    +0.000 C 
BRANCH    2    3
ATOM      3  N1  UNL A   1      12.480  59.527   8.399  1.00  0.00    +0.000 N 
ATOM     95  H1  UNL A   1      11.793  59.683   7.712  1.00  0.00    +0.000 H 
BRANCH    3    4
ATOM     97  H3  UNL A   1      12.892  59.729  10.390  1.00  0.00    +0.000 H 
ATOM      4  C2  UNL A   1      12.024  59.689   9.767  1.00  0.00    +0.000 C 
ATOM     96  H2  UNL A   1      11.446  60.588   9.829  1.00  0.00    +0.000 H 
BRANCH    4    5
ATOM     98  H4  UNL A   1      10.158  58.871  10.321  1.00  0.00    +0.000 H 
ATOM     99  H5  UNL A   1      11.598  58.222  11.182  1.00  0.00    +0.000 H 
ATOM      5  C3  UNL A   1      11.167  58.525  10.251  1.00  0.00    +0.000 C 
BRANCH    5    6
ATOM    100  H6  UNL A   1      11.683  57.508   8.464  1.00  0.00    +0.000 H 
ATOM    101  H7  UNL A   1      10.141  57.010   9.238  1.00  0.00    +0.000 H 
ATOM      6  C4  UNL A   1      11.170  57.272   9.373  1.00  0.00    +0.000 C 
BRANCH    6    7
ATOM    103  H9  UNL A   1      12.527  56.408  10.706  1.00  0.00    +0.000 H 
ATOM    102  H8  UNL A   1      11.065  55.412  10.380  1.00  0.00    +0.000 H 
ATOM      7  C5  UNL A   1      11.837  56.034   9.978  1.00  0.00    +0.000 C 
BRANCH    7    8
ATOM    105  H11 UNL A   1      12.028  54.937   8.207  1.00  0.00    +0.000 H 
ATOM    104  H10 UNL A   1      13.539  55.751   8.744  1.00  0.00    +0.000 H 
ATOM      8  C6  UNL A   1      12.678  55.178   9.022  1.00  0.00    +0.000 C 
BRANCH    8    9
ATOM      9  C7  UNL A   1      13.166  53.836   9.569  1.00  0.00    +0.000 C 
ATOM    106  H12 UNL A   1      13.502  53.236   8.749  1.00  0.00    +0.000 H 
ATOM    107  H13 UNL A   1      12.346  53.384  10.086  1.00  0.00    +0.000 H 
BRANCH    9   10
ATOM     10  N2  UNL A   1      14.257  53.973  10.519  1.00  0.00    +0.000 N 
ATOM    108  H14 UNL A   1      14.927  54.666  10.316  1.00  0.00    +0.000 H 
BRANCH   10   11
ATOM     11  C8  UNL A   1      14.461  53.251  11.668  1.00  0.00    +0.000 C 
ATOM     12  O2  UNL A   1      15.526  52.665  11.854  1.00  0.00    +0.000 O 
BRANCH   11   13
ATOM     13  C9  UNL A   1      13.435  53.198  12.720  1.00  0.00    +0.000 C 
ATOM     14  C10 UNL A   1      13.003  54.414  13.267  1.00  0.00    +0.000 C 
ATOM    109  H15 UNL A   1      13.391  55.303  12.916  1.00  0.00    +0.000 H 
ATOM     15  C11 UNL A   1      12.048  54.425  14.286  1.00  0.00    +0.000 C 
ATOM     17  C13 UNL A   1      11.987  52.016  14.239  1.00  0.00    +0.000 C 
ATOM     18  C14 UNL A   1      12.945  51.987  13.215  1.00  0.00    +0.000 C 
ATOM    110  H16 UNL A   1      11.720  55.321  14.677  1.00  0.00    +0.000 H 
ATOM    112  H18 UNL A   1      11.606  51.129  14.602  1.00  0.00    +0.000 H 
ATOM     16  C12 UNL A   1      11.540  53.224  14.774  1.00  0.00    +0.000 C 
ATOM    111  H17 UNL A   1      10.836  53.228  15.528  1.00  0.00    +0.000 H 
BRANCH   18   19
ATOM     19  N3  UNL A   1      13.220  50.735  12.671  1.00  0.00    +0.000 N 
BRANCH   19   20
ATOM    113  H19 UNL A   1      11.395  49.821  12.693  1.00  0.00    +0.000 H 
ATOM     20  C15 UNL A   1      12.279  49.988  12.188  1.00  0.00    +0.000 C 
BRANCH   20   21
ATOM     26  C20 UNL A   1      16.951  50.788   9.232  1.00  0.00    +0.000 C 
ATOM    117  H23 UNL A   1      18.194  49.538  10.401  1.00  0.00    +0.000 H 
ATOM    114  H20 UNL A   1      11.507  50.835   9.872  1.00  0.00    +0.000 H 
ATOM    115  H21 UNL A   1      15.453  51.810   8.137  1.00  0.00    +0.000 H 
ATOM    116  H22 UNL A   1      17.720  51.400   8.918  1.00  0.00    +0.000 H 
ATOM     21  C16 UNL A   1      12.558  49.389  10.866  1.00  0.00    +0.000 C 
ATOM     22  C17 UNL A   1      12.379  50.284   9.881  1.00  0.00    +0.000 C 
ATOM     23  O3  UNL A   1      13.311  50.506   8.875  1.00  0.00    +0.000 O 
ATOM     24  C18 UNL A   1      14.613  50.226   9.244  1.00  0.00    +0.000 C 
ATOM    118  H24 UNL A   1      16.383  48.103  11.171  1.00  0.00    +0.000 H 
ATOM     25  C19 UNL A   1      15.645  51.035   8.792  1.00  0.00    +0.000 C 
ATOM     27  C21 UNL A   1      17.225  49.719  10.096  1.00  0.00    +0.000 C 
ATOM     28  C22 UNL A   1      16.191  48.898  10.543  1.00  0.00    +0.000 C 
ATOM     29  C23 UNL A   1      14.891  49.177  10.123  1.00  0.00    +0.000 C 
ATOM     30  C24 UNL A   1      13.732  48.499  10.712  1.00  0.00    +0.000 C 
ATOM     31  O4  UNL A   1      13.766  47.347  11.117  1.00  0.00    +0.000 O 
ENDBRANCH   20   21
ENDBRANCH   19   20
ENDBRANCH   18   19
ENDBRANCH   11   13
ENDBRANCH   10   11
ENDBRANCH    9   10
ENDBRANCH    8    9
ENDBRANCH    7    8
ENDBRANCH    6    7
ENDBRANCH    5    6
ENDBRANCH    4    5
ENDBRANCH    3    4
ENDBRANCH    2    3
ENDBRANCH   32    2
ENDBRANCH   36   35
BRANCH   40   41
ATOM     41  C33 UNL A   1      13.424  48.909   5.372  1.00  0.00    +0.000 C 
ATOM     42  C34 UNL A   1      12.050  48.639   5.357  1.00  0.00    +0.000 C 
ATOM     43  F1  UNL A   1      11.247  49.275   4.490  1.00  0.00    +0.000 F 
ATOM     44  C35 UNL A   1      11.495  47.720   6.241  1.00  0.00    +0.000 C 
ATOM     45  F2  UNL A   1      10.176  47.482   6.220  1.00  0.00    +0.000 F 
ATOM     46  C36 UNL A   1      12.304  47.050   7.148  1.00  0.00    +0.000 C 
ATOM     47  F3  UNL A   1      11.768  46.161   7.997  1.00  0.00    +0.000 F 
ATOM     48  C37 UNL A   1      13.668  47.304   7.179  1.00  0.00    +0.000 C 
ATOM     49  F4  UNL A   1      14.449  46.657   8.054  1.00  0.00    +0.000 F 
ATOM     50  C38 UNL A   1      14.225  48.229   6.299  1.00  0.00    +0.000 C 
ATOM     51  F5  UNL A   1      15.545  48.458   6.349  1.00  0.00    +0.000 F 
ENDBRANCH   40   41
BRANCH   57   58
ATOM     65  C48 UNL A   1      16.537  47.202  -2.927  1.00  0.00    +0.000 C 
ATOM     66  F9  UNL A   1      15.806  46.921  -4.014  1.00  0.00    +0.000 F 
ATOM     67  C49 UNL A   1      16.126  48.204  -2.053  1.00  0.00    +0.000 C 
ATOM     68  F10 UNL A   1      14.997  48.878  -2.322  1.00  0.00    +0.000 F 
ATOM     58  C44 UNL A   1      16.876  48.511  -0.910  1.00  0.00    +0.000 C 
ATOM     59  C45 UNL A   1      18.052  47.785  -0.673  1.00  0.00    +0.000 C 
ATOM     60  F6  UNL A   1      18.808  48.060   0.401  1.00  0.00    +0.000 F 
ATOM     61  C46 UNL A   1      18.465  46.791  -1.554  1.00  0.00    +0.000 C 
ATOM     62  F7  UNL A   1      19.603  46.123  -1.322  1.00  0.00    +0.000 F 
ATOM     63  C47 UNL A   1      17.706  46.498  -2.677  1.00  0.00    +0.000 C 
ATOM     64  F8  UNL A   1      18.108  45.542  -3.527  1.00  0.00    +0.000 F 
ENDBRANCH   57   58
BRANCH   72   73
ATOM     73  C53 UNL A   1      17.864  55.386  -0.706  1.00  0.00    +0.000 C 
ATOM     74  C54 UNL A   1      17.166  56.065  -1.712  1.00  0.00    +0.000 C 
ATOM     75  F11 UNL A   1      15.864  55.811  -1.913  1.00  0.00    +0.000 F 
ATOM     76  C55 UNL A   1      17.810  56.996  -2.523  1.00  0.00    +0.000 C 
ATOM     77  F12 UNL A   1      17.127  57.627  -3.489  1.00  0.00    +0.000 F 
ATOM     78  C56 UNL A   1      19.157  57.268  -2.336  1.00  0.00    +0.000 C 
ATOM     79  F13 UNL A   1      19.774  58.169  -3.113  1.00  0.00    +0.000 F 
ATOM     80  C57 UNL A   1      19.866  56.605  -1.345  1.00  0.00    +0.000 C 
ATOM     81  F14 UNL A   1      21.166  56.868  -1.161  1.00  0.00    +0.000 F 
ATOM     82  C58 UNL A   1      19.226  55.666  -0.541  1.00  0.00    +0.000 C 
ATOM     83  F15 UNL A   1      19.930  55.033   0.410  1.00  0.00    +0.000 F 
ENDBRANCH   72   73
TORSDOF 18
ENDMDL
MODEL 4
REMARK VINA RESULT:      -9.5     21.071     27.281
ROOT
ATOM    129  H35 UNL A   1      13.592  25.520  -1.479  1.00  0.00    +0.000 H 
ATOM    130  H36 UNL A   1      12.152  27.501  -0.721  1.00  0.00    +0.000 H 
ATOM     36  C29 UNL A   1      11.014  27.163   1.872  1.00  0.00    +0.000 C 
ATOM     37  C30 UNL A   1      11.940  26.232   1.147  1.00  0.00    +0.000 C 
ATOM     38  N4  UNL A   1      12.425  25.082   1.542  1.00  0.00    +0.000 N 
ATOM     39  C31 UNL A   1      13.207  24.620   0.495  1.00  0.00    +0.000 C 
ATOM     40  C32 UNL A   1      13.936  23.480   0.428  1.00  0.00    +0.000 C 
ATOM     52  C39 UNL A   1      14.056  22.517   1.490  1.00  0.00    +0.000 C 
ATOM     53  C40 UNL A   1      14.885  21.411   1.564  1.00  0.00    +0.000 C 
ATOM     54  C41 UNL A   1      14.617  20.743   2.766  1.00  0.00    +0.000 C 
ATOM     55  C42 UNL A   1      13.632  21.442   3.442  1.00  0.00    +0.000 C 
ATOM     56  N5  UNL A   1      13.311  22.538   2.658  1.00  0.00    +0.000 N 
ATOM     57  C43 UNL A   1      13.011  21.133   4.702  1.00  0.00    +0.000 C 
ATOM     69  C50 UNL A   1      12.157  21.948   5.365  1.00  0.00    +0.000 C 
ATOM     70  N6  UNL A   1      11.682  23.194   4.988  1.00  0.00    +0.000 N 
ATOM     71  C51 UNL A   1      10.881  23.578   5.949  1.00  0.00    +0.000 C 
ATOM     72  C52 UNL A   1      10.084  24.841   6.062  1.00  0.00    +0.000 C 
ATOM     84  C59 UNL A   1      10.117  25.745   5.066  1.00  0.00    +0.000 C 
ATOM     85  C60 UNL A   1       9.372  27.000   5.043  1.00  0.00    +0.000 C 
ATOM     86  C61 UNL A   1       9.613  27.630   3.882  1.00  0.00    +0.000 C 
ATOM     87  C62 UNL A   1      10.549  26.831   3.092  1.00  0.00    +0.000 C 
ATOM     88  N7  UNL A   1      10.797  25.731   3.874  1.00  0.00    +0.000 N 
ATOM     89  C63 UNL A   1      10.759  22.616   7.055  1.00  0.00    +0.000 C 
ATOM     90  C64 UNL A   1      11.563  21.641   6.651  1.00  0.00    +0.000 C 
ATOM     91  C65 UNL A   1      13.126  25.607  -0.562  1.00  0.00    +0.000 C 
ATOM     92  C66 UNL A   1      12.374  26.638  -0.198  1.00  0.00    +0.000 C 
ATOM    121  H27 UNL A   1      15.580  21.126   0.856  1.00  0.00    +0.000 H 
ATOM    122  H28 UNL A   1      15.077  19.878   3.092  1.00  0.00    +0.000 H 
ATOM    123  H29 UNL A   1      12.651  23.230   2.895  1.00  0.00    +0.000 H 
ATOM    124  H30 UNL A   1       8.760  27.349   5.797  1.00  0.00    +0.000 H 
ATOM    125  H31 UNL A   1       9.203  28.532   3.594  1.00  0.00    +0.000 H 
ATOM    126  H32 UNL A   1      11.403  25.003   3.608  1.00  0.00    +0.000 H 
ATOM    127  H33 UNL A   1      10.195  22.682   7.917  1.00  0.00    +0.000 H 
ATOM    128  H34 UNL A   1      11.743  20.777   7.184  1.00  0.00    +0.000 H 
ENDROOT
BRANCH   36   35
ATOM     33  C26 UNL A   1       9.107  29.631  -0.275  1.00  0.00    +0.000 C 
ATOM     34  C27 UNL A   1       9.458  28.460   0.401  1.00  0.00    +0.000 C 
ATOM     35  C28 UNL A   1      10.569  28.438   1.260  1.00  0.00    +0.000 C 
ATOM    132  H38 UNL A   1      11.463  31.662   0.972  1.00  0.00    +0.000 H 
ATOM    131  H37 UNL A   1      12.127  29.610   2.079  1.00  0.00    +0.000 H 
ATOM    119  H25 UNL A   1       8.320  29.624  -0.942  1.00  0.00    +0.000 H 
ATOM    120  H26 UNL A   1       8.897  27.603   0.269  1.00  0.00    +0.000 H 
ATOM     93  C67 UNL A   1      11.304  29.616   1.456  1.00  0.00    +0.000 C 
ATOM     94  C68 UNL A   1      10.926  30.796   0.812  1.00  0.00    +0.000 C 
ATOM     32  C25 UNL A   1       9.821  30.812  -0.051  1.00  0.00    +0.000 C 
BRANCH   32    2
ATOM      1  O1  UNL A   1       9.493  33.129  -0.143  1.00  0.00    +0.000 O 
ATOM      2  C1  UNL A   1       9.522  32.074  -0.773  1.00  0.00    +0.000 C 
BRANCH    2    3
ATOM      3  N1  UNL A   1       9.266  32.092  -2.120  1.00  0.00    +0.000 N 
ATOM     95  H1  UNL A   1       8.326  31.938  -2.364  1.00  0.00    +0.000 H 
BRANCH    3    4
ATOM     97  H3  UNL A   1       9.780  31.738  -4.065  1.00  0.00    +0.000 H 
ATOM      4  C2  UNL A   1      10.162  32.302  -3.241  1.00  0.00    +0.000 C 
ATOM     96  H2  UNL A   1      10.198  33.350  -3.457  1.00  0.00    +0.000 H 
BRANCH    4    5
ATOM     98  H4  UNL A   1      11.669  30.829  -3.381  1.00  0.00    +0.000 H 
ATOM     99  H5  UNL A   1      11.701  31.863  -1.908  1.00  0.00    +0.000 H 
ATOM      5  C3  UNL A   1      11.580  31.813  -2.970  1.00  0.00    +0.000 C 
BRANCH    5    6
ATOM    100  H6  UNL A   1      12.288  33.322  -4.279  1.00  0.00    +0.000 H 
ATOM    101  H7  UNL A   1      13.421  31.969  -3.950  1.00  0.00    +0.000 H 
ATOM      6  C4  UNL A   1      12.712  32.663  -3.550  1.00  0.00    +0.000 C 
BRANCH    6    7
ATOM    103  H9  UNL A   1      14.132  32.834  -2.028  1.00  0.00    +0.000 H 
ATOM    102  H8  UNL A   1      14.003  34.278  -3.092  1.00  0.00    +0.000 H 
ATOM      7  C5  UNL A   1      13.490  33.516  -2.545  1.00  0.00    +0.000 C 
BRANCH    7    8
ATOM    105  H11 UNL A   1      12.994  35.220  -1.435  1.00  0.00    +0.000 H 
ATOM    104  H10 UNL A   1      11.627  34.082  -1.701  1.00  0.00    +0.000 H 
ATOM      8  C6  UNL A   1      12.661  34.203  -1.451  1.00  0.00    +0.000 C 
BRANCH    8    9
ATOM      9  C7  UNL A   1      12.860  33.684  -0.026  1.00  0.00    +0.000 C 
ATOM    106  H12 UNL A   1      12.184  32.871   0.138  1.00  0.00    +0.000 H 
ATOM    107  H13 UNL A   1      12.674  34.500   0.641  1.00  0.00    +0.000 H 
BRANCH    9   10
ATOM     10  N2  UNL A   1      14.213  33.218   0.224  1.00  0.00    +0.000 N 
ATOM    108  H14 UNL A   1      14.935  33.868   0.060  1.00  0.00    +0.000 H 
BRANCH   10   11
ATOM     11  C8  UNL A   1      14.603  31.978   0.664  1.00  0.00    +0.000 C 
ATOM     12  O2  UNL A   1      14.521  31.685   1.855  1.00  0.00    +0.000 O 
BRANCH   11   13
ATOM     13  C9  UNL A   1      15.082  30.958  -0.281  1.00  0.00    +0.000 C 
ATOM     14  C10 UNL A   1      14.119  30.232  -0.996  1.00  0.00    +0.000 C 
ATOM    109  H15 UNL A   1      13.117  30.435  -0.862  1.00  0.00    +0.000 H 
ATOM     15  C11 UNL A   1      14.514  29.234  -1.889  1.00  0.00    +0.000 C 
ATOM     17  C13 UNL A   1      16.819  29.657  -1.326  1.00  0.00    +0.000 C 
ATOM     18  C14 UNL A   1      16.440  30.663  -0.425  1.00  0.00    +0.000 C 
ATOM    110  H16 UNL A   1      13.805  28.710  -2.426  1.00  0.00    +0.000 H 
ATOM    112  H18 UNL A   1      17.819  29.441  -1.454  1.00  0.00    +0.000 H 
ATOM     16  C12 UNL A   1      15.866  28.945  -2.054  1.00  0.00    +0.000 C 
ATOM    111  H17 UNL A   1      16.161  28.207  -2.712  1.00  0.00    +0.000 H 
BRANCH   18   19
ATOM     19  N3  UNL A   1      17.479  31.393   0.147  1.00  0.00    +0.000 N 
BRANCH   19   20
ATOM    113  H19 UNL A   1      17.742  30.462   1.944  1.00  0.00    +0.000 H 
ATOM     20  C15 UNL A   1      18.177  30.917   1.127  1.00  0.00    +0.000 C 
BRANCH   20   21
ATOM     26  C20 UNL A   1      21.321  28.446  -2.774  1.00  0.00    +0.000 C 
ATOM    117  H23 UNL A   1      20.741  29.695  -4.379  1.00  0.00    +0.000 H 
ATOM    114  H20 UNL A   1      20.022  29.645   2.415  1.00  0.00    +0.000 H 
ATOM    115  H21 UNL A   1      21.867  27.481  -0.969  1.00  0.00    +0.000 H 
ATOM    116  H22 UNL A   1      21.532  27.633  -3.374  1.00  0.00    +0.000 H 
ATOM     21  C16 UNL A   1      19.642  31.069   0.998  1.00  0.00    +0.000 C 
ATOM     22  C17 UNL A   1      20.286  29.995   1.482  1.00  0.00    +0.000 C 
ATOM     23  O3  UNL A   1      21.288  29.331   0.786  1.00  0.00    +0.000 O 
ATOM     24  C18 UNL A   1      21.184  29.439  -0.588  1.00  0.00    +0.000 C 
ATOM    118  H24 UNL A   1      20.213  31.611  -2.972  1.00  0.00    +0.000 H 
ATOM     25  C19 UNL A   1      21.501  28.350  -1.389  1.00  0.00    +0.000 C 
ATOM     27  C21 UNL A   1      20.855  29.633  -3.355  1.00  0.00    +0.000 C 
ATOM     28  C22 UNL A   1      20.547  30.730  -2.553  1.00  0.00    +0.000 C 
ATOM     29  C23 UNL A   1      20.699  30.610  -1.173  1.00  0.00    +0.000 C 
ATOM     30  C24 UNL A   1      20.199  31.636  -0.253  1.00  0.00    +0.000 C 
ATOM     31  O4  UNL A   1      20.162  32.825  -0.533  1.00  0.00    +0.000 O 
ENDBRANCH   20   21
ENDBRANCH   19   20
ENDBRANCH   18   19
ENDBRANCH   11   13
ENDBRANCH   10   11
ENDBRANCH    9   10
ENDBRANCH    8    9
ENDBRANCH    7    8
ENDBRANCH    6    7
ENDBRANCH    5    6
ENDBRANCH    4    5
ENDBRANCH    3    4
ENDBRANCH    2    3
ENDBRANCH   32    2
ENDBRANCH   36   35
BRANCH   40   41
ATOM     41  C33 UNL A   1      14.678  23.211  -0.841  1.00  0.00    +0.000 C 
ATOM     42  C34 UNL A   1      14.044  22.619  -1.941  1.00  0.00    +0.000 C 
ATOM     43  F1  UNL A   1      12.765  22.225  -1.852  1.00  0.00    +0.000 F 
ATOM     44  C35 UNL A   1      14.729  22.422  -3.136  1.00  0.00    +0.000 C 
ATOM     45  F2  UNL A   1      14.110  21.845  -4.176  1.00  0.00    +0.000 F 
ATOM     46  C36 UNL A   1      16.054  22.820  -3.254  1.00  0.00    +0.000 C 
ATOM     47  F3  UNL A   1      16.710  22.633  -4.407  1.00  0.00    +0.000 F 
ATOM     48  C37 UNL A   1      16.699  23.407  -2.175  1.00  0.00    +0.000 C 
ATOM     49  F4  UNL A   1      17.977  23.792  -2.289  1.00  0.00    +0.000 F 
ATOM     50  C38 UNL A   1      16.018  23.599  -0.975  1.00  0.00    +0.000 C 
ATOM     51  F5  UNL A   1      16.663  24.168   0.054  1.00  0.00    +0.000 F 
ENDBRANCH   40   41
BRANCH   57   58
ATOM     65  C48 UNL A   1      14.690  18.480   6.842  1.00  0.00    +0.000 C 
ATOM     66  F9  UNL A   1      15.697  18.390   7.722  1.00  0.00    +0.000 F 
ATOM     67  C49 UNL A   1      14.379  19.708   6.265  1.00  0.00    +0.000 C 
ATOM     68  F10 UNL A   1      15.098  20.788   6.608  1.00  0.00    +0.000 F 
ATOM     58  C44 UNL A   1      13.331  19.821   5.342  1.00  0.00    +0.000 C 
ATOM     59  C45 UNL A   1      12.604  18.667   5.018  1.00  0.00    +0.000 C 
ATOM     60  F6  UNL A   1      11.581  18.736   4.152  1.00  0.00    +0.000 F 
ATOM     61  C46 UNL A   1      12.912  17.444   5.604  1.00  0.00    +0.000 C 
ATOM     62  F7  UNL A   1      12.191  16.356   5.299  1.00  0.00    +0.000 F 
ATOM     63  C47 UNL A   1      13.956  17.350   6.512  1.00  0.00    +0.000 C 
ATOM     64  F8  UNL A   1      14.248  16.171   7.079  1.00  0.00    +0.000 F 
ENDBRANCH   57   58
BRANCH   72   73
ATOM     73  C53 UNL A   1       9.245  25.107   7.251  1.00  0.00    +0.000 C 
ATOM     74  C54 UNL A   1       9.812  25.601   8.432  1.00  0.00    +0.000 C 
ATOM     75  F11 UNL A   1      11.138  25.791   8.510  1.00  0.00    +0.000 F 
ATOM     76  C55 UNL A   1       9.018  25.886   9.540  1.00  0.00    +0.000 C 
ATOM     77  F12 UNL A   1       9.582  26.347  10.665  1.00  0.00    +0.000 F 
ATOM     78  C56 UNL A   1       7.646  25.691   9.482  1.00  0.00    +0.000 C 
ATOM     79  F13 UNL A   1       6.882  25.972  10.546  1.00  0.00    +0.000 F 
ATOM     80  C57 UNL A   1       7.066  25.201   8.321  1.00  0.00    +0.000 C 
ATOM     81  F14 UNL A   1       5.741  25.014   8.262  1.00  0.00    +0.000 F 
ATOM     82  C58 UNL A   1       7.859  24.905   7.217  1.00  0.00    +0.000 C 
ATOM     83  F15 UNL A   1       7.280  24.430   6.104  1.00  0.00    +0.000 F 
ENDBRANCH   72   73
TORSDOF 18
ENDMDL
MODEL 5
REMARK VINA RESULT:      -9.5      3.363      8.292
ROOT
ATOM    129  H35 UNL A   1      16.466  56.749   2.934  1.00  0.00    +0.000 H 
ATOM    130  H36 UNL A   1      14.956  56.527   4.993  1.00  0.00    +0.000 H 
ATOM     36  C29 UNL A   1      13.930  53.895   5.381  1.00  0.00    +0.000 C 
ATOM     37  C30 UNL A   1      14.876  54.364   4.316  1.00  0.00    +0.000 C 
ATOM     38  N4  UNL A   1      15.432  53.677   3.349  1.00  0.00    +0.000 N 
ATOM     39  C31 UNL A   1      16.198  54.584   2.633  1.00  0.00    +0.000 C 
ATOM     40  C32 UNL A   1      16.982  54.354   1.552  1.00  0.00    +0.000 C 
ATOM     52  C39 UNL A   1      17.188  53.066   0.945  1.00  0.00    +0.000 C 
ATOM     53  C40 UNL A   1      18.074  52.716  -0.060  1.00  0.00    +0.000 C 
ATOM     54  C41 UNL A   1      17.884  51.361  -0.358  1.00  0.00    +0.000 C 
ATOM     55  C42 UNL A   1      16.889  50.868   0.469  1.00  0.00    +0.000 C 
ATOM     56  N5  UNL A   1      16.485  51.919   1.276  1.00  0.00    +0.000 N 
ATOM     57  C43 UNL A   1      16.330  49.544   0.516  1.00  0.00    +0.000 C 
ATOM     69  C50 UNL A   1      15.461  49.104   1.456  1.00  0.00    +0.000 C 
ATOM     70  N6  UNL A   1      14.910  49.801   2.520  1.00  0.00    +0.000 N 
ATOM     71  C51 UNL A   1      14.126  48.954   3.135  1.00  0.00    +0.000 C 
ATOM     72  C52 UNL A   1      13.269  49.172   4.345  1.00  0.00    +0.000 C 
ATOM     84  C59 UNL A   1      13.221  50.387   4.921  1.00  0.00    +0.000 C 
ATOM     85  C60 UNL A   1      12.413  50.735   6.086  1.00  0.00    +0.000 C 
ATOM     86  C61 UNL A   1      12.580  52.039   6.359  1.00  0.00    +0.000 C 
ATOM     87  C62 UNL A   1      13.527  52.610   5.401  1.00  0.00    +0.000 C 
ATOM     88  N7  UNL A   1      13.857  51.556   4.587  1.00  0.00    +0.000 N 
ATOM     89  C63 UNL A   1      14.091  47.613   2.533  1.00  0.00    +0.000 C 
ATOM     90  C64 UNL A   1      14.929  47.757   1.514  1.00  0.00    +0.000 C 
ATOM     91  C65 UNL A   1      16.029  55.875   3.266  1.00  0.00    +0.000 C 
ATOM     92  C66 UNL A   1      15.239  55.788   4.329  1.00  0.00    +0.000 C 
ATOM    121  H27 UNL A   1      18.757  53.345  -0.511  1.00  0.00    +0.000 H 
ATOM    122  H28 UNL A   1      18.398  50.821  -1.073  1.00  0.00    +0.000 H 
ATOM    123  H29 UNL A   1      15.800  51.860   1.981  1.00  0.00    +0.000 H 
ATOM    124  H30 UNL A   1      11.811  50.085   6.615  1.00  0.00    +0.000 H 
ATOM    125  H31 UNL A   1      12.115  52.556   7.122  1.00  0.00    +0.000 H 
ATOM    126  H32 UNL A   1      14.490  51.630   3.837  1.00  0.00    +0.000 H 
ATOM    127  H33 UNL A   1      13.557  46.780   2.825  1.00  0.00    +0.000 H 
ATOM    128  H34 UNL A   1      15.171  47.006   0.850  1.00  0.00    +0.000 H 
ENDROOT
BRANCH   36   35
ATOM     33  C26 UNL A   1      13.461  55.715   8.668  1.00  0.00    +0.000 C 
ATOM     34  C27 UNL A   1      14.025  54.933   7.657  1.00  0.00    +0.000 C 
ATOM     35  C28 UNL A   1      13.399  54.827   6.405  1.00  0.00    +0.000 C 
ATOM    132  H38 UNL A   1      10.814  56.892   6.982  1.00  0.00    +0.000 H 
ATOM    131  H37 UNL A   1      11.743  55.467   5.255  1.00  0.00    +0.000 H 
ATOM    119  H25 UNL A   1      13.901  55.747   9.600  1.00  0.00    +0.000 H 
ATOM    120  H26 UNL A   1      14.908  54.429   7.831  1.00  0.00    +0.000 H 
ATOM     93  C67 UNL A   1      12.216  55.542   6.169  1.00  0.00    +0.000 C 
ATOM     94  C68 UNL A   1      11.677  56.357   7.167  1.00  0.00    +0.000 C 
ATOM     32  C25 UNL A   1      12.300  56.454   8.419  1.00  0.00    +0.000 C 
BRANCH   32    2
ATOM      1  O1  UNL A   1      11.752  58.490   9.440  1.00  0.00    +0.000 O 
ATOM      2  C1  UNL A   1      11.632  57.267   9.466  1.00  0.00    +0.000 C 
BRANCH    2    3
ATOM      3  N1  UNL A   1      10.895  56.689  10.468  1.00  0.00    +0.000 N 
ATOM     95  H1  UNL A   1      10.535  55.798  10.255  1.00  0.00    +0.000 H 
BRANCH    3    4
ATOM     97  H3  UNL A   1      11.087  58.105  11.928  1.00  0.00    +0.000 H 
ATOM      4  C2  UNL A   1      10.563  57.183  11.791  1.00  0.00    +0.000 C 
ATOM     96  H2  UNL A   1       9.502  57.314  11.849  1.00  0.00    +0.000 H 
BRANCH    4    5
ATOM     98  H4  UNL A   1      10.123  55.950  13.448  1.00  0.00    +0.000 H 
ATOM     99  H5  UNL A   1      11.715  56.788  13.480  1.00  0.00    +0.000 H 
ATOM      5  C3  UNL A   1      10.998  56.239  12.905  1.00  0.00    +0.000 C 
BRANCH    5    6
ATOM    100  H6  UNL A   1      12.124  55.131  11.493  1.00  0.00    +0.000 H 
ATOM    101  H7  UNL A   1      10.980  54.186  12.504  1.00  0.00    +0.000 H 
ATOM      6  C4  UNL A   1      11.717  54.961  12.468  1.00  0.00    +0.000 C 
BRANCH    6    7
ATOM    103  H9  UNL A   1      13.751  54.620  12.801  1.00  0.00    +0.000 H 
ATOM    102  H8  UNL A   1      12.820  55.074  14.272  1.00  0.00    +0.000 H 
ATOM      7  C5  UNL A   1      12.857  54.492  13.376  1.00  0.00    +0.000 C 
BRANCH    7    8
ATOM    105  H11 UNL A   1      13.865  52.744  13.932  1.00  0.00    +0.000 H 
ATOM    104  H10 UNL A   1      12.226  52.917  14.651  1.00  0.00    +0.000 H 
ATOM      8  C6  UNL A   1      12.840  53.011  13.778  1.00  0.00    +0.000 C 
BRANCH    8    9
ATOM      9  C7  UNL A   1      12.314  52.031  12.729  1.00  0.00    +0.000 C 
ATOM    106  H12 UNL A   1      12.813  52.224  11.803  1.00  0.00    +0.000 H 
ATOM    107  H13 UNL A   1      11.257  52.181  12.653  1.00  0.00    +0.000 H 
BRANCH    9   10
ATOM     10  N2  UNL A   1      12.531  50.641  13.091  1.00  0.00    +0.000 N 
ATOM    108  H14 UNL A   1      13.469  50.346  13.141  1.00  0.00    +0.000 H 
BRANCH   10   11
ATOM     11  C8  UNL A   1      11.581  49.691  13.371  1.00  0.00    +0.000 C 
ATOM     12  O2  UNL A   1      10.385  49.972  13.320  1.00  0.00    +0.000 O 
BRANCH   11   13
ATOM     13  C9  UNL A   1      11.966  48.309  13.692  1.00  0.00    +0.000 C 
ATOM     14  C10 UNL A   1      11.917  47.917  15.037  1.00  0.00    +0.000 C 
ATOM    109  H15 UNL A   1      11.602  48.585  15.757  1.00  0.00    +0.000 H 
ATOM     15  C11 UNL A   1      12.295  46.624  15.406  1.00  0.00    +0.000 C 
ATOM     17  C13 UNL A   1      12.806  46.130  13.103  1.00  0.00    +0.000 C 
ATOM     18  C14 UNL A   1      12.430  47.424  12.716  1.00  0.00    +0.000 C 
ATOM    110  H16 UNL A   1      12.244  46.332  16.394  1.00  0.00    +0.000 H 
ATOM    112  H18 UNL A   1      13.135  45.462  12.389  1.00  0.00    +0.000 H 
ATOM     16  C12 UNL A   1      12.742  45.729  14.437  1.00  0.00    +0.000 C 
ATOM    111  H17 UNL A   1      13.023  44.774  14.706  1.00  0.00    +0.000 H 
BRANCH   18   19
ATOM     19  N3  UNL A   1      12.413  47.671  11.345  1.00  0.00    +0.000 N 
BRANCH   19   20
ATOM    113  H19 UNL A   1      13.634  46.199  10.630  1.00  0.00    +0.000 H 
ATOM     20  C15 UNL A   1      13.317  47.179  10.560  1.00  0.00    +0.000 C 
BRANCH   20   21
ATOM     26  C20 UNL A   1      16.619  51.533  11.718  1.00  0.00    +0.000 C 
ATOM    117  H23 UNL A   1      18.376  50.414  12.086  1.00  0.00    +0.000 H 
ATOM    114  H20 UNL A   1      12.158  49.237   9.511  1.00  0.00    +0.000 H 
ATOM    115  H21 UNL A   1      14.787  52.407  11.112  1.00  0.00    +0.000 H 
ATOM    116  H22 UNL A   1      16.889  52.315  12.335  1.00  0.00    +0.000 H 
ATOM     21  C16 UNL A   1      13.867  48.114   9.557  1.00  0.00    +0.000 C 
ATOM     22  C17 UNL A   1      13.187  49.273   9.551  1.00  0.00    +0.000 C 
ATOM     23  O3  UNL A   1      13.803  50.517   9.598  1.00  0.00    +0.000 O 
ATOM     24  C18 UNL A   1      15.034  50.511  10.225  1.00  0.00    +0.000 C 
ATOM    118  H24 UNL A   1      17.738  48.548  10.656  1.00  0.00    +0.000 H 
ATOM     25  C19 UNL A   1      15.402  51.583  11.027  1.00  0.00    +0.000 C 
ATOM     27  C21 UNL A   1      17.475  50.431  11.583  1.00  0.00    +0.000 C 
ATOM     28  C22 UNL A   1      17.111  49.359  10.770  1.00  0.00    +0.000 C 
ATOM     29  C23 UNL A   1      15.882  49.407  10.114  1.00  0.00    +0.000 C 
ATOM     30  C24 UNL A   1      15.338  48.238   9.418  1.00  0.00    +0.000 C 
ATOM     31  O4  UNL A   1      16.036  47.406   8.860  1.00  0.00    +0.000 O 
ENDBRANCH   20   21
ENDBRANCH   19   20
ENDBRANCH   18   19
ENDBRANCH   11   13
ENDBRANCH   10   11
ENDBRANCH    9   10
ENDBRANCH    8    9
ENDBRANCH    7    8
ENDBRANCH    6    7
ENDBRANCH    5    6
ENDBRANCH    4    5
ENDBRANCH    3    4
ENDBRANCH    2    3
ENDBRANCH   32    2
ENDBRANCH   36   35
BRANCH   40   41
ATOM     41  C33 UNL A   1      17.691  55.525   0.953  1.00  0.00    +0.000 C 
ATOM     42  C34 UNL A   1      18.971  55.897   1.383  1.00  0.00    +0.000 C 
ATOM     43  F1  UNL A   1      19.563  55.238   2.391  1.00  0.00    +0.000 F 
ATOM     44  C35 UNL A   1      19.645  56.955   0.782  1.00  0.00    +0.000 C 
ATOM     45  F2  UNL A   1      20.865  57.304   1.212  1.00  0.00    +0.000 F 
ATOM     46  C36 UNL A   1      19.054  57.653  -0.263  1.00  0.00    +0.000 C 
ATOM     47  F3  UNL A   1      19.707  58.670  -0.844  1.00  0.00    +0.000 F 
ATOM     48  C37 UNL A   1      17.786  57.300  -0.702  1.00  0.00    +0.000 C 
ATOM     49  F4  UNL A   1      17.216  57.974  -1.710  1.00  0.00    +0.000 F 
ATOM     50  C38 UNL A   1      17.107  56.246  -0.097  1.00  0.00    +0.000 C 
ATOM     51  F5  UNL A   1      15.882  55.925  -0.538  1.00  0.00    +0.000 F 
ENDBRANCH   40   41
BRANCH   57   58
ATOM     65  C48 UNL A   1      16.275  47.365  -2.597  1.00  0.00    +0.000 C 
ATOM     66  F9  UNL A   1      15.460  47.112  -3.630  1.00  0.00    +0.000 F 
ATOM     67  C49 UNL A   1      15.901  48.292  -1.628  1.00  0.00    +0.000 C 
ATOM     68  F10 UNL A   1      14.723  48.922  -1.751  1.00  0.00    +0.000 F 
ATOM     58  C44 UNL A   1      16.739  48.568  -0.539  1.00  0.00    +0.000 C 
ATOM     59  C45 UNL A   1      17.964  47.891  -0.455  1.00  0.00    +0.000 C 
ATOM     60  F6  UNL A   1      18.803  48.140   0.562  1.00  0.00    +0.000 F 
ATOM     61  C46 UNL A   1      18.338  46.973  -1.431  1.00  0.00    +0.000 C 
ATOM     62  F7  UNL A   1      19.522  46.352  -1.345  1.00  0.00    +0.000 F 
ATOM     63  C47 UNL A   1      17.493  46.708  -2.499  1.00  0.00    +0.000 C 
ATOM     64  F8  UNL A   1      17.858  45.827  -3.440  1.00  0.00    +0.000 F 
ENDBRANCH   57   58
BRANCH   72   73
ATOM     73  C53 UNL A   1      12.461  48.071   4.914  1.00  0.00    +0.000 C 
ATOM     74  C54 UNL A   1      12.956  47.288   5.964  1.00  0.00    +0.000 C 
ATOM     75  F11 UNL A   1      14.194  47.500   6.433  1.00  0.00    +0.000 F 
ATOM     76  C55 UNL A   1      12.181  46.274   6.523  1.00  0.00    +0.000 C 
ATOM     77  F12 UNL A   1      12.677  45.528   7.520  1.00  0.00    +0.000 F 
ATOM     78  C56 UNL A   1      10.900  46.035   6.049  1.00  0.00    +0.000 C 
ATOM     79  F13 UNL A   1      10.153  45.064   6.594  1.00  0.00    +0.000 F 
ATOM     80  C57 UNL A   1      10.393  46.800   5.009  1.00  0.00    +0.000 C 
ATOM     81  F14 UNL A   1       9.155  46.572   4.550  1.00  0.00    +0.000 F 
ATOM     82  C58 UNL A   1      11.170  47.805   4.441  1.00  0.00    +0.000 C 
ATOM     83  F15 UNL A   1      10.663  48.532   3.433  1.00  0.00    +0.000 F 
ENDBRANCH   72   73
TORSDOF 18
ENDMDL
MODEL 6
REMARK VINA RESULT:      -9.5      1.453      3.896
ROOT
ATOM    129  H35 UNL A   1      15.327  47.074   0.360  1.00  0.00    +0.000 H 
ATOM    130  H36 UNL A   1      13.525  47.120   2.182  1.00  0.00    +0.000 H 
ATOM     36  C29 UNL A   1      13.150  49.690   3.358  1.00  0.00    +0.000 C 
ATOM     37  C30 UNL A   1      14.078  49.318   2.239  1.00  0.00    +0.000 C 
ATOM     38  N4  UNL A   1      14.901  50.082   1.566  1.00  0.00    +0.000 N 
ATOM     39  C31 UNL A   1      15.539  49.246   0.662  1.00  0.00    +0.000 C 
ATOM     40  C32 UNL A   1      16.467  49.568  -0.271  1.00  0.00    +0.000 C 
ATOM     52  C39 UNL A   1      16.957  50.898  -0.519  1.00  0.00    +0.000 C 
ATOM     53  C40 UNL A   1      17.786  51.337  -1.537  1.00  0.00    +0.000 C 
ATOM     54  C41 UNL A   1      18.031  52.703  -1.343  1.00  0.00    +0.000 C 
ATOM     55  C42 UNL A   1      17.344  53.112  -0.213  1.00  0.00    +0.000 C 
ATOM     56  N5  UNL A   1      16.675  52.000   0.271  1.00  0.00    +0.000 N 
ATOM     57  C43 UNL A   1      17.309  54.413   0.398  1.00  0.00    +0.000 C 
ATOM     69  C50 UNL A   1      16.495  54.766   1.420  1.00  0.00    +0.000 C 
ATOM     70  N6  UNL A   1      15.575  53.986   2.103  1.00  0.00    +0.000 N 
ATOM     71  C51 UNL A   1      15.043  54.769   3.007  1.00  0.00    +0.000 C 
ATOM     72  C52 UNL A   1      13.999  54.448   4.033  1.00  0.00    +0.000 C 
ATOM     84  C59 UNL A   1      13.510  53.198   4.124  1.00  0.00    +0.000 C 
ATOM     85  C60 UNL A   1      12.511  52.752   5.089  1.00  0.00    +0.000 C 
ATOM     86  C61 UNL A   1      12.292  51.438   4.917  1.00  0.00    +0.000 C 
ATOM     87  C62 UNL A   1      13.119  50.959   3.810  1.00  0.00    +0.000 C 
ATOM     88  N7  UNL A   1      13.807  52.072   3.397  1.00  0.00    +0.000 N 
ATOM     89  C63 UNL A   1      15.563  56.144   2.999  1.00  0.00    +0.000 C 
ATOM     90  C64 UNL A   1      16.442  56.090   2.007  1.00  0.00    +0.000 C 
ATOM     91  C65 UNL A   1      15.018  47.912   0.877  1.00  0.00    +0.000 C 
ATOM     92  C66 UNL A   1      14.090  47.907   1.827  1.00  0.00    +0.000 C 
ATOM    121  H27 UNL A   1      18.160  50.759  -2.306  1.00  0.00    +0.000 H 
ATOM    122  H28 UNL A   1      18.622  53.302  -1.942  1.00  0.00    +0.000 H 
ATOM    123  H29 UNL A   1      16.085  51.993   1.060  1.00  0.00    +0.000 H 
ATOM    124  H30 UNL A   1      12.047  53.349   5.792  1.00  0.00    +0.000 H 
ATOM    125  H31 UNL A   1      11.644  50.861   5.475  1.00  0.00    +0.000 H 
ATOM    126  H32 UNL A   1      14.451  52.065   2.652  1.00  0.00    +0.000 H 
ATOM    127  H33 UNL A   1      15.311  56.940   3.605  1.00  0.00    +0.000 H 
ATOM    128  H34 UNL A   1      17.015  56.889   1.693  1.00  0.00    +0.000 H 
ENDROOT
BRANCH   36   35
ATOM     33  C26 UNL A   1      10.093  47.649   4.264  1.00  0.00    +0.000 C 
ATOM     34  C27 UNL A   1      10.954  48.511   3.580  1.00  0.00    +0.000 C 
ATOM     35  C28 UNL A   1      12.281  48.679   4.006  1.00  0.00    +0.000 C 
ATOM    132  H38 UNL A   1      12.243  46.507   6.567  1.00  0.00    +0.000 H 
ATOM    131  H37 UNL A   1      13.714  48.067   5.435  1.00  0.00    +0.000 H 
ATOM    119  H25 UNL A   1       9.105  47.571   3.974  1.00  0.00    +0.000 H 
ATOM    120  H26 UNL A   1      10.612  49.028   2.755  1.00  0.00    +0.000 H 
ATOM     93  C67 UNL A   1      12.742  47.946   5.108  1.00  0.00    +0.000 C 
ATOM     94  C68 UNL A   1      11.892  47.053   5.765  1.00  0.00    +0.000 C 
ATOM     32  C25 UNL A   1      10.565  46.894   5.341  1.00  0.00    +0.000 C 
BRANCH   32    2
ATOM      1  O1  UNL A   1       9.936  44.794   6.165  1.00  0.00    +0.000 O 
ATOM      2  C1  UNL A   1       9.687  45.997   6.133  1.00  0.00    +0.000 C 
BRANCH    2    3
ATOM      3  N1  UNL A   1       8.599  46.473   6.819  1.00  0.00    +0.000 N 
ATOM     95  H1  UNL A   1       7.793  45.912   6.757  1.00  0.00    +0.000 H 
BRANCH    3    4
ATOM     97  H3  UNL A   1       9.316  48.275   7.462  1.00  0.00    +0.000 H 
ATOM      4  C2  UNL A   1       8.448  47.671   7.622  1.00  0.00    +0.000 C 
ATOM     96  H2  UNL A   1       7.552  48.172   7.322  1.00  0.00    +0.000 H 
BRANCH    4    5
ATOM     98  H4  UNL A   1       7.499  46.775   9.283  1.00  0.00    +0.000 H 
ATOM     99  H5  UNL A   1       8.334  48.339   9.592  1.00  0.00    +0.000 H 
ATOM      5  C3  UNL A   1       8.365  47.381   9.116  1.00  0.00    +0.000 C 
BRANCH    5    6
ATOM    100  H6  UNL A   1       9.514  45.630   9.439  1.00  0.00    +0.000 H 
ATOM    101  H7  UNL A   1       9.483  46.812  10.790  1.00  0.00    +0.000 H 
ATOM      6  C4  UNL A   1       9.563  46.657   9.734  1.00  0.00    +0.000 C 
BRANCH    6    7
ATOM    103  H9  UNL A   1      10.820  47.600   8.358  1.00  0.00    +0.000 H 
ATOM    102  H8  UNL A   1      11.239  47.904  10.081  1.00  0.00    +0.000 H 
ATOM      7  C5  UNL A   1      10.942  47.192   9.340  1.00  0.00    +0.000 C 
BRANCH    7    8
ATOM    105  H11 UNL A   1      11.839  45.398   9.937  1.00  0.00    +0.000 H 
ATOM    104  H10 UNL A   1      12.071  45.803   8.201  1.00  0.00    +0.000 H 
ATOM      8  C6  UNL A   1      12.064  46.153   9.213  1.00  0.00    +0.000 C 
BRANCH    8    9
ATOM      9  C7  UNL A   1      13.475  46.638   9.550  1.00  0.00    +0.000 C 
ATOM    106  H12 UNL A   1      13.998  45.846  10.044  1.00  0.00    +0.000 H 
ATOM    107  H13 UNL A   1      13.376  47.502  10.172  1.00  0.00    +0.000 H 
BRANCH    9   10
ATOM     10  N2  UNL A   1      14.235  47.032   8.376  1.00  0.00    +0.000 N 
ATOM    108  H14 UNL A   1      13.825  46.829   7.504  1.00  0.00    +0.000 H 
BRANCH   10   11
ATOM     11  C8  UNL A   1      15.457  47.655   8.341  1.00  0.00    +0.000 C 
ATOM     12  O2  UNL A   1      16.309  47.404   9.190  1.00  0.00    +0.000 O 
BRANCH   11   13
ATOM     13  C9  UNL A   1      15.793  48.600   7.265  1.00  0.00    +0.000 C 
ATOM     14  C10 UNL A   1      16.085  48.068   6.002  1.00  0.00    +0.000 C 
ATOM    109  H15 UNL A   1      16.042  47.049   5.849  1.00  0.00    +0.000 H 
ATOM     15  C11 UNL A   1      16.434  48.916   4.947  1.00  0.00    +0.000 C 
ATOM     17  C13 UNL A   1      16.239  50.811   6.422  1.00  0.00    +0.000 C 
ATOM     18  C14 UNL A   1      15.887  49.975   7.491  1.00  0.00    +0.000 C 
ATOM    110  H16 UNL A   1      16.634  48.524   4.014  1.00  0.00    +0.000 H 
ATOM    112  H18 UNL A   1      16.296  51.830   6.572  1.00  0.00    +0.000 H 
ATOM     16  C12 UNL A   1      16.513  50.289   5.158  1.00  0.00    +0.000 C 
ATOM    111  H17 UNL A   1      16.772  50.918   4.382  1.00  0.00    +0.000 H 
BRANCH   18   19
ATOM     19  N3  UNL A   1      15.511  50.616   8.669  1.00  0.00    +0.000 N 
BRANCH   19   20
ATOM    113  H19 UNL A   1      17.324  51.240   9.372  1.00  0.00    +0.000 H 
ATOM     20  C15 UNL A   1      16.376  50.895   9.591  1.00  0.00    +0.000 C 
BRANCH   20   21
ATOM     26  C20 UNL A   1      12.697  54.129  12.275  1.00  0.00    +0.000 C 
ATOM    117  H23 UNL A   1      10.975  53.420  11.273  1.00  0.00    +0.000 H 
ATOM    114  H20 UNL A   1      17.548  51.626  11.776  1.00  0.00    +0.000 H 
ATOM    115  H21 UNL A   1      14.541  54.512  13.245  1.00  0.00    +0.000 H 
ATOM    116  H22 UNL A   1      12.299  55.061  12.475  1.00  0.00    +0.000 H 
ATOM     21  C16 UNL A   1      15.917  50.682  10.980  1.00  0.00    +0.000 C 
ATOM     22  C17 UNL A   1      16.522  51.532  11.826  1.00  0.00    +0.000 C 
ATOM     23  O3  UNL A   1      15.834  52.292  12.763  1.00  0.00    +0.000 O 
ATOM     24  C18 UNL A   1      14.531  52.579  12.406  1.00  0.00    +0.000 C 
ATOM    118  H24 UNL A   1      11.913  51.229  10.771  1.00  0.00    +0.000 H 
ATOM     25  C19 UNL A   1      13.993  53.822  12.708  1.00  0.00    +0.000 C 
ATOM     27  C21 UNL A   1      11.934  53.186  11.572  1.00  0.00    +0.000 C 
ATOM     28  C22 UNL A   1      12.469  51.933  11.279  1.00  0.00    +0.000 C 
ATOM     29  C23 UNL A   1      13.772  51.653  11.686  1.00  0.00    +0.000 C 
ATOM     30  C24 UNL A   1      14.476  50.449  11.234  1.00  0.00    +0.000 C 
ATOM     31  O4  UNL A   1      13.911  49.391  11.004  1.00  0.00    +0.000 O 
ENDBRANCH   20   21
ENDBRANCH   19   20
ENDBRANCH   18   19
ENDBRANCH   11   13
ENDBRANCH   10   11
ENDBRANCH    9   10
ENDBRANCH    8    9
ENDBRANCH    7    8
ENDBRANCH    6    7
ENDBRANCH    5    6
ENDBRANCH    4    5
ENDBRANCH    3    4
ENDBRANCH    2    3
ENDBRANCH   32    2
ENDBRANCH   36   35
BRANCH   40   41
ATOM     41  C33 UNL A   1      17.013  48.458  -1.110  1.00  0.00    +0.000 C 
ATOM     42  C34 UNL A   1      18.149  47.740  -0.714  1.00  0.00    +0.000 C 
ATOM     43  F1  UNL A   1      18.806  48.079   0.405  1.00  0.00    +0.000 F 
ATOM     44  C35 UNL A   1      18.617  46.674  -1.475  1.00  0.00    +0.000 C 
ATOM     45  F2  UNL A   1      19.711  46.003  -1.087  1.00  0.00    +0.000 F 
ATOM     46  C36 UNL A   1      17.955  46.303  -2.638  1.00  0.00    +0.000 C 
ATOM     47  F3  UNL A   1      18.406  45.272  -3.367  1.00  0.00    +0.000 F 
ATOM     48  C37 UNL A   1      16.829  47.003  -3.046  1.00  0.00    +0.000 C 
ATOM     49  F4  UNL A   1      16.190  46.645  -4.168  1.00  0.00    +0.000 F 
ATOM     50  C38 UNL A   1      16.362  48.075  -2.291  1.00  0.00    +0.000 C 
ATOM     51  F5  UNL A   1      15.273  48.737  -2.707  1.00  0.00    +0.000 F 
ENDBRANCH   40   41
BRANCH   57   58
ATOM     65  C48 UNL A   1      20.216  56.841   0.090  1.00  0.00    +0.000 C 
ATOM     66  F9  UNL A   1      21.308  57.191   0.783  1.00  0.00    +0.000 F 
ATOM     67  C49 UNL A   1      19.375  55.844   0.576  1.00  0.00    +0.000 C 
ATOM     68  F10 UNL A   1      19.681  55.244   1.737  1.00  0.00    +0.000 F 
ATOM     58  C44 UNL A   1      18.227  55.466  -0.133  1.00  0.00    +0.000 C 
ATOM     59  C45 UNL A   1      17.950  56.116  -1.344  1.00  0.00    +0.000 C 
ATOM     60  F6  UNL A   1      16.870  55.771  -2.062  1.00  0.00    +0.000 F 
ATOM     61  C46 UNL A   1      18.798  57.105  -1.831  1.00  0.00    +0.000 C 
ATOM     62  F7  UNL A   1      18.529  57.699  -3.001  1.00  0.00    +0.000 F 
ATOM     63  C47 UNL A   1      19.928  57.469  -1.113  1.00  0.00    +0.000 C 
ATOM     64  F8  UNL A   1      20.746  58.420  -1.586  1.00  0.00    +0.000 F 
ENDBRANCH   57   58
BRANCH   72   73
ATOM     73  C53 UNL A   1      13.502  55.487   4.962  1.00  0.00    +0.000 C 
ATOM     74  C54 UNL A   1      14.074  55.646   6.230  1.00  0.00    +0.000 C 
ATOM     75  F11 UNL A   1      15.051  54.821   6.633  1.00  0.00    +0.000 F 
ATOM     76  C55 UNL A   1      13.631  56.648   7.091  1.00  0.00    +0.000 C 
ATOM     77  F12 UNL A   1      14.184  56.777   8.305  1.00  0.00    +0.000 F 
ATOM     78  C56 UNL A   1      12.618  57.508   6.695  1.00  0.00    +0.000 C 
ATOM     79  F13 UNL A   1      12.198  58.476   7.522  1.00  0.00    +0.000 F 
ATOM     80  C57 UNL A   1      12.038  57.365   5.444  1.00  0.00    +0.000 C 
ATOM     81  F14 UNL A   1      11.060  58.196   5.058  1.00  0.00    +0.000 F 
ATOM     82  C58 UNL A   1      12.471  56.358   4.586  1.00  0.00    +0.000 C 
ATOM     83  F15 UNL A   1      11.896  56.233   3.381  1.00  0.00    +0.000 F 
ENDBRANCH   72   73
TORSDOF 18
ENDMDL
MODEL 7
REMARK VINA RESULT:      -9.4      3.321      8.628
ROOT
ATOM    129  H35 UNL A   1      16.440  56.753   2.821  1.00  0.00    +0.000 H 
ATOM    130  H36 UNL A   1      14.915  56.507   4.866  1.00  0.00    +0.000 H 
ATOM     36  C29 UNL A   1      13.926  53.860   5.244  1.00  0.00    +0.000 C 
ATOM     37  C30 UNL A   1      14.874  54.344   4.188  1.00  0.00    +0.000 C 
ATOM     38  N4  UNL A   1      15.449  53.666   3.226  1.00  0.00    +0.000 N 
ATOM     39  C31 UNL A   1      16.208  54.584   2.517  1.00  0.00    +0.000 C 
ATOM     40  C32 UNL A   1      17.005  54.366   1.443  1.00  0.00    +0.000 C 
ATOM     52  C39 UNL A   1      17.236  53.082   0.837  1.00  0.00    +0.000 C 
ATOM     53  C40 UNL A   1      18.136  52.746  -0.159  1.00  0.00    +0.000 C 
ATOM     54  C41 UNL A   1      17.969  51.388  -0.460  1.00  0.00    +0.000 C 
ATOM     55  C42 UNL A   1      16.975  50.880   0.358  1.00  0.00    +0.000 C 
ATOM     56  N5  UNL A   1      16.548  51.924   1.162  1.00  0.00    +0.000 N 
ATOM     57  C43 UNL A   1      16.435  49.548   0.400  1.00  0.00    +0.000 C 
ATOM     69  C50 UNL A   1      15.564  49.094   1.331  1.00  0.00    +0.000 C 
ATOM     70  N6  UNL A   1      14.993  49.783   2.390  1.00  0.00    +0.000 N 
ATOM     71  C51 UNL A   1      14.216  48.923   2.998  1.00  0.00    +0.000 C 
ATOM     72  C52 UNL A   1      13.345  49.128   4.201  1.00  0.00    +0.000 C 
ATOM     84  C59 UNL A   1      13.273  50.342   4.777  1.00  0.00    +0.000 C 
ATOM     85  C60 UNL A   1      12.450  50.677   5.934  1.00  0.00    +0.000 C 
ATOM     86  C61 UNL A   1      12.594  51.984   6.209  1.00  0.00    +0.000 C 
ATOM     87  C62 UNL A   1      13.541  52.569   5.260  1.00  0.00    +0.000 C 
ATOM     88  N7  UNL A   1      13.895  51.520   4.449  1.00  0.00    +0.000 N 
ATOM     89  C63 UNL A   1      14.207  47.582   2.395  1.00  0.00    +0.000 C 
ATOM     90  C64 UNL A   1      15.052  47.739   1.385  1.00  0.00    +0.000 C 
ATOM     91  C65 UNL A   1      16.014  55.873   3.149  1.00  0.00    +0.000 C 
ATOM     92  C66 UNL A   1      15.216  55.773   4.205  1.00  0.00    +0.000 C 
ATOM    121  H27 UNL A   1      18.813  53.385  -0.604  1.00  0.00    +0.000 H 
ATOM    122  H28 UNL A   1      18.498  50.857  -1.170  1.00  0.00    +0.000 H 
ATOM    123  H29 UNL A   1      15.857  51.855   1.861  1.00  0.00    +0.000 H 
ATOM    124  H30 UNL A   1      11.853  50.018   6.457  1.00  0.00    +0.000 H 
ATOM    125  H31 UNL A   1      12.115  52.493   6.968  1.00  0.00    +0.000 H 
ATOM    126  H32 UNL A   1      14.534  51.604   3.704  1.00  0.00    +0.000 H 
ATOM    127  H33 UNL A   1      13.682  46.741   2.682  1.00  0.00    +0.000 H 
ATOM    128  H34 UNL A   1      15.312  46.992   0.722  1.00  0.00    +0.000 H 
ENDROOT
BRANCH   36   35
ATOM     33  C26 UNL A   1      11.694  56.414   6.926  1.00  0.00    +0.000 C 
ATOM     34  C27 UNL A   1      12.160  55.452   6.027  1.00  0.00    +0.000 C 
ATOM     35  C28 UNL A   1      13.371  54.783   6.263  1.00  0.00    +0.000 C 
ATOM    132  H38 UNL A   1      14.134  56.197   9.212  1.00  0.00    +0.000 H 
ATOM    131  H37 UNL A   1      14.989  54.590   7.612  1.00  0.00    +0.000 H 
ATOM    119  H25 UNL A   1      10.828  56.936   6.718  1.00  0.00    +0.000 H 
ATOM    120  H26 UNL A   1      11.610  55.229   5.182  1.00  0.00    +0.000 H 
ATOM     93  C67 UNL A   1      14.094  55.070   7.430  1.00  0.00    +0.000 C 
ATOM     94  C68 UNL A   1      13.604  56.002   8.349  1.00  0.00    +0.000 C 
ATOM     32  C25 UNL A   1      12.398  56.673   8.105  1.00  0.00    +0.000 C 
BRANCH   32    2
ATOM      1  O1  UNL A   1      12.429  58.852   8.964  1.00  0.00    +0.000 O 
ATOM      2  C1  UNL A   1      11.976  57.715   9.075  1.00  0.00    +0.000 C 
BRANCH    2    3
ATOM      3  N1  UNL A   1      11.103  57.440  10.096  1.00  0.00    +0.000 N 
ATOM     95  H1  UNL A   1      10.399  58.113  10.232  1.00  0.00    +0.000 H 
BRANCH    3    4
ATOM     97  H3  UNL A   1      12.036  55.891  11.048  1.00  0.00    +0.000 H 
ATOM      4  C2  UNL A   1      11.055  56.313  11.009  1.00  0.00    +0.000 C 
ATOM     96  H2  UNL A   1      10.732  56.665  11.967  1.00  0.00    +0.000 H 
BRANCH    4    5
ATOM     98  H4  UNL A   1       9.323  55.676   9.981  1.00  0.00    +0.000 H 
ATOM     99  H5  UNL A   1       9.773  54.730  11.444  1.00  0.00    +0.000 H 
ATOM      5  C3  UNL A   1      10.103  55.215  10.549  1.00  0.00    +0.000 C 
BRANCH    5    6
ATOM    100  H6  UNL A   1      11.400  54.564   9.004  1.00  0.00    +0.000 H 
ATOM    101  H7  UNL A   1       9.887  53.620   9.213  1.00  0.00    +0.000 H 
ATOM      6  C4  UNL A   1      10.713  54.107   9.687  1.00  0.00    +0.000 C 
BRANCH    6    7
ATOM    103  H9  UNL A   1      11.083  53.039  11.443  1.00  0.00    +0.000 H 
ATOM    102  H8  UNL A   1      11.293  52.085   9.932  1.00  0.00    +0.000 H 
ATOM      7  C5  UNL A   1      11.464  53.009  10.443  1.00  0.00    +0.000 C 
BRANCH    7    8
ATOM    105  H11 UNL A   1      13.407  52.234  10.371  1.00  0.00    +0.000 H 
ATOM    104  H10 UNL A   1      13.280  53.964   9.899  1.00  0.00    +0.000 H 
ATOM      8  C6  UNL A   1      12.982  53.193  10.580  1.00  0.00    +0.000 C 
BRANCH    8    9
ATOM      9  C7  UNL A   1      13.493  53.575  11.970  1.00  0.00    +0.000 C 
ATOM    106  H12 UNL A   1      12.834  53.157  12.702  1.00  0.00    +0.000 H 
ATOM    107  H13 UNL A   1      13.520  54.643  12.019  1.00  0.00    +0.000 H 
BRANCH    9   10
ATOM     10  N2  UNL A   1      14.839  53.094  12.232  1.00  0.00    +0.000 N 
ATOM    108  H14 UNL A   1      15.563  53.754  12.137  1.00  0.00    +0.000 H 
BRANCH   10   11
ATOM     11  C8  UNL A   1      15.218  51.826  12.597  1.00  0.00    +0.000 C 
ATOM     12  O2  UNL A   1      15.055  51.435  13.751  1.00  0.00    +0.000 O 
BRANCH   11   13
ATOM     13  C9  UNL A   1      15.782  50.893  11.610  1.00  0.00    +0.000 C 
ATOM     14  C10 UNL A   1      17.140  51.028  11.291  1.00  0.00    +0.000 C 
ATOM    109  H15 UNL A   1      17.709  51.751  11.757  1.00  0.00    +0.000 H 
ATOM     15  C11 UNL A   1      17.725  50.186  10.342  1.00  0.00    +0.000 C 
ATOM     17  C13 UNL A   1      15.597  49.106  10.006  1.00  0.00    +0.000 C 
ATOM     18  C14 UNL A   1      14.994  49.943  10.955  1.00  0.00    +0.000 C 
ATOM    110  H16 UNL A   1      18.728  50.276  10.119  1.00  0.00    +0.000 H 
ATOM    112  H18 UNL A   1      15.029  48.390   9.528  1.00  0.00    +0.000 H 
ATOM     16  C12 UNL A   1      16.952  49.224   9.698  1.00  0.00    +0.000 C 
ATOM    111  H17 UNL A   1      17.380  48.601   8.996  1.00  0.00    +0.000 H 
BRANCH   18   19
ATOM     19  N3  UNL A   1      13.670  49.650  11.275  1.00  0.00    +0.000 N 
BRANCH   19   20
ATOM    113  H19 UNL A   1      12.721  50.042   9.510  1.00  0.00    +0.000 H 
ATOM     20  C15 UNL A   1      12.782  49.450  10.354  1.00  0.00    +0.000 C 
BRANCH   20   21
ATOM     26  C20 UNL A   1      12.657  46.350  14.999  1.00  0.00    +0.000 C 
ATOM    117  H23 UNL A   1      11.700  47.785  16.222  1.00  0.00    +0.000 H 
ATOM    114  H20 UNL A   1      13.046  47.001   9.570  1.00  0.00    +0.000 H 
ATOM    115  H21 UNL A   1      13.421  45.045  13.515  1.00  0.00    +0.000 H 
ATOM    116  H22 UNL A   1      13.145  45.886  15.781  1.00  0.00    +0.000 H 
ATOM     21  C16 UNL A   1      11.862  48.319  10.592  1.00  0.00    +0.000 C 
ATOM     22  C17 UNL A   1      12.486  47.142  10.425  1.00  0.00    +0.000 C 
ATOM     23  O3  UNL A   1      12.417  46.105  11.347  1.00  0.00    +0.000 O 
ATOM     24  C18 UNL A   1      12.195  46.522  12.645  1.00  0.00    +0.000 C 
ATOM    118  H24 UNL A   1      10.566  48.906  14.381  1.00  0.00    +0.000 H 
ATOM     25  C19 UNL A   1      12.830  45.872  13.694  1.00  0.00    +0.000 C 
ATOM     27  C21 UNL A   1      11.830  47.453  15.254  1.00  0.00    +0.000 C 
ATOM     28  C22 UNL A   1      11.184  48.100  14.203  1.00  0.00    +0.000 C 
ATOM     29  C23 UNL A   1      11.391  47.634  12.906  1.00  0.00    +0.000 C 
ATOM     30  C24 UNL A   1      10.922  48.384  11.737  1.00  0.00    +0.000 C 
ATOM     31  O4  UNL A   1       9.908  49.065  11.742  1.00  0.00    +0.000 O 
ENDBRANCH   20   21
ENDBRANCH   19   20
ENDBRANCH   18   19
ENDBRANCH   11   13
ENDBRANCH   10   11
ENDBRANCH    9   10
ENDBRANCH    8    9
ENDBRANCH    7    8
ENDBRANCH    6    7
ENDBRANCH    5    6
ENDBRANCH    4    5
ENDBRANCH    3    4
ENDBRANCH    2    3
ENDBRANCH   32    2
ENDBRANCH   36   35
BRANCH   40   41
ATOM     41  C33 UNL A   1      17.701  55.549   0.851  1.00  0.00    +0.000 C 
ATOM     42  C34 UNL A   1      18.967  55.946   1.301  1.00  0.00    +0.000 C 
ATOM     43  F1  UNL A   1      19.554  55.303   2.322  1.00  0.00    +0.000 F 
ATOM     44  C35 UNL A   1      19.631  57.015   0.706  1.00  0.00    +0.000 C 
ATOM     45  F2  UNL A   1      20.837  57.388   1.156  1.00  0.00    +0.000 F 
ATOM     46  C36 UNL A   1      19.044  57.697  -0.351  1.00  0.00    +0.000 C 
ATOM     47  F3  UNL A   1      19.688  58.724  -0.925  1.00  0.00    +0.000 F 
ATOM     48  C37 UNL A   1      17.792  57.318  -0.810  1.00  0.00    +0.000 C 
ATOM     49  F4  UNL A   1      17.226  57.977  -1.830  1.00  0.00    +0.000 F 
ATOM     50  C38 UNL A   1      17.122  56.254  -0.212  1.00  0.00    +0.000 C 
ATOM     51  F5  UNL A   1      15.911  55.908  -0.672  1.00  0.00    +0.000 F 
ENDBRANCH   40   41
BRANCH   57   58
ATOM     65  C48 UNL A   1      18.466  46.960  -1.502  1.00  0.00    +0.000 C 
ATOM     66  F9  UNL A   1      19.603  46.267  -1.350  1.00  0.00    +0.000 F 
ATOM     67  C49 UNL A   1      18.053  47.844  -0.510  1.00  0.00    +0.000 C 
ATOM     68  F10 UNL A   1      18.806  47.983   0.592  1.00  0.00    +0.000 F 
ATOM     58  C44 UNL A   1      16.868  48.579  -0.652  1.00  0.00    +0.000 C 
ATOM     59  C45 UNL A   1      16.110  48.397  -1.817  1.00  0.00    +0.000 C 
ATOM     60  F6  UNL A   1      14.961  49.069  -1.985  1.00  0.00    +0.000 F 
ATOM     61  C46 UNL A   1      16.522  47.505  -2.803  1.00  0.00    +0.000 C 
ATOM     62  F7  UNL A   1      15.772  47.329  -3.899  1.00  0.00    +0.000 F 
ATOM     63  C47 UNL A   1      17.700  46.790  -2.646  1.00  0.00    +0.000 C 
ATOM     64  F8  UNL A   1      18.092  45.928  -3.595  1.00  0.00    +0.000 F 
ENDBRANCH   57   58
BRANCH   72   73
ATOM     73  C53 UNL A   1      12.549  48.014   4.762  1.00  0.00    +0.000 C 
ATOM     74  C54 UNL A   1      13.016  47.280   5.858  1.00  0.00    +0.000 C 
ATOM     75  F11 UNL A   1      14.221  47.551   6.382  1.00  0.00    +0.000 F 
ATOM     76  C55 UNL A   1      12.251  46.256   6.409  1.00  0.00    +0.000 C 
ATOM     77  F12 UNL A   1      12.721  45.557   7.452  1.00  0.00    +0.000 F 
ATOM     78  C56 UNL A   1      11.005  45.956   5.879  1.00  0.00    +0.000 C 
ATOM     79  F13 UNL A   1      10.266  44.974   6.415  1.00  0.00    +0.000 F 
ATOM     80  C57 UNL A   1      10.525  46.671   4.792  1.00  0.00    +0.000 C 
ATOM     81  F14 UNL A   1       9.321  46.385   4.279  1.00  0.00    +0.000 F 
ATOM     82  C58 UNL A   1      11.294  47.688   4.233  1.00  0.00    +0.000 C 
ATOM     83  F15 UNL A   1      10.813  48.366   3.180  1.00  0.00    +0.000 F 
ENDBRANCH   72   73
TORSDOF 18
ENDMDL
MODEL 8
REMARK VINA RESULT:      -9.4     44.296     51.134
ROOT
ATOM    129  H35 UNL A   1       7.844   4.293  24.420  1.00  0.00    +0.000 H 
ATOM    130  H36 UNL A   1       9.428   2.405  23.715  1.00  0.00    +0.000 H 
ATOM     36  C29 UNL A   1      10.770   2.898  21.249  1.00  0.00    +0.000 C 
ATOM     37  C30 UNL A   1       9.820   3.804  21.974  1.00  0.00    +0.000 C 
ATOM     38  N4  UNL A   1       9.410   5.002  21.641  1.00  0.00    +0.000 N 
ATOM     39  C31 UNL A   1       8.526   5.390  22.635  1.00  0.00    +0.000 C 
ATOM     40  C32 UNL A   1       7.852   6.559  22.752  1.00  0.00    +0.000 C 
ATOM     52  C39 UNL A   1       7.959   7.666  21.839  1.00  0.00    +0.000 C 
ATOM     53  C40 UNL A   1       7.427   8.938  21.957  1.00  0.00    +0.000 C 
ATOM     54  C41 UNL A   1       7.754   9.658  20.801  1.00  0.00    +0.000 C 
ATOM     55  C42 UNL A   1       8.499   8.836  19.972  1.00  0.00    +0.000 C 
ATOM     56  N5  UNL A   1       8.634   7.624  20.630  1.00  0.00    +0.000 N 
ATOM     57  C43 UNL A   1       9.037   9.119  18.669  1.00  0.00    +0.000 C 
ATOM     69  C50 UNL A   1       9.880   8.309  17.987  1.00  0.00    +0.000 C 
ATOM     70  N6  UNL A   1      10.371   7.065  18.353  1.00  0.00    +0.000 N 
ATOM     71  C51 UNL A   1      11.137   6.678  17.366  1.00  0.00    +0.000 C 
ATOM     72  C52 UNL A   1      11.914   5.405  17.221  1.00  0.00    +0.000 C 
ATOM     84  C59 UNL A   1      11.844   4.465  18.180  1.00  0.00    +0.000 C 
ATOM     85  C60 UNL A   1      12.531   3.178  18.150  1.00  0.00    +0.000 C 
ATOM     86  C61 UNL A   1      12.202   2.480  19.249  1.00  0.00    +0.000 C 
ATOM     87  C62 UNL A   1      11.298   3.285  20.071  1.00  0.00    +0.000 C 
ATOM     88  N7  UNL A   1      11.144   4.448  19.361  1.00  0.00    +0.000 N 
ATOM     89  C63 UNL A   1      11.226   7.638  16.256  1.00  0.00    +0.000 C 
ATOM     90  C64 UNL A   1      10.445   8.619  16.689  1.00  0.00    +0.000 C 
ATOM     91  C65 UNL A   1       8.446   4.297  23.582  1.00  0.00    +0.000 C 
ATOM     92  C66 UNL A   1       9.249   3.300  23.231  1.00  0.00    +0.000 C 
ATOM    121  H27 UNL A   1       6.882   9.295  22.758  1.00  0.00    +0.000 H 
ATOM    122  H28 UNL A   1       7.485  10.635  20.600  1.00  0.00    +0.000 H 
ATOM    123  H29 UNL A   1       9.135   6.848  20.289  1.00  0.00    +0.000 H 
ATOM    124  H30 UNL A   1      13.169   2.855  17.405  1.00  0.00    +0.000 H 
ATOM    125  H31 UNL A   1      12.532   1.529  19.476  1.00  0.00    +0.000 H 
ATOM    126  H32 UNL A   1      10.586   5.199  19.667  1.00  0.00    +0.000 H 
ATOM    127  H33 UNL A   1      11.755   7.567  15.373  1.00  0.00    +0.000 H 
ATOM    128  H34 UNL A   1      10.263   9.491  16.168  1.00  0.00    +0.000 H 
ENDROOT
BRANCH   36   35
ATOM     33  C26 UNL A   1      10.527  -0.763  22.184  1.00  0.00    +0.000 C 
ATOM     34  C27 UNL A   1      10.265   0.469  21.579  1.00  0.00    +0.000 C 
ATOM     35  C28 UNL A   1      11.122   1.562  21.785  1.00  0.00    +0.000 C 
ATOM    132  H38 UNL A   1      13.396   0.030  23.725  1.00  0.00    +0.000 H 
ATOM    131  H37 UNL A   1      12.897   2.191  22.747  1.00  0.00    +0.000 H 
ATOM    119  H25 UNL A   1       9.865  -1.545  22.067  1.00  0.00    +0.000 H 
ATOM    120  H26 UNL A   1       9.436   0.577  20.975  1.00  0.00    +0.000 H 
ATOM     93  C67 UNL A   1      12.264   1.394  22.582  1.00  0.00    +0.000 C 
ATOM     94  C68 UNL A   1      12.547   0.150  23.152  1.00  0.00    +0.000 C 
ATOM     32  C25 UNL A   1      11.685  -0.937  22.949  1.00  0.00    +0.000 C 
BRANCH   32    2
ATOM      1  O1  UNL A   1      12.440  -3.153  23.007  1.00  0.00    +0.000 O 
ATOM      2  C1  UNL A   1      11.993  -2.207  23.652  1.00  0.00    +0.000 C 
BRANCH    2    3
ATOM      3  N1  UNL A   1      11.779  -2.358  24.998  1.00  0.00    +0.000 N 
ATOM     95  H1  UNL A   1      10.833  -2.393  25.266  1.00  0.00    +0.000 H 
BRANCH    3    4
ATOM     97  H3  UNL A   1      12.252  -3.033  26.868  1.00  0.00    +0.000 H 
ATOM      4  C2  UNL A   1      12.728  -2.474  26.090  1.00  0.00    +0.000 C 
ATOM     96  H2  UNL A   1      13.607  -2.964  25.727  1.00  0.00    +0.000 H 
BRANCH    4    5
ATOM     98  H4  UNL A   1      13.242  -1.250  27.732  1.00  0.00    +0.000 H 
ATOM     99  H5  UNL A   1      12.352  -0.448  26.390  1.00  0.00    +0.000 H 
ATOM      5  C3  UNL A   1      13.129  -1.126  26.676  1.00  0.00    +0.000 C 
BRANCH    5    6
ATOM    100  H6  UNL A   1      14.425  -0.629  25.075  1.00  0.00    +0.000 H 
ATOM    101  H7  UNL A   1      15.218  -1.029  26.635  1.00  0.00    +0.000 H 
ATOM      6  C4  UNL A   1      14.424  -0.512  26.139  1.00  0.00    +0.000 C 
BRANCH    6    7
ATOM    103  H9  UNL A   1      14.992   1.405  25.534  1.00  0.00    +0.000 H 
ATOM    102  H8  UNL A   1      13.708   1.370  26.794  1.00  0.00    +0.000 H 
ATOM      7  C5  UNL A   1      14.638   0.972  26.447  1.00  0.00    +0.000 C 
BRANCH    7    8
ATOM    105  H11 UNL A   1      15.853   0.399  28.051  1.00  0.00    +0.000 H 
ATOM    104  H10 UNL A   1      16.581   1.641  26.974  1.00  0.00    +0.000 H 
ATOM      8  C6  UNL A   1      15.709   1.301  27.495  1.00  0.00    +0.000 C 
BRANCH    8    9
ATOM      9  C7  UNL A   1      15.339   2.366  28.528  1.00  0.00    +0.000 C 
ATOM    106  H12 UNL A   1      16.042   3.168  28.457  1.00  0.00    +0.000 H 
ATOM    107  H13 UNL A   1      15.360   1.899  29.491  1.00  0.00    +0.000 H 
BRANCH    9   10
ATOM     10  N2  UNL A   1      14.003   2.903  28.336  1.00  0.00    +0.000 N 
ATOM    108  H14 UNL A   1      13.348   2.300  27.915  1.00  0.00    +0.000 H 
BRANCH   10   11
ATOM     11  C8  UNL A   1      13.547   4.152  28.672  1.00  0.00    +0.000 C 
ATOM     12  O2  UNL A   1      13.807   5.122  27.964  1.00  0.00    +0.000 O 
BRANCH   11   13
ATOM     13  C9  UNL A   1      12.700   4.354  29.858  1.00  0.00    +0.000 C 
ATOM     14  C10 UNL A   1      13.343   4.535  31.091  1.00  0.00    +0.000 C 
ATOM    109  H15 UNL A   1      14.373   4.542  31.139  1.00  0.00    +0.000 H 
ATOM     15  C11 UNL A   1      12.591   4.706  32.256  1.00  0.00    +0.000 C 
ATOM     17  C13 UNL A   1      10.567   4.476  30.968  1.00  0.00    +0.000 C 
ATOM     18  C14 UNL A   1      11.306   4.303  29.790  1.00  0.00    +0.000 C 
ATOM    110  H16 UNL A   1      13.065   4.855  33.160  1.00  0.00    +0.000 H 
ATOM    112  H18 UNL A   1       9.536   4.457  30.928  1.00  0.00    +0.000 H 
ATOM     16  C12 UNL A   1      11.201   4.675  32.194  1.00  0.00    +0.000 C 
ATOM    111  H17 UNL A   1      10.642   4.800  33.053  1.00  0.00    +0.000 H 
BRANCH   18   19
ATOM     19  N3  UNL A   1      10.569   4.241  28.609  1.00  0.00    +0.000 N 
BRANCH   19   20
ATOM    113  H19 UNL A   1       9.111   2.951  29.223  1.00  0.00    +0.000 H 
ATOM     20  C15 UNL A   1       9.646   3.349  28.437  1.00  0.00    +0.000 C 
BRANCH   20   21
ATOM     26  C20 UNL A   1       8.114  -1.772  26.815  1.00  0.00    +0.000 C 
ATOM    117  H23 UNL A   1       6.096  -1.627  27.431  1.00  0.00    +0.000 H 
ATOM    114  H20 UNL A   1      11.401   2.613  26.688  1.00  0.00    +0.000 H 
ATOM    115  H21 UNL A   1      10.107  -1.575  26.125  1.00  0.00    +0.000 H 
ATOM    116  H22 UNL A   1       8.160  -2.797  26.920  1.00  0.00    +0.000 H 
ATOM     21  C16 UNL A   1       9.413   2.939  27.036  1.00  0.00    +0.000 C 
ATOM     22  C17 UNL A   1      10.451   2.235  26.557  1.00  0.00    +0.000 C 
ATOM     23  O3  UNL A   1      10.308   1.021  25.897  1.00  0.00    +0.000 O 
ATOM     24  C18 UNL A   1       9.180   0.312  26.262  1.00  0.00    +0.000 C 
ATOM    118  H24 UNL A   1       5.984   0.796  27.213  1.00  0.00    +0.000 H 
ATOM     25  C19 UNL A   1       9.241  -1.070  26.371  1.00  0.00    +0.000 C 
ATOM     27  C21 UNL A   1       6.924  -1.096  27.119  1.00  0.00    +0.000 C 
ATOM     28  C22 UNL A   1       6.858   0.291  27.001  1.00  0.00    +0.000 C 
ATOM     29  C23 UNL A   1       7.997   0.980  26.590  1.00  0.00    +0.000 C 
ATOM     30  C24 UNL A   1       8.072   2.442  26.645  1.00  0.00    +0.000 C 
ATOM     31  O4  UNL A   1       7.104   3.168  26.477  1.00  0.00    +0.000 O 
ENDBRANCH   20   21
ENDBRANCH   19   20
ENDBRANCH   18   19
ENDBRANCH   11   13
ENDBRANCH   10   11
ENDBRANCH    9   10
ENDBRANCH    8    9
ENDBRANCH    7    8
ENDBRANCH    6    7
ENDBRANCH    5    6
ENDBRANCH    4    5
ENDBRANCH    3    4
ENDBRANCH    2    3
ENDBRANCH   32    2
ENDBRANCH   36   35
BRANCH   40   41
ATOM     41  C33 UNL A   1       6.935   6.712  23.923  1.00  0.00    +0.000 C 
ATOM     42  C34 UNL A   1       5.654   6.145  23.922  1.00  0.00    +0.000 C 
ATOM     43  F1  UNL A   1       5.201   5.502  22.834  1.00  0.00    +0.000 F 
ATOM     44  C35 UNL A   1       4.829   6.247  25.037  1.00  0.00    +0.000 C 
ATOM     45  F2  UNL A   1       3.603   5.707  25.015  1.00  0.00    +0.000 F 
ATOM     46  C36 UNL A   1       5.275   6.907  26.175  1.00  0.00    +0.000 C 
ATOM     47  F3  UNL A   1       4.480   6.999  27.251  1.00  0.00    +0.000 F 
ATOM     48  C37 UNL A   1       6.540   7.474  26.195  1.00  0.00    +0.000 C 
ATOM     49  F4  UNL A   1       6.969   8.112  27.293  1.00  0.00    +0.000 F 
ATOM     50  C38 UNL A   1       7.365   7.381  25.077  1.00  0.00    +0.000 C 
ATOM     51  F5  UNL A   1       8.583   7.939  25.121  1.00  0.00    +0.000 F 
ENDBRANCH   40   41
BRANCH   57   58
ATOM     65  C48 UNL A   1       9.058  12.762  17.588  1.00  0.00    +0.000 C 
ATOM     66  F9  UNL A   1       9.813  13.856  17.762  1.00  0.00    +0.000 F 
ATOM     67  C49 UNL A   1       9.431  11.559  18.182  1.00  0.00    +0.000 C 
ATOM     68  F10 UNL A   1      10.551  11.518  18.919  1.00  0.00    +0.000 F 
ATOM     58  C44 UNL A   1       8.654  10.406  18.013  1.00  0.00    +0.000 C 
ATOM     59  C45 UNL A   1       7.495  10.495  17.229  1.00  0.00    +0.000 C 
ATOM     60  F6  UNL A   1       6.732   9.409  17.028  1.00  0.00    +0.000 F 
ATOM     61  C46 UNL A   1       7.131  11.696  16.630  1.00  0.00    +0.000 C 
ATOM     62  F7  UNL A   1       6.032  11.756  15.865  1.00  0.00    +0.000 F 
ATOM     63  C47 UNL A   1       7.910  12.829  16.812  1.00  0.00    +0.000 C 
ATOM     64  F8  UNL A   1       7.560  13.985  16.230  1.00  0.00    +0.000 F 
ENDBRANCH   57   58
BRANCH   72   73
ATOM     73  C53 UNL A   1      12.752   5.158  16.027  1.00  0.00    +0.000 C 
ATOM     74  C54 UNL A   1      14.098   5.543  16.004  1.00  0.00    +0.000 C 
ATOM     75  F11 UNL A   1      14.628   6.189  17.053  1.00  0.00    +0.000 F 
ATOM     76  C55 UNL A   1      14.896   5.278  14.894  1.00  0.00    +0.000 C 
ATOM     77  F12 UNL A   1      16.180   5.665  14.887  1.00  0.00    +0.000 F 
ATOM     78  C56 UNL A   1      14.366   4.616  13.797  1.00  0.00    +0.000 C 
ATOM     79  F13 UNL A   1      15.137   4.355  12.733  1.00  0.00    +0.000 F 
ATOM     80  C57 UNL A   1      13.034   4.228  13.801  1.00  0.00    +0.000 C 
ATOM     81  F14 UNL A   1      12.520   3.587  12.743  1.00  0.00    +0.000 F 
ATOM     82  C58 UNL A   1      12.232   4.502  14.904  1.00  0.00    +0.000 C 
ATOM     83  F15 UNL A   1      10.946   4.120  14.888  1.00  0.00    +0.000 F 
ENDBRANCH   72   73
TORSDOF 18
ENDMDL
MODEL 9
REMARK VINA RESULT:      -9.4      1.475      7.860
ROOT
ATOM    129  H35 UNL A   1      11.762  54.119   5.014  1.00  0.00    +0.000 H 
ATOM    130  H36 UNL A   1      11.221  51.619   4.861  1.00  0.00    +0.000 H 
ATOM     36  C29 UNL A   1      12.888  50.196   3.037  1.00  0.00    +0.000 C 
ATOM     37  C30 UNL A   1      12.960  51.648   3.406  1.00  0.00    +0.000 C 
ATOM     38  N4  UNL A   1      13.795  52.563   2.982  1.00  0.00    +0.000 N 
ATOM     39  C31 UNL A   1      13.419  53.740   3.613  1.00  0.00    +0.000 C 
ATOM     40  C32 UNL A   1      13.989  54.965   3.517  1.00  0.00    +0.000 C 
ATOM     52  C39 UNL A   1      15.153  55.271   2.729  1.00  0.00    +0.000 C 
ATOM     53  C40 UNL A   1      15.883  56.447   2.686  1.00  0.00    +0.000 C 
ATOM     54  C41 UNL A   1      16.902  56.295   1.737  1.00  0.00    +0.000 C 
ATOM     55  C42 UNL A   1      16.812  55.021   1.202  1.00  0.00    +0.000 C 
ATOM     56  N5  UNL A   1      15.748  54.398   1.833  1.00  0.00    +0.000 N 
ATOM     57  C43 UNL A   1      17.620  54.414   0.179  1.00  0.00    +0.000 C 
ATOM     69  C50 UNL A   1      17.559  53.112  -0.185  1.00  0.00    +0.000 C 
ATOM     70  N6  UNL A   1      16.723  52.117   0.297  1.00  0.00    +0.000 N 
ATOM     71  C51 UNL A   1      17.035  51.034  -0.368  1.00  0.00    +0.000 C 
ATOM     72  C52 UNL A   1      16.441  49.662  -0.265  1.00  0.00    +0.000 C 
ATOM     84  C59 UNL A   1      15.422  49.435   0.583  1.00  0.00    +0.000 C 
ATOM     85  C60 UNL A   1      14.744  48.156   0.762  1.00  0.00    +0.000 C 
ATOM     86  C61 UNL A   1      13.753  48.307   1.656  1.00  0.00    +0.000 C 
ATOM     87  C62 UNL A   1      13.747  49.691   2.130  1.00  0.00    +0.000 C 
ATOM     88  N7  UNL A   1      14.773  50.287   1.442  1.00  0.00    +0.000 N 
ATOM     89  C63 UNL A   1      18.114  51.217  -1.351  1.00  0.00    +0.000 C 
ATOM     90  C64 UNL A   1      18.402  52.502  -1.194  1.00  0.00    +0.000 C 
ATOM     91  C65 UNL A   1      12.273  53.428   4.442  1.00  0.00    +0.000 C 
ATOM     92  C66 UNL A   1      11.964  52.139   4.369  1.00  0.00    +0.000 C 
ATOM    121  H27 UNL A   1      15.706  57.290   3.254  1.00  0.00    +0.000 H 
ATOM    122  H28 UNL A   1      17.601  57.010   1.482  1.00  0.00    +0.000 H 
ATOM    123  H29 UNL A   1      15.457  53.471   1.669  1.00  0.00    +0.000 H 
ATOM    124  H30 UNL A   1      14.986  47.276   0.280  1.00  0.00    +0.000 H 
ATOM    125  H31 UNL A   1      13.102  47.567   1.960  1.00  0.00    +0.000 H 
ATOM    126  H32 UNL A   1      15.021  51.233   1.553  1.00  0.00    +0.000 H 
ATOM    127  H33 UNL A   1      18.534  50.527  -1.993  1.00  0.00    +0.000 H 
ATOM    128  H34 UNL A   1      19.133  53.003  -1.722  1.00  0.00    +0.000 H 
ENDROOT
BRANCH   36   35
ATOM     33  C26 UNL A   1       9.607  48.394   3.610  1.00  0.00    +0.000 C 
ATOM     34  C27 UNL A   1      10.620  49.138   2.998  1.00  0.00    +0.000 C 
ATOM     35  C28 UNL A   1      11.864  49.301   3.627  1.00  0.00    +0.000 C 
ATOM    132  H38 UNL A   1      11.269  47.440   6.359  1.00  0.00    +0.000 H 
ATOM    131  H37 UNL A   1      12.998  48.800   5.341  1.00  0.00    +0.000 H 
ATOM    119  H25 UNL A   1       8.680  48.322   3.163  1.00  0.00    +0.000 H 
ATOM    120  H26 UNL A   1      10.453  49.570   2.076  1.00  0.00    +0.000 H 
ATOM     93  C67 UNL A   1      12.090  48.682   4.865  1.00  0.00    +0.000 C 
ATOM     94  C68 UNL A   1      11.090  47.904   5.455  1.00  0.00    +0.000 C 
ATOM     32  C25 UNL A   1       9.847  47.750   4.827  1.00  0.00    +0.000 C 
BRANCH   32    2
ATOM      1  O1  UNL A   1       7.660  47.448   5.610  1.00  0.00    +0.000 O 
ATOM      2  C1  UNL A   1       8.797  46.985   5.545  1.00  0.00    +0.000 C 
BRANCH    2    3
ATOM      3  N1  UNL A   1       9.064  45.783   6.148  1.00  0.00    +0.000 N 
ATOM     95  H1  UNL A   1       9.395  45.081   5.543  1.00  0.00    +0.000 H 
BRANCH    3    4
ATOM     97  H3  UNL A   1       7.916  45.106   7.697  1.00  0.00    +0.000 H 
ATOM      4  C2  UNL A   1       8.936  45.382   7.537  1.00  0.00    +0.000 C 
ATOM     96  H2  UNL A   1       9.604  44.566   7.719  1.00  0.00    +0.000 H 
BRANCH    4    5
ATOM     98  H4  UNL A   1       8.478  46.548   9.237  1.00  0.00    +0.000 H 
ATOM     99  H5  UNL A   1       9.362  47.386   7.913  1.00  0.00    +0.000 H 
ATOM      5  C3  UNL A   1       9.264  46.506   8.513  1.00  0.00    +0.000 C 
BRANCH    5    6
ATOM    100  H6  UNL A   1      10.380  45.943  10.225  1.00  0.00    +0.000 H 
ATOM    101  H7  UNL A   1      10.988  47.371   9.322  1.00  0.00    +0.000 H 
ATOM      6  C4  UNL A   1      10.588  46.380   9.270  1.00  0.00    +0.000 C 
BRANCH    6    7
ATOM    103  H9  UNL A   1      12.005  44.848   9.344  1.00  0.00    +0.000 H 
ATOM    102  H8  UNL A   1      11.227  45.067   7.737  1.00  0.00    +0.000 H 
ATOM      7  C5  UNL A   1      11.667  45.532   8.594  1.00  0.00    +0.000 C 
BRANCH    7    8
ATOM    105  H11 UNL A   1      13.747  45.760   8.575  1.00  0.00    +0.000 H 
ATOM    104  H10 UNL A   1      12.930  46.268   7.056  1.00  0.00    +0.000 H 
ATOM      8  C6  UNL A   1      12.925  46.277   8.126  1.00  0.00    +0.000 C 
BRANCH    8    9
ATOM      9  C7  UNL A   1      13.057  47.731   8.581  1.00  0.00    +0.000 C 
ATOM    106  H12 UNL A   1      12.296  47.931   9.306  1.00  0.00    +0.000 H 
ATOM    107  H13 UNL A   1      12.955  48.348   7.714  1.00  0.00    +0.000 H 
BRANCH    9   10
ATOM     10  N2  UNL A   1      14.350  48.025   9.175  1.00  0.00    +0.000 N 
ATOM    108  H14 UNL A   1      14.339  48.349  10.105  1.00  0.00    +0.000 H 
BRANCH   10   11
ATOM     11  C8  UNL A   1      15.585  47.905   8.590  1.00  0.00    +0.000 C 
ATOM     12  O2  UNL A   1      16.523  47.407   9.210  1.00  0.00    +0.000 O 
BRANCH   11   13
ATOM     13  C9  UNL A   1      15.806  48.323   7.197  1.00  0.00    +0.000 C 
ATOM     14  C10 UNL A   1      15.485  47.408   6.185  1.00  0.00    +0.000 C 
ATOM    109  H15 UNL A   1      15.092  46.486   6.431  1.00  0.00    +0.000 H 
ATOM     15  C11 UNL A   1      15.696  47.740   4.845  1.00  0.00    +0.000 C 
ATOM     17  C13 UNL A   1      16.580  49.876   5.527  1.00  0.00    +0.000 C 
ATOM     18  C14 UNL A   1      16.375  49.558   6.877  1.00  0.00    +0.000 C 
ATOM    110  H16 UNL A   1      15.445  47.071   4.101  1.00  0.00    +0.000 H 
ATOM    112  H18 UNL A   1      16.985  50.791   5.276  1.00  0.00    +0.000 H 
ATOM     16  C12 UNL A   1      16.246  48.976   4.515  1.00  0.00    +0.000 C 
ATOM    111  H17 UNL A   1      16.404  49.224   3.527  1.00  0.00    +0.000 H 
BRANCH   18   19
ATOM     19  N3  UNL A   1      16.625  50.580   7.789  1.00  0.00    +0.000 N 
BRANCH   19   20
ATOM    113  H19 UNL A   1      15.939  52.471   7.444  1.00  0.00    +0.000 H 
ATOM     20  C15 UNL A   1      15.806  51.572   7.932  1.00  0.00    +0.000 C 
BRANCH   20   21
ATOM     26  C20 UNL A   1      12.259  55.495   9.731  1.00  0.00    +0.000 C 
ATOM    117  H23 UNL A   1      11.171  55.683   7.927  1.00  0.00    +0.000 H 
ATOM    114  H20 UNL A   1      15.847  51.425  10.513  1.00  0.00    +0.000 H 
ATOM    115  H21 UNL A   1      13.379  54.970  11.450  1.00  0.00    +0.000 H 
ATOM    116  H22 UNL A   1      12.072  56.462  10.042  1.00  0.00    +0.000 H 
ATOM     21  C16 UNL A   1      14.668  51.331   8.844  1.00  0.00    +0.000 C 
ATOM     22  C17 UNL A   1      14.955  51.729  10.094  1.00  0.00    +0.000 C 
ATOM     23  O3  UNL A   1      14.110  52.533  10.850  1.00  0.00    +0.000 O 
ATOM     24  C18 UNL A   1      13.296  53.356  10.097  1.00  0.00    +0.000 C 
ATOM    118  H24 UNL A   1      11.628  53.413   7.170  1.00  0.00    +0.000 H 
ATOM     25  C19 UNL A   1      13.024  54.644  10.538  1.00  0.00    +0.000 C 
ATOM     27  C21 UNL A   1      11.745  55.050   8.505  1.00  0.00    +0.000 C 
ATOM     28  C22 UNL A   1      12.009  53.754   8.066  1.00  0.00    +0.000 C 
ATOM     29  C23 UNL A   1      12.799  52.928   8.864  1.00  0.00    +0.000 C 
ATOM     30  C24 UNL A   1      13.294  51.637   8.378  1.00  0.00    +0.000 C 
ATOM     31  O4  UNL A   1      12.673  50.934   7.596  1.00  0.00    +0.000 O 
ENDBRANCH   20   21
ENDBRANCH   19   20
ENDBRANCH   18   19
ENDBRANCH   11   13
ENDBRANCH   10   11
ENDBRANCH    9   10
ENDBRANCH    8    9
ENDBRANCH    7    8
ENDBRANCH    6    7
ENDBRANCH    5    6
ENDBRANCH    4    5
ENDBRANCH    3    4
ENDBRANCH    2    3
ENDBRANCH   32    2
ENDBRANCH   36   35
BRANCH   40   41
ATOM     41  C33 UNL A   1      13.365  56.078   4.295  1.00  0.00    +0.000 C 
ATOM     42  C34 UNL A   1      13.765  56.360   5.608  1.00  0.00    +0.000 C 
ATOM     43  F1  UNL A   1      14.682  55.591   6.214  1.00  0.00    +0.000 F 
ATOM     44  C35 UNL A   1      13.217  57.432   6.304  1.00  0.00    +0.000 C 
ATOM     45  F2  UNL A   1      13.605  57.682   7.563  1.00  0.00    +0.000 F 
ATOM     46  C36 UNL A   1      12.267  58.244   5.699  1.00  0.00    +0.000 C 
ATOM     47  F3  UNL A   1      11.743  59.279   6.370  1.00  0.00    +0.000 F 
ATOM     48  C37 UNL A   1      11.857  57.979   4.400  1.00  0.00    +0.000 C 
ATOM     49  F4  UNL A   1      10.940  58.762   3.816  1.00  0.00    +0.000 F 
ATOM     50  C38 UNL A   1      12.399  56.903   3.703  1.00  0.00    +0.000 C 
ATOM     51  F5  UNL A   1      11.985  56.667   2.449  1.00  0.00    +0.000 F 
ENDBRANCH   40   41
BRANCH   57   58
ATOM     65  C48 UNL A   1      20.699  56.515  -0.561  1.00  0.00    +0.000 C 
ATOM     66  F9  UNL A   1      21.817  56.911   0.063  1.00  0.00    +0.000 F 
ATOM     67  C49 UNL A   1      19.788  55.696   0.100  1.00  0.00    +0.000 C 
ATOM     68  F10 UNL A   1      20.051  55.312   1.358  1.00  0.00    +0.000 F 
ATOM     58  C44 UNL A   1      18.613  55.273  -0.536  1.00  0.00    +0.000 C 
ATOM     59  C45 UNL A   1      18.382  55.693  -1.853  1.00  0.00    +0.000 C 
ATOM     60  F6  UNL A   1      17.277  55.296  -2.504  1.00  0.00    +0.000 F 
ATOM     61  C46 UNL A   1      19.300  56.503  -2.513  1.00  0.00    +0.000 C 
ATOM     62  F7  UNL A   1      19.073  56.876  -3.780  1.00  0.00    +0.000 F 
ATOM     63  C47 UNL A   1      20.455  56.916  -1.867  1.00  0.00    +0.000 C 
ATOM     64  F8  UNL A   1      21.341  57.694  -2.506  1.00  0.00    +0.000 F 
ENDBRANCH   57   58
BRANCH   72   73
ATOM     73  C53 UNL A   1      16.951  48.549  -1.095  1.00  0.00    +0.000 C 
ATOM     74  C54 UNL A   1      18.081  47.821  -0.702  1.00  0.00    +0.000 C 
ATOM     75  F11 UNL A   1      18.743  48.162   0.413  1.00  0.00    +0.000 F 
ATOM     76  C55 UNL A   1      18.540  46.749  -1.464  1.00  0.00    +0.000 C 
ATOM     77  F12 UNL A   1      19.630  46.073  -1.076  1.00  0.00    +0.000 F 
ATOM     78  C56 UNL A   1      17.872  46.384  -2.624  1.00  0.00    +0.000 C 
ATOM     79  F13 UNL A   1      18.311  45.348  -3.352  1.00  0.00    +0.000 F 
ATOM     80  C57 UNL A   1      16.752  47.094  -3.030  1.00  0.00    +0.000 C 
ATOM     81  F14 UNL A   1      16.105  46.741  -4.149  1.00  0.00    +0.000 F 
ATOM     82  C58 UNL A   1      16.299  48.172  -2.276  1.00  0.00    +0.000 C 
ATOM     83  F15 UNL A   1      15.215  48.847  -2.687  1.00  0.00    +0.000 F 
ENDBRANCH   72   73
TORSDOF 18
ENDMDL
MODEL 10
REMARK VINA RESULT:      -9.3     55.403     62.390
ROOT
ATOM    129  H35 UNL A   1       6.256  -9.274  32.786  1.00  0.00    +0.000 H 
ATOM    130  H36 UNL A   1       6.890  -9.450  30.309  1.00  0.00    +0.000 H 
ATOM     36  C29 UNL A   1       6.239  -7.124  28.793  1.00  0.00    +0.000 C 
ATOM     37  C30 UNL A   1       6.055  -7.341  30.266  1.00  0.00    +0.000 C 
ATOM     38  N4  UNL A   1       5.568  -6.522  31.164  1.00  0.00    +0.000 N 
ATOM     39  C31 UNL A   1       5.596  -7.215  32.364  1.00  0.00    +0.000 C 
ATOM     40  C32 UNL A   1       5.216  -6.787  33.592  1.00  0.00    +0.000 C 
ATOM     52  C39 UNL A   1       4.718  -5.470  33.886  1.00  0.00    +0.000 C 
ATOM     53  C40 UNL A   1       4.446  -4.905  35.120  1.00  0.00    +0.000 C 
ATOM     54  C41 UNL A   1       3.934  -3.618  34.909  1.00  0.00    +0.000 C 
ATOM     55  C42 UNL A   1       3.900  -3.382  33.545  1.00  0.00    +0.000 C 
ATOM     56  N5  UNL A   1       4.402  -4.518  32.931  1.00  0.00    +0.000 N 
ATOM     57  C43 UNL A   1       3.431  -2.217  32.843  1.00  0.00    +0.000 C 
ATOM     69  C50 UNL A   1       3.568  -2.007  31.513  1.00  0.00    +0.000 C 
ATOM     70  N6  UNL A   1       4.136  -2.838  30.560  1.00  0.00    +0.000 N 
ATOM     71  C51 UNL A   1       4.025  -2.204  29.421  1.00  0.00    +0.000 C 
ATOM     72  C52 UNL A   1       4.459  -2.640  28.055  1.00  0.00    +0.000 C 
ATOM     84  C59 UNL A   1       5.022  -3.850  27.885  1.00  0.00    +0.000 C 
ATOM     85  C60 UNL A   1       5.466  -4.401  26.609  1.00  0.00    +0.000 C 
ATOM     86  C61 UNL A   1       5.938  -5.642  26.809  1.00  0.00    +0.000 C 
ATOM     87  C62 UNL A   1       5.850  -5.961  28.234  1.00  0.00    +0.000 C 
ATOM     88  N7  UNL A   1       5.297  -4.839  28.796  1.00  0.00    +0.000 N 
ATOM     89  C63 UNL A   1       3.376  -0.888  29.521  1.00  0.00    +0.000 C 
ATOM     90  C64 UNL A   1       3.122  -0.815  30.821  1.00  0.00    +0.000 C 
ATOM     91  C65 UNL A   1       6.138  -8.529  32.082  1.00  0.00    +0.000 C 
ATOM     92  C66 UNL A   1       6.462  -8.649  30.801  1.00  0.00    +0.000 C 
ATOM    121  H27 UNL A   1       4.594  -5.353  36.038  1.00  0.00    +0.000 H 
ATOM    122  H28 UNL A   1       3.633  -2.959  35.644  1.00  0.00    +0.000 H 
ATOM    123  H29 UNL A   1       4.517  -4.632  31.959  1.00  0.00    +0.000 H 
ATOM    124  H30 UNL A   1       5.425  -3.916  25.699  1.00  0.00    +0.000 H 
ATOM    125  H31 UNL A   1       6.303  -6.270  26.076  1.00  0.00    +0.000 H 
ATOM    126  H32 UNL A   1       5.116  -4.750  29.760  1.00  0.00    +0.000 H 
ATOM    127  H33 UNL A   1       3.171  -0.204  28.777  1.00  0.00    +0.000 H 
ATOM    128  H34 UNL A   1       2.667  -0.011  31.280  1.00  0.00    +0.000 H 
ENDROOT
BRANCH   36   35
ATOM     33  C26 UNL A   1       8.659  -9.007  26.573  1.00  0.00    +0.000 C 
ATOM     34  C27 UNL A   1       8.147  -8.084  27.488  1.00  0.00    +0.000 C 
ATOM     35  C28 UNL A   1       6.816  -8.178  27.925  1.00  0.00    +0.000 C 
ATOM    132  H38 UNL A   1       5.951 -10.953  26.243  1.00  0.00    +0.000 H 
ATOM    131  H37 UNL A   1       5.033  -9.303  27.764  1.00  0.00    +0.000 H 
ATOM    119  H25 UNL A   1       9.623  -8.900  26.219  1.00  0.00    +0.000 H 
ATOM    120  H26 UNL A   1       8.750  -7.328  27.847  1.00  0.00    +0.000 H 
ATOM     93  C67 UNL A   1       6.015  -9.229  27.456  1.00  0.00    +0.000 C 
ATOM     94  C68 UNL A   1       6.542 -10.174  26.573  1.00  0.00    +0.000 C 
ATOM     32  C25 UNL A   1       7.869 -10.073  26.133  1.00  0.00    +0.000 C 
BRANCH   32    2
ATOM      1  O1  UNL A   1       8.698 -12.172  25.506  1.00  0.00    +0.000 O 
ATOM      2  C1  UNL A   1       8.344 -11.057  25.128  1.00  0.00    +0.000 C 
BRANCH    2    3
ATOM      3  N1  UNL A   1       8.411 -10.751  23.793  1.00  0.00    +0.000 N 
ATOM     95  H1  UNL A   1       9.322 -10.687  23.429  1.00  0.00    +0.000 H 
BRANCH    3    4
ATOM     97  H3  UNL A   1       7.779 -10.581  21.857  1.00  0.00    +0.000 H 
ATOM      4  C2  UNL A   1       7.350 -10.509  22.834  1.00  0.00    +0.000 C 
ATOM     96  H2  UNL A   1       6.580 -11.236  22.986  1.00  0.00    +0.000 H 
BRANCH    4    5
ATOM     98  H4  UNL A   1       6.247  -9.064  23.910  1.00  0.00    +0.000 H 
ATOM     99  H5  UNL A   1       6.087  -9.015  22.118  1.00  0.00    +0.000 H 
ATOM      5  C3  UNL A   1       6.738  -9.118  22.961  1.00  0.00    +0.000 C 
BRANCH    5    6
ATOM    100  H6  UNL A   1       7.614  -7.507  21.899  1.00  0.00    +0.000 H 
ATOM    101  H7  UNL A   1       8.679  -8.347  23.075  1.00  0.00    +0.000 H 
ATOM      6  C4  UNL A   1       7.710  -7.940  22.873  1.00  0.00    +0.000 C 
BRANCH    6    7
ATOM    103  H9  UNL A   1       6.854  -6.119  23.432  1.00  0.00    +0.000 H 
ATOM    102  H8  UNL A   1       7.108  -7.271  24.790  1.00  0.00    +0.000 H 
ATOM      7  C5  UNL A   1       7.505  -6.826  23.902  1.00  0.00    +0.000 C 
BRANCH    7    8
ATOM    105  H11 UNL A   1       8.669  -5.866  25.352  1.00  0.00    +0.000 H 
ATOM    104  H10 UNL A   1       9.612  -6.599  24.009  1.00  0.00    +0.000 H 
ATOM      8  C6  UNL A   1       8.755  -6.027  24.298  1.00  0.00    +0.000 C 
BRANCH    8    9
ATOM      9  C7  UNL A   1       8.891  -4.635  23.680  1.00  0.00    +0.000 C 
ATOM    106  H12 UNL A   1       8.368  -4.625  22.747  1.00  0.00    +0.000 H 
ATOM    107  H13 UNL A   1       9.935  -4.441  23.555  1.00  0.00    +0.000 H 
BRANCH    9   10
ATOM     10  N2  UNL A   1       8.351  -3.584  24.524  1.00  0.00    +0.000 N 
ATOM    108  H14 UNL A   1       7.459  -3.748  24.908  1.00  0.00    +0.000 H 
BRANCH   10   11
ATOM     11  C8  UNL A   1       8.939  -2.388  24.850  1.00  0.00    +0.000 C 
ATOM     12  O2  UNL A   1       8.478  -1.330  24.425  1.00  0.00    +0.000 O 
BRANCH   11   13
ATOM     13  C9  UNL A   1      10.103  -2.338  25.748  1.00  0.00    +0.000 C 
ATOM     14  C10 UNL A   1       9.858  -2.327  27.128  1.00  0.00    +0.000 C 
ATOM    109  H15 UNL A   1       8.888  -2.371  27.480  1.00  0.00    +0.000 H 
ATOM     15  C11 UNL A   1      10.922  -2.255  28.030  1.00  0.00    +0.000 C 
ATOM     17  C13 UNL A   1      12.466  -2.166  26.181  1.00  0.00    +0.000 C 
ATOM     18  C14 UNL A   1      11.408  -2.238  25.263  1.00  0.00    +0.000 C 
ATOM    110  H16 UNL A   1      10.741  -2.263  29.045  1.00  0.00    +0.000 H 
ATOM    112  H18 UNL A   1      13.435  -2.109  25.835  1.00  0.00    +0.000 H 
ATOM     16  C12 UNL A   1      12.228  -2.174  27.555  1.00  0.00    +0.000 C 
ATOM    111  H17 UNL A   1      13.017  -2.119  28.218  1.00  0.00    +0.000 H 
BRANCH   18   19
ATOM     19  N3  UNL A   1      11.771  -2.353  23.922  1.00  0.00    +0.000 N 
BRANCH   19   20
ATOM    113  H19 UNL A   1      13.695  -2.195  23.259  1.00  0.00    +0.000 H 
ATOM     20  C15 UNL A   1      12.796  -1.723  23.445  1.00  0.00    +0.000 C 
BRANCH   20   21
ATOM     26  C20 UNL A   1      10.143   1.805  26.868  1.00  0.00    +0.000 C 
ATOM    117  H23 UNL A   1      11.693   1.968  28.297  1.00  0.00    +0.000 H 
ATOM    114  H20 UNL A   1      10.948  -0.616  22.016  1.00  0.00    +0.000 H 
ATOM    115  H21 UNL A   1       8.848   1.613  25.202  1.00  0.00    +0.000 H 
ATOM    116  H22 UNL A   1       9.387   2.002  27.542  1.00  0.00    +0.000 H 
ATOM     21  C16 UNL A   1      12.593  -0.282  23.185  1.00  0.00    +0.000 C 
ATOM     22  C17 UNL A   1      11.339  -0.035  22.774  1.00  0.00    +0.000 C 
ATOM     23  O3  UNL A   1      10.541   0.962  23.320  1.00  0.00    +0.000 O 
ATOM     24  C18 UNL A   1      10.848   1.271  24.631  1.00  0.00    +0.000 C 
ATOM    118  H24 UNL A   1      13.483   1.475  26.720  1.00  0.00    +0.000 H 
ATOM     25  C19 UNL A   1       9.827   1.567  25.524  1.00  0.00    +0.000 C 
ATOM     27  C21 UNL A   1      11.473   1.776  27.307  1.00  0.00    +0.000 C 
ATOM     28  C22 UNL A   1      12.500   1.489  26.409  1.00  0.00    +0.000 C 
ATOM     29  C23 UNL A   1      12.168   1.221  25.082  1.00  0.00    +0.000 C 
ATOM     30  C24 UNL A   1      13.159   0.707  24.132  1.00  0.00    +0.000 C 
ATOM     31  O4  UNL A   1      14.345   0.996  24.180  1.00  0.00    +0.000 O 
ENDBRANCH   20   21
ENDBRANCH   19   20
ENDBRANCH   18   19
ENDBRANCH   11   13
ENDBRANCH   10   11
ENDBRANCH    9   10
ENDBRANCH    8    9
ENDBRANCH    7    8
ENDBRANCH    6    7
ENDBRANCH    5    6
ENDBRANCH    4    5
ENDBRANCH    3    4
ENDBRANCH    2    3
ENDBRANCH   32    2
ENDBRANCH   36   35
BRANCH   40   41
ATOM     41  C33 UNL A   1       5.331  -7.755  34.725  1.00  0.00    +0.000 C 
ATOM     42  C34 UNL A   1       4.267  -8.597  35.073  1.00  0.00    +0.000 C 
ATOM     43  F1  UNL A   1       3.094  -8.505  34.427  1.00  0.00    +0.000 F 
ATOM     44  C35 UNL A   1       4.403  -9.532  36.094  1.00  0.00    +0.000 C 
ATOM     45  F2  UNL A   1       3.371 -10.323  36.420  1.00  0.00    +0.000 F 
ATOM     46  C36 UNL A   1       5.606  -9.647  36.777  1.00  0.00    +0.000 C 
ATOM     47  F3  UNL A   1       5.736 -10.552  37.757  1.00  0.00    +0.000 F 
ATOM     48  C37 UNL A   1       6.671  -8.822  36.447  1.00  0.00    +0.000 C 
ATOM     49  F4  UNL A   1       7.832  -8.934  37.107  1.00  0.00    +0.000 F 
ATOM     50  C38 UNL A   1       6.535  -7.881  35.431  1.00  0.00    +0.000 C 
ATOM     51  F5  UNL A   1       7.579  -7.093  35.131  1.00  0.00    +0.000 F 
ENDBRANCH   40   41
BRANCH   57   58
ATOM     65  C48 UNL A   1       0.719  -0.102  34.459  1.00  0.00    +0.000 C 
ATOM     66  F9  UNL A   1      -0.618  -0.086  34.553  1.00  0.00    +0.000 F 
ATOM     67  C49 UNL A   1       1.352  -1.114  33.743  1.00  0.00    +0.000 C 
ATOM     68  F10 UNL A   1       0.605  -2.063  33.159  1.00  0.00    +0.000 F 
ATOM     58  C44 UNL A   1       2.749  -1.147  33.632  1.00  0.00    +0.000 C 
ATOM     59  C45 UNL A   1       3.489  -0.138  34.264  1.00  0.00    +0.000 C 
ATOM     60  F6  UNL A   1       4.830  -0.143  34.197  1.00  0.00    +0.000 F 
ATOM     61  C46 UNL A   1       2.853   0.866  34.987  1.00  0.00    +0.000 C 
ATOM     62  F7  UNL A   1       3.579   1.809  35.602  1.00  0.00    +0.000 F 
ATOM     63  C47 UNL A   1       1.469   0.885  35.082  1.00  0.00    +0.000 C 
ATOM     64  F8  UNL A   1       0.858   1.851  35.782  1.00  0.00    +0.000 F 
ENDBRANCH   57   58
BRANCH   72   73
ATOM     73  C53 UNL A   1       4.267  -1.762  26.880  1.00  0.00    +0.000 C 
ATOM     74  C54 UNL A   1       5.294  -0.917  26.441  1.00  0.00    +0.000 C 
ATOM     75  F11 UNL A   1       6.450  -0.860  27.118  1.00  0.00    +0.000 F 
ATOM     76  C55 UNL A   1       5.126  -0.117  25.314  1.00  0.00    +0.000 C 
ATOM     77  F12 UNL A   1       6.117   0.694  24.917  1.00  0.00    +0.000 F 
ATOM     78  C56 UNL A   1       3.936  -0.157  24.603  1.00  0.00    +0.000 C 
ATOM     79  F13 UNL A   1       3.779   0.608  23.514  1.00  0.00    +0.000 F 
ATOM     80  C57 UNL A   1       2.907  -0.987  25.022  1.00  0.00    +0.000 C 
ATOM     81  F14 UNL A   1       1.757  -1.028  24.336  1.00  0.00    +0.000 F 
ATOM     82  C58 UNL A   1       3.068  -1.778  26.155  1.00  0.00    +0.000 C 
ATOM     83  F15 UNL A   1       2.061  -2.573  26.546  1.00  0.00    +0.000 F 
ENDBRANCH   72   73
TORSDOF 18
ENDMDL
