MODEL 1
REMARK VINA RESULT:     -11.0      0.000      0.000
ROOT
ATOM     21  C16 UNL A   1      38.010  29.913  29.676  1.00  0.00    +0.000 C 
ATOM     22  C17 UNL A   1      39.069  28.986  29.151  1.00  0.00    +0.000 C 
ATOM     23  N4  UNL A   1      40.173  28.579  29.725  1.00  0.00    +0.000 N 
ATOM     24  C18 UNL A   1      40.764  27.700  28.826  1.00  0.00    +0.000 C 
ATOM     25  C19 UNL A   1      41.950  27.055  28.931  1.00  0.00    +0.000 C 
ATOM     37  C26 UNL A   1      42.847  27.182  30.049  1.00  0.00    +0.000 C 
ATOM     38  C27 UNL A   1      44.098  26.617  30.222  1.00  0.00    +0.000 C 
ATOM     39  C28 UNL A   1      44.577  26.992  31.482  1.00  0.00    +0.000 C 
ATOM     40  C29 UNL A   1      43.643  27.826  32.076  1.00  0.00    +0.000 C 
ATOM     41  N5  UNL A   1      42.584  27.930  31.188  1.00  0.00    +0.000 N 
ATOM     42  C30 UNL A   1      43.709  28.477  33.359  1.00  0.00    +0.000 C 
ATOM     54  C37 UNL A   1      42.752  29.292  33.868  1.00  0.00    +0.000 C 
ATOM     55  N6  UNL A   1      41.545  29.678  33.302  1.00  0.00    +0.000 N 
ATOM     56  C38 UNL A   1      40.969  30.459  34.184  1.00  0.00    +0.000 C 
ATOM     57  C39 UNL A   1      39.654  31.185  34.093  1.00  0.00    +0.000 C 
ATOM     69  C46 UNL A   1      38.919  31.079  32.970  1.00  0.00    +0.000 C 
ATOM     70  C47 UNL A   1      37.632  31.727  32.736  1.00  0.00    +0.000 C 
ATOM     71  C48 UNL A   1      37.169  31.357  31.530  1.00  0.00    +0.000 C 
ATOM     72  C49 UNL A   1      38.147  30.474  30.892  1.00  0.00    +0.000 C 
ATOM     73  N7  UNL A   1      39.156  30.373  31.816  1.00  0.00    +0.000 N 
ATOM     74  C50 UNL A   1      41.737  30.634  35.425  1.00  0.00    +0.000 C 
ATOM     75  C51 UNL A   1      42.831  29.933  35.164  1.00  0.00    +0.000 C 
ATOM     76  C52 UNL A   1      39.874  27.595  27.688  1.00  0.00    +0.000 C 
ATOM     77  C53 UNL A   1      38.845  28.420  27.811  1.00  0.00    +0.000 C 
ATOM    113  H21 UNL A   1      44.593  26.023  29.540  1.00  0.00    +0.000 H 
ATOM    114  H22 UNL A   1      45.474  26.698  31.899  1.00  0.00    +0.000 H 
ATOM    115  H23 UNL A   1      41.767  28.456  31.342  1.00  0.00    +0.000 H 
ATOM    116  H24 UNL A   1      37.154  32.366  33.391  1.00  0.00    +0.000 H 
ATOM    117  H25 UNL A   1      36.269  31.650  31.119  1.00  0.00    +0.000 H 
ATOM    118  H26 UNL A   1      39.973  29.845  31.667  1.00  0.00    +0.000 H 
ATOM    119  H27 UNL A   1      41.488  31.162  36.276  1.00  0.00    +0.000 H 
ATOM    120  H28 UNL A   1      43.637  29.854  35.803  1.00  0.00    +0.000 H 
ATOM    121  H29 UNL A   1      40.022  26.961  26.888  1.00  0.00    +0.000 H 
ATOM    122  H30 UNL A   1      38.084  28.616  27.141  1.00  0.00    +0.000 H 
ENDROOT
BRANCH   21   20
ATOM     78  C54 UNL A   1      35.954  29.079  28.535  1.00  0.00    +0.000 C 
ATOM    111  H19 UNL A   1      34.956  32.629  27.512  1.00  0.00    +0.000 H 
ATOM     79  C55 UNL A   1      34.800  29.288  27.784  1.00  0.00    +0.000 C 
ATOM     17  C12 UNL A   1      34.406  30.589  27.462  1.00  0.00    +0.000 C 
ATOM     18  C13 UNL A   1      35.227  31.672  27.788  1.00  0.00    +0.000 C 
ATOM     19  C14 UNL A   1      36.418  31.455  28.484  1.00  0.00    +0.000 C 
ATOM    112  H20 UNL A   1      37.037  32.251  28.703  1.00  0.00    +0.000 H 
ATOM     20  C15 UNL A   1      36.776  30.159  28.889  1.00  0.00    +0.000 C 
ATOM    123  H31 UNL A   1      36.207  28.123  28.833  1.00  0.00    +0.000 H 
ATOM    124  H32 UNL A   1      34.237  28.483  27.467  1.00  0.00    +0.000 H 
BRANCH   17   15
ATOM     15  C11 UNL A   1      33.137  30.846  26.746  1.00  0.00    +0.000 C 
ATOM     16  O2  UNL A   1      32.458  31.825  27.042  1.00  0.00    +0.000 O 
BRANCH   15   14
ATOM    110  H18 UNL A   1      33.250  29.998  24.936  1.00  0.00    +0.000 H 
ATOM     14  N3  UNL A   1      32.713  29.990  25.761  1.00  0.00    +0.000 N 
BRANCH   14   13
ATOM    109  H17 UNL A   1      31.664  28.455  24.888  1.00  0.00    +0.000 H 
ATOM    108  H16 UNL A   1      30.678  29.635  25.756  1.00  0.00    +0.000 H 
ATOM     13  C10 UNL A   1      31.586  29.069  25.760  1.00  0.00    +0.000 C 
BRANCH   13   12
ATOM    106  H14 UNL A   1      32.429  28.423  27.594  1.00  0.00    +0.000 H 
ATOM    107  H15 UNL A   1      30.651  28.301  27.473  1.00  0.00    +0.000 H 
ATOM     12  C9  UNL A   1      31.592  28.156  26.983  1.00  0.00    +0.000 C 
BRANCH   12   11
ATOM    105  H13 UNL A   1      31.943  26.176  27.582  1.00  0.00    +0.000 H 
ATOM     11  C8  UNL A   1      31.690  26.662  26.663  1.00  0.00    +0.000 C 
ATOM    104  H12 UNL A   1      32.427  26.536  25.897  1.00  0.00    +0.000 H 
BRANCH   11   10
ATOM     10  C7  UNL A   1      30.387  26.011  26.181  1.00  0.00    +0.000 C 
ATOM    102  H10 UNL A   1      29.590  26.369  26.799  1.00  0.00    +0.000 H 
ATOM    103  H11 UNL A   1      30.282  26.280  25.152  1.00  0.00    +0.000 H 
BRANCH   10    9
ATOM      9  C6  UNL A   1      30.372  24.477  26.227  1.00  0.00    +0.000 C 
ATOM    100  H8  UNL A   1      29.469  24.162  26.708  1.00  0.00    +0.000 H 
ATOM    101  H9  UNL A   1      30.435  24.132  25.216  1.00  0.00    +0.000 H 
BRANCH    9    8
ATOM     98  H6  UNL A   1      32.416  24.498  26.835  1.00  0.00    +0.000 H 
ATOM     99  H7  UNL A   1      31.301  23.821  28.020  1.00  0.00    +0.000 H 
ATOM      8  C5  UNL A   1      31.558  23.876  26.983  1.00  0.00    +0.000 C 
BRANCH    8    7
ATOM     97  H5  UNL A   1      31.101  21.915  26.489  1.00  0.00    +0.000 H 
ATOM      7  N2  UNL A   1      31.863  22.538  26.520  1.00  0.00    +0.000 N 
BRANCH    7    5
ATOM      5  C4  UNL A   1      33.062  22.022  26.119  1.00  0.00    +0.000 C 
ATOM      6  O1  UNL A   1      33.695  21.334  26.922  1.00  0.00    +0.000 O 
BRANCH    5    4
ATOM      4  C3  UNL A   1      33.636  22.362  24.752  1.00  0.00    +0.000 C 
ATOM     95  H3  UNL A   1      34.671  22.090  24.750  1.00  0.00    +0.000 H 
ATOM     96  H4  UNL A   1      33.054  21.818  24.038  1.00  0.00    +0.000 H 
BRANCH    4    3
ATOM      2  C1  UNL A   1      32.570  24.331  23.441  1.00  0.00    +0.000 C 
ATOM      3  C2  UNL A   1      33.533  23.826  24.360  1.00  0.00    +0.000 C 
ATOM     80  C56 UNL A   1      34.482  24.696  24.931  1.00  0.00    +0.000 C 
ATOM     81  C57 UNL A   1      34.502  26.045  24.606  1.00  0.00    +0.000 C 
ATOM     82  C58 UNL A   1      33.570  26.547  23.707  1.00  0.00    +0.000 C 
ATOM     83  C59 UNL A   1      32.593  25.717  23.120  1.00  0.00    +0.000 C 
ATOM    125  H33 UNL A   1      35.173  24.325  25.601  1.00  0.00    +0.000 H 
ATOM    126  H34 UNL A   1      35.206  26.670  25.029  1.00  0.00    +0.000 H 
ATOM    127  H35 UNL A   1      33.592  27.550  23.463  1.00  0.00    +0.000 H 
BRANCH    2    1
ATOM      1  N1  UNL A   1      31.584  23.473  22.935  1.00  0.00    +0.000 N 
ATOM     93  H1  UNL A   1      30.713  23.835  22.654  1.00  0.00    +0.000 H 
ATOM     94  H2  UNL A   1      31.763  22.508  22.861  1.00  0.00    +0.000 H 
ENDBRANCH    2    1
BRANCH   83   84
ATOM     84  C60 UNL A   1      31.700  26.416  22.132  1.00  0.00    +0.000 C 
ATOM     85  O3  UNL A   1      31.672  26.050  20.957  1.00  0.00    +0.000 O 
BRANCH   84   86
ATOM    129  H37 UNL A   1      30.405  30.799  22.091  1.00  0.00    +0.000 H 
ATOM    130  H38 UNL A   1      27.737  28.052  23.838  1.00  0.00    +0.000 H 
ATOM    131  H39 UNL A   1      29.338  26.254  23.471  1.00  0.00    +0.000 H 
ATOM     86  C61 UNL A   1      30.753  27.486  22.494  1.00  0.00    +0.000 C 
ATOM     87  C62 UNL A   1      31.082  28.799  22.131  1.00  0.00    +0.000 C 
ATOM     88  C63 UNL A   1      30.173  29.832  22.364  1.00  0.00    +0.000 C 
ATOM     89  C64 UNL A   1      28.949  29.547  22.970  1.00  0.00    +0.000 C 
ATOM     90 Br1  UNL A   1      27.691  30.936  23.226  1.00  0.00    +0.000 Br
ATOM     91  C65 UNL A   1      28.639  28.247  23.375  1.00  0.00    +0.000 C 
ATOM     92  C66 UNL A   1      29.551  27.212  23.152  1.00  0.00    +0.000 C 
ATOM    128  H36 UNL A   1      31.994  29.002  21.695  1.00  0.00    +0.000 H 
ENDBRANCH   84   86
ENDBRANCH   83   84
ENDBRANCH    4    3
ENDBRANCH    5    4
ENDBRANCH    7    5
ENDBRANCH    8    7
ENDBRANCH    9    8
ENDBRANCH   10    9
ENDBRANCH   11   10
ENDBRANCH   12   11
ENDBRANCH   13   12
ENDBRANCH   14   13
ENDBRANCH   15   14
ENDBRANCH   17   15
ENDBRANCH   21   20
BRANCH   25   26
ATOM     33  C24 UNL A   1      43.599  25.780  25.746  1.00  0.00    +0.000 C 
ATOM     34  F4  UNL A   1      44.443  26.233  24.808  1.00  0.00    +0.000 F 
ATOM     35  C25 UNL A   1      43.247  26.597  26.817  1.00  0.00    +0.000 C 
ATOM     36  F5  UNL A   1      43.777  27.827  26.891  1.00  0.00    +0.000 F 
ATOM     26  C20 UNL A   1      42.350  26.153  27.799  1.00  0.00    +0.000 C 
ATOM     27  C21 UNL A   1      41.821  24.860  27.668  1.00  0.00    +0.000 C 
ATOM     28  F1  UNL A   1      40.968  24.384  28.588  1.00  0.00    +0.000 F 
ATOM     29  C22 UNL A   1      42.197  24.035  26.612  1.00  0.00    +0.000 C 
ATOM     30  F2  UNL A   1      41.715  22.787  26.534  1.00  0.00    +0.000 F 
ATOM     31  C23 UNL A   1      43.081  24.498  25.648  1.00  0.00    +0.000 C 
ATOM     32  F3  UNL A   1      43.437  23.704  24.629  1.00  0.00    +0.000 F 
ENDBRANCH   25   26
BRANCH   42   43
ATOM     43  C31 UNL A   1      44.937  28.260  34.190  1.00  0.00    +0.000 C 
ATOM     44  C32 UNL A   1      45.040  27.183  35.083  1.00  0.00    +0.000 C 
ATOM     45  F6  UNL A   1      44.006  26.346  35.251  1.00  0.00    +0.000 F 
ATOM     46  C33 UNL A   1      46.195  26.985  35.835  1.00  0.00    +0.000 C 
ATOM     47  F7  UNL A   1      46.256  25.976  36.714  1.00  0.00    +0.000 F 
ATOM     48  C34 UNL A   1      47.278  27.840  35.687  1.00  0.00    +0.000 C 
ATOM     49  F8  UNL A   1      48.391  27.644  36.407  1.00  0.00    +0.000 F 
ATOM     50  C35 UNL A   1      47.204  28.901  34.797  1.00  0.00    +0.000 C 
ATOM     51  F9  UNL A   1      48.253  29.721  34.644  1.00  0.00    +0.000 F 
ATOM     52  C36 UNL A   1      46.041  29.118  34.063  1.00  0.00    +0.000 C 
ATOM     53  F10 UNL A   1      45.994  30.160  33.220  1.00  0.00    +0.000 F 
ENDBRANCH   42   43
BRANCH   57   58
ATOM     65  C44 UNL A   1      37.978  32.313  37.311  1.00  0.00    +0.000 C 
ATOM     66  F14 UNL A   1      37.244  31.784  38.299  1.00  0.00    +0.000 F 
ATOM     67  C45 UNL A   1      38.428  31.504  36.270  1.00  0.00    +0.000 C 
ATOM     68  F15 UNL A   1      38.121  30.199  36.285  1.00  0.00    +0.000 F 
ATOM     58  C40 UNL A   1      39.178  32.038  35.212  1.00  0.00    +0.000 C 
ATOM     59  C41 UNL A   1      39.465  33.409  35.241  1.00  0.00    +0.000 C 
ATOM     60  F11 UNL A   1      40.196  33.960  34.261  1.00  0.00    +0.000 F 
ATOM     61  C42 UNL A   1      39.037  34.213  36.296  1.00  0.00    +0.000 C 
ATOM     62  F12 UNL A   1      39.361  35.512  36.319  1.00  0.00    +0.000 F 
ATOM     63  C43 UNL A   1      38.289  33.665  37.328  1.00  0.00    +0.000 C 
ATOM     64  F13 UNL A   1      37.874  34.438  38.339  1.00  0.00    +0.000 F 
ENDBRANCH   57   58
TORSDOF 19
ENDMDL
MODEL 2
REMARK VINA RESULT:     -10.9      3.083      7.819
ROOT
ATOM     21  C16 UNL A   1      40.008  28.877  29.165  1.00  0.00    +0.000 C 
ATOM     22  C17 UNL A   1      40.871  29.836  29.935  1.00  0.00    +0.000 C 
ATOM     23  N4  UNL A   1      42.138  29.740  30.252  1.00  0.00    +0.000 N 
ATOM     24  C18 UNL A   1      42.449  30.915  30.923  1.00  0.00    +0.000 C 
ATOM     25  C19 UNL A   1      43.620  31.273  31.501  1.00  0.00    +0.000 C 
ATOM     37  C26 UNL A   1      44.801  30.450  31.521  1.00  0.00    +0.000 C 
ATOM     38  C27 UNL A   1      46.017  30.698  32.132  1.00  0.00    +0.000 C 
ATOM     39  C28 UNL A   1      46.876  29.630  31.847  1.00  0.00    +0.000 C 
ATOM     40  C29 UNL A   1      46.180  28.697  31.095  1.00  0.00    +0.000 C 
ATOM     41  N5  UNL A   1      44.910  29.215  30.897  1.00  0.00    +0.000 N 
ATOM     42  C30 UNL A   1      46.639  27.429  30.591  1.00  0.00    +0.000 C 
ATOM     54  C37 UNL A   1      45.890  26.562  29.866  1.00  0.00    +0.000 C 
ATOM     55  N6  UNL A   1      44.566  26.679  29.463  1.00  0.00    +0.000 N 
ATOM     56  C38 UNL A   1      44.302  25.592  28.779  1.00  0.00    +0.000 C 
ATOM     57  C39 UNL A   1      43.012  25.172  28.127  1.00  0.00    +0.000 C 
ATOM     69  C46 UNL A   1      41.930  25.966  28.234  1.00  0.00    +0.000 C 
ATOM     70  C47 UNL A   1      40.617  25.689  27.663  1.00  0.00    +0.000 C 
ATOM     71  C48 UNL A   1      39.797  26.719  27.928  1.00  0.00    +0.000 C 
ATOM     72  C49 UNL A   1      40.521  27.714  28.721  1.00  0.00    +0.000 C 
ATOM     73  N7  UNL A   1      41.776  27.177  28.862  1.00  0.00    +0.000 N 
ATOM     74  C50 UNL A   1      45.441  24.673  28.647  1.00  0.00    +0.000 C 
ATOM     75  C51 UNL A   1      46.370  25.293  29.360  1.00  0.00    +0.000 C 
ATOM     76  C52 UNL A   1      41.252  31.730  30.928  1.00  0.00    +0.000 C 
ATOM     77  C53 UNL A   1      40.231  31.081  30.388  1.00  0.00    +0.000 C 
ATOM    113  H21 UNL A   1      46.251  31.526  32.700  1.00  0.00    +0.000 H 
ATOM    114  H22 UNL A   1      47.860  29.550  32.146  1.00  0.00    +0.000 H 
ATOM    115  H23 UNL A   1      44.191  28.773  30.391  1.00  0.00    +0.000 H 
ATOM    116  H24 UNL A   1      40.358  24.838  27.138  1.00  0.00    +0.000 H 
ATOM    117  H25 UNL A   1      38.814  26.797  27.623  1.00  0.00    +0.000 H 
ATOM    118  H26 UNL A   1      42.498  27.619  29.365  1.00  0.00    +0.000 H 
ATOM    119  H27 UNL A   1      45.501  23.779  28.134  1.00  0.00    +0.000 H 
ATOM    120  H28 UNL A   1      47.316  24.919  29.532  1.00  0.00    +0.000 H 
ATOM    121  H29 UNL A   1      41.202  32.690  31.303  1.00  0.00    +0.000 H 
ATOM    122  H30 UNL A   1      39.244  31.373  30.306  1.00  0.00    +0.000 H 
ENDROOT
BRANCH   21   20
ATOM     78  C54 UNL A   1      38.316  29.771  27.564  1.00  0.00    +0.000 C 
ATOM    111  H19 UNL A   1      35.487  29.208  30.080  1.00  0.00    +0.000 H 
ATOM     79  C55 UNL A   1      37.011  30.129  27.235  1.00  0.00    +0.000 C 
ATOM     17  C12 UNL A   1      35.971  29.869  28.132  1.00  0.00    +0.000 C 
ATOM     18  C13 UNL A   1      36.251  29.360  29.403  1.00  0.00    +0.000 C 
ATOM     19  C14 UNL A   1      37.569  29.062  29.756  1.00  0.00    +0.000 C 
ATOM    112  H20 UNL A   1      37.780  28.710  30.703  1.00  0.00    +0.000 H 
ATOM     20  C15 UNL A   1      38.609  29.238  28.828  1.00  0.00    +0.000 C 
ATOM    123  H31 UNL A   1      39.073  29.898  26.874  1.00  0.00    +0.000 H 
ATOM    124  H32 UNL A   1      36.813  30.586  26.332  1.00  0.00    +0.000 H 
BRANCH   17   15
ATOM     15  C11 UNL A   1      34.565  30.154  27.772  1.00  0.00    +0.000 C 
ATOM     16  O2  UNL A   1      34.063  31.230  28.082  1.00  0.00    +0.000 O 
BRANCH   15   14
ATOM    110  H18 UNL A   1      32.895  29.105  27.427  1.00  0.00    +0.000 H 
ATOM     14  N3  UNL A   1      33.818  29.216  27.104  1.00  0.00    +0.000 N 
BRANCH   14   13
ATOM    109  H17 UNL A   1      35.146  27.932  26.205  1.00  0.00    +0.000 H 
ATOM    108  H16 UNL A   1      34.229  28.956  25.096  1.00  0.00    +0.000 H 
ATOM     13  C10 UNL A   1      34.192  28.363  25.986  1.00  0.00    +0.000 C 
BRANCH   13   12
ATOM    106  H14 UNL A   1      32.404  27.341  26.486  1.00  0.00    +0.000 H 
ATOM    107  H15 UNL A   1      32.867  27.294  24.762  1.00  0.00    +0.000 H 
ATOM     12  C9  UNL A   1      33.197  27.224  25.778  1.00  0.00    +0.000 C 
BRANCH   12   11
ATOM    105  H13 UNL A   1      32.991  25.205  26.311  1.00  0.00    +0.000 H 
ATOM     11  C8  UNL A   1      33.787  25.822  25.947  1.00  0.00    +0.000 C 
ATOM    104  H12 UNL A   1      34.615  25.891  26.623  1.00  0.00    +0.000 H 
BRANCH   11   10
ATOM     10  C7  UNL A   1      34.283  25.161  24.655  1.00  0.00    +0.000 C 
ATOM    102  H10 UNL A   1      33.512  24.509  24.300  1.00  0.00    +0.000 H 
ATOM    103  H11 UNL A   1      34.509  25.959  23.980  1.00  0.00    +0.000 H 
BRANCH   10    9
ATOM      9  C6  UNL A   1      35.571  24.341  24.797  1.00  0.00    +0.000 C 
ATOM    100  H8  UNL A   1      36.405  25.011  24.764  1.00  0.00    +0.000 H 
ATOM    101  H9  UNL A   1      35.509  23.816  25.727  1.00  0.00    +0.000 H 
BRANCH    9    8
ATOM     98  H6  UNL A   1      34.832  22.757  23.575  1.00  0.00    +0.000 H 
ATOM     99  H7  UNL A   1      36.025  23.794  22.795  1.00  0.00    +0.000 H 
ATOM      8  C5  UNL A   1      35.751  23.291  23.699  1.00  0.00    +0.000 C 
BRANCH    8    7
ATOM     97  H5  UNL A   1      37.703  22.593  23.719  1.00  0.00    +0.000 H 
ATOM      7  N2  UNL A   1      36.801  22.349  24.029  1.00  0.00    +0.000 N 
BRANCH    7    5
ATOM      5  C4  UNL A   1      36.711  21.169  24.710  1.00  0.00    +0.000 C 
ATOM      6  O1  UNL A   1      37.754  20.648  25.109  1.00  0.00    +0.000 O 
BRANCH    5    4
ATOM      4  C3  UNL A   1      35.368  20.479  24.894  1.00  0.00    +0.000 C 
ATOM     95  H3  UNL A   1      34.933  20.337  23.927  1.00  0.00    +0.000 H 
ATOM     96  H4  UNL A   1      35.569  19.562  25.408  1.00  0.00    +0.000 H 
BRANCH    4    3
ATOM      2  C1  UNL A   1      33.059  21.585  25.320  1.00  0.00    +0.000 C 
ATOM      3  C2  UNL A   1      34.370  21.238  25.753  1.00  0.00    +0.000 C 
ATOM     80  C56 UNL A   1      34.815  21.633  27.029  1.00  0.00    +0.000 C 
ATOM     81  C57 UNL A   1      33.998  22.369  27.876  1.00  0.00    +0.000 C 
ATOM     82  C58 UNL A   1      32.718  22.717  27.461  1.00  0.00    +0.000 C 
ATOM     83  C59 UNL A   1      32.225  22.332  26.197  1.00  0.00    +0.000 C 
ATOM    125  H33 UNL A   1      35.764  21.373  27.340  1.00  0.00    +0.000 H 
ATOM    126  H34 UNL A   1      34.338  22.655  28.807  1.00  0.00    +0.000 H 
ATOM    127  H35 UNL A   1      32.115  23.269  28.091  1.00  0.00    +0.000 H 
BRANCH    2    1
ATOM      1  N1  UNL A   1      32.599  21.125  24.078  1.00  0.00    +0.000 N 
ATOM     93  H1  UNL A   1      32.954  20.286  23.702  1.00  0.00    +0.000 H 
ATOM     94  H2  UNL A   1      31.922  21.639  23.583  1.00  0.00    +0.000 H 
ENDBRANCH    2    1
BRANCH   83   84
ATOM     84  C60 UNL A   1      30.842  22.840  25.893  1.00  0.00    +0.000 C 
ATOM     85  O3  UNL A   1      29.858  22.284  26.383  1.00  0.00    +0.000 O 
BRANCH   84   86
ATOM    129  H37 UNL A   1      29.520  27.203  25.578  1.00  0.00    +0.000 H 
ATOM    130  H38 UNL A   1      30.857  25.369  22.033  1.00  0.00    +0.000 H 
ATOM    131  H39 UNL A   1      31.138  23.262  23.222  1.00  0.00    +0.000 H 
ATOM     86  C61 UNL A   1      30.568  24.051  25.100  1.00  0.00    +0.000 C 
ATOM     87  C62 UNL A   1      30.064  25.172  25.774  1.00  0.00    +0.000 C 
ATOM     88  C63 UNL A   1      29.881  26.372  25.085  1.00  0.00    +0.000 C 
ATOM     89  C64 UNL A   1      30.191  26.439  23.726  1.00  0.00    +0.000 C 
ATOM     90 Br1  UNL A   1      30.005  28.082  22.809  1.00  0.00    +0.000 Br
ATOM     91  C65 UNL A   1      30.648  25.311  23.042  1.00  0.00    +0.000 C 
ATOM     92  C66 UNL A   1      30.823  24.105  23.727  1.00  0.00    +0.000 C 
ATOM    128  H36 UNL A   1      29.828  25.110  26.776  1.00  0.00    +0.000 H 
ENDBRANCH   84   86
ENDBRANCH   83   84
ENDBRANCH    4    3
ENDBRANCH    5    4
ENDBRANCH    7    5
ENDBRANCH    8    7
ENDBRANCH    9    8
ENDBRANCH   10    9
ENDBRANCH   11   10
ENDBRANCH   12   11
ENDBRANCH   13   12
ENDBRANCH   14   13
ENDBRANCH   15   14
ENDBRANCH   17   15
ENDBRANCH   21   20
BRANCH   25   26
ATOM     33  C24 UNL A   1      44.171  34.998  32.064  1.00  0.00    +0.000 C 
ATOM     34  F4  UNL A   1      44.574  36.065  31.360  1.00  0.00    +0.000 F 
ATOM     35  C25 UNL A   1      44.080  33.753  31.447  1.00  0.00    +0.000 C 
ATOM     36  F5  UNL A   1      44.388  33.654  30.145  1.00  0.00    +0.000 F 
ATOM     26  C20 UNL A   1      43.681  32.617  32.168  1.00  0.00    +0.000 C 
ATOM     27  C21 UNL A   1      43.378  32.776  33.528  1.00  0.00    +0.000 C 
ATOM     28  F1  UNL A   1      42.981  31.724  34.259  1.00  0.00    +0.000 F 
ATOM     29  C22 UNL A   1      43.443  34.028  34.135  1.00  0.00    +0.000 C 
ATOM     30  F2  UNL A   1      43.102  34.164  35.425  1.00  0.00    +0.000 F 
ATOM     31  C23 UNL A   1      43.846  35.136  33.405  1.00  0.00    +0.000 C 
ATOM     32  F3  UNL A   1      43.913  36.338  33.992  1.00  0.00    +0.000 F 
ENDBRANCH   25   26
BRANCH   42   43
ATOM     43  C31 UNL A   1      48.047  27.020  30.906  1.00  0.00    +0.000 C 
ATOM     44  C32 UNL A   1      48.345  26.190  31.996  1.00  0.00    +0.000 C 
ATOM     45  F6  UNL A   1      47.368  25.783  32.821  1.00  0.00    +0.000 F 
ATOM     46  C33 UNL A   1      49.657  25.806  32.265  1.00  0.00    +0.000 C 
ATOM     47  F7  UNL A   1      49.924  25.048  33.338  1.00  0.00    +0.000 F 
ATOM     48  C34 UNL A   1      50.687  26.218  31.433  1.00  0.00    +0.000 C 
ATOM     49  F8  UNL A   1      51.948  25.842  31.691  1.00  0.00    +0.000 F 
ATOM     50  C35 UNL A   1      50.413  27.026  30.340  1.00  0.00    +0.000 C 
ATOM     51  F9  UNL A   1      51.406  27.415  29.529  1.00  0.00    +0.000 F 
ATOM     52  C36 UNL A   1      49.107  27.434  30.084  1.00  0.00    +0.000 C 
ATOM     53  F10 UNL A   1      48.873  28.225  29.026  1.00  0.00    +0.000 F 
ENDBRANCH   42   43
BRANCH   57   58
ATOM     65  C44 UNL A   1      42.390  21.507  27.342  1.00  0.00    +0.000 C 
ATOM     66  F14 UNL A   1      41.983  20.399  27.977  1.00  0.00    +0.000 F 
ATOM     67  C45 UNL A   1      42.470  22.714  28.032  1.00  0.00    +0.000 C 
ATOM     68  F15 UNL A   1      42.124  22.744  29.327  1.00  0.00    +0.000 F 
ATOM     58  C40 UNL A   1      42.915  23.882  27.396  1.00  0.00    +0.000 C 
ATOM     59  C41 UNL A   1      43.271  23.795  26.044  1.00  0.00    +0.000 C 
ATOM     60  F11 UNL A   1      43.684  24.891  25.389  1.00  0.00    +0.000 F 
ATOM     61  C42 UNL A   1      43.167  22.593  25.347  1.00  0.00    +0.000 C 
ATOM     62  F12 UNL A   1      43.473  22.548  24.045  1.00  0.00    +0.000 F 
ATOM     63  C43 UNL A   1      42.731  21.449  25.998  1.00  0.00    +0.000 C 
ATOM     64  F13 UNL A   1      42.635  20.292  25.330  1.00  0.00    +0.000 F 
ENDBRANCH   57   58
TORSDOF 19
ENDMDL
MODEL 3
REMARK VINA RESULT:     -10.7     20.393     25.208
ROOT
ATOM     21  C16 UNL A   1      53.399  19.755  11.656  1.00  0.00    +0.000 C 
ATOM     22  C17 UNL A   1      54.770  19.155  11.511  1.00  0.00    +0.000 C 
ATOM     23  N4  UNL A   1      55.766  19.150  12.360  1.00  0.00    +0.000 N 
ATOM     24  C18 UNL A   1      56.780  18.425  11.747  1.00  0.00    +0.000 C 
ATOM     25  C19 UNL A   1      58.034  18.182  12.196  1.00  0.00    +0.000 C 
ATOM     37  C26 UNL A   1      58.556  18.663  13.448  1.00  0.00    +0.000 C 
ATOM     38  C27 UNL A   1      59.832  18.521  13.965  1.00  0.00    +0.000 C 
ATOM     39  C28 UNL A   1      59.861  19.120  15.229  1.00  0.00    +0.000 C 
ATOM     40  C29 UNL A   1      58.617  19.674  15.481  1.00  0.00    +0.000 C 
ATOM     41  N5  UNL A   1      57.824  19.381  14.382  1.00  0.00    +0.000 N 
ATOM     42  C30 UNL A   1      58.181  20.413  16.637  1.00  0.00    +0.000 C 
ATOM     54  C37 UNL A   1      56.941  20.934  16.805  1.00  0.00    +0.000 C 
ATOM     55  N6  UNL A   1      55.852  20.890  15.945  1.00  0.00    +0.000 N 
ATOM     56  C38 UNL A   1      54.883  21.525  16.559  1.00  0.00    +0.000 C 
ATOM     57  C39 UNL A   1      53.483  21.807  16.084  1.00  0.00    +0.000 C 
ATOM     69  C46 UNL A   1      53.107  21.395  14.859  1.00  0.00    +0.000 C 
ATOM     70  C47 UNL A   1      51.791  21.600  14.263  1.00  0.00    +0.000 C 
ATOM     71  C48 UNL A   1      51.761  21.015  13.055  1.00  0.00    +0.000 C 
ATOM     72  C49 UNL A   1      53.071  20.423  12.777  1.00  0.00    +0.000 C 
ATOM     73  N7  UNL A   1      53.808  20.707  13.899  1.00  0.00    +0.000 N 
ATOM     74  C50 UNL A   1      55.241  22.021  17.895  1.00  0.00    +0.000 C 
ATOM     75  C51 UNL A   1      56.516  21.668  17.979  1.00  0.00    +0.000 C 
ATOM     76  C52 UNL A   1      56.264  17.966  10.475  1.00  0.00    +0.000 C 
ATOM     77  C53 UNL A   1      55.049  18.446  10.252  1.00  0.00    +0.000 C 
ATOM    113  H21 UNL A   1      60.625  18.054  13.499  1.00  0.00    +0.000 H 
ATOM    114  H22 UNL A   1      60.673  19.147  15.865  1.00  0.00    +0.000 H 
ATOM    115  H23 UNL A   1      56.881  19.645  14.279  1.00  0.00    +0.000 H 
ATOM    116  H24 UNL A   1      51.008  22.112  14.700  1.00  0.00    +0.000 H 
ATOM    117  H25 UNL A   1      50.946  20.987  12.423  1.00  0.00    +0.000 H 
ATOM    118  H26 UNL A   1      54.750  20.442  14.007  1.00  0.00    +0.000 H 
ATOM    119  H27 UNL A   1      54.654  22.514  18.586  1.00  0.00    +0.000 H 
ATOM    120  H28 UNL A   1      57.128  21.889  18.780  1.00  0.00    +0.000 H 
ATOM    121  H29 UNL A   1      56.775  17.347   9.827  1.00  0.00    +0.000 H 
ATOM    122  H30 UNL A   1      54.454  18.348   9.414  1.00  0.00    +0.000 H 
ENDROOT
BRANCH   21   20
ATOM     78  C54 UNL A   1      51.666  18.345  10.546  1.00  0.00    +0.000 C 
ATOM    111  H19 UNL A   1      50.919  21.094   7.990  1.00  0.00    +0.000 H 
ATOM     79  C55 UNL A   1      50.715  18.130   9.551  1.00  0.00    +0.000 C 
ATOM     17  C12 UNL A   1      50.402  19.156   8.655  1.00  0.00    +0.000 C 
ATOM     18  C13 UNL A   1      51.123  20.353   8.679  1.00  0.00    +0.000 C 
ATOM     19  C14 UNL A   1      52.121  20.543   9.637  1.00  0.00    +0.000 C 
ATOM    112  H20 UNL A   1      52.671  21.416   9.640  1.00  0.00    +0.000 H 
ATOM     20  C15 UNL A   1      52.380  19.551  10.597  1.00  0.00    +0.000 C 
ATOM    123  H31 UNL A   1      51.846  17.613  11.251  1.00  0.00    +0.000 H 
ATOM    124  H32 UNL A   1      50.244  17.216   9.476  1.00  0.00    +0.000 H 
BRANCH   17   15
ATOM     15  C11 UNL A   1      49.333  18.987   7.647  1.00  0.00    +0.000 C 
ATOM     16  O2  UNL A   1      48.587  19.927   7.388  1.00  0.00    +0.000 O 
BRANCH   15   14
ATOM    110  H18 UNL A   1      49.058  17.005   7.604  1.00  0.00    +0.000 H 
ATOM     14  N3  UNL A   1      49.166  17.783   7.011  1.00  0.00    +0.000 N 
BRANCH   14   13
ATOM    109  H17 UNL A   1      49.688  18.242   5.077  1.00  0.00    +0.000 H 
ATOM    108  H16 UNL A   1      48.102  17.487   5.264  1.00  0.00    +0.000 H 
ATOM     13  C10 UNL A   1      49.123  17.489   5.586  1.00  0.00    +0.000 C 
BRANCH   13   12
ATOM    106  H14 UNL A   1      50.408  16.261   4.433  1.00  0.00    +0.000 H 
ATOM    107  H15 UNL A   1      50.243  15.809   6.153  1.00  0.00    +0.000 H 
ATOM     12  C9  UNL A   1      49.745  16.133   5.262  1.00  0.00    +0.000 C 
BRANCH   12   11
ATOM    105  H13 UNL A   1      48.870  14.262   5.630  1.00  0.00    +0.000 H 
ATOM     11  C8  UNL A   1      48.736  15.038   4.905  1.00  0.00    +0.000 C 
ATOM    104  H12 UNL A   1      48.933  14.723   3.901  1.00  0.00    +0.000 H 
BRANCH   11   10
ATOM     10  C7  UNL A   1      47.263  15.454   4.993  1.00  0.00    +0.000 C 
ATOM    102  H10 UNL A   1      46.766  14.773   5.652  1.00  0.00    +0.000 H 
ATOM    103  H11 UNL A   1      47.258  16.464   5.342  1.00  0.00    +0.000 H 
BRANCH   10    9
ATOM      9  C6  UNL A   1      46.508  15.458   3.657  1.00  0.00    +0.000 C 
ATOM    100  H8  UNL A   1      46.925  14.698   3.030  1.00  0.00    +0.000 H 
ATOM    101  H9  UNL A   1      45.476  15.281   3.878  1.00  0.00    +0.000 H 
BRANCH    9    8
ATOM     98  H6  UNL A   1      47.469  17.313   3.227  1.00  0.00    +0.000 H 
ATOM     99  H7  UNL A   1      46.612  16.593   1.865  1.00  0.00    +0.000 H 
ATOM      8  C5  UNL A   1      46.586  16.793   2.915  1.00  0.00    +0.000 C 
BRANCH    8    7
ATOM     97  H5  UNL A   1      44.578  17.300   2.821  1.00  0.00    +0.000 H 
ATOM      7  N2  UNL A   1      45.432  17.624   3.190  1.00  0.00    +0.000 N 
BRANCH    7    5
ATOM      5  C4  UNL A   1      45.365  18.795   3.890  1.00  0.00    +0.000 C 
ATOM      6  O1  UNL A   1      45.952  18.858   4.972  1.00  0.00    +0.000 O 
BRANCH    5    4
ATOM      4  C3  UNL A   1      44.519  19.954   3.386  1.00  0.00    +0.000 C 
ATOM     95  H3  UNL A   1      44.397  20.650   4.190  1.00  0.00    +0.000 H 
ATOM     96  H4  UNL A   1      45.040  20.364   2.547  1.00  0.00    +0.000 H 
BRANCH    4    3
ATOM      2  C1  UNL A   1      42.660  19.871   1.578  1.00  0.00    +0.000 C 
ATOM      3  C2  UNL A   1      43.138  19.568   2.884  1.00  0.00    +0.000 C 
ATOM     80  C56 UNL A   1      42.301  18.903   3.801  1.00  0.00    +0.000 C 
ATOM     81  C57 UNL A   1      41.006  18.545   3.457  1.00  0.00    +0.000 C 
ATOM     82  C58 UNL A   1      40.527  18.841   2.187  1.00  0.00    +0.000 C 
ATOM     83  C59 UNL A   1      41.333  19.492   1.231  1.00  0.00    +0.000 C 
ATOM    125  H33 UNL A   1      42.656  18.681   4.744  1.00  0.00    +0.000 H 
ATOM    126  H34 UNL A   1      40.402  18.062   4.141  1.00  0.00    +0.000 H 
ATOM    127  H35 UNL A   1      39.561  18.578   1.937  1.00  0.00    +0.000 H 
BRANCH    2    1
ATOM      1  N1  UNL A   1      43.524  20.465   0.648  1.00  0.00    +0.000 N 
ATOM     93  H1  UNL A   1      44.251  19.938   0.244  1.00  0.00    +0.000 H 
ATOM     94  H2  UNL A   1      43.404  21.410   0.399  1.00  0.00    +0.000 H 
ENDBRANCH    2    1
BRANCH   83   84
ATOM     84  C60 UNL A   1      40.637  19.780  -0.071  1.00  0.00    +0.000 C 
ATOM     85  O3  UNL A   1      40.975  19.188  -1.097  1.00  0.00    +0.000 O 
BRANCH   84   86
ATOM    129  H37 UNL A   1      38.792  23.779  -1.290  1.00  0.00    +0.000 H 
ATOM    130  H38 UNL A   1      36.142  20.812   0.085  1.00  0.00    +0.000 H 
ATOM    131  H39 UNL A   1      38.023  19.332   0.534  1.00  0.00    +0.000 H 
ATOM     86  C61 UNL A   1      39.478  20.680  -0.201  1.00  0.00    +0.000 C 
ATOM     87  C62 UNL A   1      39.707  21.974  -0.689  1.00  0.00    +0.000 C 
ATOM     88  C63 UNL A   1      38.630  22.830  -0.923  1.00  0.00    +0.000 C 
ATOM     89  C64 UNL A   1      37.333  22.391  -0.655  1.00  0.00    +0.000 C 
ATOM     90 Br1  UNL A   1      35.870  23.527  -1.034  1.00  0.00    +0.000 Br
ATOM     91  C65 UNL A   1      37.105  21.119  -0.125  1.00  0.00    +0.000 C 
ATOM     92  C66 UNL A   1      38.183  20.264   0.120  1.00  0.00    +0.000 C 
ATOM    128  H36 UNL A   1      40.671  22.294  -0.873  1.00  0.00    +0.000 H 
ENDBRANCH   84   86
ENDBRANCH   83   84
ENDBRANCH    4    3
ENDBRANCH    5    4
ENDBRANCH    7    5
ENDBRANCH    8    7
ENDBRANCH    9    8
ENDBRANCH   10    9
ENDBRANCH   11   10
ENDBRANCH   12   11
ENDBRANCH   13   12
ENDBRANCH   14   13
ENDBRANCH   15   14
ENDBRANCH   17   15
ENDBRANCH   21   20
BRANCH   25   26
ATOM     33  C24 UNL A   1      59.867  15.200  10.698  1.00  0.00    +0.000 C 
ATOM     34  F4  UNL A   1      59.936  13.874  10.884  1.00  0.00    +0.000 F 
ATOM     35  C25 UNL A   1      59.010  15.967  11.483  1.00  0.00    +0.000 C 
ATOM     36  F5  UNL A   1      58.257  15.352  12.407  1.00  0.00    +0.000 F 
ATOM     26  C20 UNL A   1      58.936  17.359  11.321  1.00  0.00    +0.000 C 
ATOM     27  C21 UNL A   1      59.751  17.951  10.345  1.00  0.00    +0.000 C 
ATOM     28  F1  UNL A   1      59.709  19.276  10.143  1.00  0.00    +0.000 F 
ATOM     29  C22 UNL A   1      60.586  17.177   9.543  1.00  0.00    +0.000 C 
ATOM     30  F2  UNL A   1      61.320  17.759   8.585  1.00  0.00    +0.000 F 
ATOM     31  C23 UNL A   1      60.648  15.804   9.725  1.00  0.00    +0.000 C 
ATOM     32  F3  UNL A   1      61.456  15.061   8.956  1.00  0.00    +0.000 F 
ENDBRANCH   25   26
BRANCH   42   43
ATOM     43  C31 UNL A   1      59.176  20.645  17.734  1.00  0.00    +0.000 C 
ATOM     44  C32 UNL A   1      59.389  19.699  18.746  1.00  0.00    +0.000 C 
ATOM     45  F6  UNL A   1      58.657  18.574  18.784  1.00  0.00    +0.000 F 
ATOM     46  C33 UNL A   1      60.331  19.922  19.748  1.00  0.00    +0.000 C 
ATOM     47  F7  UNL A   1      60.487  19.024  20.731  1.00  0.00    +0.000 F 
ATOM     48  C34 UNL A   1      61.096  21.079  19.739  1.00  0.00    +0.000 C 
ATOM     49  F8  UNL A   1      62.006  21.288  20.700  1.00  0.00    +0.000 F 
ATOM     50  C35 UNL A   1      60.914  22.020  18.737  1.00  0.00    +0.000 C 
ATOM     51  F9  UNL A   1      61.661  23.133  18.720  1.00  0.00    +0.000 F 
ATOM     52  C36 UNL A   1      59.955  21.813  17.750  1.00  0.00    +0.000 C 
ATOM     53  F10 UNL A   1      59.792  22.747  16.801  1.00  0.00    +0.000 F 
ENDBRANCH   42   43
BRANCH   57   58
ATOM     65  C44 UNL A   1      51.473  24.644  17.616  1.00  0.00    +0.000 C 
ATOM     66  F14 UNL A   1      51.350  25.972  17.485  1.00  0.00    +0.000 F 
ATOM     67  C45 UNL A   1      52.364  23.945  16.805  1.00  0.00    +0.000 C 
ATOM     68  F15 UNL A   1      53.079  24.623  15.895  1.00  0.00    +0.000 F 
ATOM     58  C40 UNL A   1      52.528  22.559  16.938  1.00  0.00    +0.000 C 
ATOM     59  C41 UNL A   1      51.761  21.900  17.909  1.00  0.00    +0.000 C 
ATOM     60  F11 UNL A   1      51.871  20.572  18.059  1.00  0.00    +0.000 F 
ATOM     61  C42 UNL A   1      50.852  22.596  18.702  1.00  0.00    +0.000 C 
ATOM     62  F12 UNL A   1      50.101  21.935  19.593  1.00  0.00    +0.000 F 
ATOM     63  C43 UNL A   1      50.711  23.968  18.558  1.00  0.00    +0.000 C 
ATOM     64  F13 UNL A   1      49.840  24.637  19.324  1.00  0.00    +0.000 F 
ENDBRANCH   57   58
TORSDOF 19
ENDMDL
MODEL 4
REMARK VINA RESULT:     -10.7     37.672     42.824
ROOT
ATOM     21  C16 UNL A   1      14.167  53.927   4.743  1.00  0.00    +0.000 C 
ATOM     22  C17 UNL A   1      15.167  54.339   3.699  1.00  0.00    +0.000 C 
ATOM     23  N4  UNL A   1      15.651  53.649   2.697  1.00  0.00    +0.000 N 
ATOM     24  C18 UNL A   1      16.500  54.514   2.019  1.00  0.00    +0.000 C 
ATOM     25  C19 UNL A   1      17.282  54.259   0.943  1.00  0.00    +0.000 C 
ATOM     37  C26 UNL A   1      17.372  52.980   0.290  1.00  0.00    +0.000 C 
ATOM     38  C27 UNL A   1      18.180  52.605  -0.769  1.00  0.00    +0.000 C 
ATOM     39  C28 UNL A   1      17.893  51.273  -1.088  1.00  0.00    +0.000 C 
ATOM     40  C29 UNL A   1      16.939  50.805  -0.199  1.00  0.00    +0.000 C 
ATOM     41  N5  UNL A   1      16.624  51.864   0.638  1.00  0.00    +0.000 N 
ATOM     42  C30 UNL A   1      16.355  49.491  -0.119  1.00  0.00    +0.000 C 
ATOM     54  C37 UNL A   1      15.428  49.106   0.792  1.00  0.00    +0.000 C 
ATOM     55  N6  UNL A   1      14.854  49.844   1.818  1.00  0.00    +0.000 N 
ATOM     56  C38 UNL A   1      14.010  49.036   2.413  1.00  0.00    +0.000 C 
ATOM     57  C39 UNL A   1      13.130  49.294   3.606  1.00  0.00    +0.000 C 
ATOM     69  C46 UNL A   1      13.176  50.497   4.211  1.00  0.00    +0.000 C 
ATOM     70  C47 UNL A   1      12.389  50.889   5.376  1.00  0.00    +0.000 C 
ATOM     71  C48 UNL A   1      12.657  52.171   5.673  1.00  0.00    +0.000 C 
ATOM     72  C49 UNL A   1      13.664  52.679   4.739  1.00  0.00    +0.000 C 
ATOM     73  N7  UNL A   1      13.919  51.612   3.914  1.00  0.00    +0.000 N 
ATOM     74  C50 UNL A   1      13.933  47.697   1.812  1.00  0.00    +0.000 C 
ATOM     75  C51 UNL A   1      14.844  47.782   0.853  1.00  0.00    +0.000 C 
ATOM     76  C52 UNL A   1      16.431  55.793   2.695  1.00  0.00    +0.000 C 
ATOM     77  C53 UNL A   1      15.672  55.719   3.778  1.00  0.00    +0.000 C 
ATOM    113  H21 UNL A   1      18.874  53.204  -1.242  1.00  0.00    +0.000 H 
ATOM    114  H22 UNL A   1      18.321  50.730  -1.854  1.00  0.00    +0.000 H 
ATOM    115  H23 UNL A   1      15.968  51.830   1.370  1.00  0.00    +0.000 H 
ATOM    116  H24 UNL A   1      11.732  50.280   5.888  1.00  0.00    +0.000 H 
ATOM    117  H25 UNL A   1      12.224  52.711   6.438  1.00  0.00    +0.000 H 
ATOM    118  H26 UNL A   1      14.572  51.645   3.178  1.00  0.00    +0.000 H 
ATOM    119  H27 UNL A   1      13.328  46.902   2.068  1.00  0.00    +0.000 H 
ATOM    120  H28 UNL A   1      15.106  47.002   0.229  1.00  0.00    +0.000 H 
ATOM    121  H29 UNL A   1      16.909  56.649   2.374  1.00  0.00    +0.000 H 
ATOM    122  H30 UNL A   1      15.484  56.441   4.492  1.00  0.00    +0.000 H 
ENDROOT
BRANCH   21   20
ATOM     78  C54 UNL A   1      14.406  55.129   6.917  1.00  0.00    +0.000 C 
ATOM    111  H19 UNL A   1      11.214  57.139   6.273  1.00  0.00    +0.000 H 
ATOM     79  C55 UNL A   1      13.954  56.040   7.868  1.00  0.00    +0.000 C 
ATOM     17  C12 UNL A   1      12.821  56.816   7.606  1.00  0.00    +0.000 C 
ATOM     18  C13 UNL A   1      12.074  56.595   6.446  1.00  0.00    +0.000 C 
ATOM     19  C14 UNL A   1      12.492  55.634   5.523  1.00  0.00    +0.000 C 
ATOM    112  H20 UNL A   1      11.926  55.453   4.678  1.00  0.00    +0.000 H 
ATOM     20  C15 UNL A   1      13.678  54.914   5.737  1.00  0.00    +0.000 C 
ATOM    123  H31 UNL A   1      15.282  54.608   7.080  1.00  0.00    +0.000 H 
ATOM    124  H32 UNL A   1      14.455  56.143   8.764  1.00  0.00    +0.000 H 
BRANCH   17   15
ATOM     15  C11 UNL A   1      12.373  57.856   8.557  1.00  0.00    +0.000 C 
ATOM     16  O2  UNL A   1      12.810  58.998   8.460  1.00  0.00    +0.000 O 
BRANCH   15   14
ATOM    110  H18 UNL A   1      11.497  58.140  10.334  1.00  0.00    +0.000 H 
ATOM     14  N3  UNL A   1      11.479  57.545   9.550  1.00  0.00    +0.000 N 
BRANCH   14   13
ATOM    109  H17 UNL A   1      10.279  56.166   8.611  1.00  0.00    +0.000 H 
ATOM    108  H16 UNL A   1       9.632  56.815  10.121  1.00  0.00    +0.000 H 
ATOM     13  C10 UNL A   1      10.506  56.464   9.613  1.00  0.00    +0.000 C 
BRANCH   13   12
ATOM    106  H14 UNL A   1      11.994  55.513  10.786  1.00  0.00    +0.000 H 
ATOM    107  H15 UNL A   1      10.315  54.983  11.086  1.00  0.00    +0.000 H 
ATOM     12  C9  UNL A   1      11.051  55.246  10.355  1.00  0.00    +0.000 C 
BRANCH   12   11
ATOM    105  H13 UNL A   1      11.289  54.356   8.470  1.00  0.00    +0.000 H 
ATOM     11  C8  UNL A   1      11.258  54.006   9.481  1.00  0.00    +0.000 C 
ATOM    104  H12 UNL A   1      10.453  53.328   9.674  1.00  0.00    +0.000 H 
BRANCH   11   10
ATOM     10  C7  UNL A   1      12.576  53.257   9.713  1.00  0.00    +0.000 C 
ATOM    102  H10 UNL A   1      12.345  52.310  10.155  1.00  0.00    +0.000 H 
ATOM    103  H11 UNL A   1      13.046  53.177   8.756  1.00  0.00    +0.000 H 
BRANCH   10    9
ATOM      9  C6  UNL A   1      13.580  53.974  10.625  1.00  0.00    +0.000 C 
ATOM    100  H8  UNL A   1      14.545  53.934  10.164  1.00  0.00    +0.000 H 
ATOM    101  H9  UNL A   1      13.231  54.978  10.748  1.00  0.00    +0.000 H 
BRANCH    9    8
ATOM     98  H6  UNL A   1      13.311  54.061  12.738  1.00  0.00    +0.000 H 
ATOM     99  H7  UNL A   1      13.112  52.457  12.035  1.00  0.00    +0.000 H 
ATOM      8  C5  UNL A   1      13.685  53.360  12.021  1.00  0.00    +0.000 C 
BRANCH    8    7
ATOM     97  H5  UNL A   1      15.652  53.800  12.505  1.00  0.00    +0.000 H 
ATOM      7  N2  UNL A   1      15.055  53.031  12.358  1.00  0.00    +0.000 N 
BRANCH    7    5
ATOM      5  C4  UNL A   1      15.632  51.802  12.499  1.00  0.00    +0.000 C 
ATOM      6  O1  UNL A   1      15.366  51.148  13.509  1.00  0.00    +0.000 O 
BRANCH    5    4
ATOM      4  C3  UNL A   1      16.640  51.295  11.478  1.00  0.00    +0.000 C 
ATOM     95  H3  UNL A   1      17.331  52.086  11.274  1.00  0.00    +0.000 H 
ATOM     96  H4  UNL A   1      17.099  50.432  11.913  1.00  0.00    +0.000 H 
BRANCH    4    3
ATOM      2  C1  UNL A   1      15.454  49.558   9.958  1.00  0.00    +0.000 C 
ATOM      3  C2  UNL A   1      16.041  50.839  10.158  1.00  0.00    +0.000 C 
ATOM     80  C56 UNL A   1      16.118  51.751   9.087  1.00  0.00    +0.000 C 
ATOM     81  C57 UNL A   1      15.640  51.418   7.828  1.00  0.00    +0.000 C 
ATOM     82  C58 UNL A   1      15.071  50.168   7.621  1.00  0.00    +0.000 C 
ATOM     83  C59 UNL A   1      14.959  49.228   8.666  1.00  0.00    +0.000 C 
ATOM    125  H33 UNL A   1      16.538  52.681   9.241  1.00  0.00    +0.000 H 
ATOM    126  H34 UNL A   1      15.708  52.094   7.052  1.00  0.00    +0.000 H 
ATOM    127  H35 UNL A   1      14.722  49.921   6.681  1.00  0.00    +0.000 H 
BRANCH    2    1
ATOM      1  N1  UNL A   1      15.314  48.686  11.046  1.00  0.00    +0.000 N 
ATOM     93  H1  UNL A   1      15.958  48.721  11.791  1.00  0.00    +0.000 H 
ATOM     94  H2  UNL A   1      14.572  48.040  11.067  1.00  0.00    +0.000 H 
ENDBRANCH    2    1
BRANCH   83   84
ATOM     84  C60 UNL A   1      14.366  47.909   8.250  1.00  0.00    +0.000 C 
ATOM     85  O3  UNL A   1      15.085  47.032   7.769  1.00  0.00    +0.000 O 
BRANCH   84   86
ATOM    129  H37 UNL A   1       9.897  48.827   7.973  1.00  0.00    +0.000 H 
ATOM    130  H38 UNL A   1      10.963  45.006   9.384  1.00  0.00    +0.000 H 
ATOM    131  H39 UNL A   1      13.319  45.611   9.261  1.00  0.00    +0.000 H 
ATOM     86  C61 UNL A   1      12.956  47.538   8.466  1.00  0.00    +0.000 C 
ATOM     87  C62 UNL A   1      11.975  48.481   8.133  1.00  0.00    +0.000 C 
ATOM     88  C63 UNL A   1      10.624  48.140   8.227  1.00  0.00    +0.000 C 
ATOM     89  C64 UNL A   1      10.266  46.865   8.666  1.00  0.00    +0.000 C 
ATOM     90 Br1  UNL A   1       8.439  46.383   8.731  1.00  0.00    +0.000 Br
ATOM     91  C65 UNL A   1      11.241  45.941   9.044  1.00  0.00    +0.000 C 
ATOM     92  C66 UNL A   1      12.594  46.282   8.961  1.00  0.00    +0.000 C 
ATOM    128  H36 UNL A   1      12.249  49.424   7.820  1.00  0.00    +0.000 H 
ENDBRANCH   84   86
ENDBRANCH   83   84
ENDBRANCH    4    3
ENDBRANCH    5    4
ENDBRANCH    7    5
ENDBRANCH    8    7
ENDBRANCH    9    8
ENDBRANCH   10    9
ENDBRANCH   11   10
ENDBRANCH   12   11
ENDBRANCH   13   12
ENDBRANCH   14   13
ENDBRANCH   15   14
ENDBRANCH   17   15
ENDBRANCH   21   20
BRANCH   25   26
ATOM     33  C24 UNL A   1      18.507  57.089  -1.290  1.00  0.00    +0.000 C 
ATOM     34  F4  UNL A   1      18.131  57.701  -2.422  1.00  0.00    +0.000 F 
ATOM     35  C25 UNL A   1      17.727  56.060  -0.765  1.00  0.00    +0.000 C 
ATOM     36  F5  UNL A   1      16.601  55.713  -1.406  1.00  0.00    +0.000 F 
ATOM     26  C20 UNL A   1      18.111  55.390   0.406  1.00  0.00    +0.000 C 
ATOM     27  C21 UNL A   1      19.301  55.789   1.031  1.00  0.00    +0.000 C 
ATOM     28  F1  UNL A   1      19.706  55.188   2.160  1.00  0.00    +0.000 F 
ATOM     29  C22 UNL A   1      20.063  56.837   0.520  1.00  0.00    +0.000 C 
ATOM     30  F2  UNL A   1      21.172  57.232   1.161  1.00  0.00    +0.000 F 
ATOM     31  C23 UNL A   1      19.669  57.481  -0.643  1.00  0.00    +0.000 C 
ATOM     32  F3  UNL A   1      20.406  58.485  -1.137  1.00  0.00    +0.000 F 
ENDBRANCH   25   26
BRANCH   42   43
ATOM     43  C31 UNL A   1      16.820  48.460  -1.103  1.00  0.00    +0.000 C 
ATOM     44  C32 UNL A   1      16.088  48.168  -2.263  1.00  0.00    +0.000 C 
ATOM     45  F6  UNL A   1      14.915  48.777  -2.492  1.00  0.00    +0.000 F 
ATOM     46  C33 UNL A   1      16.543  47.219  -3.176  1.00  0.00    +0.000 C 
ATOM     47  F7  UNL A   1      15.806  46.924  -4.256  1.00  0.00    +0.000 F 
ATOM     48  C34 UNL A   1      17.749  46.568  -2.961  1.00  0.00    +0.000 C 
ATOM     49  F8  UNL A   1      18.188  45.660  -3.843  1.00  0.00    +0.000 F 
ATOM     50  C35 UNL A   1      18.497  46.854  -1.828  1.00  0.00    +0.000 C 
ATOM     51  F9  UNL A   1      19.668  46.235  -1.625  1.00  0.00    +0.000 F 
ATOM     52  C36 UNL A   1      18.032  47.782  -0.901  1.00  0.00    +0.000 C 
ATOM     53  F10 UNL A   1      18.771  48.029   0.192  1.00  0.00    +0.000 F 
ENDBRANCH   42   43
BRANCH   57   58
ATOM     65  C44 UNL A   1      11.914  46.135   5.331  1.00  0.00    +0.000 C 
ATOM     66  F14 UNL A   1      12.431  45.084   5.982  1.00  0.00    +0.000 F 
ATOM     67  C45 UNL A   1      12.755  47.133   4.843  1.00  0.00    +0.000 C 
ATOM     68  F15 UNL A   1      14.075  47.023   5.046  1.00  0.00    +0.000 F 
ATOM     58  C40 UNL A   1      12.240  48.231   4.139  1.00  0.00    +0.000 C 
ATOM     59  C41 UNL A   1      10.853  48.294   3.949  1.00  0.00    +0.000 C 
ATOM     60  F11 UNL A   1      10.315  49.336   3.298  1.00  0.00    +0.000 F 
ATOM     61  C42 UNL A   1      10.011  47.310   4.459  1.00  0.00    +0.000 C 
ATOM     62  F12 UNL A   1       8.685  47.416   4.300  1.00  0.00    +0.000 F 
ATOM     63  C43 UNL A   1      10.542  46.228   5.146  1.00  0.00    +0.000 C 
ATOM     64  F13 UNL A   1       9.732  45.279   5.633  1.00  0.00    +0.000 F 
ENDBRANCH   57   58
TORSDOF 19
ENDMDL
MODEL 5
REMARK VINA RESULT:     -10.5      3.953      8.918
ROOT
ATOM     21  C16 UNL A   1      41.576  26.141  27.596  1.00  0.00    +0.000 C 
ATOM     22  C17 UNL A   1      40.868  27.230  28.352  1.00  0.00    +0.000 C 
ATOM     23  N4  UNL A   1      41.296  28.423  28.680  1.00  0.00    +0.000 N 
ATOM     24  C18 UNL A   1      40.233  29.039  29.330  1.00  0.00    +0.000 C 
ATOM     25  C19 UNL A   1      40.192  30.262  29.909  1.00  0.00    +0.000 C 
ATOM     37  C26 UNL A   1      41.303  31.177  29.954  1.00  0.00    +0.000 C 
ATOM     38  C27 UNL A   1      41.379  32.414  30.569  1.00  0.00    +0.000 C 
ATOM     39  C28 UNL A   1      42.645  32.953  30.313  1.00  0.00    +0.000 C 
ATOM     40  C29 UNL A   1      43.372  32.032  29.575  1.00  0.00    +0.000 C 
ATOM     41  N5  UNL A   1      42.535  30.949  29.358  1.00  0.00    +0.000 N 
ATOM     42  C30 UNL A   1      44.728  32.132  29.101  1.00  0.00    +0.000 C 
ATOM     54  C37 UNL A   1      45.376  31.178  28.390  1.00  0.00    +0.000 C 
ATOM     55  N6  UNL A   1      44.915  29.936  27.974  1.00  0.00    +0.000 N 
ATOM     56  C38 UNL A   1      45.905  29.389  27.311  1.00  0.00    +0.000 C 
ATOM     57  C39 UNL A   1      45.976  28.035  26.658  1.00  0.00    +0.000 C 
ATOM     69  C46 UNL A   1      44.917  27.207  26.741  1.00  0.00    +0.000 C 
ATOM     70  C47 UNL A   1      44.842  25.868  26.165  1.00  0.00    +0.000 C 
ATOM     71  C48 UNL A   1      43.623  25.357  26.403  1.00  0.00    +0.000 C 
ATOM     72  C49 UNL A   1      42.843  26.322  27.181  1.00  0.00    +0.000 C 
ATOM     73  N7  UNL A   1      43.696  27.385  27.342  1.00  0.00    +0.000 N 
ATOM     74  C50 UNL A   1      47.101  30.237  27.207  1.00  0.00    +0.000 C 
ATOM     75  C51 UNL A   1      46.739  31.298  27.913  1.00  0.00    +0.000 C 
ATOM     76  C52 UNL A   1      39.126  28.106  29.308  1.00  0.00    +0.000 C 
ATOM     77  C53 UNL A   1      39.487  26.949  28.774  1.00  0.00    +0.000 C 
ATOM    113  H21 UNL A   1      40.632  32.862  31.122  1.00  0.00    +0.000 H 
ATOM    114  H22 UNL A   1      42.981  33.878  30.621  1.00  0.00    +0.000 H 
ATOM    115  H23 UNL A   1      42.778  30.139  28.855  1.00  0.00    +0.000 H 
ATOM    116  H24 UNL A   1      45.603  25.390  25.657  1.00  0.00    +0.000 H 
ATOM    117  H25 UNL A   1      43.290  24.432  26.089  1.00  0.00    +0.000 H 
ATOM    118  H26 UNL A   1      43.454  28.198  27.841  1.00  0.00    +0.000 H 
ATOM    119  H27 UNL A   1      47.988  30.055  26.713  1.00  0.00    +0.000 H 
ATOM    120  H28 UNL A   1      47.350  32.108  28.101  1.00  0.00    +0.000 H 
ATOM    121  H29 UNL A   1      38.180  28.316  29.662  1.00  0.00    +0.000 H 
ATOM    122  H30 UNL A   1      38.942  26.078  28.679  1.00  0.00    +0.000 H 
ENDROOT
BRANCH   21   20
ATOM     78  C54 UNL A   1      39.781  24.943  26.345  1.00  0.00    +0.000 C 
ATOM    111  H19 UNL A   1      40.872  21.575  27.799  1.00  0.00    +0.000 H 
ATOM     79  C55 UNL A   1      39.086  23.783  26.010  1.00  0.00    +0.000 C 
ATOM     17  C12 UNL A   1      39.521  22.547  26.496  1.00  0.00    +0.000 C 
ATOM     18  C13 UNL A   1      40.578  22.484  27.408  1.00  0.00    +0.000 C 
ATOM     19  C14 UNL A   1      41.233  23.656  27.793  1.00  0.00    +0.000 C 
ATOM    112  H20 UNL A   1      41.997  23.613  28.486  1.00  0.00    +0.000 H 
ATOM     20  C15 UNL A   1      40.858  24.891  27.241  1.00  0.00    +0.000 C 
ATOM    123  H31 UNL A   1      39.502  25.846  25.929  1.00  0.00    +0.000 H 
ATOM    124  H32 UNL A   1      38.251  23.836  25.406  1.00  0.00    +0.000 H 
BRANCH   17   15
ATOM     15  C11 UNL A   1      38.859  21.290  26.085  1.00  0.00    +0.000 C 
ATOM     16  O2  UNL A   1      39.526  20.270  25.938  1.00  0.00    +0.000 O 
BRANCH   15   14
ATOM    110  H18 UNL A   1      36.942  21.371  26.655  1.00  0.00    +0.000 H 
ATOM     14  N3  UNL A   1      37.506  21.264  25.856  1.00  0.00    +0.000 N 
BRANCH   14   13
ATOM    109  H17 UNL A   1      35.769  20.859  24.837  1.00  0.00    +0.000 H 
ATOM    108  H16 UNL A   1      37.248  20.324  24.034  1.00  0.00    +0.000 H 
ATOM     13  C10 UNL A   1      36.784  21.103  24.603  1.00  0.00    +0.000 C 
BRANCH   13   12
ATOM    106  H14 UNL A   1      37.645  22.957  24.045  1.00  0.00    +0.000 H 
ATOM    107  H15 UNL A   1      36.785  22.080  22.747  1.00  0.00    +0.000 H 
ATOM     12  C9  UNL A   1      36.782  22.384  23.774  1.00  0.00    +0.000 C 
BRANCH   12   11
ATOM    105  H13 UNL A   1      34.728  22.597  24.143  1.00  0.00    +0.000 H 
ATOM     11  C8  UNL A   1      35.545  23.265  23.963  1.00  0.00    +0.000 C 
ATOM    104  H12 UNL A   1      35.424  23.858  23.080  1.00  0.00    +0.000 H 
BRANCH   11   10
ATOM     10  C7  UNL A   1      35.595  24.212  25.169  1.00  0.00    +0.000 C 
ATOM    102  H10 UNL A   1      36.507  24.028  25.696  1.00  0.00    +0.000 H 
ATOM    103  H11 UNL A   1      35.524  25.202  24.773  1.00  0.00    +0.000 H 
BRANCH   10    9
ATOM      9  C6  UNL A   1      34.434  24.062  26.161  1.00  0.00    +0.000 C 
ATOM    100  H8  UNL A   1      34.673  24.613  27.047  1.00  0.00    +0.000 H 
ATOM    101  H9  UNL A   1      33.556  24.436  25.676  1.00  0.00    +0.000 H 
BRANCH    9    8
ATOM     98  H6  UNL A   1      34.932  21.989  26.175  1.00  0.00    +0.000 H 
ATOM     99  H7  UNL A   1      34.100  22.557  27.621  1.00  0.00    +0.000 H 
ATOM      8  C5  UNL A   1      34.149  22.612  26.554  1.00  0.00    +0.000 C 
BRANCH    8    7
ATOM     97  H5  UNL A   1      32.911  21.292  25.543  1.00  0.00    +0.000 H 
ATOM      7  N2  UNL A   1      32.883  22.154  26.019  1.00  0.00    +0.000 N 
BRANCH    7    5
ATOM      5  C4  UNL A   1      31.657  22.752  26.084  1.00  0.00    +0.000 C 
ATOM      6  O1  UNL A   1      31.134  22.882  27.192  1.00  0.00    +0.000 O 
BRANCH    5    4
ATOM      4  C3  UNL A   1      30.925  23.164  24.816  1.00  0.00    +0.000 C 
ATOM     95  H3  UNL A   1      30.720  22.279  24.250  1.00  0.00    +0.000 H 
ATOM     96  H4  UNL A   1      30.043  23.679  25.132  1.00  0.00    +0.000 H 
BRANCH    4    3
ATOM      2  C1  UNL A   1      31.808  25.522  24.189  1.00  0.00    +0.000 C 
ATOM      3  C2  UNL A   1      31.686  24.129  23.923  1.00  0.00    +0.000 C 
ATOM     80  C56 UNL A   1      32.262  23.585  22.758  1.00  0.00    +0.000 C 
ATOM     81  C57 UNL A   1      32.940  24.388  21.853  1.00  0.00    +0.000 C 
ATOM     82  C58 UNL A   1      33.060  25.750  22.101  1.00  0.00    +0.000 C 
ATOM     83  C59 UNL A   1      32.513  26.337  23.260  1.00  0.00    +0.000 C 
ATOM    125  H33 UNL A   1      32.176  22.573  22.574  1.00  0.00    +0.000 H 
ATOM    126  H34 UNL A   1      33.353  23.977  21.002  1.00  0.00    +0.000 H 
ATOM    127  H35 UNL A   1      33.561  26.345  21.423  1.00  0.00    +0.000 H 
BRANCH    2    1
ATOM      1  N1  UNL A   1      31.297  26.042  25.386  1.00  0.00    +0.000 N 
ATOM     93  H1  UNL A   1      31.051  26.994  25.445  1.00  0.00    +0.000 H 
ATOM     94  H2  UNL A   1      31.182  25.455  26.169  1.00  0.00    +0.000 H 
ENDBRANCH    2    1
BRANCH   83   84
ATOM     84  C60 UNL A   1      32.691  27.828  23.340  1.00  0.00    +0.000 C 
ATOM     85  O3  UNL A   1      33.820  28.319  23.316  1.00  0.00    +0.000 O 
BRANCH   84   86
ATOM    129  H37 UNL A   1      28.957  29.651  21.438  1.00  0.00    +0.000 H 
ATOM    130  H38 UNL A   1      30.014  31.060  25.261  1.00  0.00    +0.000 H 
ATOM    131  H39 UNL A   1      32.005  29.657  25.233  1.00  0.00    +0.000 H 
ATOM     86  C61 UNL A   1      31.574  28.789  23.353  1.00  0.00    +0.000 C 
ATOM     87  C62 UNL A   1      30.721  28.814  22.242  1.00  0.00    +0.000 C 
ATOM     88  C63 UNL A   1      29.593  29.636  22.249  1.00  0.00    +0.000 C 
ATOM     89  C64 UNL A   1      29.334  30.437  23.362  1.00  0.00    +0.000 C 
ATOM     90 Br1  UNL A   1      27.771  31.501  23.398  1.00  0.00    +0.000 Br
ATOM     91  C65 UNL A   1      30.207  30.449  24.451  1.00  0.00    +0.000 C 
ATOM     92  C66 UNL A   1      31.343  29.635  24.442  1.00  0.00    +0.000 C 
ATOM    128  H36 UNL A   1      30.927  28.227  21.419  1.00  0.00    +0.000 H 
ENDBRANCH   84   86
ENDBRANCH   83   84
ENDBRANCH    4    3
ENDBRANCH    5    4
ENDBRANCH    7    5
ENDBRANCH    8    7
ENDBRANCH    9    8
ENDBRANCH   10    9
ENDBRANCH   11   10
ENDBRANCH   12   11
ENDBRANCH   13   12
ENDBRANCH   14   13
ENDBRANCH   15   14
ENDBRANCH   17   15
ENDBRANCH   21   20
BRANCH   25   26
ATOM     33  C24 UNL A   1      37.489  30.867  32.520  1.00  0.00    +0.000 C 
ATOM     34  F4  UNL A   1      37.309  30.674  33.834  1.00  0.00    +0.000 F 
ATOM     35  C25 UNL A   1      38.696  30.510  31.924  1.00  0.00    +0.000 C 
ATOM     36  F5  UNL A   1      39.665  29.988  32.691  1.00  0.00    +0.000 F 
ATOM     26  C20 UNL A   1      38.900  30.683  30.547  1.00  0.00    +0.000 C 
ATOM     27  C21 UNL A   1      37.851  31.227  29.791  1.00  0.00    +0.000 C 
ATOM     28  F1  UNL A   1      38.000  31.423  28.473  1.00  0.00    +0.000 F 
ATOM     29  C22 UNL A   1      36.656  31.610  30.395  1.00  0.00    +0.000 C 
ATOM     30  F2  UNL A   1      35.685  32.171  29.660  1.00  0.00    +0.000 F 
ATOM     31  C23 UNL A   1      36.473  31.423  31.757  1.00  0.00    +0.000 C 
ATOM     32  F3  UNL A   1      35.321  31.787  32.336  1.00  0.00    +0.000 F 
ENDBRANCH   25   26
BRANCH   42   43
ATOM     43  C31 UNL A   1      45.494  33.377  29.436  1.00  0.00    +0.000 C 
ATOM     44  C32 UNL A   1      45.468  34.504  28.602  1.00  0.00    +0.000 C 
ATOM     45  F6  UNL A   1      44.789  34.471  27.445  1.00  0.00    +0.000 F 
ATOM     46  C33 UNL A   1      46.172  35.658  28.936  1.00  0.00    +0.000 C 
ATOM     47  F7  UNL A   1      46.168  36.708  28.103  1.00  0.00    +0.000 F 
ATOM     48  C34 UNL A   1      46.888  35.718  30.123  1.00  0.00    +0.000 C 
ATOM     49  F8  UNL A   1      47.559  36.832  30.445  1.00  0.00    +0.000 F 
ATOM     50  C35 UNL A   1      46.915  34.621  30.970  1.00  0.00    +0.000 C 
ATOM     51  F9  UNL A   1      47.597  34.681  32.122  1.00  0.00    +0.000 F 
ATOM     52  C36 UNL A   1      46.234  33.456  30.626  1.00  0.00    +0.000 C 
ATOM     53  F10 UNL A   1      46.288  32.406  31.460  1.00  0.00    +0.000 F 
ENDBRANCH   42   43
BRANCH   57   58
ATOM     65  C44 UNL A   1      48.489  27.283  23.909  1.00  0.00    +0.000 C 
ATOM     66  F14 UNL A   1      48.577  27.380  22.576  1.00  0.00    +0.000 F 
ATOM     67  C45 UNL A   1      47.334  27.707  24.562  1.00  0.00    +0.000 C 
ATOM     68  F15 UNL A   1      46.330  28.217  23.835  1.00  0.00    +0.000 F 
ATOM     58  C40 UNL A   1      47.208  27.594  25.954  1.00  0.00    +0.000 C 
ATOM     59  C41 UNL A   1      48.284  27.049  26.666  1.00  0.00    +0.000 C 
ATOM     60  F11 UNL A   1      48.216  26.939  28.001  1.00  0.00    +0.000 F 
ATOM     61  C42 UNL A   1      49.449  26.649  26.016  1.00  0.00    +0.000 C 
ATOM     62  F12 UNL A   1      50.479  26.169  26.725  1.00  0.00    +0.000 F 
ATOM     63  C43 UNL A   1      49.549  26.762  24.637  1.00  0.00    +0.000 C 
ATOM     64  F13 UNL A   1      50.668  26.373  24.011  1.00  0.00    +0.000 F 
ENDBRANCH   57   58
TORSDOF 19
ENDMDL
MODEL 6
REMARK VINA RESULT:     -10.5     17.483     22.389
ROOT
ATOM     21  C16 UNL A   1      25.874  35.668  45.367  1.00  0.00    +0.000 C 
ATOM     22  C17 UNL A   1      27.206  35.608  44.674  1.00  0.00    +0.000 C 
ATOM     23  N4  UNL A   1      28.263  36.362  44.843  1.00  0.00    +0.000 N 
ATOM     24  C18 UNL A   1      29.231  35.853  43.987  1.00  0.00    +0.000 C 
ATOM     25  C19 UNL A   1      30.480  36.319  43.752  1.00  0.00    +0.000 C 
ATOM     37  C26 UNL A   1      31.043  37.485  44.380  1.00  0.00    +0.000 C 
ATOM     38  C27 UNL A   1      32.277  38.073  44.164  1.00  0.00    +0.000 C 
ATOM     39  C28 UNL A   1      32.400  39.164  45.032  1.00  0.00    +0.000 C 
ATOM     40  C29 UNL A   1      31.225  39.282  45.757  1.00  0.00    +0.000 C 
ATOM     41  N5  UNL A   1      30.403  38.243  45.351  1.00  0.00    +0.000 N 
ATOM     42  C30 UNL A   1      30.878  40.268  46.748  1.00  0.00    +0.000 C 
ATOM     54  C37 UNL A   1      29.696  40.322  47.410  1.00  0.00    +0.000 C 
ATOM     55  N6  UNL A   1      28.591  39.490  47.293  1.00  0.00    +0.000 N 
ATOM     56  C38 UNL A   1      27.707  39.944  48.148  1.00  0.00    +0.000 C 
ATOM     57  C39 UNL A   1      26.315  39.444  48.428  1.00  0.00    +0.000 C 
ATOM     69  C46 UNL A   1      25.837  38.398  47.729  1.00  0.00    +0.000 C 
ATOM     70  C47 UNL A   1      24.511  37.810  47.886  1.00  0.00    +0.000 C 
ATOM     71  C48 UNL A   1      24.399  36.756  47.060  1.00  0.00    +0.000 C 
ATOM     72  C49 UNL A   1      25.636  36.619  46.289  1.00  0.00    +0.000 C 
ATOM     73  N7  UNL A   1      26.427  37.642  46.746  1.00  0.00    +0.000 N 
ATOM     74  C50 UNL A   1      28.164  41.103  48.926  1.00  0.00    +0.000 C 
ATOM     75  C51 UNL A   1      29.366  41.316  48.410  1.00  0.00    +0.000 C 
ATOM     76  C52 UNL A   1      28.653  34.696  43.335  1.00  0.00    +0.000 C 
ATOM     77  C53 UNL A   1      27.383  34.542  43.675  1.00  0.00    +0.000 C 
ATOM    113  H21 UNL A   1      32.985  37.761  43.482  1.00  0.00    +0.000 H 
ATOM    114  H22 UNL A   1      33.226  39.777  45.117  1.00  0.00    +0.000 H 
ATOM    115  H23 UNL A   1      29.499  38.068  45.699  1.00  0.00    +0.000 H 
ATOM    116  H24 UNL A   1      23.777  38.148  48.529  1.00  0.00    +0.000 H 
ATOM    117  H25 UNL A   1      23.573  36.143  46.981  1.00  0.00    +0.000 H 
ATOM    118  H26 UNL A   1      27.333  37.817  46.403  1.00  0.00    +0.000 H 
ATOM    119  H27 UNL A   1      27.676  41.616  49.678  1.00  0.00    +0.000 H 
ATOM    120  H28 UNL A   1      29.988  42.092  48.686  1.00  0.00    +0.000 H 
ATOM    121  H29 UNL A   1      29.165  34.075  42.690  1.00  0.00    +0.000 H 
ATOM    122  H30 UNL A   1      26.695  33.853  43.330  1.00  0.00    +0.000 H 
ENDROOT
BRANCH   21   20
ATOM     78  C54 UNL A   1      24.827  33.454  45.842  1.00  0.00    +0.000 C 
ATOM    111  H19 UNL A   1      22.171  34.014  43.145  1.00  0.00    +0.000 H 
ATOM     79  C55 UNL A   1      23.876  32.469  45.588  1.00  0.00    +0.000 C 
ATOM     17  C12 UNL A   1      22.871  32.700  44.643  1.00  0.00    +0.000 C 
ATOM     18  C13 UNL A   1      22.889  33.864  43.871  1.00  0.00    +0.000 C 
ATOM     19  C14 UNL A   1      23.882  34.822  44.083  1.00  0.00    +0.000 C 
ATOM    112  H20 UNL A   1      23.910  35.671  43.495  1.00  0.00    +0.000 H 
ATOM     20  C15 UNL A   1      24.843  34.638  45.090  1.00  0.00    +0.000 C 
ATOM    123  H31 UNL A   1      25.526  33.311  46.589  1.00  0.00    +0.000 H 
ATOM    124  H32 UNL A   1      23.912  31.571  46.095  1.00  0.00    +0.000 H 
BRANCH   17   15
ATOM     15  C11 UNL A   1      21.795  31.710  44.418  1.00  0.00    +0.000 C 
ATOM     16  O2  UNL A   1      21.971  30.537  44.731  1.00  0.00    +0.000 O 
BRANCH   15   14
ATOM    110  H18 UNL A   1      20.451  31.774  42.936  1.00  0.00    +0.000 H 
ATOM     14  N3  UNL A   1      20.607  32.099  43.852  1.00  0.00    +0.000 N 
BRANCH   14   13
ATOM    109  H17 UNL A   1      19.055  33.422  43.601  1.00  0.00    +0.000 H 
ATOM    108  H16 UNL A   1      19.969  33.617  45.100  1.00  0.00    +0.000 H 
ATOM     13  C10 UNL A   1      19.542  32.919  44.410  1.00  0.00    +0.000 C 
BRANCH   13   12
ATOM    106  H14 UNL A   1      18.958  31.165  45.447  1.00  0.00    +0.000 H 
ATOM    107  H15 UNL A   1      18.154  32.674  45.964  1.00  0.00    +0.000 H 
ATOM     12  C9  UNL A   1      18.497  32.081  45.141  1.00  0.00    +0.000 C 
BRANCH   12   11
ATOM    105  H13 UNL A   1      17.126  32.548  43.623  1.00  0.00    +0.000 H 
ATOM     11  C8  UNL A   1      17.258  31.737  44.308  1.00  0.00    +0.000 C 
ATOM    104  H12 UNL A   1      16.435  31.608  44.980  1.00  0.00    +0.000 H 
BRANCH   11   10
ATOM     10  C7  UNL A   1      17.378  30.470  43.453  1.00  0.00    +0.000 C 
ATOM    102  H10 UNL A   1      16.389  30.146  43.202  1.00  0.00    +0.000 H 
ATOM    103  H11 UNL A   1      17.965  30.740  42.601  1.00  0.00    +0.000 H 
BRANCH   10    9
ATOM      9  C6  UNL A   1      18.107  29.299  44.123  1.00  0.00    +0.000 C 
ATOM    100  H8  UNL A   1      19.153  29.523  44.153  1.00  0.00    +0.000 H 
ATOM    101  H9  UNL A   1      17.689  29.187  45.102  1.00  0.00    +0.000 H 
BRANCH    9    8
ATOM     98  H6  UNL A   1      18.185  28.089  42.369  1.00  0.00    +0.000 H 
ATOM     99  H7  UNL A   1      18.543  27.236  43.869  1.00  0.00    +0.000 H 
ATOM      8  C5  UNL A   1      17.918  27.966  43.398  1.00  0.00    +0.000 C 
BRANCH    8    7
ATOM     97  H5  UNL A   1      15.860  28.190  43.299  1.00  0.00    +0.000 H 
ATOM      7  N2  UNL A   1      16.547  27.506  43.475  1.00  0.00    +0.000 N 
BRANCH    7    5
ATOM      5  C4  UNL A   1      16.076  26.256  43.757  1.00  0.00    +0.000 C 
ATOM      6  O1  UNL A   1      16.800  25.496  44.402  1.00  0.00    +0.000 O 
BRANCH    5    4
ATOM      4  C3  UNL A   1      14.733  25.791  43.215  1.00  0.00    +0.000 C 
ATOM     95  H3  UNL A   1      14.471  24.881  43.714  1.00  0.00    +0.000 H 
ATOM     96  H4  UNL A   1      14.043  26.588  43.397  1.00  0.00    +0.000 H 
BRANCH    4    3
ATOM      2  C1  UNL A   1      14.703  24.233  41.141  1.00  0.00    +0.000 C 
ATOM      3  C2  UNL A   1      14.701  25.533  41.718  1.00  0.00    +0.000 C 
ATOM     80  C56 UNL A   1      14.705  26.670  40.887  1.00  0.00    +0.000 C 
ATOM     81  C57 UNL A   1      14.721  26.546  39.505  1.00  0.00    +0.000 C 
ATOM     82  C58 UNL A   1      14.728  25.281  38.931  1.00  0.00    +0.000 C 
ATOM     83  C59 UNL A   1      14.711  24.114  39.723  1.00  0.00    +0.000 C 
ATOM    125  H33 UNL A   1      14.697  27.611  41.311  1.00  0.00    +0.000 H 
ATOM    126  H34 UNL A   1      14.728  27.387  38.908  1.00  0.00    +0.000 H 
ATOM    127  H35 UNL A   1      14.746  25.192  37.903  1.00  0.00    +0.000 H 
BRANCH    2    1
ATOM      1  N1  UNL A   1      14.624  23.109  41.974  1.00  0.00    +0.000 N 
ATOM     93  H1  UNL A   1      14.130  22.310  41.679  1.00  0.00    +0.000 H 
ATOM     94  H2  UNL A   1      15.064  23.118  42.855  1.00  0.00    +0.000 H 
ENDBRANCH    2    1
BRANCH   83   84
ATOM     84  C60 UNL A   1      14.775  22.833  38.937  1.00  0.00    +0.000 C 
ATOM     85  O3  UNL A   1      15.734  22.608  38.198  1.00  0.00    +0.000 O 
BRANCH   84   86
ATOM    129  H37 UNL A   1      13.617  18.425  38.601  1.00  0.00    +0.000 H 
ATOM    130  H38 UNL A   1      10.701  21.037  40.148  1.00  0.00    +0.000 H 
ATOM    131  H39 UNL A   1      12.191  22.928  39.781  1.00  0.00    +0.000 H 
ATOM     86  C61 UNL A   1      13.789  21.745  39.059  1.00  0.00    +0.000 C 
ATOM     87  C62 UNL A   1      14.189  20.456  38.680  1.00  0.00    +0.000 C 
ATOM     88  C63 UNL A   1      13.325  19.377  38.869  1.00  0.00    +0.000 C 
ATOM     89  C64 UNL A   1      12.062  19.596  39.422  1.00  0.00    +0.000 C 
ATOM     90 Br1  UNL A   1      10.917  18.125  39.738  1.00  0.00    +0.000 Br
ATOM     91  C65 UNL A   1      11.644  20.885  39.756  1.00  0.00    +0.000 C 
ATOM     92  C66 UNL A   1      12.503  21.969  39.559  1.00  0.00    +0.000 C 
ATOM    128  H36 UNL A   1      15.120  20.306  38.262  1.00  0.00    +0.000 H 
ENDBRANCH   84   86
ENDBRANCH   83   84
ENDBRANCH    4    3
ENDBRANCH    5    4
ENDBRANCH    7    5
ENDBRANCH    8    7
ENDBRANCH    9    8
ENDBRANCH   10    9
ENDBRANCH   11   10
ENDBRANCH   12   11
ENDBRANCH   13   12
ENDBRANCH   14   13
ENDBRANCH   15   14
ENDBRANCH   17   15
ENDBRANCH   21   20
BRANCH   25   26
ATOM     33  C24 UNL A   1      32.908  33.783  42.280  1.00  0.00    +0.000 C 
ATOM     34  F4  UNL A   1      33.649  32.749  42.701  1.00  0.00    +0.000 F 
ATOM     35  C25 UNL A   1      32.095  34.467  43.180  1.00  0.00    +0.000 C 
ATOM     36  F5  UNL A   1      32.063  34.062  44.458  1.00  0.00    +0.000 F 
ATOM     26  C20 UNL A   1      31.327  35.566  42.767  1.00  0.00    +0.000 C 
ATOM     27  C21 UNL A   1      31.403  35.952  41.420  1.00  0.00    +0.000 C 
ATOM     28  F1  UNL A   1      30.679  36.989  40.973  1.00  0.00    +0.000 F 
ATOM     29  C22 UNL A   1      32.195  35.248  40.516  1.00  0.00    +0.000 C 
ATOM     30  F2  UNL A   1      32.216  35.606  39.225  1.00  0.00    +0.000 F 
ATOM     31  C23 UNL A   1      32.952  34.169  40.948  1.00  0.00    +0.000 C 
ATOM     32  F3  UNL A   1      33.718  33.496  40.079  1.00  0.00    +0.000 F 
ENDBRANCH   25   26
BRANCH   42   43
ATOM     43  C31 UNL A   1      31.889  41.330  47.060  1.00  0.00    +0.000 C 
ATOM     44  C32 UNL A   1      33.029  41.057  47.828  1.00  0.00    +0.000 C 
ATOM     45  F6  UNL A   1      33.214  39.835  48.351  1.00  0.00    +0.000 F 
ATOM     46  C33 UNL A   1      33.967  42.051  48.095  1.00  0.00    +0.000 C 
ATOM     47  F7  UNL A   1      35.028  41.779  48.868  1.00  0.00    +0.000 F 
ATOM     48  C34 UNL A   1      33.798  43.326  47.574  1.00  0.00    +0.000 C 
ATOM     49  F8  UNL A   1      34.705  44.279  47.827  1.00  0.00    +0.000 F 
ATOM     50  C35 UNL A   1      32.685  43.613  46.798  1.00  0.00    +0.000 C 
ATOM     51  F9  UNL A   1      32.527  44.841  46.284  1.00  0.00    +0.000 F 
ATOM     52  C36 UNL A   1      31.732  42.629  46.552  1.00  0.00    +0.000 C 
ATOM     53  F10 UNL A   1      30.660  42.940  45.808  1.00  0.00    +0.000 F 
ENDBRANCH   42   43
BRANCH   57   58
ATOM     65  C44 UNL A   1      24.694  40.369  51.738  1.00  0.00    +0.000 C 
ATOM     66  F14 UNL A   1      24.742  39.986  53.021  1.00  0.00    +0.000 F 
ATOM     67  C45 UNL A   1      25.508  39.744  50.795  1.00  0.00    +0.000 C 
ATOM     68  F15 UNL A   1      26.335  38.770  51.198  1.00  0.00    +0.000 F 
ATOM     58  C40 UNL A   1      25.459  40.111  49.443  1.00  0.00    +0.000 C 
ATOM     59  C41 UNL A   1      24.572  41.131  49.073  1.00  0.00    +0.000 C 
ATOM     60  F11 UNL A   1      24.506  41.529  47.794  1.00  0.00    +0.000 F 
ATOM     61  C42 UNL A   1      23.778  41.773  50.021  1.00  0.00    +0.000 C 
ATOM     62  F12 UNL A   1      22.969  42.773  49.647  1.00  0.00    +0.000 F 
ATOM     63  C43 UNL A   1      23.837  41.388  51.352  1.00  0.00    +0.000 C 
ATOM     64  F13 UNL A   1      23.069  42.003  52.262  1.00  0.00    +0.000 F 
ENDBRANCH   57   58
TORSDOF 19
ENDMDL
MODEL 7
REMARK VINA RESULT:     -10.5      2.924      4.860
ROOT
ATOM     21  C16 UNL A   1      39.899  29.079  29.400  1.00  0.00    +0.000 C 
ATOM     22  C17 UNL A   1      40.614  27.847  28.921  1.00  0.00    +0.000 C 
ATOM     23  N4  UNL A   1      41.805  27.405  29.237  1.00  0.00    +0.000 N 
ATOM     24  C18 UNL A   1      41.957  26.207  28.551  1.00  0.00    +0.000 C 
ATOM     25  C19 UNL A   1      43.037  25.393  28.503  1.00  0.00    +0.000 C 
ATOM     37  C26 UNL A   1      44.277  25.647  29.188  1.00  0.00    +0.000 C 
ATOM     38  C27 UNL A   1      45.450  24.914  29.154  1.00  0.00    +0.000 C 
ATOM     39  C28 UNL A   1      46.373  25.525  30.010  1.00  0.00    +0.000 C 
ATOM     40  C29 UNL A   1      45.790  26.664  30.542  1.00  0.00    +0.000 C 
ATOM     41  N5  UNL A   1      44.502  26.724  30.034  1.00  0.00    +0.000 N 
ATOM     42  C30 UNL A   1      46.363  27.625  31.450  1.00  0.00    +0.000 C 
ATOM     54  C37 UNL A   1      45.727  28.725  31.920  1.00  0.00    +0.000 C 
ATOM     55  N6  UNL A   1      44.441  29.172  31.650  1.00  0.00    +0.000 N 
ATOM     56  C38 UNL A   1      44.287  30.270  32.350  1.00  0.00    +0.000 C 
ATOM     57  C39 UNL A   1      43.098  31.191  32.422  1.00  0.00    +0.000 C 
ATOM     69  C46 UNL A   1      42.010  30.921  31.676  1.00  0.00    +0.000 C 
ATOM     70  C47 UNL A   1      40.791  31.722  31.638  1.00  0.00    +0.000 C 
ATOM     71  C48 UNL A   1      39.902  31.128  30.825  1.00  0.00    +0.000 C 
ATOM     72  C49 UNL A   1      40.506  29.922  30.257  1.00  0.00    +0.000 C 
ATOM     73  N7  UNL A   1      41.760  29.885  30.811  1.00  0.00    +0.000 N 
ATOM     74  C50 UNL A   1      45.454  30.630  33.167  1.00  0.00    +0.000 C 
ATOM     75  C51 UNL A   1      46.315  29.678  32.839  1.00  0.00    +0.000 C 
ATOM     76  C52 UNL A   1      40.719  25.967  27.839  1.00  0.00    +0.000 C 
ATOM     77  C53 UNL A   1      39.882  26.983  27.982  1.00  0.00    +0.000 C 
ATOM    113  H21 UNL A   1      45.616  24.063  28.595  1.00  0.00    +0.000 H 
ATOM    114  H22 UNL A   1      47.327  25.187  30.209  1.00  0.00    +0.000 H 
ATOM    115  H23 UNL A   1      43.845  27.426  30.242  1.00  0.00    +0.000 H 
ATOM    116  H24 UNL A   1      40.635  32.603  32.154  1.00  0.00    +0.000 H 
ATOM    117  H25 UNL A   1      38.947  31.468  30.631  1.00  0.00    +0.000 H 
ATOM    118  H26 UNL A   1      42.418  29.182  30.608  1.00  0.00    +0.000 H 
ATOM    119  H27 UNL A   1      45.570  31.417  33.825  1.00  0.00    +0.000 H 
ATOM    120  H28 UNL A   1      47.283  29.622  33.193  1.00  0.00    +0.000 H 
ATOM    121  H29 UNL A   1      40.517  25.116  27.292  1.00  0.00    +0.000 H 
ATOM    122  H30 UNL A   1      38.957  27.130  27.548  1.00  0.00    +0.000 H 
ENDROOT
BRANCH   21   20
ATOM     78  C54 UNL A   1      38.228  29.766  27.679  1.00  0.00    +0.000 C 
ATOM    111  H19 UNL A   1      35.333  29.208  30.119  1.00  0.00    +0.000 H 
ATOM     79  C55 UNL A   1      36.919  30.025  27.277  1.00  0.00    +0.000 C 
ATOM     17  C12 UNL A   1      35.859  29.765  28.150  1.00  0.00    +0.000 C 
ATOM     18  C13 UNL A   1      36.115  29.359  29.462  1.00  0.00    +0.000 C 
ATOM     19  C14 UNL A   1      37.431  29.162  29.884  1.00  0.00    +0.000 C 
ATOM    112  H20 UNL A   1      37.622  28.887  30.861  1.00  0.00    +0.000 H 
ATOM     20  C15 UNL A   1      38.497  29.336  28.987  1.00  0.00    +0.000 C 
ATOM    123  H31 UNL A   1      39.004  29.891  27.010  1.00  0.00    +0.000 H 
ATOM    124  H32 UNL A   1      36.734  30.409  26.338  1.00  0.00    +0.000 H 
BRANCH   17   15
ATOM     15  C11 UNL A   1      34.456  29.944  27.719  1.00  0.00    +0.000 C 
ATOM     16  O2  UNL A   1      34.073  31.044  27.332  1.00  0.00    +0.000 O 
BRANCH   15   14
ATOM    110  H18 UNL A   1      33.510  28.433  28.631  1.00  0.00    +0.000 H 
ATOM     14  N3  UNL A   1      33.580  28.888  27.761  1.00  0.00    +0.000 N 
BRANCH   14   13
ATOM    109  H17 UNL A   1      32.723  29.048  25.900  1.00  0.00    +0.000 H 
ATOM    108  H16 UNL A   1      31.755  28.183  27.098  1.00  0.00    +0.000 H 
ATOM     13  C10 UNL A   1      32.737  28.344  26.706  1.00  0.00    +0.000 C 
BRANCH   13   12
ATOM    106  H14 UNL A   1      34.042  26.679  26.832  1.00  0.00    +0.000 H 
ATOM    107  H15 UNL A   1      32.440  26.355  26.112  1.00  0.00    +0.000 H 
ATOM     12  C9  UNL A   1      33.276  27.022  26.168  1.00  0.00    +0.000 C 
BRANCH   12   11
ATOM    105  H13 UNL A   1      33.256  26.467  24.144  1.00  0.00    +0.000 H 
ATOM     11  C8  UNL A   1      33.865  27.099  24.757  1.00  0.00    +0.000 C 
ATOM    104  H12 UNL A   1      34.888  26.786  24.808  1.00  0.00    +0.000 H 
BRANCH   11   10
ATOM     10  C7  UNL A   1      33.825  28.488  24.108  1.00  0.00    +0.000 C 
ATOM    102  H10 UNL A   1      33.476  29.186  24.840  1.00  0.00    +0.000 H 
ATOM    103  H11 UNL A   1      34.819  28.688  23.770  1.00  0.00    +0.000 H 
BRANCH   10    9
ATOM      9  C6  UNL A   1      32.921  28.603  22.874  1.00  0.00    +0.000 C 
ATOM    100  H8  UNL A   1      33.426  29.192  22.137  1.00  0.00    +0.000 H 
ATOM    101  H9  UNL A   1      32.726  27.608  22.533  1.00  0.00    +0.000 H 
BRANCH    9    8
ATOM     98  H6  UNL A   1      31.728  30.165  23.701  1.00  0.00    +0.000 H 
ATOM     99  H7  UNL A   1      31.075  29.437  22.234  1.00  0.00    +0.000 H 
ATOM      8  C5  UNL A   1      31.567  29.252  23.166  1.00  0.00    +0.000 C 
BRANCH    8    7
ATOM     97  H5  UNL A   1      30.846  28.449  24.936  1.00  0.00    +0.000 H 
ATOM      7  N2  UNL A   1      30.721  28.386  23.961  1.00  0.00    +0.000 N 
BRANCH    7    5
ATOM      5  C4  UNL A   1      29.775  27.494  23.544  1.00  0.00    +0.000 C 
ATOM      6  O1  UNL A   1      28.838  27.917  22.864  1.00  0.00    +0.000 O 
BRANCH    5    4
ATOM      4  C3  UNL A   1      29.833  26.038  23.981  1.00  0.00    +0.000 C 
ATOM     95  H3  UNL A   1      29.916  26.015  25.048  1.00  0.00    +0.000 H 
ATOM     96  H4  UNL A   1      28.939  25.578  23.615  1.00  0.00    +0.000 H 
BRANCH    4    3
ATOM      2  C1  UNL A   1      31.589  24.129  24.056  1.00  0.00    +0.000 C 
ATOM      3  C2  UNL A   1      30.990  25.241  23.401  1.00  0.00    +0.000 C 
ATOM     80  C56 UNL A   1      31.493  25.680  22.161  1.00  0.00    +0.000 C 
ATOM     81  C57 UNL A   1      32.576  25.050  21.565  1.00  0.00    +0.000 C 
ATOM     82  C58 UNL A   1      33.171  23.966  22.198  1.00  0.00    +0.000 C 
ATOM     83  C59 UNL A   1      32.694  23.483  23.434  1.00  0.00    +0.000 C 
ATOM    125  H33 UNL A   1      31.050  26.483  21.688  1.00  0.00    +0.000 H 
ATOM    126  H34 UNL A   1      32.936  25.384  20.658  1.00  0.00    +0.000 H 
ATOM    127  H35 UNL A   1      33.980  23.503  21.755  1.00  0.00    +0.000 H 
BRANCH    2    1
ATOM      1  N1  UNL A   1      31.036  23.654  25.253  1.00  0.00    +0.000 N 
ATOM     93  H1  UNL A   1      31.625  23.365  25.988  1.00  0.00    +0.000 H 
ATOM     94  H2  UNL A   1      30.058  23.610  25.360  1.00  0.00    +0.000 H 
ENDBRANCH    2    1
BRANCH   83   84
ATOM     84  C60 UNL A   1      33.489  22.338  23.999  1.00  0.00    +0.000 C 
ATOM     85  O3  UNL A   1      33.102  21.179  23.843  1.00  0.00    +0.000 O 
BRANCH   84   86
ATOM    129  H37 UNL A   1      37.588  20.720  25.211  1.00  0.00    +0.000 H 
ATOM    130  H38 UNL A   1      36.766  24.728  26.201  1.00  0.00    +0.000 H 
ATOM    131  H39 UNL A   1      34.513  24.494  25.305  1.00  0.00    +0.000 H 
ATOM     86  C61 UNL A   1      34.792  22.495  24.670  1.00  0.00    +0.000 C 
ATOM     87  C62 UNL A   1      35.659  21.395  24.676  1.00  0.00    +0.000 C 
ATOM     88  C63 UNL A   1      36.942  21.524  25.212  1.00  0.00    +0.000 C 
ATOM     89  C64 UNL A   1      37.342  22.748  25.749  1.00  0.00    +0.000 C 
ATOM     90 Br1  UNL A   1      39.101  22.941  26.414  1.00  0.00    +0.000 Br
ATOM     91  C65 UNL A   1      36.464  23.832  25.785  1.00  0.00    +0.000 C 
ATOM     92  C66 UNL A   1      35.175  23.703  25.259  1.00  0.00    +0.000 C 
ATOM    128  H36 UNL A   1      35.350  20.490  24.288  1.00  0.00    +0.000 H 
ENDBRANCH   84   86
ENDBRANCH   83   84
ENDBRANCH    4    3
ENDBRANCH    5    4
ENDBRANCH    7    5
ENDBRANCH    8    7
ENDBRANCH    9    8
ENDBRANCH   10    9
ENDBRANCH   11   10
ENDBRANCH   12   11
ENDBRANCH   13   12
ENDBRANCH   14   13
ENDBRANCH   15   14
ENDBRANCH   17   15
ENDBRANCH   21   20
BRANCH   25   26
ATOM     33  C24 UNL A   1      42.495  21.758  27.510  1.00  0.00    +0.000 C 
ATOM     34  F4  UNL A   1      42.167  20.600  28.100  1.00  0.00    +0.000 F 
ATOM     35  C25 UNL A   1      42.567  22.926  28.264  1.00  0.00    +0.000 C 
ATOM     36  F5  UNL A   1      42.290  22.865  29.575  1.00  0.00    +0.000 F 
ATOM     26  C20 UNL A   1      42.929  24.146  27.673  1.00  0.00    +0.000 C 
ATOM     27  C21 UNL A   1      43.215  24.150  26.300  1.00  0.00    +0.000 C 
ATOM     28  F1  UNL A   1      43.554  25.293  25.685  1.00  0.00    +0.000 F 
ATOM     29  C22 UNL A   1      43.114  22.986  25.543  1.00  0.00    +0.000 C 
ATOM     30  F2  UNL A   1      43.346  23.025  24.223  1.00  0.00    +0.000 F 
ATOM     31  C23 UNL A   1      42.761  21.790  26.149  1.00  0.00    +0.000 C 
ATOM     32  F3  UNL A   1      42.670  20.669  25.420  1.00  0.00    +0.000 F 
ENDBRANCH   25   26
BRANCH   42   43
ATOM     43  C31 UNL A   1      47.778  27.408  31.894  1.00  0.00    +0.000 C 
ATOM     44  C32 UNL A   1      48.084  26.639  33.026  1.00  0.00    +0.000 C 
ATOM     45  F6  UNL A   1      47.099  26.119  33.774  1.00  0.00    +0.000 F 
ATOM     46  C33 UNL A   1      49.405  26.433  33.416  1.00  0.00    +0.000 C 
ATOM     47  F7  UNL A   1      49.673  25.731  34.526  1.00  0.00    +0.000 F 
ATOM     48  C34 UNL A   1      50.443  26.965  32.665  1.00  0.00    +0.000 C 
ATOM     49  F8  UNL A   1      51.714  26.760  33.039  1.00  0.00    +0.000 F 
ATOM     50  C35 UNL A   1      50.164  27.715  31.533  1.00  0.00    +0.000 C 
ATOM     51  F9  UNL A   1      51.166  28.219  30.800  1.00  0.00    +0.000 F 
ATOM     52  C36 UNL A   1      48.844  27.945  31.156  1.00  0.00    +0.000 C 
ATOM     53  F10 UNL A   1      48.604  28.685  30.062  1.00  0.00    +0.000 F 
ENDBRANCH   42   43
BRANCH   57   58
ATOM     65  C44 UNL A   1      43.656  34.755  33.615  1.00  0.00    +0.000 C 
ATOM     66  F14 UNL A   1      44.156  35.904  33.143  1.00  0.00    +0.000 F 
ATOM     67  C45 UNL A   1      43.624  33.624  32.801  1.00  0.00    +0.000 C 
ATOM     68  F15 UNL A   1      44.090  33.716  31.548  1.00  0.00    +0.000 F 
ATOM     58  C40 UNL A   1      43.128  32.403  33.279  1.00  0.00    +0.000 C 
ATOM     59  C41 UNL A   1      42.659  32.360  34.599  1.00  0.00    +0.000 C 
ATOM     60  F11 UNL A   1      42.157  31.218  35.093  1.00  0.00    +0.000 F 
ATOM     61  C42 UNL A   1      42.668  33.497  35.404  1.00  0.00    +0.000 C 
ATOM     62  F12 UNL A   1      42.175  33.437  36.648  1.00  0.00    +0.000 F 
ATOM     63  C43 UNL A   1      43.171  34.692  34.913  1.00  0.00    +0.000 C 
ATOM     64  F13 UNL A   1      43.183  35.784  35.689  1.00  0.00    +0.000 F 
ENDBRANCH   57   58
TORSDOF 19
ENDMDL
MODEL 8
REMARK VINA RESULT:     -10.5     25.333     28.014
ROOT
ATOM     21  C16 UNL A   1      46.368  50.764  18.168  1.00  0.00    +0.000 C 
ATOM     22  C17 UNL A   1      46.655  52.044  17.433  1.00  0.00    +0.000 C 
ATOM     23  N4  UNL A   1      47.676  52.855  17.550  1.00  0.00    +0.000 N 
ATOM     24  C18 UNL A   1      47.471  53.857  16.610  1.00  0.00    +0.000 C 
ATOM     25  C19 UNL A   1      48.219  54.961  16.376  1.00  0.00    +0.000 C 
ATOM     37  C26 UNL A   1      49.414  55.302  17.103  1.00  0.00    +0.000 C 
ATOM     38  C27 UNL A   1      50.208  56.428  16.981  1.00  0.00    +0.000 C 
ATOM     39  C28 UNL A   1      51.283  56.304  17.868  1.00  0.00    +0.000 C 
ATOM     40  C29 UNL A   1      51.134  55.121  18.574  1.00  0.00    +0.000 C 
ATOM     41  N5  UNL A   1      49.986  54.513  18.091  1.00  0.00    +0.000 N 
ATOM     42  C30 UNL A   1      51.976  54.582  19.611  1.00  0.00    +0.000 C 
ATOM     54  C37 UNL A   1      51.756  53.415  20.264  1.00  0.00    +0.000 C 
ATOM     55  N6  UNL A   1      50.716  52.509  20.105  1.00  0.00    +0.000 N 
ATOM     56  C38 UNL A   1      50.953  51.539  20.954  1.00  0.00    +0.000 C 
ATOM     57  C39 UNL A   1      50.140  50.303  21.232  1.00  0.00    +0.000 C 
ATOM     69  C46 UNL A   1      48.986  50.108  20.566  1.00  0.00    +0.000 C 
ATOM     70  C47 UNL A   1      48.094  48.966  20.733  1.00  0.00    +0.000 C 
ATOM     71  C48 UNL A   1      47.069  49.081  19.872  1.00  0.00    +0.000 C 
ATOM     72  C49 UNL A   1      47.216  50.328  19.118  1.00  0.00    +0.000 C 
ATOM     73  N7  UNL A   1      48.377  50.875  19.604  1.00  0.00    +0.000 N 
ATOM     74  C50 UNL A   1      52.189  51.707  21.730  1.00  0.00    +0.000 C 
ATOM     75  C51 UNL A   1      52.619  52.883  21.299  1.00  0.00    +0.000 C 
ATOM     76  C52 UNL A   1      46.253  53.528  15.900  1.00  0.00    +0.000 C 
ATOM     77  C53 UNL A   1      45.676  52.453  16.414  1.00  0.00    +0.000 C 
ATOM    113  H21 UNL A   1      50.038  57.223  16.346  1.00  0.00    +0.000 H 
ATOM    114  H22 UNL A   1      52.055  56.979  17.980  1.00  0.00    +0.000 H 
ATOM    115  H23 UNL A   1      49.628  53.651  18.402  1.00  0.00    +0.000 H 
ATOM    116  H24 UNL A   1      48.229  48.192  21.403  1.00  0.00    +0.000 H 
ATOM    117  H25 UNL A   1      46.301  48.402  19.762  1.00  0.00    +0.000 H 
ATOM    118  H26 UNL A   1      48.738  51.736  19.292  1.00  0.00    +0.000 H 
ATOM    119  H27 UNL A   1      52.611  51.074  22.428  1.00  0.00    +0.000 H 
ATOM    120  H28 UNL A   1      53.461  53.361  21.655  1.00  0.00    +0.000 H 
ATOM    121  H29 UNL A   1      45.884  54.061  15.097  1.00  0.00    +0.000 H 
ATOM    122  H30 UNL A   1      44.775  52.016  16.165  1.00  0.00    +0.000 H 
ENDROOT
BRANCH   21   20
ATOM     78  C54 UNL A   1      45.319  48.948  16.818  1.00  0.00    +0.000 C 
ATOM    111  H19 UNL A   1      41.949  49.461  18.559  1.00  0.00    +0.000 H 
ATOM     79  C55 UNL A   1      44.220  48.175  16.450  1.00  0.00    +0.000 C 
ATOM     17  C12 UNL A   1      43.006  48.323  17.126  1.00  0.00    +0.000 C 
ATOM     18  C13 UNL A   1      42.858  49.325  18.089  1.00  0.00    +0.000 C 
ATOM     19  C14 UNL A   1      43.943  50.143  18.412  1.00  0.00    +0.000 C 
ATOM    112  H20 UNL A   1      43.827  50.900  19.105  1.00  0.00    +0.000 H 
ATOM     20  C15 UNL A   1      45.190  49.941  17.800  1.00  0.00    +0.000 C 
ATOM    123  H31 UNL A   1      46.233  48.788  16.367  1.00  0.00    +0.000 H 
ATOM    124  H32 UNL A   1      44.302  47.494  15.679  1.00  0.00    +0.000 H 
BRANCH   17   15
ATOM     15  C11 UNL A   1      41.850  47.453  16.819  1.00  0.00    +0.000 C 
ATOM     16  O2  UNL A   1      41.169  47.676  15.822  1.00  0.00    +0.000 O 
BRANCH   15   14
ATOM    110  H18 UNL A   1      41.038  46.652  18.464  1.00  0.00    +0.000 H 
ATOM     14  N3  UNL A   1      41.532  46.407  17.648  1.00  0.00    +0.000 N 
BRANCH   14   13
ATOM    109  H17 UNL A   1      42.847  44.831  17.735  1.00  0.00    +0.000 H 
ATOM    108  H16 UNL A   1      41.604  44.699  16.488  1.00  0.00    +0.000 H 
ATOM     13  C10 UNL A   1      41.817  44.988  17.496  1.00  0.00    +0.000 C 
BRANCH   13   12
ATOM    106  H14 UNL A   1      40.407  44.787  19.066  1.00  0.00    +0.000 H 
ATOM    107  H15 UNL A   1      40.368  43.506  17.821  1.00  0.00    +0.000 H 
ATOM     12  C9  UNL A   1      40.977  44.132  18.441  1.00  0.00    +0.000 C 
BRANCH   12   11
ATOM    105  H13 UNL A   1      42.779  43.179  18.941  1.00  0.00    +0.000 H 
ATOM     11  C8  UNL A   1      41.786  43.195  19.342  1.00  0.00    +0.000 C 
ATOM    104  H12 UNL A   1      41.309  42.237  19.336  1.00  0.00    +0.000 H 
BRANCH   11   10
ATOM     10  C7  UNL A   1      41.923  43.650  20.800  1.00  0.00    +0.000 C 
ATOM    102  H10 UNL A   1      42.767  44.305  20.865  1.00  0.00    +0.000 H 
ATOM    103  H11 UNL A   1      40.997  44.121  21.054  1.00  0.00    +0.000 H 
BRANCH   10    9
ATOM      9  C6  UNL A   1      42.121  42.518  21.818  1.00  0.00    +0.000 C 
ATOM    100  H8  UNL A   1      41.201  42.372  22.345  1.00  0.00    +0.000 H 
ATOM    101  H9  UNL A   1      42.417  41.650  21.268  1.00  0.00    +0.000 H 
BRANCH    9    8
ATOM     98  H6  UNL A   1      42.830  43.429  23.611  1.00  0.00    +0.000 H 
ATOM     99  H7  UNL A   1      43.557  41.867  23.241  1.00  0.00    +0.000 H 
ATOM      8  C5  UNL A   1      43.224  42.801  22.839  1.00  0.00    +0.000 C 
BRANCH    8    7
ATOM     97  H5  UNL A   1      44.756  42.999  21.457  1.00  0.00    +0.000 H 
ATOM      7  N2  UNL A   1      44.358  43.464  22.230  1.00  0.00    +0.000 N 
BRANCH    7    5
ATOM      5  C4  UNL A   1      44.952  44.642  22.579  1.00  0.00    +0.000 C 
ATOM      6  O1  UNL A   1      44.307  45.436  23.267  1.00  0.00    +0.000 O 
BRANCH    5    4
ATOM      4  C3  UNL A   1      46.337  44.998  22.059  1.00  0.00    +0.000 C 
ATOM     95  H3  UNL A   1      46.647  45.905  22.535  1.00  0.00    +0.000 H 
ATOM     96  H4  UNL A   1      46.967  44.164  22.285  1.00  0.00    +0.000 H 
BRANCH    4    3
ATOM      2  C1  UNL A   1      47.640  45.452  19.862  1.00  0.00    +0.000 C 
ATOM      3  C2  UNL A   1      46.424  45.202  20.556  1.00  0.00    +0.000 C 
ATOM     80  C56 UNL A   1      45.206  45.168  19.848  1.00  0.00    +0.000 C 
ATOM     81  C57 UNL A   1      45.169  45.386  18.478  1.00  0.00    +0.000 C 
ATOM     82  C58 UNL A   1      46.351  45.636  17.792  1.00  0.00    +0.000 C 
ATOM     83  C59 UNL A   1      47.594  45.666  18.456  1.00  0.00    +0.000 C 
ATOM    125  H33 UNL A   1      44.328  44.980  20.356  1.00  0.00    +0.000 H 
ATOM    126  H34 UNL A   1      44.270  45.363  17.973  1.00  0.00    +0.000 H 
ATOM    127  H35 UNL A   1      46.319  45.803  16.774  1.00  0.00    +0.000 H 
BRANCH    2    1
ATOM      1  N1  UNL A   1      48.854  45.410  20.562  1.00  0.00    +0.000 N 
ATOM     93  H1  UNL A   1      49.209  44.549  20.881  1.00  0.00    +0.000 H 
ATOM     94  H2  UNL A   1      49.352  46.242  20.735  1.00  0.00    +0.000 H 
ENDBRANCH    2    1
BRANCH   83   84
ATOM     84  C60 UNL A   1      48.761  46.002  17.568  1.00  0.00    +0.000 C 
ATOM     85  O3  UNL A   1      49.378  45.105  16.992  1.00  0.00    +0.000 O 
BRANCH   84   86
ATOM    129  H37 UNL A   1      51.633  49.524  18.048  1.00  0.00    +0.000 H 
ATOM    130  H38 UNL A   1      48.533  49.978  15.237  1.00  0.00    +0.000 H 
ATOM    131  H39 UNL A   1      47.643  47.797  15.857  1.00  0.00    +0.000 H 
ATOM     86  C61 UNL A   1      49.180  47.378  17.249  1.00  0.00    +0.000 C 
ATOM     87  C62 UNL A   1      50.305  47.888  17.910  1.00  0.00    +0.000 C 
ATOM     88  C63 UNL A   1      50.800  49.148  17.571  1.00  0.00    +0.000 C 
ATOM     89  C64 UNL A   1      50.158  49.895  16.582  1.00  0.00    +0.000 C 
ATOM     90 Br1  UNL A   1      50.866  51.573  16.077  1.00  0.00    +0.000 Br
ATOM     91  C65 UNL A   1      49.009  49.409  15.955  1.00  0.00    +0.000 C 
ATOM     92  C66 UNL A   1      48.506  48.152  16.300  1.00  0.00    +0.000 C 
ATOM    128  H36 UNL A   1      50.766  47.333  18.648  1.00  0.00    +0.000 H 
ENDBRANCH   84   86
ENDBRANCH   83   84
ENDBRANCH    4    3
ENDBRANCH    5    4
ENDBRANCH    7    5
ENDBRANCH    8    7
ENDBRANCH    9    8
ENDBRANCH   10    9
ENDBRANCH   11   10
ENDBRANCH   12   11
ENDBRANCH   13   12
ENDBRANCH   14   13
ENDBRANCH   15   14
ENDBRANCH   17   15
ENDBRANCH   21   20
BRANCH   25   26
ATOM     33  C24 UNL A   1      46.567  57.890  14.590  1.00  0.00    +0.000 C 
ATOM     34  F4  UNL A   1      45.844  58.974  14.907  1.00  0.00    +0.000 F 
ATOM     35  C25 UNL A   1      47.023  57.041  15.596  1.00  0.00    +0.000 C 
ATOM     36  F5  UNL A   1      46.736  57.339  16.872  1.00  0.00    +0.000 F 
ATOM     26  C20 UNL A   1      47.762  55.889  15.287  1.00  0.00    +0.000 C 
ATOM     27  C21 UNL A   1      48.027  55.622  13.936  1.00  0.00    +0.000 C 
ATOM     28  F1  UNL A   1      48.740  54.539  13.589  1.00  0.00    +0.000 F 
ATOM     29  C22 UNL A   1      47.595  56.488  12.935  1.00  0.00    +0.000 C 
ATOM     30  F2  UNL A   1      47.901  56.237  11.655  1.00  0.00    +0.000 F 
ATOM     31  C23 UNL A   1      46.859  57.617  13.263  1.00  0.00    +0.000 C 
ATOM     32  F3  UNL A   1      46.438  58.447  12.298  1.00  0.00    +0.000 F 
ENDBRANCH   25   26
BRANCH   42   43
ATOM     43  C31 UNL A   1      53.179  55.379  20.017  1.00  0.00    +0.000 C 
ATOM     44  C32 UNL A   1      53.091  56.420  20.952  1.00  0.00    +0.000 C 
ATOM     45  F6  UNL A   1      51.901  56.762  21.470  1.00  0.00    +0.000 F 
ATOM     46  C33 UNL A   1      54.221  57.139  21.332  1.00  0.00    +0.000 C 
ATOM     47  F7  UNL A   1      54.106  58.158  22.195  1.00  0.00    +0.000 F 
ATOM     48  C34 UNL A   1      55.463  56.812  20.808  1.00  0.00    +0.000 C 
ATOM     49  F8  UNL A   1      56.550  57.501  21.179  1.00  0.00    +0.000 F 
ATOM     50  C35 UNL A   1      55.576  55.775  19.893  1.00  0.00    +0.000 C 
ATOM     51  F9  UNL A   1      56.777  55.450  19.395  1.00  0.00    +0.000 F 
ATOM     52  C36 UNL A   1      54.444  55.072  19.492  1.00  0.00    +0.000 C 
ATOM     53  F10 UNL A   1      54.583  54.082  18.597  1.00  0.00    +0.000 F 
ENDBRANCH   42   43
BRANCH   57   58
ATOM     65  C44 UNL A   1      51.820  47.318  22.878  1.00  0.00    +0.000 C 
ATOM     66  F14 UNL A   1      52.601  46.287  22.529  1.00  0.00    +0.000 F 
ATOM     67  C45 UNL A   1      51.418  48.243  21.917  1.00  0.00    +0.000 C 
ATOM     68  F15 UNL A   1      51.834  48.084  20.652  1.00  0.00    +0.000 F 
ATOM     58  C40 UNL A   1      50.582  49.317  22.252  1.00  0.00    +0.000 C 
ATOM     59  C41 UNL A   1      50.170  49.433  23.587  1.00  0.00    +0.000 C 
ATOM     60  F11 UNL A   1      49.386  50.456  23.958  1.00  0.00    +0.000 F 
ATOM     61  C42 UNL A   1      50.593  48.523  24.553  1.00  0.00    +0.000 C 
ATOM     62  F12 UNL A   1      50.219  48.681  25.829  1.00  0.00    +0.000 F 
ATOM     63  C43 UNL A   1      51.414  47.463  24.196  1.00  0.00    +0.000 C 
ATOM     64  F13 UNL A   1      51.817  46.585  25.125  1.00  0.00    +0.000 F 
ENDBRANCH   57   58
TORSDOF 19
ENDMDL
MODEL 9
REMARK VINA RESULT:     -10.5     20.485     25.250
ROOT
ATOM     21  C16 UNL A   1      53.054  20.066  11.423  1.00  0.00    +0.000 C 
ATOM     22  C17 UNL A   1      54.378  19.392  11.193  1.00  0.00    +0.000 C 
ATOM     23  N4  UNL A   1      55.391  19.257  12.011  1.00  0.00    +0.000 N 
ATOM     24  C18 UNL A   1      56.340  18.517  11.316  1.00  0.00    +0.000 C 
ATOM     25  C19 UNL A   1      57.586  18.160  11.709  1.00  0.00    +0.000 C 
ATOM     37  C26 UNL A   1      58.167  18.508  12.979  1.00  0.00    +0.000 C 
ATOM     38  C27 UNL A   1      59.443  18.244  13.447  1.00  0.00    +0.000 C 
ATOM     39  C28 UNL A   1      59.542  18.741  14.751  1.00  0.00    +0.000 C 
ATOM     40  C29 UNL A   1      58.343  19.352  15.080  1.00  0.00    +0.000 C 
ATOM     41  N5  UNL A   1      57.507  19.197  13.985  1.00  0.00    +0.000 N 
ATOM     42  C30 UNL A   1      57.984  20.026  16.301  1.00  0.00    +0.000 C 
ATOM     54  C37 UNL A   1      56.786  20.612  16.543  1.00  0.00    +0.000 C 
ATOM     55  N6  UNL A   1      55.677  20.705  15.714  1.00  0.00    +0.000 N 
ATOM     56  C38 UNL A   1      54.767  21.351  16.402  1.00  0.00    +0.000 C 
ATOM     57  C39 UNL A   1      53.378  21.759  15.990  1.00  0.00    +0.000 C 
ATOM     69  C46 UNL A   1      52.947  21.468  14.748  1.00  0.00    +0.000 C 
ATOM     70  C47 UNL A   1      51.634  21.804  14.207  1.00  0.00    +0.000 C 
ATOM     71  C48 UNL A   1      51.537  21.317  12.959  1.00  0.00    +0.000 C 
ATOM     72  C49 UNL A   1      52.798  20.665  12.600  1.00  0.00    +0.000 C 
ATOM     73  N7  UNL A   1      53.578  20.813  13.719  1.00  0.00    +0.000 N 
ATOM     74  C50 UNL A   1      55.189  21.718  17.761  1.00  0.00    +0.000 C 
ATOM     75  C51 UNL A   1      56.439  21.278  17.781  1.00  0.00    +0.000 C 
ATOM     76  C52 UNL A   1      55.765  18.193  10.028  1.00  0.00    +0.000 C 
ATOM     77  C53 UNL A   1      54.580  18.766   9.877  1.00  0.00    +0.000 C 
ATOM    113  H21 UNL A   1      60.192  17.764  12.924  1.00  0.00    +0.000 H 
ATOM    114  H22 UNL A   1      60.368  18.665  15.364  1.00  0.00    +0.000 H 
ATOM    115  H23 UNL A   1      56.581  19.528  13.930  1.00  0.00    +0.000 H 
ATOM    116  H24 UNL A   1      50.897  22.330  14.704  1.00  0.00    +0.000 H 
ATOM    117  H25 UNL A   1      50.707  21.391  12.351  1.00  0.00    +0.000 H 
ATOM    118  H26 UNL A   1      54.502  20.480  13.779  1.00  0.00    +0.000 H 
ATOM    119  H27 UNL A   1      54.652  22.193  18.504  1.00  0.00    +0.000 H 
ATOM    120  H28 UNL A   1      57.083  21.396  18.579  1.00  0.00    +0.000 H 
ATOM    121  H29 UNL A   1      56.218  17.594   9.321  1.00  0.00    +0.000 H 
ATOM    122  H30 UNL A   1      53.960  18.772   9.052  1.00  0.00    +0.000 H 
ENDROOT
BRANCH   21   20
ATOM     78  C54 UNL A   1      51.291  18.818  10.175  1.00  0.00    +0.000 C 
ATOM    111  H19 UNL A   1      50.436  21.909   8.087  1.00  0.00    +0.000 H 
ATOM     79  C55 UNL A   1      50.307  18.743   9.192  1.00  0.00    +0.000 C 
ATOM     17  C12 UNL A   1      49.955  19.888   8.471  1.00  0.00    +0.000 C 
ATOM     18  C13 UNL A   1      50.669  21.076   8.650  1.00  0.00    +0.000 C 
ATOM     19  C14 UNL A   1      51.699  21.132   9.590  1.00  0.00    +0.000 C 
ATOM    112  H20 UNL A   1      52.243  22.002   9.705  1.00  0.00    +0.000 H 
ATOM     20  C15 UNL A   1      51.999  20.011  10.381  1.00  0.00    +0.000 C 
ATOM    123  H31 UNL A   1      51.501  17.991  10.755  1.00  0.00    +0.000 H 
ATOM    124  H32 UNL A   1      49.839  17.845   8.997  1.00  0.00    +0.000 H 
BRANCH   17   15
ATOM     15  C11 UNL A   1      48.852  19.860   7.486  1.00  0.00    +0.000 C 
ATOM     16  O2  UNL A   1      48.354  20.913   7.100  1.00  0.00    +0.000 O 
BRANCH   15   14
ATOM    110  H18 UNL A   1      48.810  17.861   7.387  1.00  0.00    +0.000 H 
ATOM     14  N3  UNL A   1      48.377  18.662   7.014  1.00  0.00    +0.000 N 
BRANCH   14   13
ATOM    109  H17 UNL A   1      46.952  19.347   5.702  1.00  0.00    +0.000 H 
ATOM    108  H16 UNL A   1      46.553  17.830   6.514  1.00  0.00    +0.000 H 
ATOM     13  C10 UNL A   1      47.324  18.404   6.043  1.00  0.00    +0.000 C 
BRANCH   13   12
ATOM    106  H14 UNL A   1      48.474  18.285   4.267  1.00  0.00    +0.000 H 
ATOM    107  H15 UNL A   1      48.354  16.776   5.215  1.00  0.00    +0.000 H 
ATOM     12  C9  UNL A   1      47.840  17.633   4.831  1.00  0.00    +0.000 C 
BRANCH   12   11
ATOM    105  H13 UNL A   1      46.659  16.057   4.107  1.00  0.00    +0.000 H 
ATOM     11  C8  UNL A   1      46.747  17.103   3.899  1.00  0.00    +0.000 C 
ATOM    104  H12 UNL A   1      47.041  17.315   2.892  1.00  0.00    +0.000 H 
BRANCH   11   10
ATOM     10  C7  UNL A   1      45.352  17.700   4.123  1.00  0.00    +0.000 C 
ATOM    102  H10 UNL A   1      44.640  16.903   4.081  1.00  0.00    +0.000 H 
ATOM    103  H11 UNL A   1      45.386  18.191   5.073  1.00  0.00    +0.000 H 
BRANCH   10    9
ATOM      9  C6  UNL A   1      44.931  18.768   3.105  1.00  0.00    +0.000 C 
ATOM    100  H8  UNL A   1      44.720  19.675   3.632  1.00  0.00    +0.000 H 
ATOM    101  H9  UNL A   1      45.740  18.879   2.414  1.00  0.00    +0.000 H 
BRANCH    9    8
ATOM     98  H6  UNL A   1      43.962  18.330   1.256  1.00  0.00    +0.000 H 
ATOM     99  H7  UNL A   1      43.344  17.435   2.643  1.00  0.00    +0.000 H 
ATOM      8  C5  UNL A   1      43.695  18.382   2.291  1.00  0.00    +0.000 C 
BRANCH    8    7
ATOM     97  H5  UNL A   1      42.417  19.598   3.380  1.00  0.00    +0.000 H 
ATOM      7  N2  UNL A   1      42.628  19.349   2.451  1.00  0.00    +0.000 N 
BRANCH    7    5
ATOM      5  C4  UNL A   1      41.875  19.962   1.491  1.00  0.00    +0.000 C 
ATOM      6  O1  UNL A   1      42.166  21.117   1.175  1.00  0.00    +0.000 O 
BRANCH    5    4
ATOM      4  C3  UNL A   1      40.661  19.267   0.895  1.00  0.00    +0.000 C 
ATOM     95  H3  UNL A   1      40.892  19.005  -0.117  1.00  0.00    +0.000 H 
ATOM     96  H4  UNL A   1      40.463  18.420   1.518  1.00  0.00    +0.000 H 
BRANCH    4    3
ATOM      2  C1  UNL A   1      39.035  20.992  -0.161  1.00  0.00    +0.000 C 
ATOM      3  C2  UNL A   1      39.388  20.096   0.888  1.00  0.00    +0.000 C 
ATOM     80  C56 UNL A   1      38.551  19.970   2.014  1.00  0.00    +0.000 C 
ATOM     81  C57 UNL A   1      37.387  20.716   2.127  1.00  0.00    +0.000 C 
ATOM     82  C58 UNL A   1      37.036  21.596   1.112  1.00  0.00    +0.000 C 
ATOM     83  C59 UNL A   1      37.835  21.746  -0.040  1.00  0.00    +0.000 C 
ATOM    125  H33 UNL A   1      38.809  19.314   2.768  1.00  0.00    +0.000 H 
ATOM    126  H34 UNL A   1      36.786  20.617   2.960  1.00  0.00    +0.000 H 
ATOM    127  H35 UNL A   1      36.172  22.154   1.202  1.00  0.00    +0.000 H 
BRANCH    2    1
ATOM      1  N1  UNL A   1      39.834  21.055  -1.310  1.00  0.00    +0.000 N 
ATOM     93  H1  UNL A   1      40.329  21.881  -1.521  1.00  0.00    +0.000 H 
ATOM     94  H2  UNL A   1      39.901  20.275  -1.907  1.00  0.00    +0.000 H 
ENDBRANCH    2    1
BRANCH   83   84
ATOM     84  C60 UNL A   1      37.332  22.780  -1.010  1.00  0.00    +0.000 C 
ATOM     85  O3  UNL A   1      37.900  23.869  -1.104  1.00  0.00    +0.000 O 
BRANCH   84   86
ATOM    129  H37 UNL A   1      32.877  22.711  -2.028  1.00  0.00    +0.000 H 
ATOM    130  H38 UNL A   1      35.551  21.890  -5.174  1.00  0.00    +0.000 H 
ATOM    131  H39 UNL A   1      37.426  22.044  -3.628  1.00  0.00    +0.000 H 
ATOM     86  C61 UNL A   1      36.228  22.548  -1.959  1.00  0.00    +0.000 C 
ATOM     87  C62 UNL A   1      34.918  22.702  -1.486  1.00  0.00    +0.000 C 
ATOM     88  C63 UNL A   1      33.843  22.590  -2.369  1.00  0.00    +0.000 C 
ATOM     89  C64 UNL A   1      34.085  22.312  -3.715  1.00  0.00    +0.000 C 
ATOM     90 Br1  UNL A   1      32.633  22.226  -4.922  1.00  0.00    +0.000 Br
ATOM     91  C65 UNL A   1      35.386  22.112  -4.179  1.00  0.00    +0.000 C 
ATOM     92  C66 UNL A   1      36.464  22.214  -3.295  1.00  0.00    +0.000 C 
ATOM    128  H36 UNL A   1      34.748  22.895  -0.487  1.00  0.00    +0.000 H 
ENDBRANCH   84   86
ENDBRANCH   83   84
ENDBRANCH    4    3
ENDBRANCH    5    4
ENDBRANCH    7    5
ENDBRANCH    8    7
ENDBRANCH    9    8
ENDBRANCH   10    9
ENDBRANCH   11   10
ENDBRANCH   12   11
ENDBRANCH   13   12
ENDBRANCH   14   13
ENDBRANCH   15   14
ENDBRANCH   17   15
ENDBRANCH   21   20
BRANCH   25   26
ATOM     33  C24 UNL A   1      59.946  17.243   8.866  1.00  0.00    +0.000 C 
ATOM     34  F4  UNL A   1      60.682  17.870   7.938  1.00  0.00    +0.000 F 
ATOM     35  C25 UNL A   1      59.204  17.985   9.782  1.00  0.00    +0.000 C 
ATOM     36  F5  UNL A   1      59.255  19.324   9.720  1.00  0.00    +0.000 F 
ATOM     26  C20 UNL A   1      58.409  17.351  10.749  1.00  0.00    +0.000 C 
ATOM     27  C21 UNL A   1      58.388  15.948  10.764  1.00  0.00    +0.000 C 
ATOM     28  F1  UNL A   1      57.653  15.295  11.677  1.00  0.00    +0.000 F 
ATOM     29  C22 UNL A   1      59.153  15.210   9.866  1.00  0.00    +0.000 C 
ATOM     30  F2  UNL A   1      59.153  13.871   9.930  1.00  0.00    +0.000 F 
ATOM     31  C23 UNL A   1      59.926  15.857   8.914  1.00  0.00    +0.000 C 
ATOM     32  F3  UNL A   1      60.657  15.145   8.046  1.00  0.00    +0.000 F 
ENDBRANCH   25   26
BRANCH   42   43
ATOM     43  C31 UNL A   1      59.019  20.107  17.383  1.00  0.00    +0.000 C 
ATOM     44  C32 UNL A   1      59.706  21.298  17.656  1.00  0.00    +0.000 C 
ATOM     45  F6  UNL A   1      59.485  22.391  16.909  1.00  0.00    +0.000 F 
ATOM     46  C33 UNL A   1      60.651  21.362  18.677  1.00  0.00    +0.000 C 
ATOM     47  F7  UNL A   1      61.327  22.499  18.892  1.00  0.00    +0.000 F 
ATOM     48  C34 UNL A   1      60.905  20.246  19.461  1.00  0.00    +0.000 C 
ATOM     49  F8  UNL A   1      61.811  20.310  20.446  1.00  0.00    +0.000 F 
ATOM     50  C35 UNL A   1      60.225  19.062  19.219  1.00  0.00    +0.000 C 
ATOM     51  F9  UNL A   1      60.460  17.986  19.983  1.00  0.00    +0.000 F 
ATOM     52  C36 UNL A   1      59.299  18.988  18.182  1.00  0.00    +0.000 C 
ATOM     53  F10 UNL A   1      58.665  17.825  17.964  1.00  0.00    +0.000 F 
ENDBRANCH   42   43
BRANCH   57   58
ATOM     65  C44 UNL A   1      51.527  24.585  17.729  1.00  0.00    +0.000 C 
ATOM     66  F14 UNL A   1      51.422  25.918  17.643  1.00  0.00    +0.000 F 
ATOM     67  C45 UNL A   1      52.350  23.895  16.841  1.00  0.00    +0.000 C 
ATOM     68  F15 UNL A   1      53.017  24.586  15.906  1.00  0.00    +0.000 F 
ATOM     58  C40 UNL A   1      52.496  22.503  16.925  1.00  0.00    +0.000 C 
ATOM     59  C41 UNL A   1      51.781  21.829  17.925  1.00  0.00    +0.000 C 
ATOM     60  F11 UNL A   1      51.874  20.496  18.031  1.00  0.00    +0.000 F 
ATOM     61  C42 UNL A   1      50.939  22.517  18.796  1.00  0.00    +0.000 C 
ATOM     62  F12 UNL A   1      50.236  21.845  19.716  1.00  0.00    +0.000 F 
ATOM     63  C43 UNL A   1      50.816  23.896  18.699  1.00  0.00    +0.000 C 
ATOM     64  F13 UNL A   1      50.010  24.558  19.540  1.00  0.00    +0.000 F 
ENDBRANCH   57   58
TORSDOF 19
ENDMDL
MODEL 10
REMARK VINA RESULT:     -10.4     20.492     26.133
ROOT
ATOM     21  C16 UNL A   1      52.931  19.954  11.545  1.00  0.00    +0.000 C 
ATOM     22  C17 UNL A   1      52.752  20.596  12.892  1.00  0.00    +0.000 C 
ATOM     23  N4  UNL A   1      53.620  20.744  13.861  1.00  0.00    +0.000 N 
ATOM     24  C18 UNL A   1      52.954  21.440  14.861  1.00  0.00    +0.000 C 
ATOM     25  C19 UNL A   1      53.403  21.790  16.090  1.00  0.00    +0.000 C 
ATOM     37  C26 UNL A   1      54.716  21.479  16.593  1.00  0.00    +0.000 C 
ATOM     38  C27 UNL A   1      55.244  21.737  17.846  1.00  0.00    +0.000 C 
ATOM     39  C28 UNL A   1      56.569  21.288  17.862  1.00  0.00    +0.000 C 
ATOM     40  C29 UNL A   1      56.851  20.709  16.635  1.00  0.00    +0.000 C 
ATOM     41  N5  UNL A   1      55.707  20.839  15.864  1.00  0.00    +0.000 N 
ATOM     42  C30 UNL A   1      58.074  20.087  16.196  1.00  0.00    +0.000 C 
ATOM     54  C37 UNL A   1      58.269  19.532  14.975  1.00  0.00    +0.000 C 
ATOM     55  N6  UNL A   1      57.383  19.428  13.912  1.00  0.00    +0.000 N 
ATOM     56  C38 UNL A   1      58.041  18.823  12.953  1.00  0.00    +0.000 C 
ATOM     57  C39 UNL A   1      57.566  18.425  11.582  1.00  0.00    +0.000 C 
ATOM     69  C46 UNL A   1      56.292  18.677  11.226  1.00  0.00    +0.000 C 
ATOM     70  C47 UNL A   1      55.691  18.345   9.938  1.00  0.00    +0.000 C 
ATOM     71  C48 UNL A   1      54.423  18.787   9.920  1.00  0.00    +0.000 C 
ATOM     72  C49 UNL A   1      54.113  19.403  11.212  1.00  0.00    +0.000 C 
ATOM     73  N7  UNL A   1      55.279  19.283  11.926  1.00  0.00    +0.000 N 
ATOM     74  C50 UNL A   1      59.434  18.499  13.292  1.00  0.00    +0.000 C 
ATOM     75  C51 UNL A   1      59.509  18.918  14.547  1.00  0.00    +0.000 C 
ATOM     76  C52 UNL A   1      51.624  21.727  14.364  1.00  0.00    +0.000 C 
ATOM     77  C53 UNL A   1      51.428  21.170  13.179  1.00  0.00    +0.000 C 
ATOM    113  H21 UNL A   1      54.748  22.184  18.631  1.00  0.00    +0.000 H 
ATOM    114  H22 UNL A   1      57.225  21.371  18.655  1.00  0.00    +0.000 H 
ATOM    115  H23 UNL A   1      55.611  20.522  14.937  1.00  0.00    +0.000 H 
ATOM    116  H24 UNL A   1      56.164  17.850   9.165  1.00  0.00    +0.000 H 
ATOM    117  H25 UNL A   1      53.772  18.706   9.124  1.00  0.00    +0.000 H 
ATOM    118  H26 UNL A   1      55.378  19.601  12.851  1.00  0.00    +0.000 H 
ATOM    119  H27 UNL A   1      60.162  18.062  12.705  1.00  0.00    +0.000 H 
ATOM    120  H28 UNL A   1      60.345  18.818  15.144  1.00  0.00    +0.000 H 
ATOM    121  H29 UNL A   1      50.923  22.291  14.868  1.00  0.00    +0.000 H 
ATOM    122  H30 UNL A   1      50.570  21.144  12.606  1.00  0.00    +0.000 H 
ENDROOT
BRANCH   21   20
ATOM     78  C54 UNL A   1      51.556  21.180   9.862  1.00  0.00    +0.000 C 
ATOM    111  H19 UNL A   1      49.497  18.044   9.107  1.00  0.00    +0.000 H 
ATOM     79  C55 UNL A   1      50.518  21.236   8.936  1.00  0.00    +0.000 C 
ATOM     17  C12 UNL A   1      49.805  20.076   8.618  1.00  0.00    +0.000 C 
ATOM     18  C13 UNL A   1      50.052  18.889   9.313  1.00  0.00    +0.000 C 
ATOM     19  C14 UNL A   1      51.050  18.851  10.289  1.00  0.00    +0.000 C 
ATOM    112  H20 UNL A   1      51.216  17.981  10.820  1.00  0.00    +0.000 H 
ATOM     20  C15 UNL A   1      51.830  19.989  10.551  1.00  0.00    +0.000 C 
ATOM    123  H31 UNL A   1      52.128  22.020  10.044  1.00  0.00    +0.000 H 
ATOM    124  H32 UNL A   1      50.275  22.132   8.485  1.00  0.00    +0.000 H 
BRANCH   17   15
ATOM     15  C11 UNL A   1      48.760  20.086   7.572  1.00  0.00    +0.000 C 
ATOM     16  O2  UNL A   1      47.914  19.197   7.548  1.00  0.00    +0.000 O 
BRANCH   15   14
ATOM    110  H18 UNL A   1      49.596  21.542   6.482  1.00  0.00    +0.000 H 
ATOM     14  N3  UNL A   1      48.739  21.078   6.624  1.00  0.00    +0.000 N 
BRANCH   14   13
ATOM    109  H17 UNL A   1      47.913  22.488   5.380  1.00  0.00    +0.000 H 
ATOM    108  H16 UNL A   1      46.760  21.629   6.406  1.00  0.00    +0.000 H 
ATOM     13  C10 UNL A   1      47.636  21.543   5.797  1.00  0.00    +0.000 C 
BRANCH   13   12
ATOM    106  H14 UNL A   1      47.516  21.107   3.726  1.00  0.00    +0.000 H 
ATOM    107  H15 UNL A   1      47.989  19.744   4.779  1.00  0.00    +0.000 H 
ATOM     12  C9  UNL A   1      47.342  20.586   4.644  1.00  0.00    +0.000 C 
BRANCH   12   11
ATOM    105  H13 UNL A   1      45.491  20.262   5.577  1.00  0.00    +0.000 H 
ATOM     11  C8  UNL A   1      45.913  20.037   4.620  1.00  0.00    +0.000 C 
ATOM    104  H12 UNL A   1      45.966  18.988   4.412  1.00  0.00    +0.000 H 
BRANCH   11   10
ATOM     10  C7  UNL A   1      44.985  20.681   3.583  1.00  0.00    +0.000 C 
ATOM    102  H10 UNL A   1      44.029  20.827   4.040  1.00  0.00    +0.000 H 
ATOM    103  H11 UNL A   1      45.457  21.593   3.284  1.00  0.00    +0.000 H 
BRANCH   10    9
ATOM      9  C6  UNL A   1      44.778  19.866   2.300  1.00  0.00    +0.000 C 
ATOM    100  H8  UNL A   1      45.737  19.580   1.922  1.00  0.00    +0.000 H 
ATOM    101  H9  UNL A   1      44.176  19.020   2.559  1.00  0.00    +0.000 H 
BRANCH    9    8
ATOM     98  H6  UNL A   1      44.414  21.629   1.157  1.00  0.00    +0.000 H 
ATOM     99  H7  UNL A   1      44.186  20.119   0.276  1.00  0.00    +0.000 H 
ATOM      8  C5  UNL A   1      44.033  20.629   1.204  1.00  0.00    +0.000 C 
BRANCH    8    7
ATOM     97  H5  UNL A   1      42.208  21.580   1.447  1.00  0.00    +0.000 H 
ATOM      7  N2  UNL A   1      42.609  20.681   1.463  1.00  0.00    +0.000 N 
BRANCH    7    5
ATOM      5  C4  UNL A   1      41.748  19.655   1.725  1.00  0.00    +0.000 C 
ATOM      6  O1  UNL A   1      41.906  19.017   2.768  1.00  0.00    +0.000 O 
BRANCH    5    4
ATOM      4  C3  UNL A   1      40.679  19.261   0.717  1.00  0.00    +0.000 C 
ATOM     95  H3  UNL A   1      41.099  19.351  -0.263  1.00  0.00    +0.000 H 
ATOM     96  H4  UNL A   1      40.388  18.261   0.963  1.00  0.00    +0.000 H 
BRANCH    4    3
ATOM      2  C1  UNL A   1      39.021  21.000  -0.263  1.00  0.00    +0.000 C 
ATOM      3  C2  UNL A   1      39.412  20.098   0.766  1.00  0.00    +0.000 C 
ATOM     80  C56 UNL A   1      38.623  19.972   1.927  1.00  0.00    +0.000 C 
ATOM     81  C57 UNL A   1      37.469  20.724   2.092  1.00  0.00    +0.000 C 
ATOM     82  C58 UNL A   1      37.081  21.611   1.095  1.00  0.00    +0.000 C 
ATOM     83  C59 UNL A   1      37.831  21.760  -0.089  1.00  0.00    +0.000 C 
ATOM    125  H33 UNL A   1      38.909  19.311   2.666  1.00  0.00    +0.000 H 
ATOM    126  H34 UNL A   1      36.903  20.625   2.949  1.00  0.00    +0.000 H 
ATOM    127  H35 UNL A   1      36.225  22.173   1.224  1.00  0.00    +0.000 H 
BRANCH    2    1
ATOM      1  N1  UNL A   1      39.771  21.063  -1.445  1.00  0.00    +0.000 N 
ATOM     93  H1  UNL A   1      40.490  21.730  -1.536  1.00  0.00    +0.000 H 
ATOM     94  H2  UNL A   1      39.579  20.441  -2.183  1.00  0.00    +0.000 H 
ENDBRANCH    2    1
BRANCH   83   84
ATOM     84  C60 UNL A   1      37.294  22.801  -1.033  1.00  0.00    +0.000 C 
ATOM     85  O3  UNL A   1      37.830  23.908  -1.103  1.00  0.00    +0.000 O 
BRANCH   84   86
ATOM    129  H37 UNL A   1      32.841  22.680  -2.055  1.00  0.00    +0.000 H 
ATOM    130  H38 UNL A   1      35.528  21.903  -5.201  1.00  0.00    +0.000 H 
ATOM    131  H39 UNL A   1      37.400  22.074  -3.652  1.00  0.00    +0.000 H 
ATOM     86  C61 UNL A   1      36.194  22.559  -1.983  1.00  0.00    +0.000 C 
ATOM     87  C62 UNL A   1      34.882  22.694  -1.511  1.00  0.00    +0.000 C 
ATOM     88  C63 UNL A   1      33.809  22.572  -2.395  1.00  0.00    +0.000 C 
ATOM     89  C64 UNL A   1      34.055  22.301  -3.742  1.00  0.00    +0.000 C 
ATOM     90 Br1  UNL A   1      32.605  22.201  -4.951  1.00  0.00    +0.000 Br
ATOM     91  C65 UNL A   1      35.359  22.119  -4.205  1.00  0.00    +0.000 C 
ATOM     92  C66 UNL A   1      36.435  22.231  -3.320  1.00  0.00    +0.000 C 
ATOM    128  H36 UNL A   1      34.709  22.883  -0.511  1.00  0.00    +0.000 H 
ENDBRANCH   84   86
ENDBRANCH   83   84
ENDBRANCH    4    3
ENDBRANCH    5    4
ENDBRANCH    7    5
ENDBRANCH    8    7
ENDBRANCH    9    8
ENDBRANCH   10    9
ENDBRANCH   11   10
ENDBRANCH   12   11
ENDBRANCH   13   12
ENDBRANCH   14   13
ENDBRANCH   15   14
ENDBRANCH   17   15
ENDBRANCH   21   20
BRANCH   25   26
ATOM     33  C24 UNL A   1      51.512  24.660  17.727  1.00  0.00    +0.000 C 
ATOM     34  F4  UNL A   1      51.442  25.995  17.628  1.00  0.00    +0.000 F 
ATOM     35  C25 UNL A   1      52.357  23.944  16.882  1.00  0.00    +0.000 C 
ATOM     36  F5  UNL A   1      53.079  24.615  15.972  1.00  0.00    +0.000 F 
ATOM     26  C20 UNL A   1      52.463  22.549  16.981  1.00  0.00    +0.000 C 
ATOM     27  C21 UNL A   1      51.691  21.899  17.955  1.00  0.00    +0.000 C 
ATOM     28  F1  UNL A   1      51.747  20.565  18.082  1.00  0.00    +0.000 F 
ATOM     29  C22 UNL A   1      50.825  22.614  18.779  1.00  0.00    +0.000 C 
ATOM     30  F2  UNL A   1      50.062  21.967  19.671  1.00  0.00    +0.000 F 
ATOM     31  C23 UNL A   1      50.742  23.994  18.669  1.00  0.00    +0.000 C 
ATOM     32  F3  UNL A   1      49.913  24.682  19.466  1.00  0.00    +0.000 F 
ENDBRANCH   25   26
BRANCH   42   43
ATOM     43  C31 UNL A   1      59.215  20.028  17.167  1.00  0.00    +0.000 C 
ATOM     44  C32 UNL A   1      60.051  21.131  17.388  1.00  0.00    +0.000 C 
ATOM     45  F6  UNL A   1      59.877  22.261  16.685  1.00  0.00    +0.000 F 
ATOM     46  C33 UNL A   1      61.096  21.065  18.307  1.00  0.00    +0.000 C 
ATOM     47  F7  UNL A   1      61.910  22.116  18.470  1.00  0.00    +0.000 F 
ATOM     48  C34 UNL A   1      61.304  19.907  19.042  1.00  0.00    +0.000 C 
ATOM     49  F8  UNL A   1      62.306  19.847  19.929  1.00  0.00    +0.000 F 
ATOM     50  C35 UNL A   1      60.478  18.809  18.851  1.00  0.00    +0.000 C 
ATOM     51  F9  UNL A   1      60.671  17.694  19.569  1.00  0.00    +0.000 F 
ATOM     52  C36 UNL A   1      59.450  18.863  17.915  1.00  0.00    +0.000 C 
ATOM     53  F10 UNL A   1      58.675  17.781  17.743  1.00  0.00    +0.000 F 
ENDBRANCH   42   43
BRANCH   57   58
ATOM     65  C44 UNL A   1      59.447  15.692   9.729  1.00  0.00    +0.000 C 
ATOM     66  F14 UNL A   1      59.549  14.356   9.744  1.00  0.00    +0.000 F 
ATOM     67  C45 UNL A   1      58.584  16.333  10.615  1.00  0.00    +0.000 C 
ATOM     68  F15 UNL A   1      57.860  15.591  11.465  1.00  0.00    +0.000 F 
ATOM     58  C40 UNL A   1      58.477  17.731  10.634  1.00  0.00    +0.000 C 
ATOM     59  C41 UNL A   1      59.260  18.460   9.730  1.00  0.00    +0.000 C 
ATOM     60  F11 UNL A   1      59.177  19.798   9.699  1.00  0.00    +0.000 F 
ATOM     61  C42 UNL A   1      60.104  17.817   8.827  1.00  0.00    +0.000 C 
ATOM     62  F12 UNL A   1      60.811  18.535   7.945  1.00  0.00    +0.000 F 
ATOM     63  C43 UNL A   1      60.200  16.433   8.831  1.00  0.00    +0.000 C 
ATOM     64  F13 UNL A   1      61.015  15.815   7.965  1.00  0.00    +0.000 F 
ENDBRANCH   57   58
TORSDOF 19
ENDMDL
