MODEL 1
REMARK VINA RESULT:     -10.2      0.000      0.000
ROOT
ATOM    136  H33 UNL A   1      18.434  50.603  -2.081  1.00  0.00    +0.000 H 
ATOM    137  H34 UNL A   1      19.069  53.107  -1.729  1.00  0.00    +0.000 H 
ATOM    138  H35 UNL A   1      16.065  52.135   0.950  1.00  0.00    +0.000 H 
ATOM    139  H36 UNL A   1      11.934  53.921   5.465  1.00  0.00    +0.000 H 
ATOM    140  H37 UNL A   1      11.462  51.434   5.264  1.00  0.00    +0.000 H 
ATOM    141  H38 UNL A   1      14.456  52.378   2.541  1.00  0.00    +0.000 H 
ATOM    142  H39 UNL A   1      15.515  57.230   3.305  1.00  0.00    +0.000 H 
ATOM    143  H40 UNL A   1      17.213  57.023   1.401  1.00  0.00    +0.000 H 
ATOM    144  H41 UNL A   1      15.048  47.250   0.401  1.00  0.00    +0.000 H 
ATOM    145  H42 UNL A   1      13.156  47.498   2.110  1.00  0.00    +0.000 H 
ATOM     45  C32 UNL A   1      12.969  50.111   3.244  1.00  0.00    +0.000 C 
ATOM     46  C33 UNL A   1      13.907  49.637   2.172  1.00  0.00    +0.000 C 
ATOM     47  N9  UNL A   1      14.826  50.311   1.524  1.00  0.00    +0.000 N 
ATOM     48  C34 UNL A   1      15.424  49.405   0.659  1.00  0.00    +0.000 C 
ATOM     49  C35 UNL A   1      16.412  49.626  -0.241  1.00  0.00    +0.000 C 
ATOM     61  C42 UNL A   1      17.036  50.906  -0.467  1.00  0.00    +0.000 C 
ATOM     62  C43 UNL A   1      18.017  51.240  -1.385  1.00  0.00    +0.000 C 
ATOM     63  C44 UNL A   1      18.346  52.588  -1.207  1.00  0.00    +0.000 C 
ATOM     64  C45 UNL A   1      17.537  53.107  -0.209  1.00  0.00    +0.000 C 
ATOM     65  N10 UNL A   1      16.740  52.065   0.238  1.00  0.00    +0.000 N 
ATOM     66  C46 UNL A   1      17.495  54.454   0.300  1.00  0.00    +0.000 C 
ATOM     78  C53 UNL A   1      16.651  54.898   1.264  1.00  0.00    +0.000 C 
ATOM     79  N11 UNL A   1      15.681  54.195   1.962  1.00  0.00    +0.000 N 
ATOM     80  C54 UNL A   1      15.150  55.051   2.800  1.00  0.00    +0.000 C 
ATOM     81  C55 UNL A   1      14.047  54.841   3.794  1.00  0.00    +0.000 C 
ATOM     93  C62 UNL A   1      13.490  53.621   3.905  1.00  0.00    +0.000 C 
ATOM     94  C63 UNL A   1      12.415  53.268   4.826  1.00  0.00    +0.000 C 
ATOM     95  C64 UNL A   1      12.153  51.959   4.706  1.00  0.00    +0.000 C 
ATOM     96  C65 UNL A   1      13.004  51.392   3.658  1.00  0.00    +0.000 C 
ATOM     97  N12 UNL A   1      13.771  52.451   3.244  1.00  0.00    +0.000 N 
ATOM     98  C66 UNL A   1      15.736  56.397   2.738  1.00  0.00    +0.000 C 
ATOM     99  C67 UNL A   1      16.620  56.258   1.761  1.00  0.00    +0.000 C 
ATOM    100  C68 UNL A   1      14.782  48.125   0.880  1.00  0.00    +0.000 C 
ATOM    101  C69 UNL A   1      13.810  48.224   1.777  1.00  0.00    +0.000 C 
ENDROOT
BRANCH   45   44
ATOM    102  C70 UNL A   1      12.279  48.441   4.998  1.00  0.00    +0.000 C 
ATOM    103  C71 UNL A   1      11.314  47.608   5.570  1.00  0.00    +0.000 C 
ATOM    134  H31 UNL A   1       8.717  48.409   3.606  1.00  0.00    +0.000 H 
ATOM     41  C28 UNL A   1      10.025  47.558   5.028  1.00  0.00    +0.000 C 
ATOM     42  C29 UNL A   1       9.691  48.375   3.946  1.00  0.00    +0.000 C 
ATOM     43  C30 UNL A   1      10.672  49.144   3.328  1.00  0.00    +0.000 C 
ATOM    135  H32 UNL A   1      10.444  49.678   2.476  1.00  0.00    +0.000 H 
ATOM     44  C31 UNL A   1      11.972  49.197   3.858  1.00  0.00    +0.000 C 
ATOM    146  H43 UNL A   1      13.221  48.499   5.416  1.00  0.00    +0.000 H 
ATOM    147  H44 UNL A   1      11.550  47.030   6.393  1.00  0.00    +0.000 H 
BRANCH   41    2
ATOM      1  O1  UNL A   1       9.218  45.430   5.591  1.00  0.00    +0.000 O 
ATOM      2  C1  UNL A   1       9.029  46.643   5.627  1.00  0.00    +0.000 C 
BRANCH    2    3
ATOM      3  N1  UNL A   1       7.887  47.149   6.196  1.00  0.00    +0.000 N 
ATOM    104  H1  UNL A   1       7.200  47.461   5.563  1.00  0.00    +0.000 H 
BRANCH    3    4
ATOM    105  H2  UNL A   1       7.117  46.371   7.943  1.00  0.00    +0.000 H 
ATOM    106  H3  UNL A   1       6.863  48.107   7.685  1.00  0.00    +0.000 H 
ATOM      4  C2  UNL A   1       7.547  47.290   7.602  1.00  0.00    +0.000 C 
BRANCH    4    5
ATOM    107  H4  UNL A   1       9.561  46.986   8.170  1.00  0.00    +0.000 H 
ATOM    108  H5  UNL A   1       8.433  47.446   9.486  1.00  0.00    +0.000 H 
ATOM      5  C3  UNL A   1       8.750  47.614   8.478  1.00  0.00    +0.000 C 
BRANCH    5    6
ATOM    110  H7  UNL A   1       9.136  49.364   7.404  1.00  0.00    +0.000 H 
ATOM    109  H6  UNL A   1       8.631  49.632   9.106  1.00  0.00    +0.000 H 
ATOM      6  C4  UNL A   1       9.231  49.063   8.426  1.00  0.00    +0.000 C 
BRANCH    6    7
ATOM    111  H8  UNL A   1      11.233  48.388   8.593  1.00  0.00    +0.000 H 
ATOM      7  C5  UNL A   1      10.701  49.295   8.791  1.00  0.00    +0.000 C 
ATOM    112  H9  UNL A   1      10.697  49.589   9.820  1.00  0.00    +0.000 H 
BRANCH    7    8
ATOM    113  H10 UNL A   1      10.665  51.049   7.598  1.00  0.00    +0.000 H 
ATOM    114  H11 UNL A   1      12.059  49.949   7.338  1.00  0.00    +0.000 H 
ATOM      8  C6  UNL A   1      11.413  50.428   8.044  1.00  0.00    +0.000 C 
BRANCH    8    9
ATOM      9  C7  UNL A   1      12.317  51.318   8.894  1.00  0.00    +0.000 C 
ATOM    115  H12 UNL A   1      12.375  50.906   9.880  1.00  0.00    +0.000 H 
ATOM    116  H13 UNL A   1      11.892  52.299   8.902  1.00  0.00    +0.000 H 
BRANCH    9   10
ATOM     10  N2  UNL A   1      13.661  51.424   8.354  1.00  0.00    +0.000 N 
ATOM    117  H14 UNL A   1      13.833  50.907   7.534  1.00  0.00    +0.000 H 
BRANCH   10   11
ATOM     11  C8  UNL A   1      14.722  52.149   8.835  1.00  0.00    +0.000 C 
ATOM     12  O2  UNL A   1      14.846  53.334   8.539  1.00  0.00    +0.000 O 
BRANCH   11   13
ATOM     13  C9  UNL A   1      15.707  51.525   9.744  1.00  0.00    +0.000 C 
ATOM     14  C10 UNL A   1      15.500  51.714  11.118  1.00  0.00    +0.000 C 
ATOM     15  C11 UNL A   1      16.384  51.156  12.039  1.00  0.00    +0.000 C 
ATOM     16  C12 UNL A   1      17.466  50.407  11.589  1.00  0.00    +0.000 C 
ATOM     17  C13 UNL A   1      17.682  50.233  10.217  1.00  0.00    +0.000 C 
ATOM     18  C14 UNL A   1      16.826  50.812   9.266  1.00  0.00    +0.000 C 
ATOM    118  H15 UNL A   1      14.693  52.266  11.447  1.00  0.00    +0.000 H 
ATOM    119  H16 UNL A   1      16.235  51.298  13.050  1.00  0.00    +0.000 H 
ATOM    120  H17 UNL A   1      18.113  49.978  12.269  1.00  0.00    +0.000 H 
ATOM    121  H18 UNL A   1      18.485  49.669   9.899  1.00  0.00    +0.000 H 
BRANCH   18   19
ATOM    122  H19 UNL A   1      17.612  51.458   7.496  1.00  0.00    +0.000 H 
ATOM     19  N3  UNL A   1      17.086  50.722   7.882  1.00  0.00    +0.000 N 
BRANCH   19   20
ATOM     40  N8  UNL A   1      15.887  48.792   7.486  1.00  0.00    +0.000 N 
ATOM     20  C15 UNL A   1      16.696  49.722   6.993  1.00  0.00    +0.000 C 
ATOM     21  N4  UNL A   1      17.152  49.727   5.752  1.00  0.00    +0.000 N 
ATOM     22  C16 UNL A   1      16.733  48.701   5.031  1.00  0.00    +0.000 C 
ATOM     23 Cl1  UNL A   1      17.289  48.644   3.416  1.00  0.00    +0.000 Cl
ATOM     24  N5  UNL A   1      15.919  47.731   5.402  1.00  0.00    +0.000 N 
ATOM     25  C17 UNL A   1      15.500  47.831   6.652  1.00  0.00    +0.000 C 
BRANCH   25   26
ATOM     26  N6  UNL A   1      14.537  46.953   7.163  1.00  0.00    +0.000 N 
ATOM    123  H20 UNL A   1      14.234  46.222   6.576  1.00  0.00    +0.000 H 
BRANCH   26   27
ATOM    132  H29 UNL A   1      14.468  48.411  11.461  1.00  0.00    +0.000 H 
ATOM    133  H30 UNL A   1      15.442  48.299   9.250  1.00  0.00    +0.000 H 
ATOM     38  C26 UNL A   1      14.028  47.819  10.738  1.00  0.00    +0.000 C 
ATOM     39  C27 UNL A   1      14.576  47.776   9.453  1.00  0.00    +0.000 C 
ATOM    124  H21 UNL A   1      12.370  45.718   8.022  1.00  0.00    +0.000 H 
ATOM    125  H22 UNL A   1      11.475  45.714  10.273  1.00  0.00    +0.000 H 
ATOM     27  C18 UNL A   1      13.966  47.032   8.442  1.00  0.00    +0.000 C 
ATOM     28  C19 UNL A   1      12.828  46.282   8.755  1.00  0.00    +0.000 C 
ATOM     29  C20 UNL A   1      12.303  46.290  10.052  1.00  0.00    +0.000 C 
ATOM     30  C21 UNL A   1      12.890  47.072  11.056  1.00  0.00    +0.000 C 
BRANCH   30   31
ATOM     33  C23 UNL A   1      11.993  45.909  14.555  1.00  0.00    +0.000 C 
ATOM    129  H26 UNL A   1      10.980  45.651  14.323  1.00  0.00    +0.000 H 
ATOM     35  C24 UNL A   1      11.402  48.156  14.411  1.00  0.00    +0.000 C 
ATOM     36  C25 UNL A   1      11.787  48.237  12.922  1.00  0.00    +0.000 C 
ATOM     37  O4  UNL A   1      11.493  49.243  12.273  1.00  0.00    +0.000 O 
ATOM     34  O3  UNL A   1      12.026  47.170  15.216  1.00  0.00    +0.000 O 
ATOM    130  H27 UNL A   1      11.624  49.107  14.846  1.00  0.00    +0.000 H 
ATOM    131  H28 UNL A   1      10.371  47.873  14.400  1.00  0.00    +0.000 H 
ATOM    127  H24 UNL A   1      12.681  45.073  12.747  1.00  0.00    +0.000 H 
ATOM    128  H25 UNL A   1      12.412  45.159  15.193  1.00  0.00    +0.000 H 
ATOM    126  H23 UNL A   1      13.829  46.177  13.525  1.00  0.00    +0.000 H 
ATOM     31  N7  UNL A   1      12.350  47.073  12.377  1.00  0.00    +0.000 N 
ATOM     32  C22 UNL A   1      12.806  45.998  13.269  1.00  0.00    +0.000 C 
ENDBRANCH   30   31
ENDBRANCH   26   27
ENDBRANCH   25   26
ENDBRANCH   19   20
ENDBRANCH   18   19
ENDBRANCH   11   13
ENDBRANCH   10   11
ENDBRANCH    9   10
ENDBRANCH    8    9
ENDBRANCH    7    8
ENDBRANCH    6    7
ENDBRANCH    5    6
ENDBRANCH    4    5
ENDBRANCH    3    4
ENDBRANCH    2    3
ENDBRANCH   41    2
ENDBRANCH   45   44
BRANCH   49   50
ATOM     50  C36 UNL A   1      16.897  48.457  -1.049  1.00  0.00    +0.000 C 
ATOM     51  C37 UNL A   1      16.235  48.043  -2.216  1.00  0.00    +0.000 C 
ATOM     52  F1  UNL A   1      15.104  48.650  -2.602  1.00  0.00    +0.000 F 
ATOM     53  C38 UNL A   1      16.723  46.983  -2.977  1.00  0.00    +0.000 C 
ATOM     54  F2  UNL A   1      16.056  46.583  -4.070  1.00  0.00    +0.000 F 
ATOM     55  C39 UNL A   1      17.892  46.337  -2.606  1.00  0.00    +0.000 C 
ATOM     56  F3  UNL A   1      18.366  45.326  -3.346  1.00  0.00    +0.000 F 
ATOM     57  C40 UNL A   1      18.569  46.738  -1.465  1.00  0.00    +0.000 C 
ATOM     58  F4  UNL A   1      19.708  46.125  -1.111  1.00  0.00    +0.000 F 
ATOM     59  C41 UNL A   1      18.072  47.781  -0.688  1.00  0.00    +0.000 C 
ATOM     60  F5  UNL A   1      18.747  48.143   0.414  1.00  0.00    +0.000 F 
ENDBRANCH   49   50
BRANCH   66   67
ATOM     67  C47 UNL A   1      18.441  55.459  -0.288  1.00  0.00    +0.000 C 
ATOM     68  C48 UNL A   1      18.196  56.055  -1.534  1.00  0.00    +0.000 C 
ATOM     69  F6  UNL A   1      17.116  55.703  -2.249  1.00  0.00    +0.000 F 
ATOM     70  C49 UNL A   1      19.085  56.982  -2.070  1.00  0.00    +0.000 C 
ATOM     71  F7  UNL A   1      18.857  57.501  -3.285  1.00  0.00    +0.000 F 
ATOM     72  C50 UNL A   1      20.216  57.353  -1.358  1.00  0.00    +0.000 C 
ATOM     73  F8  UNL A   1      21.071  58.246  -1.876  1.00  0.00    +0.000 F 
ATOM     74  C51 UNL A   1      20.467  56.792  -0.116  1.00  0.00    +0.000 C 
ATOM     75  F9  UNL A   1      21.555  57.157   0.577  1.00  0.00    +0.000 F 
ATOM     76  C52 UNL A   1      19.594  55.845   0.412  1.00  0.00    +0.000 C 
ATOM     77  F10 UNL A   1      19.871  55.305   1.608  1.00  0.00    +0.000 F 
ENDBRANCH   66   67
BRANCH   81   82
ATOM     82  C56 UNL A   1      13.561  55.949   4.653  1.00  0.00    +0.000 C 
ATOM     83  C57 UNL A   1      14.165  56.224   5.887  1.00  0.00    +0.000 C 
ATOM     84  F11 UNL A   1      15.174  55.455   6.325  1.00  0.00    +0.000 F 
ATOM     85  C58 UNL A   1      13.715  57.269   6.691  1.00  0.00    +0.000 C 
ATOM     86  F12 UNL A   1      14.286  57.488   7.884  1.00  0.00    +0.000 F 
ATOM     87  C59 UNL A   1      12.672  58.077   6.262  1.00  0.00    +0.000 C 
ATOM     88  F13 UNL A   1      12.247  59.090   7.031  1.00  0.00    +0.000 F 
ATOM     89  C60 UNL A   1      12.067  57.832   5.039  1.00  0.00    +0.000 C 
ATOM     90  F14 UNL A   1      11.071  58.621   4.613  1.00  0.00    +0.000 F 
ATOM     91  C61 UNL A   1      12.497  56.769   4.249  1.00  0.00    +0.000 C 
ATOM     92  F15 UNL A   1      11.890  56.550   3.074  1.00  0.00    +0.000 F 
ENDBRANCH   81   82
TORSDOF 20
ENDMDL
MODEL 2
REMARK VINA RESULT:      -9.4      3.298      7.297
ROOT
ATOM    136  H33 UNL A   1      13.080  46.396   2.739  1.00  0.00    +0.000 H 
ATOM    137  H34 UNL A   1      14.767  46.676   0.771  1.00  0.00    +0.000 H 
ATOM    138  H35 UNL A   1      14.561  50.263   2.830  1.00  0.00    +0.000 H 
ATOM    139  H36 UNL A   1      16.216  56.395   3.371  1.00  0.00    +0.000 H 
ATOM    140  H37 UNL A   1      14.734  56.062   5.406  1.00  0.00    +0.000 H 
ATOM    141  H38 UNL A   1      14.891  52.453   3.349  1.00  0.00    +0.000 H 
ATOM    142  H39 UNL A   1      18.122  53.177  -0.431  1.00  0.00    +0.000 H 
ATOM    143  H40 UNL A   1      17.635  50.765  -1.133  1.00  0.00    +0.000 H 
ATOM    144  H41 UNL A   1      11.491  49.604   6.747  1.00  0.00    +0.000 H 
ATOM    145  H42 UNL A   1      11.749  52.089   7.310  1.00  0.00    +0.000 H 
ATOM     45  C32 UNL A   1      13.577  53.468   5.605  1.00  0.00    +0.000 C 
ATOM     46  C33 UNL A   1      13.138  52.036   5.517  1.00  0.00    +0.000 C 
ATOM     47  N9  UNL A   1      13.485  51.119   4.647  1.00  0.00    +0.000 N 
ATOM     48  C34 UNL A   1      12.815  49.962   5.024  1.00  0.00    +0.000 C 
ATOM     49  C35 UNL A   1      12.827  48.748   4.423  1.00  0.00    +0.000 C 
ATOM     61  C42 UNL A   1      13.570  48.440   3.226  1.00  0.00    +0.000 C 
ATOM     62  C43 UNL A   1      13.614  47.251   2.519  1.00  0.00    +0.000 C 
ATOM     63  C44 UNL A   1      14.507  47.406   1.453  1.00  0.00    +0.000 C 
ATOM     64  C45 UNL A   1      14.985  48.706   1.468  1.00  0.00    +0.000 C 
ATOM     65  N10 UNL A   1      14.404  49.329   2.563  1.00  0.00    +0.000 N 
ATOM     66  C46 UNL A   1      15.904  49.334   0.554  1.00  0.00    +0.000 C 
ATOM     78  C53 UNL A   1      16.305  50.628   0.617  1.00  0.00    +0.000 C 
ATOM     79  N11 UNL A   1      15.952  51.605   1.535  1.00  0.00    +0.000 N 
ATOM     80  C54 UNL A   1      16.618  52.679   1.190  1.00  0.00    +0.000 C 
ATOM     81  C55 UNL A   1      16.613  54.039   1.825  1.00  0.00    +0.000 C 
ATOM     93  C62 UNL A   1      15.853  54.249   2.914  1.00  0.00    +0.000 C 
ATOM     94  C63 UNL A   1      15.751  55.513   3.636  1.00  0.00    +0.000 C 
ATOM     95  C64 UNL A   1      14.954  55.341   4.700  1.00  0.00    +0.000 C 
ATOM     96  C65 UNL A   1      14.443  53.969   4.703  1.00  0.00    +0.000 C 
ATOM     97  N12 UNL A   1      15.037  53.392   3.610  1.00  0.00    +0.000 N 
ATOM     98  C66 UNL A   1      17.484  52.501   0.018  1.00  0.00    +0.000 C 
ATOM     99  C67 UNL A   1      17.228  51.244  -0.315  1.00  0.00    +0.000 C 
ATOM    100  C68 UNL A   1      12.060  50.284   6.217  1.00  0.00    +0.000 C 
ATOM    101  C69 UNL A   1      12.193  51.563   6.541  1.00  0.00    +0.000 C 
ENDROOT
BRANCH   45   44
ATOM    102  C70 UNL A   1      11.827  55.029   6.522  1.00  0.00    +0.000 C 
ATOM    103  C71 UNL A   1      11.350  55.855   7.544  1.00  0.00    +0.000 C 
ATOM    134  H31 UNL A   1      13.757  55.303   9.813  1.00  0.00    +0.000 H 
ATOM     41  C28 UNL A   1      12.083  55.995   8.727  1.00  0.00    +0.000 C 
ATOM     42  C29 UNL A   1      13.266  55.274   8.906  1.00  0.00    +0.000 C 
ATOM     43  C30 UNL A   1      13.780  54.516   7.860  1.00  0.00    +0.000 C 
ATOM    135  H32 UNL A   1      14.697  54.055   7.962  1.00  0.00    +0.000 H 
ATOM     44  C31 UNL A   1      13.058  54.372   6.663  1.00  0.00    +0.000 C 
ATOM    146  H43 UNL A   1      11.271  54.903   5.662  1.00  0.00    +0.000 H 
ATOM    147  H44 UNL A   1      10.457  56.360   7.427  1.00  0.00    +0.000 H 
BRANCH   41    2
ATOM      1  O1  UNL A   1      11.528  58.110   9.572  1.00  0.00    +0.000 O 
ATOM      2  C1  UNL A   1      11.577  56.901   9.782  1.00  0.00    +0.000 C 
BRANCH    2    3
ATOM      3  N1  UNL A   1      11.192  56.393  10.997  1.00  0.00    +0.000 N 
ATOM    104  H1  UNL A   1      11.397  56.958  11.778  1.00  0.00    +0.000 H 
BRANCH    3    4
ATOM    105  H2  UNL A   1      10.167  54.715  10.380  1.00  0.00    +0.000 H 
ATOM    106  H3  UNL A   1       9.724  55.356  11.973  1.00  0.00    +0.000 H 
ATOM      4  C2  UNL A   1      10.523  55.138  11.296  1.00  0.00    +0.000 C 
BRANCH    4    5
ATOM    107  H4  UNL A   1      12.173  53.817  11.269  1.00  0.00    +0.000 H 
ATOM    108  H5  UNL A   1      10.792  53.330  12.305  1.00  0.00    +0.000 H 
ATOM      5  C3  UNL A   1      11.432  54.124  11.978  1.00  0.00    +0.000 C 
BRANCH    5    6
ATOM    110  H7  UNL A   1      12.126  55.690  13.173  1.00  0.00    +0.000 H 
ATOM    109  H6  UNL A   1      11.650  54.215  14.081  1.00  0.00    +0.000 H 
ATOM      6  C4  UNL A   1      12.154  54.622  13.228  1.00  0.00    +0.000 C 
BRANCH    6    7
ATOM    111  H8  UNL A   1      13.726  53.484  14.080  1.00  0.00    +0.000 H 
ATOM      7  C5  UNL A   1      13.636  54.251  13.339  1.00  0.00    +0.000 C 
ATOM    112  H9  UNL A   1      14.141  55.162  13.583  1.00  0.00    +0.000 H 
BRANCH    7    8
ATOM    113  H10 UNL A   1      14.859  54.553  11.632  1.00  0.00    +0.000 H 
ATOM    114  H11 UNL A   1      13.509  53.387  11.435  1.00  0.00    +0.000 H 
ATOM      8  C6  UNL A   1      14.304  53.743  12.056  1.00  0.00    +0.000 C 
BRANCH    8    9
ATOM      9  C7  UNL A   1      15.256  52.562  12.227  1.00  0.00    +0.000 C 
ATOM    115  H12 UNL A   1      15.454  52.429  13.271  1.00  0.00    +0.000 H 
ATOM    116  H13 UNL A   1      16.149  52.782  11.682  1.00  0.00    +0.000 H 
BRANCH    9   10
ATOM     10  N2  UNL A   1      14.710  51.325  11.697  1.00  0.00    +0.000 N 
ATOM    117  H14 UNL A   1      14.747  50.549  12.301  1.00  0.00    +0.000 H 
BRANCH   10   11
ATOM     11  C8  UNL A   1      14.149  51.095  10.466  1.00  0.00    +0.000 C 
ATOM     12  O2  UNL A   1      12.965  51.357  10.267  1.00  0.00    +0.000 O 
BRANCH   11   13
ATOM     13  C9  UNL A   1      14.968  50.566   9.355  1.00  0.00    +0.000 C 
ATOM     14  C10 UNL A   1      15.400  51.495   8.397  1.00  0.00    +0.000 C 
ATOM     15  C11 UNL A   1      16.178  51.074   7.321  1.00  0.00    +0.000 C 
ATOM     16  C12 UNL A   1      16.527  49.733   7.205  1.00  0.00    +0.000 C 
ATOM     17  C13 UNL A   1      16.080  48.804   8.152  1.00  0.00    +0.000 C 
ATOM     18  C14 UNL A   1      15.268  49.195   9.228  1.00  0.00    +0.000 C 
ATOM    118  H15 UNL A   1      15.142  52.489   8.489  1.00  0.00    +0.000 H 
ATOM    119  H16 UNL A   1      16.493  51.756   6.613  1.00  0.00    +0.000 H 
ATOM    120  H17 UNL A   1      17.117  49.421   6.417  1.00  0.00    +0.000 H 
ATOM    121  H18 UNL A   1      16.354  47.813   8.056  1.00  0.00    +0.000 H 
BRANCH   18   19
ATOM    122  H19 UNL A   1      15.376  47.861  10.771  1.00  0.00    +0.000 H 
ATOM     19  N3  UNL A   1      14.736  48.253  10.135  1.00  0.00    +0.000 N 
BRANCH   19   20
ATOM     40  N8  UNL A   1      13.168  46.992  11.261  1.00  0.00    +0.000 N 
ATOM     20  C15 UNL A   1      13.420  47.809  10.245  1.00  0.00    +0.000 C 
ATOM     21  N4  UNL A   1      12.519  48.183   9.353  1.00  0.00    +0.000 N 
ATOM     22  C16 UNL A   1      11.323  47.657   9.556  1.00  0.00    +0.000 C 
ATOM     23 Cl1  UNL A   1      10.111  48.098   8.435  1.00  0.00    +0.000 Cl
ATOM     24  N5  UNL A   1      10.949  46.854  10.534  1.00  0.00    +0.000 N 
ATOM     25  C17 UNL A   1      11.916  46.560  11.387  1.00  0.00    +0.000 C 
BRANCH   25   26
ATOM     26  N6  UNL A   1      11.655  45.821  12.546  1.00  0.00    +0.000 N 
ATOM    123  H20 UNL A   1      11.677  44.840  12.472  1.00  0.00    +0.000 H 
BRANCH   26   27
ATOM    132  H29 UNL A   1      12.456  46.380  16.979  1.00  0.00    +0.000 H 
ATOM    133  H30 UNL A   1      12.979  45.459  14.806  1.00  0.00    +0.000 H 
ATOM     38  C26 UNL A   1      11.835  46.577  16.178  1.00  0.00    +0.000 C 
ATOM     39  C27 UNL A   1      12.152  46.066  14.916  1.00  0.00    +0.000 C 
ATOM    124  H21 UNL A   1       9.612  47.363  13.181  1.00  0.00    +0.000 H 
ATOM    125  H22 UNL A   1       9.006  48.168  15.385  1.00  0.00    +0.000 H 
ATOM     27  C18 UNL A   1      11.363  46.366  13.806  1.00  0.00    +0.000 C 
ATOM     28  C19 UNL A   1      10.213  47.141  13.990  1.00  0.00    +0.000 C 
ATOM     29  C20 UNL A   1       9.870  47.617  15.261  1.00  0.00    +0.000 C 
ATOM     30  C21 UNL A   1      10.687  47.352  16.367  1.00  0.00    +0.000 C 
BRANCH   30   31
ATOM     33  C23 UNL A   1      10.391  49.658  19.367  1.00  0.00    +0.000 C 
ATOM    129  H26 UNL A   1      11.153  49.176  19.945  1.00  0.00    +0.000 H 
ATOM     35  C24 UNL A   1       9.000  47.835  19.768  1.00  0.00    +0.000 C 
ATOM     36  C25 UNL A   1       9.442  47.121  18.477  1.00  0.00    +0.000 C 
ATOM     37  O4  UNL A   1       9.099  45.953  18.282  1.00  0.00    +0.000 O 
ATOM     34  O3  UNL A   1       9.108  49.247  19.829  1.00  0.00    +0.000 O 
ATOM    130  H27 UNL A   1       7.972  47.589  19.929  1.00  0.00    +0.000 H 
ATOM    131  H28 UNL A   1       9.689  47.487  20.509  1.00  0.00    +0.000 H 
ATOM    127  H24 UNL A   1      11.545  49.502  17.610  1.00  0.00    +0.000 H 
ATOM    128  H25 UNL A   1      10.487  50.718  19.471  1.00  0.00    +0.000 H 
ATOM    126  H23 UNL A   1       9.824  49.824  17.329  1.00  0.00    +0.000 H 
ATOM     31  N7  UNL A   1      10.329  47.839  17.660  1.00  0.00    +0.000 N 
ATOM     32  C22 UNL A   1      10.541  49.273  17.901  1.00  0.00    +0.000 C 
ENDBRANCH   30   31
ENDBRANCH   26   27
ENDBRANCH   25   26
ENDBRANCH   19   20
ENDBRANCH   18   19
ENDBRANCH   11   13
ENDBRANCH   10   11
ENDBRANCH    9   10
ENDBRANCH    8    9
ENDBRANCH    7    8
ENDBRANCH    6    7
ENDBRANCH    5    6
ENDBRANCH    4    5
ENDBRANCH    3    4
ENDBRANCH    2    3
ENDBRANCH   41    2
ENDBRANCH   45   44
BRANCH   49   50
ATOM     50  C36 UNL A   1      12.022  47.648   5.051  1.00  0.00    +0.000 C 
ATOM     51  C37 UNL A   1      10.721  47.349   4.619  1.00  0.00    +0.000 C 
ATOM     52  F1  UNL A   1      10.138  48.091   3.665  1.00  0.00    +0.000 F 
ATOM     53  C38 UNL A   1      10.003  46.297   5.184  1.00  0.00    +0.000 C 
ATOM     54  F2  UNL A   1       8.749  46.050   4.778  1.00  0.00    +0.000 F 
ATOM     55  C39 UNL A   1      10.579  45.509   6.169  1.00  0.00    +0.000 C 
ATOM     56  F3  UNL A   1       9.891  44.490   6.703  1.00  0.00    +0.000 F 
ATOM     57  C40 UNL A   1      11.867  45.779   6.602  1.00  0.00    +0.000 C 
ATOM     58  F4  UNL A   1      12.432  45.010   7.544  1.00  0.00    +0.000 F 
ATOM     59  C41 UNL A   1      12.579  46.844   6.057  1.00  0.00    +0.000 C 
ATOM     60  F5  UNL A   1      13.822  47.083   6.501  1.00  0.00    +0.000 F 
ENDBRANCH   49   50
BRANCH   66   67
ATOM     67  C47 UNL A   1      16.451  48.509  -0.572  1.00  0.00    +0.000 C 
ATOM     68  C48 UNL A   1      17.739  47.955  -0.518  1.00  0.00    +0.000 C 
ATOM     69  F6  UNL A   1      18.529  48.189   0.542  1.00  0.00    +0.000 F 
ATOM     70  C49 UNL A   1      18.235  47.195  -1.573  1.00  0.00    +0.000 C 
ATOM     71  F7  UNL A   1      19.487  46.718  -1.521  1.00  0.00    +0.000 F 
ATOM     72  C50 UNL A   1      17.444  46.948  -2.685  1.00  0.00    +0.000 C 
ATOM     73  F8  UNL A   1      17.925  46.216  -3.700  1.00  0.00    +0.000 F 
ATOM     74  C51 UNL A   1      16.162  47.469  -2.751  1.00  0.00    +0.000 C 
ATOM     75  F9  UNL A   1      15.393  47.224  -3.822  1.00  0.00    +0.000 F 
ATOM     76  C52 UNL A   1      15.671  48.251  -1.710  1.00  0.00    +0.000 C 
ATOM     77  F10 UNL A   1      14.432  48.757  -1.808  1.00  0.00    +0.000 F 
ENDBRANCH   66   67
BRANCH   81   82
ATOM     82  C56 UNL A   1      17.429  55.150   1.274  1.00  0.00    +0.000 C 
ATOM     83  C57 UNL A   1      18.699  55.438   1.790  1.00  0.00    +0.000 C 
ATOM     84  F11 UNL A   1      19.179  54.729   2.823  1.00  0.00    +0.000 F 
ATOM     85  C58 UNL A   1      19.468  56.476   1.269  1.00  0.00    +0.000 C 
ATOM     86  F12 UNL A   1      20.665  56.755   1.804  1.00  0.00    +0.000 F 
ATOM     87  C59 UNL A   1      18.994  57.225   0.202  1.00  0.00    +0.000 C 
ATOM     88  F13 UNL A   1      19.740  58.216  -0.307  1.00  0.00    +0.000 F 
ATOM     89  C60 UNL A   1      17.745  56.950  -0.333  1.00  0.00    +0.000 C 
ATOM     90  F14 UNL A   1      17.291  57.661  -1.375  1.00  0.00    +0.000 F 
ATOM     91  C61 UNL A   1      16.963  55.933   0.207  1.00  0.00    +0.000 C 
ATOM     92  F15 UNL A   1      15.756  55.693  -0.326  1.00  0.00    +0.000 F 
ENDBRANCH   81   82
TORSDOF 20
ENDMDL
MODEL 3
REMARK VINA RESULT:      -9.2      3.261      7.854
ROOT
ATOM    136  H33 UNL A   1      18.635  53.249  -0.958  1.00  0.00    +0.000 H 
ATOM    137  H34 UNL A   1      18.180  50.743  -1.514  1.00  0.00    +0.000 H 
ATOM    138  H35 UNL A   1      15.862  51.793   1.752  1.00  0.00    +0.000 H 
ATOM    139  H36 UNL A   1      11.805  50.129   6.379  1.00  0.00    +0.000 H 
ATOM    140  H37 UNL A   1      12.091  52.618   6.792  1.00  0.00    +0.000 H 
ATOM    141  H38 UNL A   1      14.455  51.595   3.529  1.00  0.00    +0.000 H 
ATOM    142  H39 UNL A   1      13.512  46.742   2.630  1.00  0.00    +0.000 H 
ATOM    143  H40 UNL A   1      15.221  46.899   0.731  1.00  0.00    +0.000 H 
ATOM    144  H41 UNL A   1      16.586  56.682   2.633  1.00  0.00    +0.000 H 
ATOM    145  H42 UNL A   1      15.093  56.484   4.704  1.00  0.00    +0.000 H 
ATOM     45  C32 UNL A   1      13.950  53.891   5.052  1.00  0.00    +0.000 C 
ATOM     46  C33 UNL A   1      14.919  54.336   3.995  1.00  0.00    +0.000 C 
ATOM     47  N9  UNL A   1      15.453  53.642   3.021  1.00  0.00    +0.000 N 
ATOM     48  C34 UNL A   1      16.260  54.527   2.318  1.00  0.00    +0.000 C 
ATOM     49  C35 UNL A   1      17.042  54.279   1.241  1.00  0.00    +0.000 C 
ATOM     61  C42 UNL A   1      17.180  52.988   0.614  1.00  0.00    +0.000 C 
ATOM     62  C43 UNL A   1      17.980  52.629  -0.457  1.00  0.00    +0.000 C 
ATOM     63  C44 UNL A   1      17.748  51.279  -0.746  1.00  0.00    +0.000 C 
ATOM     64  C45 UNL A   1      16.839  50.785   0.176  1.00  0.00    +0.000 C 
ATOM     65  N10 UNL A   1      16.496  51.845   1.002  1.00  0.00    +0.000 N 
ATOM     66  C46 UNL A   1      16.318  49.447   0.292  1.00  0.00    +0.000 C 
ATOM     78  C53 UNL A   1      15.447  49.029   1.244  1.00  0.00    +0.000 C 
ATOM     79  N11 UNL A   1      14.871  49.754   2.275  1.00  0.00    +0.000 N 
ATOM     80  C54 UNL A   1      14.085  48.917   2.906  1.00  0.00    +0.000 C 
ATOM     81  C55 UNL A   1      13.221  49.157   4.109  1.00  0.00    +0.000 C 
ATOM     93  C62 UNL A   1      13.189  50.385   4.658  1.00  0.00    +0.000 C 
ATOM     94  C63 UNL A   1      12.397  50.765   5.822  1.00  0.00    +0.000 C 
ATOM     95  C64 UNL A   1      12.562  52.076   6.050  1.00  0.00    +0.000 C 
ATOM     96  C65 UNL A   1      13.518  52.616   5.081  1.00  0.00    +0.000 C 
ATOM     97  N12 UNL A   1      13.830  51.542   4.289  1.00  0.00    +0.000 N 
ATOM     98  C66 UNL A   1      14.063  47.564   2.337  1.00  0.00    +0.000 C 
ATOM     99  C67 UNL A   1      14.938  47.676   1.349  1.00  0.00    +0.000 C 
ATOM    100  C68 UNL A   1      16.128  55.818   2.962  1.00  0.00    +0.000 C 
ATOM    101  C69 UNL A   1      15.342  55.745   4.029  1.00  0.00    +0.000 C 
ENDROOT
BRANCH   45   44
ATOM    102  C70 UNL A   1      14.170  55.017   7.294  1.00  0.00    +0.000 C 
ATOM    103  C71 UNL A   1      13.702  55.922   8.250  1.00  0.00    +0.000 C 
ATOM    134  H31 UNL A   1      11.097  57.167   6.546  1.00  0.00    +0.000 H 
ATOM     41  C28 UNL A   1      12.548  56.671   7.997  1.00  0.00    +0.000 C 
ATOM     42  C29 UNL A   1      11.891  56.548   6.770  1.00  0.00    +0.000 C 
ATOM     43  C30 UNL A   1      12.310  55.591   5.852  1.00  0.00    +0.000 C 
ATOM    135  H32 UNL A   1      11.771  55.442   4.985  1.00  0.00    +0.000 H 
ATOM     44  C31 UNL A   1      13.463  54.827   6.098  1.00  0.00    +0.000 C 
ATOM    146  H43 UNL A   1      15.037  54.486   7.469  1.00  0.00    +0.000 H 
ATOM    147  H44 UNL A   1      14.208  56.040   9.143  1.00  0.00    +0.000 H 
BRANCH   41    2
ATOM      1  O1  UNL A   1      12.330  58.792   8.972  1.00  0.00    +0.000 O 
ATOM      2  C1  UNL A   1      12.051  57.598   9.037  1.00  0.00    +0.000 C 
BRANCH    2    3
ATOM      3  N1  UNL A   1      11.304  57.118  10.084  1.00  0.00    +0.000 N 
ATOM    104  H1  UNL A   1      11.742  57.145  10.965  1.00  0.00    +0.000 H 
BRANCH    3    4
ATOM    105  H2  UNL A   1       9.571  56.635   9.079  1.00  0.00    +0.000 H 
ATOM    106  H3  UNL A   1       9.376  57.149  10.765  1.00  0.00    +0.000 H 
ATOM      4  C2  UNL A   1       9.957  56.574  10.076  1.00  0.00    +0.000 C 
BRANCH    4    5
ATOM    107  H4  UNL A   1       8.892  54.776  10.395  1.00  0.00    +0.000 H 
ATOM    108  H5  UNL A   1      10.217  55.120  11.552  1.00  0.00    +0.000 H 
ATOM      5  C3  UNL A   1       9.895  55.122  10.531  1.00  0.00    +0.000 C 
BRANCH    5    6
ATOM    110  H7  UNL A   1      10.191  53.451   9.313  1.00  0.00    +0.000 H 
ATOM    109  H6  UNL A   1      11.430  54.737   9.126  1.00  0.00    +0.000 H 
ATOM      6  C4  UNL A   1      10.829  54.161   9.797  1.00  0.00    +0.000 C 
BRANCH    6    7
ATOM    111  H8  UNL A   1      12.180  52.552  10.077  1.00  0.00    +0.000 H 
ATOM      7  C5  UNL A   1      11.771  53.337  10.680  1.00  0.00    +0.000 C 
ATOM    112  H9  UNL A   1      11.172  52.997  11.499  1.00  0.00    +0.000 H 
BRANCH    7    8
ATOM    113  H10 UNL A   1      12.715  54.240  12.352  1.00  0.00    +0.000 H 
ATOM    114  H11 UNL A   1      13.034  55.006  10.759  1.00  0.00    +0.000 H 
ATOM      8  C6  UNL A   1      12.941  54.096  11.316  1.00  0.00    +0.000 C 
BRANCH    8    9
ATOM      9  C7  UNL A   1      14.303  53.413  11.224  1.00  0.00    +0.000 C 
ATOM    115  H12 UNL A   1      15.041  54.150  10.983  1.00  0.00    +0.000 H 
ATOM    116  H13 UNL A   1      14.239  52.659  10.469  1.00  0.00    +0.000 H 
BRANCH    9   10
ATOM     10  N2  UNL A   1      14.685  52.763  12.466  1.00  0.00    +0.000 N 
ATOM    117  H14 UNL A   1      14.730  53.347  13.257  1.00  0.00    +0.000 H 
BRANCH   10   11
ATOM     11  C8  UNL A   1      14.991  51.443  12.682  1.00  0.00    +0.000 C 
ATOM     12  O2  UNL A   1      14.637  50.889  13.720  1.00  0.00    +0.000 O 
BRANCH   11   13
ATOM     13  C9  UNL A   1      15.715  50.662  11.657  1.00  0.00    +0.000 C 
ATOM     14  C10 UNL A   1      17.095  50.886  11.557  1.00  0.00    +0.000 C 
ATOM     15  C11 UNL A   1      17.848  50.187  10.616  1.00  0.00    +0.000 C 
ATOM     16  C12 UNL A   1      17.225  49.263   9.784  1.00  0.00    +0.000 C 
ATOM     17  C13 UNL A   1      15.844  49.053   9.873  1.00  0.00    +0.000 C 
ATOM     18  C14 UNL A   1      15.056  49.767  10.789  1.00  0.00    +0.000 C 
ATOM    118  H15 UNL A   1      17.554  51.569  12.180  1.00  0.00    +0.000 H 
ATOM    119  H16 UNL A   1      18.863  50.355  10.538  1.00  0.00    +0.000 H 
ATOM    120  H17 UNL A   1      17.783  48.732   9.097  1.00  0.00    +0.000 H 
ATOM    121  H18 UNL A   1      15.398  48.359   9.253  1.00  0.00    +0.000 H 
BRANCH   18   19
ATOM    122  H19 UNL A   1      13.137  50.451  10.646  1.00  0.00    +0.000 H 
ATOM     19  N3  UNL A   1      13.652  49.631  10.823  1.00  0.00    +0.000 N 
BRANCH   19   20
ATOM     40  N8  UNL A   1      13.141  47.876  12.229  1.00  0.00    +0.000 N 
ATOM     20  C15 UNL A   1      12.901  48.485  11.074  1.00  0.00    +0.000 C 
ATOM     21  N4  UNL A   1      12.035  48.052  10.173  1.00  0.00    +0.000 N 
ATOM     22  C16 UNL A   1      11.422  46.934  10.524  1.00  0.00    +0.000 C 
ATOM     23 Cl1  UNL A   1      10.290  46.318   9.402  1.00  0.00    +0.000 Cl
ATOM     24  N5  UNL A   1      11.561  46.253  11.646  1.00  0.00    +0.000 N 
ATOM     25  C17 UNL A   1      12.431  46.782  12.489  1.00  0.00    +0.000 C 
BRANCH   25   26
ATOM     26  N6  UNL A   1      12.605  46.251  13.773  1.00  0.00    +0.000 N 
ATOM    123  H20 UNL A   1      13.287  45.550  13.884  1.00  0.00    +0.000 H 
BRANCH   26   27
ATOM    132  H29 UNL A   1      11.668  46.040  18.209  1.00  0.00    +0.000 H 
ATOM    133  H30 UNL A   1      12.930  45.392  16.252  1.00  0.00    +0.000 H 
ATOM     38  C26 UNL A   1      11.417  46.431  17.286  1.00  0.00    +0.000 C 
ATOM     39  C27 UNL A   1      12.164  46.076  16.160  1.00  0.00    +0.000 C 
ATOM    124  H21 UNL A   1      10.575  47.932  13.884  1.00  0.00    +0.000 H 
ATOM    125  H22 UNL A   1       9.217  48.472  15.816  1.00  0.00    +0.000 H 
ATOM     27  C18 UNL A   1      11.884  46.637  14.913  1.00  0.00    +0.000 C 
ATOM     28  C19 UNL A   1      10.802  47.517  14.801  1.00  0.00    +0.000 C 
ATOM     29  C20 UNL A   1      10.026  47.839  15.920  1.00  0.00    +0.000 C 
ATOM     30  C21 UNL A   1      10.335  47.311  17.180  1.00  0.00    +0.000 C 
BRANCH   30   31
ATOM     33  C23 UNL A   1       7.741  47.029  19.935  1.00  0.00    +0.000 C 
ATOM    129  H26 UNL A   1       7.009  47.643  19.452  1.00  0.00    +0.000 H 
ATOM     35  C24 UNL A   1       8.991  48.944  20.368  1.00  0.00    +0.000 C 
ATOM     36  C25 UNL A   1       9.808  48.792  19.072  1.00  0.00    +0.000 C 
ATOM     37  O4  UNL A   1      10.553  49.707  18.714  1.00  0.00    +0.000 O 
ATOM     34  O3  UNL A   1       8.411  47.784  20.940  1.00  0.00    +0.000 O 
ATOM    130  H27 UNL A   1       9.642  49.368  21.104  1.00  0.00    +0.000 H 
ATOM    131  H28 UNL A   1       8.152  49.543  20.081  1.00  0.00    +0.000 H 
ATOM    127  H24 UNL A   1       8.218  46.071  18.119  1.00  0.00    +0.000 H 
ATOM    128  H25 UNL A   1       7.256  46.187  20.383  1.00  0.00    +0.000 H 
ATOM    126  H23 UNL A   1       9.435  45.872  19.393  1.00  0.00    +0.000 H 
ATOM     31  N7  UNL A   1       9.537  47.642  18.316  1.00  0.00    +0.000 N 
ATOM     32  C22 UNL A   1       8.760  46.546  18.910  1.00  0.00    +0.000 C 
ENDBRANCH   30   31
ENDBRANCH   26   27
ENDBRANCH   25   26
ENDBRANCH   19   20
ENDBRANCH   18   19
ENDBRANCH   11   13
ENDBRANCH   10   11
ENDBRANCH    9   10
ENDBRANCH    8    9
ENDBRANCH    7    8
ENDBRANCH    6    7
ENDBRANCH    5    6
ENDBRANCH    4    5
ENDBRANCH    3    4
ENDBRANCH    2    3
ENDBRANCH   41    2
ENDBRANCH   45   44
BRANCH   49   50
ATOM     50  C36 UNL A   1      17.808  55.430   0.653  1.00  0.00    +0.000 C 
ATOM     51  C37 UNL A   1      19.052  55.825   1.167  1.00  0.00    +0.000 C 
ATOM     52  F1  UNL A   1      19.559  55.218   2.250  1.00  0.00    +0.000 F 
ATOM     53  C38 UNL A   1      19.769  56.868   0.584  1.00  0.00    +0.000 C 
ATOM     54  F2  UNL A   1      20.940  57.251   1.113  1.00  0.00    +0.000 F 
ATOM     55  C39 UNL A   1      19.273  57.513  -0.538  1.00  0.00    +0.000 C 
ATOM     56  F3  UNL A   1      19.970  58.508  -1.106  1.00  0.00    +0.000 F 
ATOM     57  C40 UNL A   1      18.052  57.130  -1.071  1.00  0.00    +0.000 C 
ATOM     58  F4  UNL A   1      17.577  57.743  -2.165  1.00  0.00    +0.000 F 
ATOM     59  C41 UNL A   1      17.321  56.105  -0.476  1.00  0.00    +0.000 C 
ATOM     60  F5  UNL A   1      16.140  55.760  -1.013  1.00  0.00    +0.000 F 
ENDBRANCH   49   50
BRANCH   66   67
ATOM     67  C47 UNL A   1      16.785  48.421  -0.698  1.00  0.00    +0.000 C 
ATOM     68  C48 UNL A   1      16.012  48.076  -1.816  1.00  0.00    +0.000 C 
ATOM     69  F6  UNL A   1      14.807  48.637  -2.002  1.00  0.00    +0.000 F 
ATOM     70  C49 UNL A   1      16.456  47.119  -2.723  1.00  0.00    +0.000 C 
ATOM     71  F7  UNL A   1      15.678  46.768  -3.757  1.00  0.00    +0.000 F 
ATOM     72  C50 UNL A   1      17.691  46.513  -2.548  1.00  0.00    +0.000 C 
ATOM     73  F8  UNL A   1      18.117  45.592  -3.424  1.00  0.00    +0.000 F 
ATOM     74  C51 UNL A   1      18.481  46.854  -1.461  1.00  0.00    +0.000 C 
ATOM     75  F9  UNL A   1      19.679  46.277  -1.295  1.00  0.00    +0.000 F 
ATOM     76  C52 UNL A   1      18.029  47.792  -0.537  1.00  0.00    +0.000 C 
ATOM     77  F10 UNL A   1      18.806  48.090   0.515  1.00  0.00    +0.000 F 
ENDBRANCH   66   67
BRANCH   81   82
ATOM     82  C56 UNL A   1      12.405  48.068   4.703  1.00  0.00    +0.000 C 
ATOM     83  C57 UNL A   1      12.894  47.298   5.766  1.00  0.00    +0.000 C 
ATOM     84  F11 UNL A   1      14.132  47.515   6.236  1.00  0.00    +0.000 F 
ATOM     85  C58 UNL A   1      12.127  46.281   6.329  1.00  0.00    +0.000 C 
ATOM     86  F12 UNL A   1      12.632  45.533   7.321  1.00  0.00    +0.000 F 
ATOM     87  C59 UNL A   1      10.845  46.035   5.859  1.00  0.00    +0.000 C 
ATOM     88  F13 UNL A   1      10.103  45.063   6.409  1.00  0.00    +0.000 F 
ATOM     89  C60 UNL A   1      10.335  46.793   4.816  1.00  0.00    +0.000 C 
ATOM     90  F14 UNL A   1       9.091  46.570   4.371  1.00  0.00    +0.000 F 
ATOM     91  C61 UNL A   1      11.113  47.789   4.233  1.00  0.00    +0.000 C 
ATOM     92  F15 UNL A   1      10.598  48.503   3.221  1.00  0.00    +0.000 F 
ENDBRANCH   81   82
TORSDOF 20
ENDMDL
MODEL 4
REMARK VINA RESULT:      -9.2      3.550      7.795
ROOT
ATOM    136  H33 UNL A   1      13.435  46.645   3.249  1.00  0.00    +0.000 H 
ATOM    137  H34 UNL A   1      15.060  46.719   1.211  1.00  0.00    +0.000 H 
ATOM    138  H35 UNL A   1      14.823  50.524   2.827  1.00  0.00    +0.000 H 
ATOM    139  H36 UNL A   1      16.343  56.710   2.573  1.00  0.00    +0.000 H 
ATOM    140  H37 UNL A   1      14.927  56.595   4.677  1.00  0.00    +0.000 H 
ATOM    141  H38 UNL A   1      15.114  52.768   3.067  1.00  0.00    +0.000 H 
ATOM    142  H39 UNL A   1      18.221  53.095  -0.869  1.00  0.00    +0.000 H 
ATOM    143  H40 UNL A   1      17.773  50.605  -1.260  1.00  0.00    +0.000 H 
ATOM    144  H41 UNL A   1      11.880  50.282   6.887  1.00  0.00    +0.000 H 
ATOM    145  H42 UNL A   1      12.093  52.822   7.137  1.00  0.00    +0.000 H 
ATOM     45  C32 UNL A   1      13.839  54.022   5.223  1.00  0.00    +0.000 C 
ATOM     46  C33 UNL A   1      13.433  52.580   5.322  1.00  0.00    +0.000 C 
ATOM     47  N9  UNL A   1      13.778  51.572   4.559  1.00  0.00    +0.000 N 
ATOM     48  C34 UNL A   1      13.147  50.456   5.093  1.00  0.00    +0.000 C 
ATOM     49  C35 UNL A   1      13.172  49.179   4.643  1.00  0.00    +0.000 C 
ATOM     61  C42 UNL A   1      13.889  48.742   3.470  1.00  0.00    +0.000 C 
ATOM     62  C43 UNL A   1      13.942  47.477   2.910  1.00  0.00    +0.000 C 
ATOM     63  C44 UNL A   1      14.801  47.521   1.807  1.00  0.00    +0.000 C 
ATOM     64  C45 UNL A   1      15.247  48.823   1.650  1.00  0.00    +0.000 C 
ATOM     65  N10 UNL A   1      14.682  49.562   2.679  1.00  0.00    +0.000 N 
ATOM     66  C46 UNL A   1      16.125  49.354   0.639  1.00  0.00    +0.000 C 
ATOM     78  C53 UNL A   1      16.496  50.654   0.534  1.00  0.00    +0.000 C 
ATOM     79  N11 UNL A   1      16.145  51.728   1.337  1.00  0.00    +0.000 N 
ATOM     80  C54 UNL A   1      16.775  52.766   0.845  1.00  0.00    +0.000 C 
ATOM     81  C55 UNL A   1      16.755  54.192   1.311  1.00  0.00    +0.000 C 
ATOM     93  C62 UNL A   1      16.019  54.517   2.390  1.00  0.00    +0.000 C 
ATOM     94  C63 UNL A   1      15.907  55.857   2.957  1.00  0.00    +0.000 C 
ATOM     95  C64 UNL A   1      15.144  55.799   4.057  1.00  0.00    +0.000 C 
ATOM     96  C65 UNL A   1      14.667  54.427   4.241  1.00  0.00    +0.000 C 
ATOM     97  N12 UNL A   1      15.244  53.734   3.208  1.00  0.00    +0.000 N 
ATOM     98  C66 UNL A   1      17.612  52.465  -0.323  1.00  0.00    +0.000 C 
ATOM     99  C67 UNL A   1      17.377  51.172  -0.494  1.00  0.00    +0.000 C 
ATOM    100  C68 UNL A   1      12.417  50.904   6.261  1.00  0.00    +0.000 C 
ATOM    101  C69 UNL A   1      12.528  52.216   6.424  1.00  0.00    +0.000 C 
ENDROOT
BRANCH   45   44
ATOM    102  C70 UNL A   1      12.077  55.645   5.999  1.00  0.00    +0.000 C 
ATOM    103  C71 UNL A   1      11.608  56.578   6.927  1.00  0.00    +0.000 C 
ATOM    134  H31 UNL A   1      14.091  56.358   9.170  1.00  0.00    +0.000 H 
ATOM     41  C28 UNL A   1      12.371  56.877   8.062  1.00  0.00    +0.000 C 
ATOM     42  C29 UNL A   1      13.576  56.208   8.289  1.00  0.00    +0.000 C 
ATOM     43  C30 UNL A   1      14.079  55.340   7.327  1.00  0.00    +0.000 C 
ATOM    135  H32 UNL A   1      15.011  54.914   7.456  1.00  0.00    +0.000 H 
ATOM     44  C31 UNL A   1      13.327  55.036   6.179  1.00  0.00    +0.000 C 
ATOM    146  H43 UNL A   1      11.501  55.403   5.177  1.00  0.00    +0.000 H 
ATOM    147  H44 UNL A   1      10.700  57.047   6.778  1.00  0.00    +0.000 H 
BRANCH   41    2
ATOM      1  O1  UNL A   1      12.465  58.964   9.125  1.00  0.00    +0.000 O 
ATOM      2  C1  UNL A   1      11.873  57.894   9.014  1.00  0.00    +0.000 C 
BRANCH    2    3
ATOM      3  N1  UNL A   1      10.771  57.628   9.788  1.00  0.00    +0.000 N 
ATOM    104  H1  UNL A   1       9.901  57.773   9.351  1.00  0.00    +0.000 H 
BRANCH    3    4
ATOM    105  H2  UNL A   1       9.681  57.136  11.467  1.00  0.00    +0.000 H 
ATOM    106  H3  UNL A   1      11.282  57.843  11.757  1.00  0.00    +0.000 H 
ATOM      4  C2  UNL A   1      10.707  57.163  11.164  1.00  0.00    +0.000 C 
BRANCH    4    5
ATOM    107  H4  UNL A   1      11.188  55.504  12.382  1.00  0.00    +0.000 H 
ATOM    108  H5  UNL A   1      12.327  55.852  11.042  1.00  0.00    +0.000 H 
ATOM      5  C3  UNL A   1      11.306  55.776  11.354  1.00  0.00    +0.000 C 
BRANCH    5    6
ATOM    110  H7  UNL A   1      10.130  54.058  11.178  1.00  0.00    +0.000 H 
ATOM    109  H6  UNL A   1      10.097  55.134   9.740  1.00  0.00    +0.000 H 
ATOM      6  C4  UNL A   1      10.690  54.669  10.500  1.00  0.00    +0.000 C 
BRANCH    6    7
ATOM    111  H8  UNL A   1      12.347  54.322   9.226  1.00  0.00    +0.000 H 
ATOM      7  C5  UNL A   1      11.679  53.724   9.811  1.00  0.00    +0.000 C 
ATOM    112  H9  UNL A   1      11.078  53.047   9.241  1.00  0.00    +0.000 H 
BRANCH    7    8
ATOM    113  H10 UNL A   1      12.567  51.862  10.306  1.00  0.00    +0.000 H 
ATOM    114  H11 UNL A   1      12.052  52.881  11.692  1.00  0.00    +0.000 H 
ATOM      8  C6  UNL A   1      12.528  52.842  10.733  1.00  0.00    +0.000 C 
BRANCH    8    9
ATOM      9  C7  UNL A   1      13.962  53.311  10.965  1.00  0.00    +0.000 C 
ATOM    115  H12 UNL A   1      13.989  54.379  10.897  1.00  0.00    +0.000 H 
ATOM    116  H13 UNL A   1      14.578  52.854  10.219  1.00  0.00    +0.000 H 
BRANCH    9   10
ATOM     10  N2  UNL A   1      14.475  52.914  12.264  1.00  0.00    +0.000 N 
ATOM    117  H14 UNL A   1      14.390  53.585  12.979  1.00  0.00    +0.000 H 
BRANCH   10   11
ATOM     11  C8  UNL A   1      15.061  51.728  12.628  1.00  0.00    +0.000 C 
ATOM     12  O2  UNL A   1      15.033  51.358  13.799  1.00  0.00    +0.000 O 
BRANCH   11   13
ATOM     13  C9  UNL A   1      15.699  50.863  11.613  1.00  0.00    +0.000 C 
ATOM     14  C10 UNL A   1      17.030  51.158  11.284  1.00  0.00    +0.000 C 
ATOM     15  C11 UNL A   1      17.701  50.388  10.338  1.00  0.00    +0.000 C 
ATOM     16  C12 UNL A   1      17.047  49.323   9.727  1.00  0.00    +0.000 C 
ATOM     17  C13 UNL A   1      15.713  49.040  10.042  1.00  0.00    +0.000 C 
ATOM     18  C14 UNL A   1      15.003  49.821  10.968  1.00  0.00    +0.000 C 
ATOM    118  H15 UNL A   1      17.512  51.946  11.744  1.00  0.00    +0.000 H 
ATOM    119  H16 UNL A   1      18.679  50.607  10.092  1.00  0.00    +0.000 H 
ATOM    120  H17 UNL A   1      17.547  48.740   9.037  1.00  0.00    +0.000 H 
ATOM    121  H18 UNL A   1      15.244  48.243   9.585  1.00  0.00    +0.000 H 
BRANCH   18   19
ATOM    122  H19 UNL A   1      13.020  50.308  10.914  1.00  0.00    +0.000 H 
ATOM     19  N3  UNL A   1      13.632  49.602  11.224  1.00  0.00    +0.000 N 
BRANCH   19   20
ATOM     40  N8  UNL A   1      12.691  48.700  13.126  1.00  0.00    +0.000 N 
ATOM     20  C15 UNL A   1      13.034  48.514  11.857  1.00  0.00    +0.000 C 
ATOM     21  N4  UNL A   1      12.866  47.379  11.201  1.00  0.00    +0.000 N 
ATOM     22  C16 UNL A   1      12.324  46.421  11.933  1.00  0.00    +0.000 C 
ATOM     23 Cl1  UNL A   1      12.081  44.923  11.147  1.00  0.00    +0.000 Cl
ATOM     24  N5  UNL A   1      11.926  46.491  13.190  1.00  0.00    +0.000 N 
ATOM     25  C17 UNL A   1      12.114  47.675  13.747  1.00  0.00    +0.000 C 
BRANCH   25   26
ATOM     26  N6  UNL A   1      11.636  47.951  15.033  1.00  0.00    +0.000 N 
ATOM    123  H20 UNL A   1      11.801  48.852  15.394  1.00  0.00    +0.000 H 
BRANCH   26   27
ATOM    132  H29 UNL A   1      11.455  44.481  17.953  1.00  0.00    +0.000 H 
ATOM    133  H30 UNL A   1      12.657  46.055  16.566  1.00  0.00    +0.000 H 
ATOM     38  C26 UNL A   1      10.930  45.157  17.375  1.00  0.00    +0.000 C 
ATOM     39  C27 UNL A   1      11.626  46.084  16.594  1.00  0.00    +0.000 C 
ATOM    124  H21 UNL A   1       9.022  47.727  15.304  1.00  0.00    +0.000 H 
ATOM    125  H22 UNL A   1       7.813  46.059  16.579  1.00  0.00    +0.000 H 
ATOM     27  C18 UNL A   1      10.942  47.047  15.851  1.00  0.00    +0.000 C 
ATOM     28  C19 UNL A   1       9.543  47.029  15.856  1.00  0.00    +0.000 C 
ATOM     29  C20 UNL A   1       8.845  46.074  16.603  1.00  0.00    +0.000 C 
ATOM     30  C21 UNL A   1       9.532  45.136  17.384  1.00  0.00    +0.000 C 
BRANCH   30   31
ATOM     33  C23 UNL A   1       7.433  43.581  20.137  1.00  0.00    +0.000 C 
ATOM    129  H26 UNL A   1       8.255  43.128  20.653  1.00  0.00    +0.000 H 
ATOM     35  C24 UNL A   1       7.660  41.978  18.465  1.00  0.00    +0.000 C 
ATOM     36  C25 UNL A   1       8.595  42.874  17.632  1.00  0.00    +0.000 C 
ATOM     37  O4  UNL A   1       9.177  42.399  16.654  1.00  0.00    +0.000 O 
ATOM     34  O3  UNL A   1       6.754  42.598  19.362  1.00  0.00    +0.000 O 
ATOM    130  H27 UNL A   1       7.079  41.402  17.776  1.00  0.00    +0.000 H 
ATOM    131  H28 UNL A   1       8.321  41.426  19.099  1.00  0.00    +0.000 H 
ATOM    127  H24 UNL A   1       8.538  45.345  19.807  1.00  0.00    +0.000 H 
ATOM    128  H25 UNL A   1       6.758  44.003  20.852  1.00  0.00    +0.000 H 
ATOM    126  H23 UNL A   1       7.111  45.171  18.769  1.00  0.00    +0.000 H 
ATOM     31  N7  UNL A   1       8.813  44.163  18.142  1.00  0.00    +0.000 N 
ATOM     32  C22 UNL A   1       7.950  44.677  19.214  1.00  0.00    +0.000 C 
ENDBRANCH   30   31
ENDBRANCH   26   27
ENDBRANCH   25   26
ENDBRANCH   19   20
ENDBRANCH   18   19
ENDBRANCH   11   13
ENDBRANCH   10   11
ENDBRANCH    9   10
ENDBRANCH    8    9
ENDBRANCH    7    8
ENDBRANCH    6    7
ENDBRANCH    5    6
ENDBRANCH    4    5
ENDBRANCH    3    4
ENDBRANCH    2    3
ENDBRANCH   41    2
ENDBRANCH   45   44
BRANCH   49   50
ATOM     50  C36 UNL A   1      12.411  48.146   5.424  1.00  0.00    +0.000 C 
ATOM     51  C37 UNL A   1      11.125  47.735   5.043  1.00  0.00    +0.000 C 
ATOM     52  F1  UNL A   1      10.514  48.310   3.996  1.00  0.00    +0.000 F 
ATOM     53  C38 UNL A   1      10.449  46.745   5.754  1.00  0.00    +0.000 C 
ATOM     54  F2  UNL A   1       9.208  46.392   5.392  1.00  0.00    +0.000 F 
ATOM     55  C39 UNL A   1      11.055  46.129   6.838  1.00  0.00    +0.000 C 
ATOM     56  F3  UNL A   1      10.409  45.169   7.514  1.00  0.00    +0.000 F 
ATOM     57  C40 UNL A   1      12.331  46.511   7.224  1.00  0.00    +0.000 C 
ATOM     58  F4  UNL A   1      12.924  45.907   8.264  1.00  0.00    +0.000 F 
ATOM     59  C41 UNL A   1      12.999  47.516   6.531  1.00  0.00    +0.000 C 
ATOM     60  F5  UNL A   1      14.231  47.867   6.932  1.00  0.00    +0.000 F 
ENDBRANCH   49   50
BRANCH   66   67
ATOM     67  C47 UNL A   1      16.661  48.409  -0.395  1.00  0.00    +0.000 C 
ATOM     68  C48 UNL A   1      17.962  47.893  -0.313  1.00  0.00    +0.000 C 
ATOM     69  F6  UNL A   1      18.776  48.270   0.686  1.00  0.00    +0.000 F 
ATOM     70  C49 UNL A   1      18.447  47.022  -1.283  1.00  0.00    +0.000 C 
ATOM     71  F7  UNL A   1      19.712  46.580  -1.212  1.00  0.00    +0.000 F 
ATOM     72  C50 UNL A   1      17.633  46.625  -2.333  1.00  0.00    +0.000 C 
ATOM     73  F8  UNL A   1      18.102  45.786  -3.266  1.00  0.00    +0.000 F 
ATOM     74  C51 UNL A   1      16.336  47.108  -2.423  1.00  0.00    +0.000 C 
ATOM     75  F9  UNL A   1      15.545  46.719  -3.432  1.00  0.00    +0.000 F 
ATOM     76  C52 UNL A   1      15.856  48.000  -1.469  1.00  0.00    +0.000 C 
ATOM     77  F10 UNL A   1      14.603  48.464  -1.590  1.00  0.00    +0.000 F 
ENDBRANCH   66   67
BRANCH   81   82
ATOM     82  C56 UNL A   1      17.527  55.245   0.605  1.00  0.00    +0.000 C 
ATOM     83  C57 UNL A   1      18.821  55.590   1.018  1.00  0.00    +0.000 C 
ATOM     84  F11 UNL A   1      19.363  54.993   2.090  1.00  0.00    +0.000 F 
ATOM     85  C58 UNL A   1      19.549  56.572   0.352  1.00  0.00    +0.000 C 
ATOM     86  F12 UNL A   1      20.771  56.911   0.789  1.00  0.00    +0.000 F 
ATOM     87  C59 UNL A   1      19.010  57.207  -0.758  1.00  0.00    +0.000 C 
ATOM     88  F13 UNL A   1      19.717  58.144  -1.406  1.00  0.00    +0.000 F 
ATOM     89  C60 UNL A   1      17.737  56.873  -1.192  1.00  0.00    +0.000 C 
ATOM     90  F14 UNL A   1      17.218  57.471  -2.274  1.00  0.00    +0.000 F 
ATOM     91  C61 UNL A   1      16.996  55.913  -0.508  1.00  0.00    +0.000 C 
ATOM     92  F15 UNL A   1      15.764  55.613  -0.946  1.00  0.00    +0.000 F 
ENDBRANCH   81   82
TORSDOF 20
ENDMDL
MODEL 5
REMARK VINA RESULT:      -9.1     33.110     37.731
ROOT
ATOM    136  H33 UNL A   1      49.886  57.194  16.312  1.00  0.00    +0.000 H 
ATOM    137  H34 UNL A   1      51.902  56.940  17.945  1.00  0.00    +0.000 H 
ATOM    138  H35 UNL A   1      49.501  53.587  18.309  1.00  0.00    +0.000 H 
ATOM    139  H36 UNL A   1      48.166  48.068  21.207  1.00  0.00    +0.000 H 
ATOM    140  H37 UNL A   1      46.318  48.219  19.473  1.00  0.00    +0.000 H 
ATOM    141  H38 UNL A   1      48.686  51.615  19.099  1.00  0.00    +0.000 H 
ATOM    142  H39 UNL A   1      52.475  50.998  22.342  1.00  0.00    +0.000 H 
ATOM    143  H40 UNL A   1      53.318  53.295  21.590  1.00  0.00    +0.000 H 
ATOM    144  H41 UNL A   1      45.770  54.008  14.977  1.00  0.00    +0.000 H 
ATOM    145  H42 UNL A   1      44.758  51.845  15.905  1.00  0.00    +0.000 H 
ATOM     45  C32 UNL A   1      46.344  50.614  17.934  1.00  0.00    +0.000 C 
ATOM     46  C33 UNL A   1      46.598  51.915  17.229  1.00  0.00    +0.000 C 
ATOM     47  N9  UNL A   1      47.584  52.763  17.393  1.00  0.00    +0.000 N 
ATOM     48  C34 UNL A   1      47.361  53.788  16.483  1.00  0.00    +0.000 C 
ATOM     49  C35 UNL A   1      48.090  54.912  16.287  1.00  0.00    +0.000 C 
ATOM     61  C42 UNL A   1      49.277  55.254  17.032  1.00  0.00    +0.000 C 
ATOM     62  C43 UNL A   1      50.062  56.390  16.934  1.00  0.00    +0.000 C 
ATOM     63  C44 UNL A   1      51.136  56.261  17.822  1.00  0.00    +0.000 C 
ATOM     64  C45 UNL A   1      50.994  55.066  18.508  1.00  0.00    +0.000 C 
ATOM     65  N10 UNL A   1      49.852  54.456  18.011  1.00  0.00    +0.000 N 
ATOM     66  C46 UNL A   1      51.840  54.518  19.538  1.00  0.00    +0.000 C 
ATOM     78  C53 UNL A   1      51.620  53.348  20.187  1.00  0.00    +0.000 C 
ATOM     79  N11 UNL A   1      50.587  52.439  20.017  1.00  0.00    +0.000 N 
ATOM     80  C54 UNL A   1      50.829  51.461  20.854  1.00  0.00    +0.000 C 
ATOM     81  C55 UNL A   1      50.033  50.214  21.106  1.00  0.00    +0.000 C 
ATOM     93  C62 UNL A   1      48.911  49.999  20.395  1.00  0.00    +0.000 C 
ATOM     94  C63 UNL A   1      48.042  48.835  20.528  1.00  0.00    +0.000 C 
ATOM     95  C64 UNL A   1      47.056  48.925  19.624  1.00  0.00    +0.000 C 
ATOM     96  C65 UNL A   1      47.193  50.182  18.886  1.00  0.00    +0.000 C 
ATOM     97  N12 UNL A   1      48.327  50.750  19.405  1.00  0.00    +0.000 N 
ATOM     98  C66 UNL A   1      52.055  51.632  21.643  1.00  0.00    +0.000 C 
ATOM     99  C67 UNL A   1      52.480  52.815  21.224  1.00  0.00    +0.000 C 
ATOM    100  C68 UNL A   1      46.160  53.446  15.750  1.00  0.00    +0.000 C 
ATOM    101  C69 UNL A   1      45.627  52.317  16.200  1.00  0.00    +0.000 C 
ENDROOT
BRANCH   45   44
ATOM    102  C70 UNL A   1      45.240  48.660  16.793  1.00  0.00    +0.000 C 
ATOM    103  C71 UNL A   1      44.107  47.884  16.536  1.00  0.00    +0.000 C 
ATOM    134  H31 UNL A   1      41.941  49.459  18.553  1.00  0.00    +0.000 H 
ATOM     41  C28 UNL A   1      42.888  48.208  17.141  1.00  0.00    +0.000 C 
ATOM     42  C29 UNL A   1      42.815  49.278  18.036  1.00  0.00    +0.000 C 
ATOM     43  C30 UNL A   1      43.922  50.097  18.229  1.00  0.00    +0.000 C 
ATOM    135  H32 UNL A   1      43.841  50.937  18.822  1.00  0.00    +0.000 H 
ATOM     44  C31 UNL A   1      45.150  49.787  17.622  1.00  0.00    +0.000 C 
ATOM    146  H43 UNL A   1      46.146  48.403  16.370  1.00  0.00    +0.000 H 
ATOM    147  H44 UNL A   1      44.168  47.071  15.902  1.00  0.00    +0.000 H 
BRANCH   41    2
ATOM      1  O1  UNL A   1      40.958  47.724  15.899  1.00  0.00    +0.000 O 
ATOM      2  C1  UNL A   1      41.692  47.394  16.827  1.00  0.00    +0.000 C 
BRANCH    2    3
ATOM      3  N1  UNL A   1      41.392  46.293  17.590  1.00  0.00    +0.000 N 
ATOM    104  H1  UNL A   1      40.962  46.480  18.455  1.00  0.00    +0.000 H 
BRANCH    3    4
ATOM    105  H2  UNL A   1      41.952  44.798  16.286  1.00  0.00    +0.000 H 
ATOM    106  H3  UNL A   1      40.699  44.372  17.467  1.00  0.00    +0.000 H 
ATOM      4  C2  UNL A   1      41.621  44.887  17.300  1.00  0.00    +0.000 C 
BRANCH    4    5
ATOM    107  H4  UNL A   1      43.247  43.574  17.617  1.00  0.00    +0.000 H 
ATOM    108  H5  UNL A   1      42.121  43.779  18.997  1.00  0.00    +0.000 H 
ATOM      5  C3  UNL A   1      42.667  44.252  18.207  1.00  0.00    +0.000 C 
BRANCH    5    6
ATOM    110  H7  UNL A   1      43.771  46.026  18.191  1.00  0.00    +0.000 H 
ATOM    109  H6  UNL A   1      43.186  45.527  19.815  1.00  0.00    +0.000 H 
ATOM      6  C4  UNL A   1      43.627  45.226  18.888  1.00  0.00    +0.000 C 
BRANCH    6    7
ATOM    111  H8  UNL A   1      45.478  45.331  19.914  1.00  0.00    +0.000 H 
ATOM      7  C5  UNL A   1      45.028  44.684  19.190  1.00  0.00    +0.000 C 
ATOM    112  H9  UNL A   1      45.533  44.656  18.247  1.00  0.00    +0.000 H 
BRANCH    7    8
ATOM    113  H10 UNL A   1      45.826  42.718  19.160  1.00  0.00    +0.000 H 
ATOM    114  H11 UNL A   1      44.105  42.861  19.651  1.00  0.00    +0.000 H 
ATOM      8  C6  UNL A   1      45.098  43.253  19.734  1.00  0.00    +0.000 C 
BRANCH    8    9
ATOM      9  C7  UNL A   1      45.473  43.120  21.208  1.00  0.00    +0.000 C 
ATOM    115  H12 UNL A   1      46.517  43.329  21.316  1.00  0.00    +0.000 H 
ATOM    116  H13 UNL A   1      45.237  42.124  21.515  1.00  0.00    +0.000 H 
BRANCH    9   10
ATOM     10  N2  UNL A   1      44.727  44.032  22.056  1.00  0.00    +0.000 N 
ATOM    117  H14 UNL A   1      43.763  43.850  22.135  1.00  0.00    +0.000 H 
BRANCH   10   11
ATOM     11  C8  UNL A   1      45.187  45.115  22.763  1.00  0.00    +0.000 C 
ATOM     12  O2  UNL A   1      45.059  46.250  22.309  1.00  0.00    +0.000 O 
BRANCH   11   13
ATOM     13  C9  UNL A   1      45.806  44.935  24.093  1.00  0.00    +0.000 C 
ATOM     14  C10 UNL A   1      44.948  44.575  25.141  1.00  0.00    +0.000 C 
ATOM     15  C11 UNL A   1      45.456  44.385  26.424  1.00  0.00    +0.000 C 
ATOM     16  C12 UNL A   1      46.818  44.548  26.657  1.00  0.00    +0.000 C 
ATOM     17  C13 UNL A   1      47.671  44.925  25.614  1.00  0.00    +0.000 C 
ATOM     18  C14 UNL A   1      47.181  45.155  24.319  1.00  0.00    +0.000 C 
ATOM    118  H15 UNL A   1      43.939  44.450  24.963  1.00  0.00    +0.000 H 
ATOM    119  H16 UNL A   1      44.825  44.124  27.197  1.00  0.00    +0.000 H 
ATOM    120  H17 UNL A   1      47.200  44.392  27.603  1.00  0.00    +0.000 H 
ATOM    121  H18 UNL A   1      48.680  45.036  25.801  1.00  0.00    +0.000 H 
BRANCH   18   19
ATOM    122  H19 UNL A   1      48.085  46.603  23.197  1.00  0.00    +0.000 H 
ATOM     19  N3  UNL A   1      48.016  45.625  23.282  1.00  0.00    +0.000 N 
BRANCH   19   20
ATOM     40  N8  UNL A   1      48.333  44.925  21.108  1.00  0.00    +0.000 N 
ATOM     20  C15 UNL A   1      48.756  44.882  22.365  1.00  0.00    +0.000 C 
ATOM     21  N4  UNL A   1      49.793  44.170  22.776  1.00  0.00    +0.000 N 
ATOM     22  C16 UNL A   1      50.378  43.484  21.809  1.00  0.00    +0.000 C 
ATOM     23 Cl1  UNL A   1      51.724  42.539  22.271  1.00  0.00    +0.000 Cl
ATOM     24  N5  UNL A   1      50.063  43.462  20.527  1.00  0.00    +0.000 N 
ATOM     25  C17 UNL A   1      49.029  44.226  20.216  1.00  0.00    +0.000 C 
BRANCH   25   26
ATOM     26  N6  UNL A   1      48.643  44.410  18.883  1.00  0.00    +0.000 N 
ATOM    123  H20 UNL A   1      48.242  43.641  18.418  1.00  0.00    +0.000 H 
BRANCH   26   27
ATOM    132  H29 UNL A   1      47.352  47.350  15.675  1.00  0.00    +0.000 H 
ATOM    133  H30 UNL A   1      47.088  45.308  16.943  1.00  0.00    +0.000 H 
ATOM     38  C26 UNL A   1      48.053  47.099  16.392  1.00  0.00    +0.000 C 
ATOM     39  C27 UNL A   1      47.886  45.932  17.142  1.00  0.00    +0.000 C 
ATOM    124  H21 UNL A   1      50.573  46.194  19.106  1.00  0.00    +0.000 H 
ATOM    125  H22 UNL A   1      50.918  48.165  17.740  1.00  0.00    +0.000 H 
ATOM     27  C18 UNL A   1      48.785  45.601  18.156  1.00  0.00    +0.000 C 
ATOM     28  C19 UNL A   1      49.892  46.430  18.368  1.00  0.00    +0.000 C 
ATOM     29  C20 UNL A   1      50.085  47.576  17.587  1.00  0.00    +0.000 C 
ATOM     30  C21 UNL A   1      49.157  47.931  16.600  1.00  0.00    +0.000 C 
BRANCH   30   31
ATOM     33  C23 UNL A   1      48.863  50.414  13.745  1.00  0.00    +0.000 C 
ATOM    129  H26 UNL A   1      49.780  50.136  13.269  1.00  0.00    +0.000 H 
ATOM     35  C24 UNL A   1      50.104  51.447  15.422  1.00  0.00    +0.000 C 
ATOM     36  C25 UNL A   1      50.104  50.183  16.301  1.00  0.00    +0.000 C 
ATOM     37  O4  UNL A   1      50.820  50.142  17.304  1.00  0.00    +0.000 O 
ATOM     34  O3  UNL A   1      49.055  51.616  14.484  1.00  0.00    +0.000 O 
ATOM    130  H27 UNL A   1      50.080  52.289  16.081  1.00  0.00    +0.000 H 
ATOM    131  H28 UNL A   1      50.982  51.347  14.819  1.00  0.00    +0.000 H 
ATOM    127  H24 UNL A   1      48.384  48.399  14.133  1.00  0.00    +0.000 H 
ATOM    128  H25 UNL A   1      48.111  50.568  13.000  1.00  0.00    +0.000 H 
ATOM    126  H23 UNL A   1      47.468  49.568  15.101  1.00  0.00    +0.000 H 
ATOM     31  N7  UNL A   1      49.362  49.100  15.806  1.00  0.00    +0.000 N 
ATOM     32  C22 UNL A   1      48.423  49.308  14.695  1.00  0.00    +0.000 C 
ENDBRANCH   30   31
ENDBRANCH   26   27
ENDBRANCH   25   26
ENDBRANCH   19   20
ENDBRANCH   18   19
ENDBRANCH   11   13
ENDBRANCH   10   11
ENDBRANCH    9   10
ENDBRANCH    8    9
ENDBRANCH    7    8
ENDBRANCH    6    7
ENDBRANCH    5    6
ENDBRANCH    4    5
ENDBRANCH    3    4
ENDBRANCH    2    3
ENDBRANCH   41    2
ENDBRANCH   45   44
BRANCH   49   50
ATOM     50  C36 UNL A   1      47.639  55.861  15.214  1.00  0.00    +0.000 C 
ATOM     51  C37 UNL A   1      46.932  57.034  15.518  1.00  0.00    +0.000 C 
ATOM     52  F1  UNL A   1      46.584  57.304  16.785  1.00  0.00    +0.000 F 
ATOM     53  C38 UNL A   1      46.556  57.924  14.514  1.00  0.00    +0.000 C 
ATOM     54  F2  UNL A   1      45.853  59.023  14.824  1.00  0.00    +0.000 F 
ATOM     55  C39 UNL A   1      46.905  57.676  13.196  1.00  0.00    +0.000 C 
ATOM     56  F3  UNL A   1      46.554  58.540  12.233  1.00  0.00    +0.000 F 
ATOM     57  C40 UNL A   1      47.614  56.529  12.874  1.00  0.00    +0.000 C 
ATOM     58  F4  UNL A   1      47.964  56.293  11.602  1.00  0.00    +0.000 F 
ATOM     59  C41 UNL A   1      47.969  55.625  13.871  1.00  0.00    +0.000 C 
ATOM     60  F5  UNL A   1      48.652  54.522  13.528  1.00  0.00    +0.000 F 
ENDBRANCH   49   50
BRANCH   66   67
ATOM     67  C47 UNL A   1      53.049  55.305  19.947  1.00  0.00    +0.000 C 
ATOM     68  C48 UNL A   1      52.972  56.321  20.911  1.00  0.00    +0.000 C 
ATOM     69  F6  UNL A   1      51.790  56.638  21.463  1.00  0.00    +0.000 F 
ATOM     70  C49 UNL A   1      54.102  57.046  21.276  1.00  0.00    +0.000 C 
ATOM     71  F7  UNL A   1      53.995  58.047  22.162  1.00  0.00    +0.000 F 
ATOM     72  C50 UNL A   1      55.333  56.748  20.712  1.00  0.00    +0.000 C 
ATOM     73  F8  UNL A   1      56.420  57.448  21.067  1.00  0.00    +0.000 F 
ATOM     74  C51 UNL A   1      55.436  55.734  19.772  1.00  0.00    +0.000 C 
ATOM     75  F9  UNL A   1      56.627  55.439  19.233  1.00  0.00    +0.000 F 
ATOM     76  C52 UNL A   1      54.304  55.024  19.384  1.00  0.00    +0.000 C 
ATOM     77  F10 UNL A   1      54.430  54.060  18.460  1.00  0.00    +0.000 F 
ENDBRANCH   66   67
BRANCH   81   82
ATOM     82  C56 UNL A   1      50.460  49.218  22.121  1.00  0.00    +0.000 C 
ATOM     83  C57 UNL A   1      50.013  49.302  23.446  1.00  0.00    +0.000 C 
ATOM     84  F11 UNL A   1      49.218  50.315  23.822  1.00  0.00    +0.000 F 
ATOM     85  C58 UNL A   1      50.405  48.364  24.398  1.00  0.00    +0.000 C 
ATOM     86  F12 UNL A   1      49.994  48.487  25.667  1.00  0.00    +0.000 F 
ATOM     87  C59 UNL A   1      51.229  47.308  24.035  1.00  0.00    +0.000 C 
ATOM     88  F13 UNL A   1      51.597  46.399  24.949  1.00  0.00    +0.000 F 
ATOM     89  C60 UNL A   1      51.673  47.198  22.727  1.00  0.00    +0.000 C 
ATOM     90  F14 UNL A   1      52.455  46.169  22.368  1.00  0.00    +0.000 F 
ATOM     91  C61 UNL A   1      51.305  48.152  21.782  1.00  0.00    +0.000 C 
ATOM     92  F15 UNL A   1      51.755  48.025  20.525  1.00  0.00    +0.000 F 
ENDBRANCH   81   82
TORSDOF 20
ENDMDL
MODEL 6
REMARK VINA RESULT:      -9.0      3.503      7.958
ROOT
ATOM    136  H33 UNL A   1      13.303  46.546   3.143  1.00  0.00    +0.000 H 
ATOM    137  H34 UNL A   1      14.950  46.629   1.124  1.00  0.00    +0.000 H 
ATOM    138  H35 UNL A   1      14.727  50.418   2.778  1.00  0.00    +0.000 H 
ATOM    139  H36 UNL A   1      16.299  56.594   2.606  1.00  0.00    +0.000 H 
ATOM    140  H37 UNL A   1      14.859  56.468   4.694  1.00  0.00    +0.000 H 
ATOM    141  H38 UNL A   1      15.033  52.657   3.045  1.00  0.00    +0.000 H 
ATOM    142  H39 UNL A   1      18.184  53.000  -0.855  1.00  0.00    +0.000 H 
ATOM    143  H40 UNL A   1      17.721  50.518  -1.277  1.00  0.00    +0.000 H 
ATOM    144  H41 UNL A   1      11.739  50.157   6.803  1.00  0.00    +0.000 H 
ATOM    145  H42 UNL A   1      11.970  52.693   7.083  1.00  0.00    +0.000 H 
ATOM     45  C32 UNL A   1      13.745  53.898   5.200  1.00  0.00    +0.000 C 
ATOM     46  C33 UNL A   1      13.327  52.459   5.280  1.00  0.00    +0.000 C 
ATOM     47  N9  UNL A   1      13.671  51.456   4.510  1.00  0.00    +0.000 N 
ATOM     48  C34 UNL A   1      13.026  50.340   5.026  1.00  0.00    +0.000 C 
ATOM     49  C35 UNL A   1      13.045  49.067   4.562  1.00  0.00    +0.000 C 
ATOM     61  C42 UNL A   1      13.771  48.637   3.392  1.00  0.00    +0.000 C 
ATOM     62  C43 UNL A   1      13.820  47.378   2.819  1.00  0.00    +0.000 C 
ATOM     63  C44 UNL A   1      14.691  47.426   1.725  1.00  0.00    +0.000 C 
ATOM     64  C45 UNL A   1      15.149  48.726   1.588  1.00  0.00    +0.000 C 
ATOM     65  N10 UNL A   1      14.579  49.459   2.618  1.00  0.00    +0.000 N 
ATOM     66  C46 UNL A   1      16.042  49.261   0.592  1.00  0.00    +0.000 C 
ATOM     78  C53 UNL A   1      16.425  50.559   0.504  1.00  0.00    +0.000 C 
ATOM     79  N11 UNL A   1      16.074  51.627   1.315  1.00  0.00    +0.000 N 
ATOM     80  C54 UNL A   1      16.718  52.664   0.841  1.00  0.00    +0.000 C 
ATOM     81  C55 UNL A   1      16.704  54.086   1.322  1.00  0.00    +0.000 C 
ATOM     93  C62 UNL A   1      15.960  54.406   2.396  1.00  0.00    +0.000 C 
ATOM     94  C63 UNL A   1      15.852  55.740   2.976  1.00  0.00    +0.000 C 
ATOM     95  C64 UNL A   1      15.077  55.677   4.068  1.00  0.00    +0.000 C 
ATOM     96  C65 UNL A   1      14.587  54.306   4.231  1.00  0.00    +0.000 C 
ATOM     97  N12 UNL A   1      15.170  53.620   3.198  1.00  0.00    +0.000 N 
ATOM     98  C66 UNL A   1      17.564  52.369  -0.322  1.00  0.00    +0.000 C 
ATOM     99  C67 UNL A   1      17.321  51.080  -0.509  1.00  0.00    +0.000 C 
ATOM    100  C68 UNL A   1      12.288  50.781   6.190  1.00  0.00    +0.000 C 
ATOM    101  C69 UNL A   1      12.407  52.090   6.368  1.00  0.00    +0.000 C 
ENDROOT
BRANCH   45   44
ATOM    102  C70 UNL A   1      11.967  55.491   6.002  1.00  0.00    +0.000 C 
ATOM    103  C71 UNL A   1      11.498  56.419   6.935  1.00  0.00    +0.000 C 
ATOM    134  H31 UNL A   1      14.024  56.255   9.134  1.00  0.00    +0.000 H 
ATOM     41  C28 UNL A   1      12.274  56.736   8.055  1.00  0.00    +0.000 C 
ATOM     42  C29 UNL A   1      13.496  56.091   8.263  1.00  0.00    +0.000 C 
ATOM     43  C30 UNL A   1      13.998  55.228   7.295  1.00  0.00    +0.000 C 
ATOM    135  H32 UNL A   1      14.939  54.821   7.409  1.00  0.00    +0.000 H 
ATOM     44  C31 UNL A   1      13.232  54.907   6.162  1.00  0.00    +0.000 C 
ATOM    146  H43 UNL A   1      11.381  55.235   5.192  1.00  0.00    +0.000 H 
ATOM    147  H44 UNL A   1      10.578  56.870   6.800  1.00  0.00    +0.000 H 
BRANCH   41    2
ATOM      1  O1  UNL A   1      12.431  58.764   9.221  1.00  0.00    +0.000 O 
ATOM      2  C1  UNL A   1      11.774  57.747   9.012  1.00  0.00    +0.000 C 
BRANCH    2    3
ATOM      3  N1  UNL A   1      10.595  57.535   9.681  1.00  0.00    +0.000 N 
ATOM    104  H1  UNL A   1       9.779  57.802   9.199  1.00  0.00    +0.000 H 
BRANCH    3    4
ATOM    105  H2  UNL A   1       9.367  57.159  11.294  1.00  0.00    +0.000 H 
ATOM    106  H3  UNL A   1      11.079  57.436  11.666  1.00  0.00    +0.000 H 
ATOM      4  C2  UNL A   1      10.380  56.971  11.004  1.00  0.00    +0.000 C 
BRANCH    4    5
ATOM    107  H4  UNL A   1      10.232  55.105  11.985  1.00  0.00    +0.000 H 
ATOM    108  H5  UNL A   1      11.688  55.345  10.967  1.00  0.00    +0.000 H 
ATOM      5  C3  UNL A   1      10.629  55.470  11.061  1.00  0.00    +0.000 C 
BRANCH    5    6
ATOM    110  H7  UNL A   1       9.172  54.147  10.360  1.00  0.00    +0.000 H 
ATOM    109  H6  UNL A   1       9.750  55.333   9.141  1.00  0.00    +0.000 H 
ATOM      6  C4  UNL A   1      10.009  54.655   9.927  1.00  0.00    +0.000 C 
BRANCH    6    7
ATOM    111  H8  UNL A   1      11.570  54.024   8.640  1.00  0.00    +0.000 H 
ATOM      7  C5  UNL A   1      10.895  53.558   9.328  1.00  0.00    +0.000 C 
ATOM    112  H9  UNL A   1      10.221  52.859   8.880  1.00  0.00    +0.000 H 
BRANCH    7    8
ATOM    113  H10 UNL A   1      11.482  51.711  10.190  1.00  0.00    +0.000 H 
ATOM    114  H11 UNL A   1      11.488  53.129  11.291  1.00  0.00    +0.000 H 
ATOM      8  C6  UNL A   1      11.730  52.743  10.322  1.00  0.00    +0.000 C 
BRANCH    8    9
ATOM      9  C7  UNL A   1      13.244  52.883  10.188  1.00  0.00    +0.000 C 
ATOM    115  H12 UNL A   1      13.474  53.896   9.932  1.00  0.00    +0.000 H 
ATOM    116  H13 UNL A   1      13.568  52.202   9.430  1.00  0.00    +0.000 H 
BRANCH    9   10
ATOM     10  N2  UNL A   1      13.945  52.544  11.414  1.00  0.00    +0.000 N 
ATOM    117  H14 UNL A   1      14.183  53.303  11.993  1.00  0.00    +0.000 H 
BRANCH   10   11
ATOM     11  C8  UNL A   1      14.320  51.305  11.872  1.00  0.00    +0.000 C 
ATOM     12  O2  UNL A   1      13.706  50.776  12.796  1.00  0.00    +0.000 O 
BRANCH   11   13
ATOM     13  C9  UNL A   1      15.438  50.576  11.237  1.00  0.00    +0.000 C 
ATOM     14  C10 UNL A   1      16.727  50.879  11.699  1.00  0.00    +0.000 C 
ATOM     15  C11 UNL A   1      17.832  50.233  11.151  1.00  0.00    +0.000 C 
ATOM     16  C12 UNL A   1      17.651  49.284  10.151  1.00  0.00    +0.000 C 
ATOM     17  C13 UNL A   1      16.366  48.995   9.678  1.00  0.00    +0.000 C 
ATOM     18  C14 UNL A   1      15.237  49.655  10.189  1.00  0.00    +0.000 C 
ATOM    118  H15 UNL A   1      16.856  51.581  12.444  1.00  0.00    +0.000 H 
ATOM    119  H16 UNL A   1      18.782  50.458  11.487  1.00  0.00    +0.000 H 
ATOM    120  H17 UNL A   1      18.467  48.791   9.755  1.00  0.00    +0.000 H 
ATOM    121  H18 UNL A   1      16.246  48.283   8.941  1.00  0.00    +0.000 H 
BRANCH   18   19
ATOM    122  H19 UNL A   1      13.729  49.949   8.843  1.00  0.00    +0.000 H 
ATOM     19  N3  UNL A   1      13.948  49.439   9.656  1.00  0.00    +0.000 N 
BRANCH   19   20
ATOM     40  N8  UNL A   1      11.723  48.831   9.671  1.00  0.00    +0.000 N 
ATOM     20  C15 UNL A   1      12.946  48.595  10.132  1.00  0.00    +0.000 C 
ATOM     21  N4  UNL A   1      13.240  47.649  11.008  1.00  0.00    +0.000 N 
ATOM     22  C16 UNL A   1      12.189  46.950  11.403  1.00  0.00    +0.000 C 
ATOM     23 Cl1  UNL A   1      12.498  45.712  12.540  1.00  0.00    +0.000 Cl
ATOM     24  N5  UNL A   1      10.937  47.078  11.006  1.00  0.00    +0.000 N 
ATOM     25  C17 UNL A   1      10.753  48.034  10.110  1.00  0.00    +0.000 C 
BRANCH   25   26
ATOM     26  N6  UNL A   1       9.509  48.217   9.497  1.00  0.00    +0.000 N 
ATOM    123  H20 UNL A   1       8.913  47.436   9.438  1.00  0.00    +0.000 H 
BRANCH   26   27
ATOM    132  H29 UNL A   1       7.619  52.328   9.858  1.00  0.00    +0.000 H 
ATOM    133  H30 UNL A   1       8.444  50.258  10.797  1.00  0.00    +0.000 H 
ATOM     38  C26 UNL A   1       7.985  51.594   9.232  1.00  0.00    +0.000 C 
ATOM     39  C27 UNL A   1       8.487  50.408   9.777  1.00  0.00    +0.000 C 
ATOM    124  H21 UNL A   1       9.432  48.903   6.951  1.00  0.00    +0.000 H 
ATOM    125  H22 UNL A   1       8.474  50.913   5.997  1.00  0.00    +0.000 H 
ATOM     27  C18 UNL A   1       9.043  49.425   8.957  1.00  0.00    +0.000 C 
ATOM     28  C19 UNL A   1       9.035  49.624   7.572  1.00  0.00    +0.000 C 
ATOM     29  C20 UNL A   1       8.493  50.791   7.022  1.00  0.00    +0.000 C 
ATOM     30  C21 UNL A   1       7.976  51.797   7.849  1.00  0.00    +0.000 C 
BRANCH   30   31
ATOM     33  C23 UNL A   1       7.751  55.258   6.310  1.00  0.00    +0.000 C 
ATOM    129  H26 UNL A   1       7.455  55.755   7.211  1.00  0.00    +0.000 H 
ATOM     35  C24 UNL A   1       5.625  54.318   6.187  1.00  0.00    +0.000 C 
ATOM     36  C25 UNL A   1       6.060  53.055   6.952  1.00  0.00    +0.000 C 
ATOM     37  O4  UNL A   1       5.206  52.248   7.326  1.00  0.00    +0.000 O 
ATOM     34  O3  UNL A   1       6.611  55.053   5.481  1.00  0.00    +0.000 O 
ATOM    130  H27 UNL A   1       4.885  54.017   5.476  1.00  0.00    +0.000 H 
ATOM    131  H28 UNL A   1       5.296  54.989   6.953  1.00  0.00    +0.000 H 
ATOM    127  H24 UNL A   1       9.161  54.087   7.349  1.00  0.00    +0.000 H 
ATOM    128  H25 UNL A   1       8.466  55.863   5.791  1.00  0.00    +0.000 H 
ATOM    126  H23 UNL A   1       8.734  53.465   5.745  1.00  0.00    +0.000 H 
ATOM     31  N7  UNL A   1       7.423  52.984   7.280  1.00  0.00    +0.000 N 
ATOM     32  C22 UNL A   1       8.373  53.910   6.648  1.00  0.00    +0.000 C 
ENDBRANCH   30   31
ENDBRANCH   26   27
ENDBRANCH   25   26
ENDBRANCH   19   20
ENDBRANCH   18   19
ENDBRANCH   11   13
ENDBRANCH   10   11
ENDBRANCH    9   10
ENDBRANCH    8    9
ENDBRANCH    7    8
ENDBRANCH    6    7
ENDBRANCH    5    6
ENDBRANCH    4    5
ENDBRANCH    3    4
ENDBRANCH    2    3
ENDBRANCH   41    2
ENDBRANCH   45   44
BRANCH   49   50
ATOM     50  C36 UNL A   1      12.268  48.033   5.324  1.00  0.00    +0.000 C 
ATOM     51  C37 UNL A   1      12.812  47.376   6.438  1.00  0.00    +0.000 C 
ATOM     52  F1  UNL A   1      14.078  47.614   6.811  1.00  0.00    +0.000 F 
ATOM     53  C38 UNL A   1      12.063  46.449   7.159  1.00  0.00    +0.000 C 
ATOM     54  F2  UNL A   1      12.614  45.809   8.201  1.00  0.00    +0.000 F 
ATOM     55  C39 UNL A   1      10.750  46.183   6.801  1.00  0.00    +0.000 C 
ATOM     56  F3  UNL A   1      10.026  45.301   7.504  1.00  0.00    +0.000 F 
ATOM     57  C40 UNL A   1      10.188  46.830   5.712  1.00  0.00    +0.000 C 
ATOM     58  F4  UNL A   1       8.914  46.586   5.371  1.00  0.00    +0.000 F 
ATOM     59  C41 UNL A   1      10.942  47.738   4.973  1.00  0.00    +0.000 C 
ATOM     60  F5  UNL A   1      10.371  48.345   3.921  1.00  0.00    +0.000 F 
ENDBRANCH   49   50
BRANCH   66   67
ATOM     67  C47 UNL A   1      16.581  48.323  -0.447  1.00  0.00    +0.000 C 
ATOM     68  C48 UNL A   1      17.878  47.796  -0.358  1.00  0.00    +0.000 C 
ATOM     69  F6  UNL A   1      18.685  48.158   0.653  1.00  0.00    +0.000 F 
ATOM     70  C49 UNL A   1      18.367  46.931  -1.332  1.00  0.00    +0.000 C 
ATOM     71  F7  UNL A   1      19.627  46.480  -1.253  1.00  0.00    +0.000 F 
ATOM     72  C50 UNL A   1      17.559  46.551  -2.394  1.00  0.00    +0.000 C 
ATOM     73  F8  UNL A   1      18.032  45.718  -3.331  1.00  0.00    +0.000 F 
ATOM     74  C51 UNL A   1      16.267  47.044  -2.491  1.00  0.00    +0.000 C 
ATOM     75  F9  UNL A   1      15.483  46.670  -3.511  1.00  0.00    +0.000 F 
ATOM     76  C52 UNL A   1      15.784  47.930  -1.533  1.00  0.00    +0.000 C 
ATOM     77  F10 UNL A   1      14.536  48.404  -1.661  1.00  0.00    +0.000 F 
ENDBRANCH   66   67
BRANCH   81   82
ATOM     82  C56 UNL A   1      17.492  55.140   0.635  1.00  0.00    +0.000 C 
ATOM     83  C57 UNL A   1      18.757  55.517   1.106  1.00  0.00    +0.000 C 
ATOM     84  F11 UNL A   1      19.255  54.949   2.214  1.00  0.00    +0.000 F 
ATOM     85  C58 UNL A   1      19.501  56.500   0.458  1.00  0.00    +0.000 C 
ATOM     86  F12 UNL A   1      20.692  56.868   0.949  1.00  0.00    +0.000 F 
ATOM     87  C59 UNL A   1      19.007  57.104  -0.690  1.00  0.00    +0.000 C 
ATOM     88  F13 UNL A   1      19.729  58.042  -1.319  1.00  0.00    +0.000 F 
ATOM     89  C60 UNL A   1      17.763  56.738  -1.180  1.00  0.00    +0.000 C 
ATOM     90  F14 UNL A   1      17.290  57.307  -2.298  1.00  0.00    +0.000 F 
ATOM     91  C61 UNL A   1      17.006  55.777  -0.516  1.00  0.00    +0.000 C 
ATOM     92  F15 UNL A   1      15.803  55.447  -1.009  1.00  0.00    +0.000 F 
ENDBRANCH   81   82
TORSDOF 20
ENDMDL
MODEL 7
REMARK VINA RESULT:      -9.0     60.331     64.546
ROOT
ATOM    136  H33 UNL A   1      47.941  22.219  47.401  1.00  0.00    +0.000 H 
ATOM    137  H34 UNL A   1      48.801  20.949  45.292  1.00  0.00    +0.000 H 
ATOM    138  H35 UNL A   1      45.733  18.740  46.982  1.00  0.00    +0.000 H 
ATOM    139  H36 UNL A   1      42.173  13.453  47.080  1.00  0.00    +0.000 H 
ATOM    140  H37 UNL A   1      41.199  14.787  49.009  1.00  0.00    +0.000 H 
ATOM    141  H38 UNL A   1      44.293  17.019  47.360  1.00  0.00    +0.000 H 
ATOM    142  H39 UNL A   1      45.874  14.416  43.363  1.00  0.00    +0.000 H 
ATOM    143  H40 UNL A   1      47.616  16.259  43.018  1.00  0.00    +0.000 H 
ATOM    144  H41 UNL A   1      43.950  21.338  50.890  1.00  0.00    +0.000 H 
ATOM    145  H42 UNL A   1      42.383  19.381  51.417  1.00  0.00    +0.000 H 
ATOM     45  C32 UNL A   1      42.528  17.251  49.523  1.00  0.00    +0.000 C 
ATOM     46  C33 UNL A   1      43.348  18.508  49.560  1.00  0.00    +0.000 C 
ATOM     47  N9  UNL A   1      44.303  18.894  48.749  1.00  0.00    +0.000 N 
ATOM     48  C34 UNL A   1      44.717  20.136  49.211  1.00  0.00    +0.000 C 
ATOM     49  C35 UNL A   1      45.698  20.932  48.722  1.00  0.00    +0.000 C 
ATOM     61  C42 UNL A   1      46.524  20.602  47.587  1.00  0.00    +0.000 C 
ATOM     62  C43 UNL A   1      47.572  21.325  47.042  1.00  0.00    +0.000 C 
ATOM     63  C44 UNL A   1      48.044  20.635  45.919  1.00  0.00    +0.000 C 
ATOM     64  C45 UNL A   1      47.322  19.459  45.793  1.00  0.00    +0.000 C 
ATOM     65  N10 UNL A   1      46.391  19.453  46.820  1.00  0.00    +0.000 N 
ATOM     66  C46 UNL A   1      47.469  18.420  44.806  1.00  0.00    +0.000 C 
ATOM     78  C53 UNL A   1      46.739  17.277  44.763  1.00  0.00    +0.000 C 
ATOM     79  N11 UNL A   1      45.724  16.861  45.609  1.00  0.00    +0.000 N 
ATOM     80  C54 UNL A   1      45.318  15.707  45.141  1.00  0.00    +0.000 C 
ATOM     81  C55 UNL A   1      44.247  14.797  45.668  1.00  0.00    +0.000 C 
ATOM     93  C62 UNL A   1      43.556  15.165  46.762  1.00  0.00    +0.000 C 
ATOM     94  C63 UNL A   1      42.489  14.387  47.384  1.00  0.00    +0.000 C 
ATOM     95  C64 UNL A   1      41.988  15.084  48.413  1.00  0.00    +0.000 C 
ATOM     96  C65 UNL A   1      42.737  16.334  48.559  1.00  0.00    +0.000 C 
ATOM     97  N12 UNL A   1      43.643  16.299  47.530  1.00  0.00    +0.000 N 
ATOM     98  C66 UNL A   1      46.023  15.264  43.932  1.00  0.00    +0.000 C 
ATOM     99  C67 UNL A   1      46.904  16.240  43.765  1.00  0.00    +0.000 C 
ATOM    100  C68 UNL A   1      43.893  20.454  50.359  1.00  0.00    +0.000 C 
ATOM    101  C69 UNL A   1      43.059  19.462  50.642  1.00  0.00    +0.000 C 
ENDROOT
BRANCH   45   44
ATOM    102  C70 UNL A   1      40.146  17.311  50.337  1.00  0.00    +0.000 C 
ATOM    103  C71 UNL A   1      39.186  17.017  51.308  1.00  0.00    +0.000 C 
ATOM    134  H31 UNL A   1      41.139  15.359  53.472  1.00  0.00    +0.000 H 
ATOM     41  C28 UNL A   1      39.560  16.348  52.478  1.00  0.00    +0.000 C 
ATOM     42  C29 UNL A   1      40.882  15.934  52.654  1.00  0.00    +0.000 C 
ATOM     43  C30 UNL A   1      41.851  16.296  51.725  1.00  0.00    +0.000 C 
ATOM    135  H32 UNL A   1      42.842  16.065  51.901  1.00  0.00    +0.000 H 
ATOM     44  C31 UNL A   1      41.491  16.975  50.549  1.00  0.00    +0.000 C 
ATOM    146  H43 UNL A   1      39.865  17.778  49.460  1.00  0.00    +0.000 H 
ATOM    147  H44 UNL A   1      38.201  17.291  51.162  1.00  0.00    +0.000 H 
BRANCH   41    2
ATOM      1  O1  UNL A   1      38.047  17.011  54.143  1.00  0.00    +0.000 O 
ATOM      2  C1  UNL A   1      38.534  16.078  53.510  1.00  0.00    +0.000 C 
BRANCH    2    3
ATOM      3  N1  UNL A   1      38.150  14.787  53.774  1.00  0.00    +0.000 N 
ATOM    104  H1  UNL A   1      37.472  14.413  53.166  1.00  0.00    +0.000 H 
BRANCH    3    4
ATOM    105  H2  UNL A   1      37.752  13.382  55.229  1.00  0.00    +0.000 H 
ATOM    106  H3  UNL A   1      39.095  14.492  55.564  1.00  0.00    +0.000 H 
ATOM      4  C2  UNL A   1      38.602  13.893  54.827  1.00  0.00    +0.000 C 
BRANCH    4    5
ATOM    107  H4  UNL A   1      39.514  11.991  54.965  1.00  0.00    +0.000 H 
ATOM    108  H5  UNL A   1      40.565  13.327  54.394  1.00  0.00    +0.000 H 
ATOM      5  C3  UNL A   1      39.605  12.856  54.340  1.00  0.00    +0.000 C 
BRANCH    5    6
ATOM    110  H7  UNL A   1      38.525  11.853  52.860  1.00  0.00    +0.000 H 
ATOM    109  H6  UNL A   1      39.437  13.284  52.275  1.00  0.00    +0.000 H 
ATOM      6  C4  UNL A   1      39.439  12.408  52.889  1.00  0.00    +0.000 C 
BRANCH    6    7
ATOM    111  H8  UNL A   1      40.047  10.524  52.134  1.00  0.00    +0.000 H 
ATOM      7  C5  UNL A   1      40.516  11.461  52.352  1.00  0.00    +0.000 C 
ATOM    112  H9  UNL A   1      41.262  11.413  53.118  1.00  0.00    +0.000 H 
BRANCH    7    8
ATOM    113  H10 UNL A   1      40.931  12.915  50.864  1.00  0.00    +0.000 H 
ATOM    114  H11 UNL A   1      41.011  11.202  50.334  1.00  0.00    +0.000 H 
ATOM      8  C6  UNL A   1      41.254  11.920  51.090  1.00  0.00    +0.000 C 
BRANCH    8    9
ATOM      9  C7  UNL A   1      42.778  11.930  51.178  1.00  0.00    +0.000 C 
ATOM    115  H12 UNL A   1      43.176  12.167  50.213  1.00  0.00    +0.000 H 
ATOM    116  H13 UNL A   1      43.091  10.962  51.506  1.00  0.00    +0.000 H 
BRANCH    9   10
ATOM     10  N2  UNL A   1      43.274  12.902  52.136  1.00  0.00    +0.000 N 
ATOM    117  H14 UNL A   1      42.588  13.360  52.674  1.00  0.00    +0.000 H 
BRANCH   10   11
ATOM     11  C8  UNL A   1      44.572  13.267  52.393  1.00  0.00    +0.000 C 
ATOM     12  O2  UNL A   1      45.417  12.410  52.640  1.00  0.00    +0.000 O 
BRANCH   11   13
ATOM     13  C9  UNL A   1      44.977  14.687  52.340  1.00  0.00    +0.000 C 
ATOM     14  C10 UNL A   1      44.854  15.419  53.530  1.00  0.00    +0.000 C 
ATOM     15  C11 UNL A   1      45.218  16.764  53.560  1.00  0.00    +0.000 C 
ATOM     16  C12 UNL A   1      45.708  17.372  52.409  1.00  0.00    +0.000 C 
ATOM     17  C13 UNL A   1      45.813  16.645  51.218  1.00  0.00    +0.000 C 
ATOM     18  C14 UNL A   1      45.423  15.298  51.150  1.00  0.00    +0.000 C 
ATOM    118  H15 UNL A   1      44.495  14.963  54.382  1.00  0.00    +0.000 H 
ATOM    119  H16 UNL A   1      45.124  17.305  54.434  1.00  0.00    +0.000 H 
ATOM    120  H17 UNL A   1      45.993  18.363  52.433  1.00  0.00    +0.000 H 
ATOM    121  H18 UNL A   1      46.185  17.108  50.374  1.00  0.00    +0.000 H 
BRANCH   18   19
ATOM    122  H19 UNL A   1      44.557  14.388  49.540  1.00  0.00    +0.000 H 
ATOM     19  N3  UNL A   1      45.438  14.583  49.934  1.00  0.00    +0.000 N 
BRANCH   19   20
ATOM     40  N8  UNL A   1      46.982  12.913  49.554  1.00  0.00    +0.000 N 
ATOM     20  C15 UNL A   1      46.539  14.118  49.218  1.00  0.00    +0.000 C 
ATOM     21  N4  UNL A   1      47.092  14.880  48.288  1.00  0.00    +0.000 N 
ATOM     22  C16 UNL A   1      48.151  14.332  47.717  1.00  0.00    +0.000 C 
ATOM     23 Cl1  UNL A   1      48.916  15.265  46.508  1.00  0.00    +0.000 Cl
ATOM     24  N5  UNL A   1      48.671  13.141  47.952  1.00  0.00    +0.000 N 
ATOM     25  C17 UNL A   1      48.031  12.450  48.879  1.00  0.00    +0.000 C 
BRANCH   25   26
ATOM     26  N6  UNL A   1      48.379  11.123  49.159  1.00  0.00    +0.000 N 
ATOM    123  H20 UNL A   1      49.325  10.871  49.050  1.00  0.00    +0.000 H 
BRANCH   26   27
ATOM    132  H29 UNL A   1      44.899   8.286  48.495  1.00  0.00    +0.000 H 
ATOM    133  H30 UNL A   1      46.447   9.990  47.755  1.00  0.00    +0.000 H 
ATOM     38  C26 UNL A   1      45.593   8.669  49.157  1.00  0.00    +0.000 C 
ATOM     39  C27 UNL A   1      46.505   9.635  48.722  1.00  0.00    +0.000 C 
ATOM    124  H21 UNL A   1      48.225  10.031  51.555  1.00  0.00    +0.000 H 
ATOM    125  H22 UNL A   1      46.584   8.431  52.339  1.00  0.00    +0.000 H 
ATOM     27  C18 UNL A   1      47.490  10.124  49.581  1.00  0.00    +0.000 C 
ATOM     28  C19 UNL A   1      47.510   9.672  50.905  1.00  0.00    +0.000 C 
ATOM     29  C20 UNL A   1      46.570   8.737  51.354  1.00  0.00    +0.000 C 
ATOM     30  C21 UNL A   1      45.610   8.213  50.479  1.00  0.00    +0.000 C 
BRANCH   30   31
ATOM     33  C23 UNL A   1      42.359   6.754  51.784  1.00  0.00    +0.000 C 
ATOM    129  H26 UNL A   1      42.679   6.679  52.803  1.00  0.00    +0.000 H 
ATOM     35  C24 UNL A   1      43.751   4.962  51.265  1.00  0.00    +0.000 C 
ATOM     36  C25 UNL A   1      44.926   5.887  50.899  1.00  0.00    +0.000 C 
ATOM     37  O4  UNL A   1      46.041   5.400  50.698  1.00  0.00    +0.000 O 
ATOM     34  O3  UNL A   1      42.433   5.474  51.165  1.00  0.00    +0.000 O 
ATOM    130  H27 UNL A   1      43.809   4.108  50.623  1.00  0.00    +0.000 H 
ATOM    131  H28 UNL A   1      43.881   4.774  52.310  1.00  0.00    +0.000 H 
ATOM    127  H24 UNL A   1      43.264   8.646  51.579  1.00  0.00    +0.000 H 
ATOM    128  H25 UNL A   1      41.349   7.107  51.757  1.00  0.00    +0.000 H 
ATOM    126  H23 UNL A   1      42.879   7.848  50.043  1.00  0.00    +0.000 H 
ATOM     31  N7  UNL A   1      44.653   7.262  50.946  1.00  0.00    +0.000 N 
ATOM     32  C22 UNL A   1      43.261   7.725  51.034  1.00  0.00    +0.000 C 
ENDBRANCH   30   31
ENDBRANCH   26   27
ENDBRANCH   25   26
ENDBRANCH   19   20
ENDBRANCH   18   19
ENDBRANCH   11   13
ENDBRANCH   10   11
ENDBRANCH    9   10
ENDBRANCH    8    9
ENDBRANCH    7    8
ENDBRANCH    6    7
ENDBRANCH    5    6
ENDBRANCH    4    5
ENDBRANCH    3    4
ENDBRANCH    2    3
ENDBRANCH   41    2
ENDBRANCH   45   44
BRANCH   49   50
ATOM     50  C36 UNL A   1      45.934  22.249  49.402  1.00  0.00    +0.000 C 
ATOM     51  C37 UNL A   1      46.897  22.395  50.412  1.00  0.00    +0.000 C 
ATOM     52  F1  UNL A   1      47.592  21.331  50.842  1.00  0.00    +0.000 F 
ATOM     53  C38 UNL A   1      47.133  23.634  51.004  1.00  0.00    +0.000 C 
ATOM     54  F2  UNL A   1      48.035  23.743  51.990  1.00  0.00    +0.000 F 
ATOM     55  C39 UNL A   1      46.435  24.754  50.579  1.00  0.00    +0.000 C 
ATOM     56  F3  UNL A   1      46.672  25.947  51.140  1.00  0.00    +0.000 F 
ATOM     57  C40 UNL A   1      45.488  24.636  49.574  1.00  0.00    +0.000 C 
ATOM     58  F4  UNL A   1      44.821  25.719  49.151  1.00  0.00    +0.000 F 
ATOM     59  C41 UNL A   1      45.232  23.394  48.997  1.00  0.00    +0.000 C 
ATOM     60  F5  UNL A   1      44.306  23.311  48.030  1.00  0.00    +0.000 F 
ENDBRANCH   49   50
BRANCH   66   67
ATOM     67  C47 UNL A   1      48.520  18.594  43.751  1.00  0.00    +0.000 C 
ATOM     68  C48 UNL A   1      49.884  18.442  44.042  1.00  0.00    +0.000 C 
ATOM     69  F6  UNL A   1      50.279  18.172  45.296  1.00  0.00    +0.000 F 
ATOM     70  C49 UNL A   1      50.849  18.612  43.054  1.00  0.00    +0.000 C 
ATOM     71  F7  UNL A   1      52.149  18.511  43.367  1.00  0.00    +0.000 F 
ATOM     72  C50 UNL A   1      50.469  18.904  41.753  1.00  0.00    +0.000 C 
ATOM     73  F8  UNL A   1      51.400  19.067  40.803  1.00  0.00    +0.000 F 
ATOM     74  C51 UNL A   1      49.125  19.039  41.438  1.00  0.00    +0.000 C 
ATOM     75  F9  UNL A   1      48.756  19.312  40.179  1.00  0.00    +0.000 F 
ATOM     76  C52 UNL A   1      48.159  18.896  42.429  1.00  0.00    +0.000 C 
ATOM     77  F10 UNL A   1      46.867  19.049  42.100  1.00  0.00    +0.000 F 
ENDBRANCH   66   67
BRANCH   81   82
ATOM     82  C56 UNL A   1      43.938  13.504  45.007  1.00  0.00    +0.000 C 
ATOM     83  C57 UNL A   1      43.087  13.448  43.895  1.00  0.00    +0.000 C 
ATOM     84  F11 UNL A   1      42.508  14.567  43.437  1.00  0.00    +0.000 F 
ATOM     85  C58 UNL A   1      42.804  12.236  43.268  1.00  0.00    +0.000 C 
ATOM     86  F12 UNL A   1      41.958  12.203  42.229  1.00  0.00    +0.000 F 
ATOM     87  C59 UNL A   1      43.389  11.063  43.724  1.00  0.00    +0.000 C 
ATOM     88  F13 UNL A   1      43.124   9.900  43.113  1.00  0.00    +0.000 F 
ATOM     89  C60 UNL A   1      44.244  11.097  44.814  1.00  0.00    +0.000 C 
ATOM     90  F14 UNL A   1      44.825   9.969  45.246  1.00  0.00    +0.000 F 
ATOM     91  C61 UNL A   1      44.504  12.303  45.459  1.00  0.00    +0.000 C 
ATOM     92  F15 UNL A   1      45.330  12.306  46.516  1.00  0.00    +0.000 F 
ENDBRANCH   81   82
TORSDOF 20
ENDMDL
MODEL 8
REMARK VINA RESULT:      -9.0     24.746     30.562
ROOT
ATOM    136  H33 UNL A   1      20.719  20.342   3.167  1.00  0.00    +0.000 H 
ATOM    137  H34 UNL A   1      21.299  18.038   4.242  1.00  0.00    +0.000 H 
ATOM    138  H35 UNL A   1      17.777  19.413   5.930  1.00  0.00    +0.000 H 
ATOM    139  H36 UNL A   1      13.094  18.732  10.201  1.00  0.00    +0.000 H 
ATOM    140  H37 UNL A   1      12.422  20.871   9.010  1.00  0.00    +0.000 H 
ATOM    141  H38 UNL A   1      15.974  19.539   7.312  1.00  0.00    +0.000 H 
ATOM    142  H39 UNL A   1      16.978  15.141   9.525  1.00  0.00    +0.000 H 
ATOM    143  H40 UNL A   1      19.104  15.061   8.101  1.00  0.00    +0.000 H 
ATOM    144  H41 UNL A   1      16.575  23.727   3.661  1.00  0.00    +0.000 H 
ATOM    145  H42 UNL A   1      14.592  23.965   5.264  1.00  0.00    +0.000 H 
ATOM     45  C32 UNL A   1      14.274  21.749   7.034  1.00  0.00    +0.000 C 
ATOM     46  C33 UNL A   1      15.361  21.970   6.023  1.00  0.00    +0.000 C 
ATOM     47  N9  UNL A   1      16.391  21.212   5.740  1.00  0.00    +0.000 N 
ATOM     48  C34 UNL A   1      17.073  21.860   4.718  1.00  0.00    +0.000 C 
ATOM     49  C35 UNL A   1      18.219  21.486   4.101  1.00  0.00    +0.000 C 
ATOM     61  C42 UNL A   1      18.966  20.295   4.423  1.00  0.00    +0.000 C 
ATOM     62  C43 UNL A   1      20.160  19.851   3.882  1.00  0.00    +0.000 C 
ATOM     63  C44 UNL A   1      20.480  18.622   4.470  1.00  0.00    +0.000 C 
ATOM     64  C45 UNL A   1      19.509  18.322   5.412  1.00  0.00    +0.000 C 
ATOM     65  N10 UNL A   1      18.584  19.355   5.371  1.00  0.00    +0.000 N 
ATOM     66  C46 UNL A   1      19.428  17.178   6.283  1.00  0.00    +0.000 C 
ATOM     78  C53 UNL A   1      18.456  16.966   7.205  1.00  0.00    +0.000 C 
ATOM     79  N11 UNL A   1      17.358  17.755   7.508  1.00  0.00    +0.000 N 
ATOM     80  C54 UNL A   1      16.705  17.116   8.447  1.00  0.00    +0.000 C 
ATOM     81  C55 UNL A   1      15.445  17.512   9.159  1.00  0.00    +0.000 C 
ATOM     93  C62 UNL A   1      14.839  18.666   8.825  1.00  0.00    +0.000 C 
ATOM     94  C63 UNL A   1      13.612  19.176   9.427  1.00  0.00    +0.000 C 
ATOM     95  C64 UNL A   1      13.268  20.315   8.810  1.00  0.00    +0.000 C 
ATOM     96  C65 UNL A   1      14.282  20.644   7.806  1.00  0.00    +0.000 C 
ATOM     97  N12 UNL A   1      15.172  19.605   7.880  1.00  0.00    +0.000 N 
ATOM     98  C66 UNL A   1      17.309  15.836   8.837  1.00  0.00    +0.000 C 
ATOM     99  C67 UNL A   1      18.394  15.810   8.076  1.00  0.00    +0.000 C 
ATOM    100  C68 UNL A   1      16.326  23.062   4.411  1.00  0.00    +0.000 C 
ATOM    101  C69 UNL A   1      15.281  23.198   5.216  1.00  0.00    +0.000 C 
ENDROOT
BRANCH   45   44
ATOM    102  C70 UNL A   1      11.883  22.491   6.767  1.00  0.00    +0.000 C 
ATOM    103  C71 UNL A   1      10.870  23.428   6.984  1.00  0.00    +0.000 C 
ATOM    134  H31 UNL A   1      12.594  25.624   8.841  1.00  0.00    +0.000 H 
ATOM     41  C28 UNL A   1      11.144  24.599   7.699  1.00  0.00    +0.000 C 
ATOM     42  C29 UNL A   1      12.417  24.808   8.235  1.00  0.00    +0.000 C 
ATOM     43  C30 UNL A   1      13.444  23.914   7.951  1.00  0.00    +0.000 C 
ATOM    135  H32 UNL A   1      14.403  24.116   8.274  1.00  0.00    +0.000 H 
ATOM     44  C31 UNL A   1      13.184  22.738   7.228  1.00  0.00    +0.000 C 
ATOM    146  H43 UNL A   1      11.673  21.614   6.264  1.00  0.00    +0.000 H 
ATOM    147  H44 UNL A   1       9.919  23.258   6.618  1.00  0.00    +0.000 H 
BRANCH   41    2
ATOM      1  O1  UNL A   1       9.964  26.186   8.959  1.00  0.00    +0.000 O 
ATOM      2  C1  UNL A   1      10.066  25.594   7.887  1.00  0.00    +0.000 C 
BRANCH    2    3
ATOM      3  N1  UNL A   1       9.168  25.834   6.876  1.00  0.00    +0.000 N 
ATOM    104  H1  UNL A   1       8.242  25.554   7.057  1.00  0.00    +0.000 H 
BRANCH    3    4
ATOM    105  H2  UNL A   1      10.428  26.703   5.496  1.00  0.00    +0.000 H 
ATOM    106  H3  UNL A   1       8.758  27.302   5.513  1.00  0.00    +0.000 H 
ATOM      4  C2  UNL A   1       9.393  26.443   5.576  1.00  0.00    +0.000 C 
BRANCH    4    5
ATOM    107  H4  UNL A   1       9.233  24.518   4.717  1.00  0.00    +0.000 H 
ATOM    108  H5  UNL A   1       9.623  25.854   3.587  1.00  0.00    +0.000 H 
ATOM      5  C3  UNL A   1       9.031  25.525   4.416  1.00  0.00    +0.000 C 
BRANCH    5    6
ATOM    110  H7  UNL A   1       7.622  25.693   2.883  1.00  0.00    +0.000 H 
ATOM    109  H6  UNL A   1       7.083  24.708   4.285  1.00  0.00    +0.000 H 
ATOM      6  C4  UNL A   1       7.579  25.595   3.948  1.00  0.00    +0.000 C 
BRANCH    6    7
ATOM    111  H8  UNL A   1       7.247  27.167   5.329  1.00  0.00    +0.000 H 
ATOM      7  C5  UNL A   1       6.773  26.799   4.443  1.00  0.00    +0.000 C 
ATOM    112  H9  UNL A   1       5.778  26.435   4.593  1.00  0.00    +0.000 H 
BRANCH    7    8
ATOM    113  H10 UNL A   1       5.720  28.478   3.684  1.00  0.00    +0.000 H 
ATOM    114  H11 UNL A   1       6.672  27.539   2.486  1.00  0.00    +0.000 H 
ATOM      8  C6  UNL A   1       6.637  27.971   3.464  1.00  0.00    +0.000 C 
BRANCH    8    9
ATOM      9  C7  UNL A   1       7.762  29.002   3.502  1.00  0.00    +0.000 C 
ATOM    115  H12 UNL A   1       8.158  29.041   4.496  1.00  0.00    +0.000 H 
ATOM    116  H13 UNL A   1       7.352  29.943   3.205  1.00  0.00    +0.000 H 
BRANCH    9   10
ATOM     10  N2  UNL A   1       8.841  28.682   2.584  1.00  0.00    +0.000 N 
ATOM    117  H14 UNL A   1       8.565  28.401   1.682  1.00  0.00    +0.000 H 
BRANCH   10   11
ATOM     11  C8  UNL A   1      10.195  28.719   2.807  1.00  0.00    +0.000 C 
ATOM     12  O2  UNL A   1      10.635  29.141   3.873  1.00  0.00    +0.000 O 
BRANCH   11   13
ATOM     13  C9  UNL A   1      11.138  28.217   1.785  1.00  0.00    +0.000 C 
ATOM     14  C10 UNL A   1      11.398  26.839   1.794  1.00  0.00    +0.000 C 
ATOM     15  C11 UNL A   1      12.275  26.290   0.861  1.00  0.00    +0.000 C 
ATOM     16  C12 UNL A   1      12.883  27.113  -0.081  1.00  0.00    +0.000 C 
ATOM     17  C13 UNL A   1      12.636  28.490  -0.078  1.00  0.00    +0.000 C 
ATOM     18  C14 UNL A   1      11.783  29.075   0.871  1.00  0.00    +0.000 C 
ATOM    118  H15 UNL A   1      10.941  26.232   2.492  1.00  0.00    +0.000 H 
ATOM    119  H16 UNL A   1      12.471  25.277   0.870  1.00  0.00    +0.000 H 
ATOM    120  H17 UNL A   1      13.520  26.706  -0.784  1.00  0.00    +0.000 H 
ATOM    121  H18 UNL A   1      13.090  29.087  -0.788  1.00  0.00    +0.000 H 
BRANCH   18   19
ATOM    122  H19 UNL A   1      10.714  30.775   1.243  1.00  0.00    +0.000 H 
ATOM     19  N3  UNL A   1      11.600  30.473   0.942  1.00  0.00    +0.000 N 
BRANCH   19   20
ATOM     40  N8  UNL A   1      13.616  31.503   1.383  1.00  0.00    +0.000 N 
ATOM     20  C15 UNL A   1      12.515  31.480   0.641  1.00  0.00    +0.000 C 
ATOM     21  N4  UNL A   1      12.246  32.353  -0.315  1.00  0.00    +0.000 N 
ATOM     22  C16 UNL A   1      13.181  33.276  -0.467  1.00  0.00    +0.000 C 
ATOM     23 Cl1  UNL A   1      12.894  34.439  -1.685  1.00  0.00    +0.000 Cl
ATOM     24  N5  UNL A   1      14.319  33.390   0.192  1.00  0.00    +0.000 N 
ATOM     25  C17 UNL A   1      14.504  32.454   1.108  1.00  0.00    +0.000 C 
BRANCH   25   26
ATOM     26  N6  UNL A   1      15.712  32.360   1.809  1.00  0.00    +0.000 N 
ATOM    123  H20 UNL A   1      15.781  32.849   2.661  1.00  0.00    +0.000 H 
BRANCH   26   27
ATOM    132  H29 UNL A   1      20.000  30.947   2.277  1.00  0.00    +0.000 H 
ATOM    133  H30 UNL A   1      18.061  32.191   3.011  1.00  0.00    +0.000 H 
ATOM     38  C26 UNL A   1      19.147  30.954   1.695  1.00  0.00    +0.000 C 
ATOM     39  C27 UNL A   1      18.018  31.651   2.132  1.00  0.00    +0.000 C 
ATOM    124  H21 UNL A   1      15.954  30.921  -0.389  1.00  0.00    +0.000 H 
ATOM    125  H22 UNL A   1      17.940  29.794  -1.197  1.00  0.00    +0.000 H 
ATOM     27  C18 UNL A   1      16.834  31.628   1.393  1.00  0.00    +0.000 C 
ATOM     28  C19 UNL A   1      16.818  30.940   0.175  1.00  0.00    +0.000 C 
ATOM     29  C20 UNL A   1      17.961  30.278  -0.285  1.00  0.00    +0.000 C 
ATOM     30  C21 UNL A   1      19.136  30.265   0.478  1.00  0.00    +0.000 C 
BRANCH   30   31
ATOM     33  C23 UNL A   1      22.455  29.645  -1.252  1.00  0.00    +0.000 C 
ATOM    129  H26 UNL A   1      22.036  29.182  -2.122  1.00  0.00    +0.000 H 
ATOM     35  C24 UNL A   1      21.948  27.723  -0.042  1.00  0.00    +0.000 C 
ATOM     36  C25 UNL A   1      20.581  28.275   0.400  1.00  0.00    +0.000 C 
ATOM     37  O4  UNL A   1      19.780  27.528   0.967  1.00  0.00    +0.000 O 
ATOM     34  O3  UNL A   1      22.970  28.645  -0.380  1.00  0.00    +0.000 O 
ATOM    130  H27 UNL A   1      22.319  27.118   0.759  1.00  0.00    +0.000 H 
ATOM    131  H28 UNL A   1      21.741  27.213  -0.960  1.00  0.00    +0.000 H 
ATOM    127  H24 UNL A   1      20.941  31.111  -1.232  1.00  0.00    +0.000 H 
ATOM    128  H25 UNL A   1      23.246  30.303  -1.550  1.00  0.00    +0.000 H 
ATOM    126  H23 UNL A   1      21.832  30.957   0.294  1.00  0.00    +0.000 H 
ATOM     31  N7  UNL A   1      20.299  29.590   0.000  1.00  0.00    +0.000 N 
ATOM     32  C22 UNL A   1      21.378  30.438  -0.524  1.00  0.00    +0.000 C 
ENDBRANCH   30   31
ENDBRANCH   26   27
ENDBRANCH   25   26
ENDBRANCH   19   20
ENDBRANCH   18   19
ENDBRANCH   11   13
ENDBRANCH   10   11
ENDBRANCH    9   10
ENDBRANCH    8    9
ENDBRANCH    7    8
ENDBRANCH    6    7
ENDBRANCH    5    6
ENDBRANCH    4    5
ENDBRANCH    3    4
ENDBRANCH    2    3
ENDBRANCH   41    2
ENDBRANCH   45   44
BRANCH   49   50
ATOM     50  C36 UNL A   1      18.741  22.364   3.001  1.00  0.00    +0.000 C 
ATOM     51  C37 UNL A   1      19.723  23.338   3.240  1.00  0.00    +0.000 C 
ATOM     52  F1  UNL A   1      20.175  23.551   4.484  1.00  0.00    +0.000 F 
ATOM     53  C38 UNL A   1      20.227  24.117   2.200  1.00  0.00    +0.000 C 
ATOM     54  F2  UNL A   1      21.141  25.063   2.456  1.00  0.00    +0.000 F 
ATOM     55  C39 UNL A   1      19.782  23.918   0.901  1.00  0.00    +0.000 C 
ATOM     56  F3  UNL A   1      20.277  24.660  -0.099  1.00  0.00    +0.000 F 
ATOM     57  C40 UNL A   1      18.822  22.953   0.641  1.00  0.00    +0.000 C 
ATOM     58  F4  UNL A   1      18.401  22.750  -0.615  1.00  0.00    +0.000 F 
ATOM     59  C41 UNL A   1      18.298  22.190   1.681  1.00  0.00    +0.000 C 
ATOM     60  F5  UNL A   1      17.367  21.267   1.398  1.00  0.00    +0.000 F 
ENDBRANCH   49   50
BRANCH   66   67
ATOM     67  C47 UNL A   1      20.509  16.142   6.187  1.00  0.00    +0.000 C 
ATOM     68  C48 UNL A   1      21.667  16.216   6.974  1.00  0.00    +0.000 C 
ATOM     69  F6  UNL A   1      21.849  17.248   7.812  1.00  0.00    +0.000 F 
ATOM     70  C49 UNL A   1      22.664  15.250   6.870  1.00  0.00    +0.000 C 
ATOM     71  F7  UNL A   1      23.785  15.368   7.596  1.00  0.00    +0.000 F 
ATOM     72  C50 UNL A   1      22.508  14.179   6.003  1.00  0.00    +0.000 C 
ATOM     73  F8  UNL A   1      23.470  13.251   5.905  1.00  0.00    +0.000 F 
ATOM     74  C51 UNL A   1      21.363  14.076   5.230  1.00  0.00    +0.000 C 
ATOM     75  F9  UNL A   1      21.207  13.037   4.398  1.00  0.00    +0.000 F 
ATOM     76  C52 UNL A   1      20.375  15.054   5.311  1.00  0.00    +0.000 C 
ATOM     77  F10 UNL A   1      19.285  14.938   4.539  1.00  0.00    +0.000 F 
ENDBRANCH   66   67
BRANCH   81   82
ATOM     82  C56 UNL A   1      14.858  16.657  10.221  1.00  0.00    +0.000 C 
ATOM     83  C57 UNL A   1      13.993  15.602   9.902  1.00  0.00    +0.000 C 
ATOM     84  F11 UNL A   1      13.654  15.376   8.624  1.00  0.00    +0.000 F 
ATOM     85  C58 UNL A   1      13.448  14.793  10.898  1.00  0.00    +0.000 C 
ATOM     86  F12 UNL A   1      12.594  13.814  10.570  1.00  0.00    +0.000 F 
ATOM     87  C59 UNL A   1      13.782  15.007  12.228  1.00  0.00    +0.000 C 
ATOM     88  F13 UNL A   1      13.266  14.221  13.184  1.00  0.00    +0.000 F 
ATOM     89  C60 UNL A   1      14.645  16.037  12.565  1.00  0.00    +0.000 C 
ATOM     90  F14 UNL A   1      14.984  16.236  13.847  1.00  0.00    +0.000 F 
ATOM     91  C61 UNL A   1      15.166  16.864  11.574  1.00  0.00    +0.000 C 
ATOM     92  F15 UNL A   1      15.994  17.857  11.929  1.00  0.00    +0.000 F 
ENDBRANCH   81   82
TORSDOF 20
ENDMDL
MODEL 9
REMARK VINA RESULT:      -8.9      1.319      2.216
ROOT
ATOM    136  H33 UNL A   1      18.157  50.928  -2.232  1.00  0.00    +0.000 H 
ATOM    137  H34 UNL A   1      18.689  53.411  -1.643  1.00  0.00    +0.000 H 
ATOM    138  H35 UNL A   1      16.171  51.893   1.272  1.00  0.00    +0.000 H 
ATOM    139  H36 UNL A   1      12.648  52.794   6.508  1.00  0.00    +0.000 H 
ATOM    140  H37 UNL A   1      12.297  50.321   6.048  1.00  0.00    +0.000 H 
ATOM    141  H38 UNL A   1      14.801  51.816   3.087  1.00  0.00    +0.000 H 
ATOM    142  H39 UNL A   1      15.676  56.606   4.330  1.00  0.00    +0.000 H 
ATOM    143  H40 UNL A   1      17.086  56.763   2.200  1.00  0.00    +0.000 H 
ATOM    144  H41 UNL A   1      15.371  47.048   0.230  1.00  0.00    +0.000 H 
ATOM    145  H42 UNL A   1      13.738  46.940   2.201  1.00  0.00    +0.000 H 
ATOM     45  C32 UNL A   1      13.568  49.373   3.684  1.00  0.00    +0.000 C 
ATOM     46  C33 UNL A   1      14.365  49.107   2.440  1.00  0.00    +0.000 C 
ATOM     47  N9  UNL A   1      15.138  49.923   1.766  1.00  0.00    +0.000 N 
ATOM     48  C34 UNL A   1      15.655  49.177   0.715  1.00  0.00    +0.000 C 
ATOM     49  C35 UNL A   1      16.486  49.582  -0.276  1.00  0.00    +0.000 C 
ATOM     61  C42 UNL A   1      16.995  50.924  -0.415  1.00  0.00    +0.000 C 
ATOM     62  C43 UNL A   1      17.810  51.441  -1.407  1.00  0.00    +0.000 C 
ATOM     63  C44 UNL A   1      18.082  52.779  -1.099  1.00  0.00    +0.000 C 
ATOM     64  C45 UNL A   1      17.399  53.109   0.059  1.00  0.00    +0.000 C 
ATOM     65  N10 UNL A   1      16.738  51.962   0.471  1.00  0.00    +0.000 N 
ATOM     66  C46 UNL A   1      17.354  54.377   0.742  1.00  0.00    +0.000 C 
ATOM     78  C53 UNL A   1      16.635  54.633   1.863  1.00  0.00    +0.000 C 
ATOM     79  N11 UNL A   1      15.820  53.779   2.589  1.00  0.00    +0.000 N 
ATOM     80  C54 UNL A   1      15.369  54.483   3.597  1.00  0.00    +0.000 C 
ATOM     81  C55 UNL A   1      14.436  54.069   4.698  1.00  0.00    +0.000 C 
ATOM     93  C62 UNL A   1      13.973  52.806   4.723  1.00  0.00    +0.000 C 
ATOM     94  C63 UNL A   1      13.067  52.263   5.728  1.00  0.00    +0.000 C 
ATOM     95  C64 UNL A   1      12.868  50.962   5.475  1.00  0.00    +0.000 C 
ATOM     96  C65 UNL A   1      13.588  50.594   4.254  1.00  0.00    +0.000 C 
ATOM     97  N12 UNL A   1      14.223  51.750   3.882  1.00  0.00    +0.000 N 
ATOM     98  C66 UNL A   1      15.859  55.867   3.634  1.00  0.00    +0.000 C 
ATOM     99  C67 UNL A   1      16.598  55.917   2.534  1.00  0.00    +0.000 C 
ATOM    100  C68 UNL A   1      15.128  47.835   0.852  1.00  0.00    +0.000 C 
ATOM    101  C69 UNL A   1      14.293  47.749   1.879  1.00  0.00    +0.000 C 
ENDROOT
BRANCH   45   44
ATOM    102  C70 UNL A   1      13.285  47.319   5.112  1.00  0.00    +0.000 C 
ATOM    103  C71 UNL A   1      12.467  46.352   5.703  1.00  0.00    +0.000 C 
ATOM    134  H31 UNL A   1       9.487  47.543   4.732  1.00  0.00    +0.000 H 
ATOM     41  C28 UNL A   1      11.081  46.405   5.521  1.00  0.00    +0.000 C 
ATOM     42  C29 UNL A   1      10.513  47.450   4.788  1.00  0.00    +0.000 C 
ATOM     43  C30 UNL A   1      11.331  48.364   4.135  1.00  0.00    +0.000 C 
ATOM    135  H32 UNL A   1      10.913  49.082   3.523  1.00  0.00    +0.000 H 
ATOM     44  C31 UNL A   1      12.726  48.318   4.303  1.00  0.00    +0.000 C 
ATOM    146  H43 UNL A   1      14.305  47.296   5.270  1.00  0.00    +0.000 H 
ATOM    147  H44 UNL A   1      12.884  45.600   6.274  1.00  0.00    +0.000 H 
BRANCH   41    2
ATOM      1  O1  UNL A   1      10.708  44.236   6.327  1.00  0.00    +0.000 O 
ATOM      2  C1  UNL A   1      10.237  45.352   6.126  1.00  0.00    +0.000 C 
BRANCH    2    3
ATOM      3  N1  UNL A   1       8.925  45.616   6.434  1.00  0.00    +0.000 N 
ATOM    104  H1  UNL A   1       8.309  45.657   5.667  1.00  0.00    +0.000 H 
BRANCH    3    4
ATOM    105  H2  UNL A   1       7.856  44.935   8.059  1.00  0.00    +0.000 H 
ATOM    106  H3  UNL A   1       7.606  46.635   7.619  1.00  0.00    +0.000 H 
ATOM      4  C2  UNL A   1       8.317  45.844   7.734  1.00  0.00    +0.000 C 
BRANCH    4    5
ATOM    107  H4  UNL A   1      10.263  46.434   8.312  1.00  0.00    +0.000 H 
ATOM    108  H5  UNL A   1       9.328  45.509   9.530  1.00  0.00    +0.000 H 
ATOM      5  C3  UNL A   1       9.319  46.285   8.793  1.00  0.00    +0.000 C 
BRANCH    5    6
ATOM    110  H7  UNL A   1       8.026  47.890   9.138  1.00  0.00    +0.000 H 
ATOM    109  H6  UNL A   1       8.933  47.340  10.587  1.00  0.00    +0.000 H 
ATOM      6  C4  UNL A   1       8.964  47.568   9.542  1.00  0.00    +0.000 C 
BRANCH    6    7
ATOM    111  H8  UNL A   1      10.187  48.784   8.311  1.00  0.00    +0.000 H 
ATOM      7  C5  UNL A   1       9.925  48.745   9.348  1.00  0.00    +0.000 C 
ATOM    112  H9  UNL A   1      10.748  48.554  10.004  1.00  0.00    +0.000 H 
BRANCH    7    8
ATOM    113  H10 UNL A   1       8.492  49.983  10.306  1.00  0.00    +0.000 H 
ATOM    114  H11 UNL A   1       9.258  50.663   8.831  1.00  0.00    +0.000 H 
ATOM      8  C6  UNL A   1       9.394  50.126   9.748  1.00  0.00    +0.000 C 
BRANCH    8    9
ATOM      9  C7  UNL A   1      10.336  50.980  10.592  1.00  0.00    +0.000 C 
ATOM    115  H12 UNL A   1      10.371  50.577  11.583  1.00  0.00    +0.000 H 
ATOM    116  H13 UNL A   1       9.960  51.981  10.588  1.00  0.00    +0.000 H 
BRANCH    9   10
ATOM     10  N2  UNL A   1      11.686  51.014  10.057  1.00  0.00    +0.000 N 
ATOM    117  H14 UNL A   1      11.973  50.208   9.571  1.00  0.00    +0.000 H 
BRANCH   10   11
ATOM     11  C8  UNL A   1      12.615  52.021  10.139  1.00  0.00    +0.000 C 
ATOM     12  O2  UNL A   1      12.485  53.039   9.463  1.00  0.00    +0.000 O 
BRANCH   11   13
ATOM     13  C9  UNL A   1      13.761  51.913  11.067  1.00  0.00    +0.000 C 
ATOM     14  C10 UNL A   1      13.497  52.158  12.421  1.00  0.00    +0.000 C 
ATOM     15  C11 UNL A   1      14.524  52.073  13.358  1.00  0.00    +0.000 C 
ATOM     16  C12 UNL A   1      15.809  51.738  12.943  1.00  0.00    +0.000 C 
ATOM     17  C13 UNL A   1      16.075  51.510  11.588  1.00  0.00    +0.000 C 
ATOM     18  C14 UNL A   1      15.066  51.621  10.619  1.00  0.00    +0.000 C 
ATOM    118  H15 UNL A   1      12.541  52.402  12.725  1.00  0.00    +0.000 H 
ATOM    119  H16 UNL A   1      14.332  52.258  14.355  1.00  0.00    +0.000 H 
ATOM    120  H17 UNL A   1      16.569  51.658  13.637  1.00  0.00    +0.000 H 
ATOM    121  H18 UNL A   1      17.032  51.255  11.297  1.00  0.00    +0.000 H 
BRANCH   18   19
ATOM    122  H19 UNL A   1      15.522  52.322   8.756  1.00  0.00    +0.000 H 
ATOM     19  N3  UNL A   1      15.342  51.485   9.242  1.00  0.00    +0.000 N 
BRANCH   19   20
ATOM     40  N8  UNL A   1      14.764  49.267   8.991  1.00  0.00    +0.000 N 
ATOM     20  C15 UNL A   1      15.396  50.318   8.482  1.00  0.00    +0.000 C 
ATOM     21  N4  UNL A   1      16.071  50.300   7.345  1.00  0.00    +0.000 N 
ATOM     22  C16 UNL A   1      16.072  49.119   6.750  1.00  0.00    +0.000 C 
ATOM     23 Cl1  UNL A   1      16.930  49.025   5.275  1.00  0.00    +0.000 Cl
ATOM     24  N5  UNL A   1      15.468  48.014   7.145  1.00  0.00    +0.000 N 
ATOM     25  C17 UNL A   1      14.800  48.144   8.279  1.00  0.00    +0.000 C 
BRANCH   25   26
ATOM     26  N6  UNL A   1      14.006  47.102   8.771  1.00  0.00    +0.000 N 
ATOM    123  H20 UNL A   1      13.873  46.319   8.189  1.00  0.00    +0.000 H 
BRANCH   26   27
ATOM    132  H29 UNL A   1      12.982  48.951  12.789  1.00  0.00    +0.000 H 
ATOM    133  H30 UNL A   1      14.039  48.997  10.614  1.00  0.00    +0.000 H 
ATOM     38  C26 UNL A   1      12.917  48.126  12.171  1.00  0.00    +0.000 C 
ATOM     39  C27 UNL A   1      13.506  48.163  10.904  1.00  0.00    +0.000 C 
ATOM    124  H21 UNL A   1      12.613  45.129   9.833  1.00  0.00    +0.000 H 
ATOM    125  H22 UNL A   1      11.677  45.025  12.065  1.00  0.00    +0.000 H 
ATOM     27  C18 UNL A   1      13.381  47.084  10.028  1.00  0.00    +0.000 C 
ATOM     28  C19 UNL A   1      12.705  45.940  10.464  1.00  0.00    +0.000 C 
ATOM     29  C20 UNL A   1      12.153  45.885  11.749  1.00  0.00    +0.000 C 
ATOM     30  C21 UNL A   1      12.240  46.984  12.612  1.00  0.00    +0.000 C 
BRANCH   30   31
ATOM     33  C23 UNL A   1       9.750  47.316  15.456  1.00  0.00    +0.000 C 
ATOM    129  H26 UNL A   1      10.180  48.206  15.869  1.00  0.00    +0.000 H 
ATOM     35  C24 UNL A   1      11.566  46.115  16.277  1.00  0.00    +0.000 C 
ATOM     36  C25 UNL A   1      12.354  46.269  14.964  1.00  0.00    +0.000 C 
ATOM     37  O4  UNL A   1      13.539  45.927  14.923  1.00  0.00    +0.000 O 
ATOM     34  O3  UNL A   1      10.151  46.189  16.227  1.00  0.00    +0.000 O 
ATOM    130  H27 UNL A   1      11.819  45.160  16.687  1.00  0.00    +0.000 H 
ATOM    131  H28 UNL A   1      11.854  46.967  16.857  1.00  0.00    +0.000 H 
ATOM    127  H24 UNL A   1      10.000  48.038  13.492  1.00  0.00    +0.000 H 
ATOM    128  H25 UNL A   1       8.683  47.400  15.472  1.00  0.00    +0.000 H 
ATOM    126  H23 UNL A   1       9.725  46.289  13.600  1.00  0.00    +0.000 H 
ATOM     31  N7  UNL A   1      11.676  46.919  13.922  1.00  0.00    +0.000 N 
ATOM     32  C22 UNL A   1      10.226  47.136  14.021  1.00  0.00    +0.000 C 
ENDBRANCH   30   31
ENDBRANCH   26   27
ENDBRANCH   25   26
ENDBRANCH   19   20
ENDBRANCH   18   19
ENDBRANCH   11   13
ENDBRANCH   10   11
ENDBRANCH    9   10
ENDBRANCH    8    9
ENDBRANCH    7    8
ENDBRANCH    6    7
ENDBRANCH    5    6
ENDBRANCH    4    5
ENDBRANCH    3    4
ENDBRANCH    2    3
ENDBRANCH   41    2
ENDBRANCH   45   44
BRANCH   49   50
ATOM     50  C36 UNL A   1      16.915  48.561  -1.289  1.00  0.00    +0.000 C 
ATOM     51  C37 UNL A   1      18.029  47.734  -1.076  1.00  0.00    +0.000 C 
ATOM     52  F1  UNL A   1      18.781  47.886   0.024  1.00  0.00    +0.000 F 
ATOM     53  C38 UNL A   1      18.389  46.763  -2.008  1.00  0.00    +0.000 C 
ATOM     54  F2  UNL A   1      19.476  46.007  -1.799  1.00  0.00    +0.000 F 
ATOM     55  C39 UNL A   1      17.629  46.580  -3.153  1.00  0.00    +0.000 C 
ATOM     56  F3  UNL A   1      17.969  45.637  -4.042  1.00  0.00    +0.000 F 
ATOM     57  C40 UNL A   1      16.517  47.376  -3.378  1.00  0.00    +0.000 C 
ATOM     58  F4  UNL A   1      15.772  47.192  -4.477  1.00  0.00    +0.000 F 
ATOM     59  C41 UNL A   1      16.169  48.365  -2.461  1.00  0.00    +0.000 C 
ATOM     60  F5  UNL A   1      15.090  49.123  -2.709  1.00  0.00    +0.000 F 
ENDBRANCH   49   50
BRANCH   66   67
ATOM     67  C47 UNL A   1      18.143  55.515   0.167  1.00  0.00    +0.000 C 
ATOM     68  C48 UNL A   1      17.680  56.244  -0.938  1.00  0.00    +0.000 C 
ATOM     69  F6  UNL A   1      16.525  55.906  -1.532  1.00  0.00    +0.000 F 
ATOM     70  C49 UNL A   1      18.426  57.294  -1.465  1.00  0.00    +0.000 C 
ATOM     71  F7  UNL A   1      17.988  57.944  -2.552  1.00  0.00    +0.000 F 
ATOM     72  C50 UNL A   1      19.630  57.655  -0.878  1.00  0.00    +0.000 C 
ATOM     73  F8  UNL A   1      20.346  58.668  -1.387  1.00  0.00    +0.000 F 
ATOM     74  C51 UNL A   1      20.096  56.962   0.227  1.00  0.00    +0.000 C 
ATOM     75  F9  UNL A   1      21.255  57.316   0.801  1.00  0.00    +0.000 F 
ATOM     76  C52 UNL A   1      19.366  55.894   0.741  1.00  0.00    +0.000 C 
ATOM     77  F10 UNL A   1      19.850  55.229   1.801  1.00  0.00    +0.000 F 
ENDBRANCH   66   67
BRANCH   81   82
ATOM     82  C56 UNL A   1      14.017  55.024   5.754  1.00  0.00    +0.000 C 
ATOM     83  C57 UNL A   1      13.094  56.042   5.481  1.00  0.00    +0.000 C 
ATOM     84  F11 UNL A   1      12.604  56.187   4.241  1.00  0.00    +0.000 F 
ATOM     85  C58 UNL A   1      12.693  56.934   6.474  1.00  0.00    +0.000 C 
ATOM     86  F12 UNL A   1      11.837  57.922   6.179  1.00  0.00    +0.000 F 
ATOM     87  C59 UNL A   1      13.187  56.806   7.764  1.00  0.00    +0.000 C 
ATOM     88  F13 UNL A   1      12.792  57.658   8.721  1.00  0.00    +0.000 F 
ATOM     89  C60 UNL A   1      14.092  55.799   8.060  1.00  0.00    +0.000 C 
ATOM     90  F14 UNL A   1      14.558  55.661   9.309  1.00  0.00    +0.000 F 
ATOM     91  C61 UNL A   1      14.515  54.926   7.062  1.00  0.00    +0.000 C 
ATOM     92  F15 UNL A   1      15.397  53.965   7.374  1.00  0.00    +0.000 F 
ENDBRANCH   81   82
TORSDOF 20
ENDMDL
MODEL 10
REMARK VINA RESULT:      -8.9      3.156      8.180
ROOT
ATOM    136  H33 UNL A   1      18.652  53.246  -0.931  1.00  0.00    +0.000 H 
ATOM    137  H34 UNL A   1      18.197  50.748  -1.523  1.00  0.00    +0.000 H 
ATOM    138  H35 UNL A   1      15.805  51.781   1.696  1.00  0.00    +0.000 H 
ATOM    139  H36 UNL A   1      11.626  50.096   6.205  1.00  0.00    +0.000 H 
ATOM    140  H37 UNL A   1      11.917  52.580   6.649  1.00  0.00    +0.000 H 
ATOM    141  H38 UNL A   1      14.354  51.574   3.436  1.00  0.00    +0.000 H 
ATOM    142  H39 UNL A   1      13.405  46.735   2.466  1.00  0.00    +0.000 H 
ATOM    143  H40 UNL A   1      15.161  46.900   0.611  1.00  0.00    +0.000 H 
ATOM    144  H41 UNL A   1      16.537  56.656   2.642  1.00  0.00    +0.000 H 
ATOM    145  H42 UNL A   1      14.992  56.447   4.674  1.00  0.00    +0.000 H 
ATOM     45  C32 UNL A   1      13.826  53.859   4.968  1.00  0.00    +0.000 C 
ATOM     46  C33 UNL A   1      14.823  54.308   3.940  1.00  0.00    +0.000 C 
ATOM     47  N9  UNL A   1      15.376  53.619   2.972  1.00  0.00    +0.000 N 
ATOM     48  C34 UNL A   1      16.205  54.506   2.298  1.00  0.00    +0.000 C 
ATOM     49  C35 UNL A   1      17.012  54.264   1.238  1.00  0.00    +0.000 C 
ATOM     61  C42 UNL A   1      17.158  52.979   0.602  1.00  0.00    +0.000 C 
ATOM     62  C43 UNL A   1      17.982  52.624  -0.453  1.00  0.00    +0.000 C 
ATOM     63  C44 UNL A   1      17.749  51.279  -0.760  1.00  0.00    +0.000 C 
ATOM     64  C45 UNL A   1      16.815  50.782   0.134  1.00  0.00    +0.000 C 
ATOM     65  N10 UNL A   1      16.458  51.835   0.962  1.00  0.00    +0.000 N 
ATOM     66  C46 UNL A   1      16.284  49.445   0.224  1.00  0.00    +0.000 C 
ATOM     78  C53 UNL A   1      15.387  49.024   1.150  1.00  0.00    +0.000 C 
ATOM     79  N11 UNL A   1      14.790  49.742   2.174  1.00  0.00    +0.000 N 
ATOM     80  C54 UNL A   1      13.984  48.905   2.777  1.00  0.00    +0.000 C 
ATOM     81  C55 UNL A   1      13.092  49.138   3.961  1.00  0.00    +0.000 C 
ATOM     93  C62 UNL A   1      13.053  50.361   4.521  1.00  0.00    +0.000 C 
ATOM     94  C63 UNL A   1      12.235  50.735   5.669  1.00  0.00    +0.000 C 
ATOM     95  C64 UNL A   1      12.403  52.042   5.914  1.00  0.00    +0.000 C 
ATOM     96  C65 UNL A   1      13.385  52.585   4.974  1.00  0.00    +0.000 C 
ATOM     97  N12 UNL A   1      13.710  51.517   4.179  1.00  0.00    +0.000 N 
ATOM     98  C66 UNL A   1      13.968  47.557   2.194  1.00  0.00    +0.000 C 
ATOM     99  C67 UNL A   1      14.868  47.673   1.229  1.00  0.00    +0.000 C 
ATOM    100  C68 UNL A   1      16.065  55.791   2.951  1.00  0.00    +0.000 C 
ATOM    101  C69 UNL A   1      15.253  55.713   3.998  1.00  0.00    +0.000 C 
ENDROOT
BRANCH   45   44
ATOM    102  C70 UNL A   1      12.081  55.431   5.874  1.00  0.00    +0.000 C 
ATOM    103  C71 UNL A   1      11.615  56.281   6.882  1.00  0.00    +0.000 C 
ATOM    134  H31 UNL A   1      14.064  55.806   9.122  1.00  0.00    +0.000 H 
ATOM     41  C28 UNL A   1      12.367  56.457   8.048  1.00  0.00    +0.000 C 
ATOM     42  C29 UNL A   1      13.558  55.749   8.225  1.00  0.00    +0.000 C 
ATOM     43  C30 UNL A   1      14.060  54.967   7.190  1.00  0.00    +0.000 C 
ATOM    135  H32 UNL A   1      14.982  54.515   7.290  1.00  0.00    +0.000 H 
ATOM     44  C31 UNL A   1      13.318  54.787   6.011  1.00  0.00    +0.000 C 
ATOM    146  H43 UNL A   1      11.511  55.279   5.027  1.00  0.00    +0.000 H 
ATOM    147  H44 UNL A   1      10.717  56.777   6.767  1.00  0.00    +0.000 H 
BRANCH   41    2
ATOM      1  O1  UNL A   1      12.421  58.476   9.237  1.00  0.00    +0.000 O 
ATOM      2  C1  UNL A   1      11.873  57.387   9.087  1.00  0.00    +0.000 C 
BRANCH    2    3
ATOM      3  N1  UNL A   1      10.826  57.021   9.895  1.00  0.00    +0.000 N 
ATOM    104  H1  UNL A   1       9.937  57.330   9.603  1.00  0.00    +0.000 H 
BRANCH    3    4
ATOM    105  H2  UNL A   1       9.836  56.129  11.467  1.00  0.00    +0.000 H 
ATOM    106  H3  UNL A   1      11.451  56.769  11.826  1.00  0.00    +0.000 H 
ATOM      4  C2  UNL A   1      10.843  56.242  11.121  1.00  0.00    +0.000 C 
BRANCH    4    5
ATOM    107  H4  UNL A   1      11.817  54.787   9.938  1.00  0.00    +0.000 H 
ATOM    108  H5  UNL A   1      10.671  54.162  11.167  1.00  0.00    +0.000 H 
ATOM      5  C3  UNL A   1      11.452  54.858  10.941  1.00  0.00    +0.000 C 
BRANCH    5    6
ATOM    110  H7  UNL A   1      13.456  54.363  11.260  1.00  0.00    +0.000 H 
ATOM    109  H6  UNL A   1      12.708  55.325  12.579  1.00  0.00    +0.000 H 
ATOM      6  C4  UNL A   1      12.602  54.516  11.886  1.00  0.00    +0.000 C 
BRANCH    6    7
ATOM    111  H8  UNL A   1      11.670  52.645  12.236  1.00  0.00    +0.000 H 
ATOM      7  C5  UNL A   1      12.444  53.225  12.695  1.00  0.00    +0.000 C 
ATOM    112  H9  UNL A   1      12.227  53.538  13.694  1.00  0.00    +0.000 H 
BRANCH    7    8
ATOM    113  H10 UNL A   1      13.423  51.355  12.475  1.00  0.00    +0.000 H 
ATOM    114  H11 UNL A   1      13.991  52.385  13.831  1.00  0.00    +0.000 H 
ATOM      8  C6  UNL A   1      13.689  52.338  12.805  1.00  0.00    +0.000 C 
BRANCH    8    9
ATOM      9  C7  UNL A   1      14.901  52.792  11.996  1.00  0.00    +0.000 C 
ATOM    115  H12 UNL A   1      15.767  52.753  12.624  1.00  0.00    +0.000 H 
ATOM    116  H13 UNL A   1      14.709  53.786  11.652  1.00  0.00    +0.000 H 
BRANCH    9   10
ATOM     10  N2  UNL A   1      15.136  51.959  10.830  1.00  0.00    +0.000 N 
ATOM    117  H14 UNL A   1      14.438  51.988  10.137  1.00  0.00    +0.000 H 
BRANCH   10   11
ATOM     11  C8  UNL A   1      16.203  51.136  10.566  1.00  0.00    +0.000 C 
ATOM     12  O2  UNL A   1      17.072  50.959  11.415  1.00  0.00    +0.000 O 
BRANCH   11   13
ATOM     13  C9  UNL A   1      16.300  50.425   9.274  1.00  0.00    +0.000 C 
ATOM     14  C10 UNL A   1      16.804  51.158   8.190  1.00  0.00    +0.000 C 
ATOM     15  C11 UNL A   1      16.928  50.557   6.940  1.00  0.00    +0.000 C 
ATOM     16  C12 UNL A   1      16.555  49.227   6.775  1.00  0.00    +0.000 C 
ATOM     17  C13 UNL A   1      16.035  48.501   7.852  1.00  0.00    +0.000 C 
ATOM     18  C14 UNL A   1      15.869  49.092   9.115  1.00  0.00    +0.000 C 
ATOM    118  H15 UNL A   1      17.084  52.142   8.319  1.00  0.00    +0.000 H 
ATOM    119  H16 UNL A   1      17.295  51.096   6.140  1.00  0.00    +0.000 H 
ATOM    120  H17 UNL A   1      16.661  48.774   5.853  1.00  0.00    +0.000 H 
ATOM    121  H18 UNL A   1      15.769  47.513   7.715  1.00  0.00    +0.000 H 
BRANCH   18   19
ATOM    122  H19 UNL A   1      15.868  47.895  10.770  1.00  0.00    +0.000 H 
ATOM     19  N3  UNL A   1      15.259  48.398  10.183  1.00  0.00    +0.000 N 
BRANCH   19   20
ATOM     40  N8  UNL A   1      13.115  47.772   9.609  1.00  0.00    +0.000 N 
ATOM     20  C15 UNL A   1      13.907  48.337  10.513  1.00  0.00    +0.000 C 
ATOM     21  N4  UNL A   1      13.482  48.848  11.656  1.00  0.00    +0.000 N 
ATOM     22  C16 UNL A   1      12.174  48.757  11.822  1.00  0.00    +0.000 C 
ATOM     23 Cl1  UNL A   1      11.556  49.402  13.278  1.00  0.00    +0.000 Cl
ATOM     24  N5  UNL A   1      11.292  48.204  11.009  1.00  0.00    +0.000 N 
ATOM     25  C17 UNL A   1      11.821  47.700   9.907  1.00  0.00    +0.000 C 
BRANCH   25   26
ATOM     26  N6  UNL A   1      11.042  46.973   9.000  1.00  0.00    +0.000 N 
ATOM    123  H20 UNL A   1      11.471  46.216   8.539  1.00  0.00    +0.000 H 
BRANCH   26   27
ATOM    132  H29 UNL A   1       6.625  45.924   9.015  1.00  0.00    +0.000 H 
ATOM    133  H30 UNL A   1       8.936  45.478   9.568  1.00  0.00    +0.000 H 
ATOM     38  C26 UNL A   1       7.361  46.580   8.705  1.00  0.00    +0.000 C 
ATOM     39  C27 UNL A   1       8.693  46.335   9.048  1.00  0.00    +0.000 C 
ATOM    124  H21 UNL A   1      10.086  49.032   7.657  1.00  0.00    +0.000 H 
ATOM    125  H22 UNL A   1       7.791  49.407   6.977  1.00  0.00    +0.000 H 
ATOM     27  C18 UNL A   1       9.698  47.236   8.694  1.00  0.00    +0.000 C 
ATOM     28  C19 UNL A   1       9.354  48.361   7.937  1.00  0.00    +0.000 C 
ATOM     29  C20 UNL A   1       8.026  48.585   7.555  1.00  0.00    +0.000 C 
ATOM     30  C21 UNL A   1       7.011  47.703   7.949  1.00  0.00    +0.000 C 
BRANCH   30   31
ATOM     33  C23 UNL A   1       3.673  47.283   6.194  1.00  0.00    +0.000 C 
ATOM    129  H26 UNL A   1       3.841  48.049   5.464  1.00  0.00    +0.000 H 
ATOM     35  C24 UNL A   1       3.394  48.943   7.801  1.00  0.00    +0.000 C 
ATOM     36  C25 UNL A   1       4.881  48.909   8.199  1.00  0.00    +0.000 C 
ATOM     37  O4  UNL A   1       5.327  49.777   8.953  1.00  0.00    +0.000 O 
ATOM     34  O3  UNL A   1       2.824  47.781   7.223  1.00  0.00    +0.000 O 
ATOM    130  H27 UNL A   1       2.835  49.162   8.687  1.00  0.00    +0.000 H 
ATOM    131  H28 UNL A   1       3.348  49.674   7.022  1.00  0.00    +0.000 H 
ATOM    127  H24 UNL A   1       5.652  46.584   6.000  1.00  0.00    +0.000 H 
ATOM    128  H25 UNL A   1       3.209  46.442   5.722  1.00  0.00    +0.000 H 
ATOM    126  H23 UNL A   1       4.824  46.039   7.470  1.00  0.00    +0.000 H 
ATOM     31  N7  UNL A   1       5.660  47.937   7.554  1.00  0.00    +0.000 N 
ATOM     32  C22 UNL A   1       5.002  46.857   6.805  1.00  0.00    +0.000 C 
ENDBRANCH   30   31
ENDBRANCH   26   27
ENDBRANCH   25   26
ENDBRANCH   19   20
ENDBRANCH   18   19
ENDBRANCH   11   13
ENDBRANCH   10   11
ENDBRANCH    9   10
ENDBRANCH    8    9
ENDBRANCH    7    8
ENDBRANCH    6    7
ENDBRANCH    5    6
ENDBRANCH    4    5
ENDBRANCH    3    4
ENDBRANCH    2    3
ENDBRANCH   41    2
ENDBRANCH   45   44
BRANCH   49   50
ATOM     50  C36 UNL A   1      17.799  55.416   0.680  1.00  0.00    +0.000 C 
ATOM     51  C37 UNL A   1      19.057  55.765   1.194  1.00  0.00    +0.000 C 
ATOM     52  F1  UNL A   1      19.561  55.110   2.251  1.00  0.00    +0.000 F 
ATOM     53  C38 UNL A   1      19.793  56.810   0.638  1.00  0.00    +0.000 C 
ATOM     54  F2  UNL A   1      20.978  57.147   1.166  1.00  0.00    +0.000 F 
ATOM     55  C39 UNL A   1      19.301  57.503  -0.457  1.00  0.00    +0.000 C 
ATOM     56  F3  UNL A   1      20.015  58.500  -0.998  1.00  0.00    +0.000 F 
ATOM     57  C40 UNL A   1      18.066  57.166  -0.989  1.00  0.00    +0.000 C 
ATOM     58  F4  UNL A   1      17.594  57.826  -2.056  1.00  0.00    +0.000 F 
ATOM     59  C41 UNL A   1      17.317  56.140  -0.420  1.00  0.00    +0.000 C 
ATOM     60  F5  UNL A   1      16.123  55.840  -0.955  1.00  0.00    +0.000 F 
ENDBRANCH   49   50
BRANCH   66   67
ATOM     67  C47 UNL A   1      16.769  48.427  -0.764  1.00  0.00    +0.000 C 
ATOM     68  C48 UNL A   1      18.006  47.784  -0.608  1.00  0.00    +0.000 C 
ATOM     69  F6  UNL A   1      18.805  48.101   0.423  1.00  0.00    +0.000 F 
ATOM     70  C49 UNL A   1      18.445  46.845  -1.536  1.00  0.00    +0.000 C 
ATOM     71  F7  UNL A   1      19.653  46.280  -1.394  1.00  0.00    +0.000 F 
ATOM     72  C50 UNL A   1      17.645  46.508  -2.617  1.00  0.00    +0.000 C 
ATOM     73  F8  UNL A   1      18.070  45.603  -3.510  1.00  0.00    +0.000 F 
ATOM     74  C51 UNL A   1      16.410  47.116  -2.780  1.00  0.00    +0.000 C 
ATOM     75  F9  UNL A   1      15.631  46.785  -3.820  1.00  0.00    +0.000 F 
ATOM     76  C52 UNL A   1      15.978  48.075  -1.869  1.00  0.00    +0.000 C 
ATOM     77  F10 UNL A   1      14.787  48.661  -2.061  1.00  0.00    +0.000 F 
ENDBRANCH   66   67
BRANCH   81   82
ATOM     82  C56 UNL A   1      12.255  48.048   4.524  1.00  0.00    +0.000 C 
ATOM     83  C57 UNL A   1      10.897  47.938   4.196  1.00  0.00    +0.000 C 
ATOM     84  F11 UNL A   1      10.327  48.848   3.392  1.00  0.00    +0.000 F 
ATOM     85  C58 UNL A   1      10.114  46.911   4.716  1.00  0.00    +0.000 C 
ATOM     86  F12 UNL A   1       8.809  46.848   4.416  1.00  0.00    +0.000 F 
ATOM     87  C59 UNL A   1      10.680  45.958   5.551  1.00  0.00    +0.000 C 
ATOM     88  F13 UNL A   1       9.927  44.964   6.042  1.00  0.00    +0.000 F 
ATOM     89  C60 UNL A   1      12.024  46.040   5.879  1.00  0.00    +0.000 C 
ATOM     90  F14 UNL A   1      12.579  45.112   6.671  1.00  0.00    +0.000 F 
ATOM     91  C61 UNL A   1      12.801  47.084   5.383  1.00  0.00    +0.000 C 
ATOM     92  F15 UNL A   1      14.097  47.143   5.722  1.00  0.00    +0.000 F 
ENDBRANCH   81   82
TORSDOF 20
ENDMDL
