MODEL 1
REMARK VINA RESULT:     -10.8      0.000      0.000
ROOT
ATOM    129  H37 UNL A   1      36.297  32.017  31.550  1.00  0.00    +0.000 H 
ATOM     34  C27 UNL A   1      37.955  30.349  29.927  1.00  0.00    +0.000 C 
ATOM     35  C28 UNL A   1      38.177  30.763  31.355  1.00  0.00    +0.000 C 
ATOM     36  N3  UNL A   1      39.158  30.445  32.165  1.00  0.00    +0.000 N 
ATOM     37  C29 UNL A   1      38.907  31.117  33.354  1.00  0.00    +0.000 C 
ATOM     38  C30 UNL A   1      39.624  31.096  34.504  1.00  0.00    +0.000 C 
ATOM     50  C37 UNL A   1      40.817  30.314  34.706  1.00  0.00    +0.000 C 
ATOM     51  C38 UNL A   1      41.581  30.185  35.854  1.00  0.00    +0.000 C 
ATOM     52  C39 UNL A   1      42.669  29.354  35.566  1.00  0.00    +0.000 C 
ATOM     53  C40 UNL A   1      42.560  28.929  34.252  1.00  0.00    +0.000 C 
ATOM     54  N4  UNL A   1      41.421  29.529  33.736  1.00  0.00    +0.000 N 
ATOM     55  C41 UNL A   1      43.428  28.043  33.520  1.00  0.00    +0.000 C 
ATOM     67  C48 UNL A   1      43.244  27.664  32.232  1.00  0.00    +0.000 C 
ATOM     68  N5  UNL A   1      42.229  28.019  31.355  1.00  0.00    +0.000 N 
ATOM     69  C49 UNL A   1      42.505  27.417  30.225  1.00  0.00    +0.000 C 
ATOM     70  C50 UNL A   1      41.737  27.429  28.934  1.00  0.00    +0.000 C 
ATOM     82  C57 UNL A   1      40.621  28.175  28.840  1.00  0.00    +0.000 C 
ATOM     83  C58 UNL A   1      39.774  28.275  27.656  1.00  0.00    +0.000 C 
ATOM     84  C59 UNL A   1      38.758  29.111  27.917  1.00  0.00    +0.000 C 
ATOM     85  C60 UNL A   1      38.856  29.565  29.305  1.00  0.00    +0.000 C 
ATOM     86  N6  UNL A   1      40.013  28.990  29.764  1.00  0.00    +0.000 N 
ATOM     87  C61 UNL A   1      43.738  26.622  30.251  1.00  0.00    +0.000 C 
ATOM     88  C62 UNL A   1      44.130  26.776  31.508  1.00  0.00    +0.000 C 
ATOM     89  C63 UNL A   1      37.691  31.878  33.159  1.00  0.00    +0.000 C 
ATOM     90  C64 UNL A   1      37.175  31.657  31.957  1.00  0.00    +0.000 C 
ATOM    120  H28 UNL A   1      41.382  30.627  36.765  1.00  0.00    +0.000 H 
ATOM    121  H29 UNL A   1      43.425  29.100  36.221  1.00  0.00    +0.000 H 
ATOM    122  H30 UNL A   1      41.091  29.414  32.815  1.00  0.00    +0.000 H 
ATOM    123  H31 UNL A   1      39.931  27.783  26.763  1.00  0.00    +0.000 H 
ATOM    124  H32 UNL A   1      38.025  29.390  27.247  1.00  0.00    +0.000 H 
ATOM    125  H33 UNL A   1      40.374  29.145  30.667  1.00  0.00    +0.000 H 
ATOM    126  H34 UNL A   1      44.184  26.084  29.490  1.00  0.00    +0.000 H 
ATOM    127  H35 UNL A   1      44.961  26.320  31.918  1.00  0.00    +0.000 H 
ATOM    128  H36 UNL A   1      37.281  32.510  33.862  1.00  0.00    +0.000 H 
ENDROOT
BRANCH   34   33
ATOM     33  C26 UNL A   1      36.727  30.752  29.192  1.00  0.00    +0.000 C 
ATOM    130  H38 UNL A   1      37.228  32.797  28.977  1.00  0.00    +0.000 H 
ATOM    131  H39 UNL A   1      35.141  33.423  27.906  1.00  0.00    +0.000 H 
ATOM    118  H26 UNL A   1      33.976  29.383  27.831  1.00  0.00    +0.000 H 
ATOM    119  H27 UNL A   1      35.925  28.795  29.142  1.00  0.00    +0.000 H 
ATOM     91  C65 UNL A   1      36.507  32.081  28.798  1.00  0.00    +0.000 C 
ATOM     92  C66 UNL A   1      35.315  32.438  28.162  1.00  0.00    +0.000 C 
ATOM     30  C23 UNL A   1      34.358  31.460  27.873  1.00  0.00    +0.000 C 
ATOM     31  C24 UNL A   1      34.626  30.118  28.151  1.00  0.00    +0.000 C 
ATOM     32  C25 UNL A   1      35.773  29.775  28.859  1.00  0.00    +0.000 C 
BRANCH   30    2
ATOM      1  O1  UNL A   1      32.844  33.063  27.074  1.00  0.00    +0.000 O 
ATOM      2  C1  UNL A   1      33.064  31.874  27.284  1.00  0.00    +0.000 C 
BRANCH    2    3
ATOM      3  N1  UNL A   1      32.101  30.931  27.012  1.00  0.00    +0.000 N 
ATOM     93  H1  UNL A   1      31.536  30.672  27.776  1.00  0.00    +0.000 H 
BRANCH    3    4
ATOM      4  C2  UNL A   1      31.796  30.261  25.758  1.00  0.00    +0.000 C 
ATOM     94  H2  UNL A   1      32.584  30.466  25.064  1.00  0.00    +0.000 H 
ATOM     95  H3  UNL A   1      30.852  30.636  25.420  1.00  0.00    +0.000 H 
BRANCH    4    5
ATOM     97  H5  UNL A   1      31.445  28.573  26.933  1.00  0.00    +0.000 H 
ATOM      5  C3  UNL A   1      31.658  28.751  25.900  1.00  0.00    +0.000 C 
ATOM     96  H4  UNL A   1      30.886  28.426  25.236  1.00  0.00    +0.000 H 
BRANCH    5    6
ATOM     98  H6  UNL A   1      32.614  27.036  25.107  1.00  0.00    +0.000 H 
ATOM     99  H7  UNL A   1      33.405  27.794  26.530  1.00  0.00    +0.000 H 
ATOM      6  C4  UNL A   1      32.917  27.942  25.590  1.00  0.00    +0.000 C 
BRANCH    6    7
ATOM    100  H8  UNL A   1      34.786  27.969  24.594  1.00  0.00    +0.000 H 
ATOM    101  H9  UNL A   1      34.176  29.557  25.171  1.00  0.00    +0.000 H 
ATOM      7  C5  UNL A   1      33.949  28.628  24.691  1.00  0.00    +0.000 C 
BRANCH    7    8
ATOM    102  H10 UNL A   1      33.659  30.044  23.138  1.00  0.00    +0.000 H 
ATOM    103  H11 UNL A   1      32.444  28.727  23.239  1.00  0.00    +0.000 H 
ATOM      8  C6  UNL A   1      33.478  28.999  23.281  1.00  0.00    +0.000 C 
BRANCH    8    9
ATOM      9  C7  UNL A   1      34.152  28.245  22.138  1.00  0.00    +0.000 C 
ATOM    105  H13 UNL A   1      33.775  28.641  21.218  1.00  0.00    +0.000 H 
ATOM    104  H12 UNL A   1      35.211  28.378  22.215  1.00  0.00    +0.000 H 
BRANCH    9   10
ATOM     10  N2  UNL A   1      33.857  26.827  22.166  1.00  0.00    +0.000 N 
ATOM    106  H14 UNL A   1      34.585  26.243  22.477  1.00  0.00    +0.000 H 
BRANCH   10   11
ATOM     11  C8  UNL A   1      32.692  26.193  21.813  1.00  0.00    +0.000 C 
ATOM     12  O2  UNL A   1      32.582  25.676  20.704  1.00  0.00    +0.000 O 
BRANCH   11   13
ATOM    107  H15 UNL A   1      30.625  27.768  22.078  1.00  0.00    +0.000 H 
ATOM     13  C9  UNL A   1      31.603  26.039  22.796  1.00  0.00    +0.000 C 
ATOM     14  C10 UNL A   1      30.586  27.004  22.770  1.00  0.00    +0.000 C 
ATOM     15  C11 UNL A   1      29.516  26.942  23.671  1.00  0.00    +0.000 C 
ATOM    115  H23 UNL A   1      28.710  25.819  25.267  1.00  0.00    +0.000 H 
ATOM    116  H24 UNL A   1      30.495  24.181  25.349  1.00  0.00    +0.000 H 
ATOM     26  C20 UNL A   1      29.497  25.892  24.603  1.00  0.00    +0.000 C 
ATOM     27  C21 UNL A   1      30.523  24.940  24.650  1.00  0.00    +0.000 C 
ATOM     28  C22 UNL A   1      31.583  25.021  23.751  1.00  0.00    +0.000 C 
BRANCH   15   16
ATOM    108  H16 UNL A   1      27.986  28.121  24.617  1.00  0.00    +0.000 H 
ATOM     16  C12 UNL A   1      28.418  27.928  23.700  1.00  0.00    +0.000 C 
BRANCH   16   17
ATOM     17  C13 UNL A   1      27.930  28.594  22.641  1.00  0.00    +0.000 C 
ATOM    109  H17 UNL A   1      27.372  28.073  21.947  1.00  0.00    +0.000 H 
BRANCH   17   18
ATOM    110  H18 UNL A   1      28.896  30.464  24.355  1.00  0.00    +0.000 H 
ATOM    112  H20 UNL A   1      28.826  33.743  21.724  1.00  0.00    +0.000 H 
ATOM     18  C14 UNL A   1      28.152  30.031  22.421  1.00  0.00    +0.000 C 
ATOM     19  C15 UNL A   1      28.684  30.854  23.423  1.00  0.00    +0.000 C 
ATOM    114  H22 UNL A   1      27.518  29.973  20.401  1.00  0.00    +0.000 H 
ATOM     20  C16 UNL A   1      28.924  32.202  23.159  1.00  0.00    +0.000 C 
ATOM     22  C17 UNL A   1      28.651  32.743  21.910  1.00  0.00    +0.000 C 
ATOM     23  C18 UNL A   1      28.139  31.923  20.912  1.00  0.00    +0.000 C 
ATOM     25  C19 UNL A   1      27.891  30.572  21.153  1.00  0.00    +0.000 C 
BRANCH   20   21
ATOM     21  O3  UNL A   1      29.445  33.028  24.111  1.00  0.00    +0.000 O 
ATOM    111  H19 UNL A   1      29.705  32.681  24.942  1.00  0.00    +0.000 H 
ENDBRANCH   20   21
BRANCH   23   24
ATOM    113  H21 UNL A   1      28.421  33.193  19.387  1.00  0.00    +0.000 H 
ATOM     24  O4  UNL A   1      27.891  32.482  19.693  1.00  0.00    +0.000 O 
ENDBRANCH   23   24
ENDBRANCH   17   18
ENDBRANCH   16   17
ENDBRANCH   15   16
BRANCH   28   29
ATOM    117  H25 UNL A   1      33.483  24.377  23.710  1.00  0.00    +0.000 H 
ATOM     29  O5  UNL A   1      32.592  24.102  23.811  1.00  0.00    +0.000 O 
ENDBRANCH   28   29
ENDBRANCH   11   13
ENDBRANCH   10   11
ENDBRANCH    9   10
ENDBRANCH    8    9
ENDBRANCH    7    8
ENDBRANCH    6    7
ENDBRANCH    5    6
ENDBRANCH    4    5
ENDBRANCH    3    4
ENDBRANCH    2    3
ENDBRANCH   30    2
ENDBRANCH   34   33
BRANCH   38   39
ATOM     39  C31 UNL A   1      39.146  31.956  35.638  1.00  0.00    +0.000 C 
ATOM     40  C32 UNL A   1      38.322  31.450  36.653  1.00  0.00    +0.000 C 
ATOM     41  F1  UNL A   1      37.889  30.181  36.602  1.00  0.00    +0.000 F 
ATOM     42  C33 UNL A   1      37.912  32.257  37.712  1.00  0.00    +0.000 C 
ATOM     43  F2  UNL A   1      37.092  31.763  38.650  1.00  0.00    +0.000 F 
ATOM     44  C34 UNL A   1      38.341  33.574  37.793  1.00  0.00    +0.000 C 
ATOM     45  F3  UNL A   1      37.952  34.346  38.816  1.00  0.00    +0.000 F 
ATOM     46  C35 UNL A   1      39.170  34.090  36.809  1.00  0.00    +0.000 C 
ATOM     47  F4  UNL A   1      39.596  35.359  36.891  1.00  0.00    +0.000 F 
ATOM     48  C36 UNL A   1      39.561  33.293  35.735  1.00  0.00    +0.000 C 
ATOM     49  F5  UNL A   1      40.357  33.824  34.795  1.00  0.00    +0.000 F 
ENDBRANCH   38   39
BRANCH   55   56
ATOM     65  C47 UNL A   1      44.506  26.265  34.942  1.00  0.00    +0.000 C 
ATOM     66  F10 UNL A   1      43.339  25.605  34.976  1.00  0.00    +0.000 F 
ATOM     56  C42 UNL A   1      44.616  27.472  34.235  1.00  0.00    +0.000 C 
ATOM     57  C43 UNL A   1      45.857  28.124  34.233  1.00  0.00    +0.000 C 
ATOM     58  F6  UNL A   1      46.015  29.271  33.557  1.00  0.00    +0.000 F 
ATOM     59  C44 UNL A   1      46.954  27.574  34.891  1.00  0.00    +0.000 C 
ATOM     60  F7  UNL A   1      48.143  28.188  34.835  1.00  0.00    +0.000 F 
ATOM     61  C45 UNL A   1      46.822  26.381  35.588  1.00  0.00    +0.000 C 
ATOM     62  F8  UNL A   1      47.880  25.852  36.219  1.00  0.00    +0.000 F 
ATOM     63  C46 UNL A   1      45.598  25.732  35.620  1.00  0.00    +0.000 C 
ATOM     64  F9  UNL A   1      45.467  24.584  36.300  1.00  0.00    +0.000 F 
ENDBRANCH   55   56
BRANCH   70   71
ATOM     71  C51 UNL A   1      42.181  26.619  27.772  1.00  0.00    +0.000 C 
ATOM     72  C52 UNL A   1      43.055  27.152  26.816  1.00  0.00    +0.000 C 
ATOM     73  F11 UNL A   1      43.475  28.421  26.926  1.00  0.00    +0.000 F 
ATOM     74  C53 UNL A   1      43.477  26.393  25.727  1.00  0.00    +0.000 C 
ATOM     75  F12 UNL A   1      44.285  26.938  24.806  1.00  0.00    +0.000 F 
ATOM     76  C54 UNL A   1      43.055  25.080  25.588  1.00  0.00    +0.000 C 
ATOM     77  F13 UNL A   1      43.468  24.348  24.545  1.00  0.00    +0.000 F 
ATOM     78  C55 UNL A   1      42.197  24.528  26.529  1.00  0.00    +0.000 C 
ATOM     79  F14 UNL A   1      41.799  23.254  26.407  1.00  0.00    +0.000 F 
ATOM     80  C56 UNL A   1      41.754  25.295  27.602  1.00  0.00    +0.000 C 
ATOM     81  F15 UNL A   1      40.920  24.738  28.494  1.00  0.00    +0.000 F 
ENDBRANCH   70   71
TORSDOF 21
ENDMDL
MODEL 2
REMARK VINA RESULT:     -10.5     20.143     25.174
ROOT
ATOM    129  H37 UNL A   1      50.822  21.419  12.540  1.00  0.00    +0.000 H 
ATOM     34  C27 UNL A   1      53.227  20.279  11.501  1.00  0.00    +0.000 C 
ATOM     35  C28 UNL A   1      52.979  20.813  12.885  1.00  0.00    +0.000 C 
ATOM     36  N3  UNL A   1      53.795  20.861  13.911  1.00  0.00    +0.000 N 
ATOM     37  C29 UNL A   1      53.089  21.479  14.934  1.00  0.00    +0.000 C 
ATOM     38  C30 UNL A   1      53.492  21.741  16.201  1.00  0.00    +0.000 C 
ATOM     50  C37 UNL A   1      54.783  21.386  16.735  1.00  0.00    +0.000 C 
ATOM     51  C38 UNL A   1      55.262  21.562  18.022  1.00  0.00    +0.000 C 
ATOM     52  C39 UNL A   1      56.583  21.102  18.065  1.00  0.00    +0.000 C 
ATOM     53  C40 UNL A   1      56.912  20.599  16.816  1.00  0.00    +0.000 C 
ATOM     54  N4  UNL A   1      55.799  20.784  16.010  1.00  0.00    +0.000 N 
ATOM     55  C41 UNL A   1      58.148  19.997  16.388  1.00  0.00    +0.000 C 
ATOM     67  C48 UNL A   1      58.388  19.516  15.145  1.00  0.00    +0.000 C 
ATOM     68  N5  UNL A   1      57.546  19.488  14.043  1.00  0.00    +0.000 N 
ATOM     69  C49 UNL A   1      58.242  18.948  13.073  1.00  0.00    +0.000 C 
ATOM     70  C50 UNL A   1      57.826  18.654  11.660  1.00  0.00    +0.000 C 
ATOM     82  C57 UNL A   1      56.593  19.004  11.251  1.00  0.00    +0.000 C 
ATOM     83  C58 UNL A   1      56.053  18.774   9.916  1.00  0.00    +0.000 C 
ATOM     84  C59 UNL A   1      54.804  19.259   9.862  1.00  0.00    +0.000 C 
ATOM     85  C60 UNL A   1      54.438  19.789  11.176  1.00  0.00    +0.000 C 
ATOM     86  N6  UNL A   1      55.575  19.631  11.927  1.00  0.00    +0.000 N 
ATOM     87  C61 UNL A   1      59.614  18.584  13.445  1.00  0.00    +0.000 C 
ATOM     88  C62 UNL A   1      59.640  18.916  14.729  1.00  0.00    +0.000 C 
ATOM     89  C63 UNL A   1      51.782  21.806  14.405  1.00  0.00    +0.000 C 
ATOM     90  C64 UNL A   1      51.648  21.374  13.158  1.00  0.00    +0.000 C 
ATOM    120  H28 UNL A   1      54.736  21.964  18.814  1.00  0.00    +0.000 H 
ATOM    121  H29 UNL A   1      57.207  21.132  18.886  1.00  0.00    +0.000 H 
ATOM    122  H30 UNL A   1      55.740  20.525  15.061  1.00  0.00    +0.000 H 
ATOM    123  H31 UNL A   1      56.551  18.311   9.139  1.00  0.00    +0.000 H 
ATOM    124  H32 UNL A   1      54.197  19.258   9.027  1.00  0.00    +0.000 H 
ATOM    125  H33 UNL A   1      55.654  19.937  12.859  1.00  0.00    +0.000 H 
ATOM    126  H34 UNL A   1      60.363  18.177  12.861  1.00  0.00    +0.000 H 
ATOM    127  H35 UNL A   1      60.450  18.767  15.351  1.00  0.00    +0.000 H 
ATOM    128  H36 UNL A   1      51.051  22.312  14.929  1.00  0.00    +0.000 H 
ENDROOT
BRANCH   34   33
ATOM     33  C26 UNL A   1      52.140  20.238  10.488  1.00  0.00    +0.000 C 
ATOM    130  H38 UNL A   1      52.478  22.167   9.685  1.00  0.00    +0.000 H 
ATOM    131  H39 UNL A   1      50.600  22.095   8.147  1.00  0.00    +0.000 H 
ATOM    118  H26 UNL A   1      49.863  18.103   9.241  1.00  0.00    +0.000 H 
ATOM    119  H27 UNL A   1      51.555  18.262  10.967  1.00  0.00    +0.000 H 
ATOM     91  C65 UNL A   1      51.879  21.327   9.643  1.00  0.00    +0.000 C 
ATOM     92  C66 UNL A   1      50.811  21.279   8.742  1.00  0.00    +0.000 C 
ATOM     30  C23 UNL A   1      50.030  20.123   8.647  1.00  0.00    +0.000 C 
ATOM     31  C24 UNL A   1      50.363  18.993   9.396  1.00  0.00    +0.000 C 
ATOM     32  C25 UNL A   1      51.370  19.070  10.352  1.00  0.00    +0.000 C 
BRANCH   30    2
ATOM      1  O1  UNL A   1      48.261  21.180   7.529  1.00  0.00    +0.000 O 
ATOM      2  C1  UNL A   1      48.848  20.127   7.755  1.00  0.00    +0.000 C 
BRANCH    2    3
ATOM      3  N1  UNL A   1      48.391  18.948   7.217  1.00  0.00    +0.000 N 
ATOM     93  H1  UNL A   1      47.792  18.424   7.796  1.00  0.00    +0.000 H 
BRANCH    3    4
ATOM      4  C2  UNL A   1      48.665  18.362   5.914  1.00  0.00    +0.000 C 
ATOM     94  H2  UNL A   1      48.279  17.364   5.904  1.00  0.00    +0.000 H 
ATOM     95  H3  UNL A   1      49.725  18.386   5.773  1.00  0.00    +0.000 H 
BRANCH    4    5
ATOM     97  H5  UNL A   1      48.523  20.087   4.750  1.00  0.00    +0.000 H 
ATOM      5  C3  UNL A   1      48.037  19.135   4.762  1.00  0.00    +0.000 C 
ATOM     96  H4  UNL A   1      48.177  18.566   3.868  1.00  0.00    +0.000 H 
BRANCH    5    6
ATOM     98  H6  UNL A   1      46.442  20.409   5.322  1.00  0.00    +0.000 H 
ATOM     99  H7  UNL A   1      46.151  18.649   5.518  1.00  0.00    +0.000 H 
ATOM      6  C4  UNL A   1      46.545  19.430   4.903  1.00  0.00    +0.000 C 
BRANCH    6    7
ATOM    100  H8  UNL A   1      45.091  18.530   3.652  1.00  0.00    +0.000 H 
ATOM    101  H9  UNL A   1      46.447  19.360   2.816  1.00  0.00    +0.000 H 
ATOM      7  C5  UNL A   1      45.729  19.387   3.608  1.00  0.00    +0.000 C 
BRANCH    7    8
ATOM    102  H10 UNL A   1      45.327  21.465   3.755  1.00  0.00    +0.000 H 
ATOM    103  H11 UNL A   1      43.893  20.386   3.746  1.00  0.00    +0.000 H 
ATOM      8  C6  UNL A   1      44.850  20.610   3.323  1.00  0.00    +0.000 C 
BRANCH    8    9
ATOM      9  C7  UNL A   1      44.592  20.911   1.849  1.00  0.00    +0.000 C 
ATOM    105  H13 UNL A   1      45.095  21.824   1.608  1.00  0.00    +0.000 H 
ATOM    104  H12 UNL A   1      44.961  20.096   1.261  1.00  0.00    +0.000 H 
BRANCH    9   10
ATOM     10  N2  UNL A   1      43.183  21.091   1.564  1.00  0.00    +0.000 N 
ATOM    106  H14 UNL A   1      42.809  21.972   1.791  1.00  0.00    +0.000 H 
BRANCH   10   11
ATOM     11  C8  UNL A   1      42.303  20.190   1.017  1.00  0.00    +0.000 C 
ATOM     12  O2  UNL A   1      42.535  19.688  -0.079  1.00  0.00    +0.000 O 
BRANCH   11   13
ATOM    107  H15 UNL A   1      39.855  21.051   0.723  1.00  0.00    +0.000 H 
ATOM     13  C9  UNL A   1      41.127  19.742   1.786  1.00  0.00    +0.000 C 
ATOM     14  C10 UNL A   1      39.898  20.340   1.469  1.00  0.00    +0.000 C 
ATOM     15  C11 UNL A   1      38.730  19.982   2.152  1.00  0.00    +0.000 C 
ATOM    115  H23 UNL A   1      37.974  18.725   3.670  1.00  0.00    +0.000 H 
ATOM    116  H24 UNL A   1      40.104  17.729   4.256  1.00  0.00    +0.000 H 
ATOM     26  C20 UNL A   1      38.826  19.014   3.164  1.00  0.00    +0.000 C 
ATOM     27  C21 UNL A   1      40.054  18.432   3.502  1.00  0.00    +0.000 C 
ATOM     28  C22 UNL A   1      41.208  18.805   2.818  1.00  0.00    +0.000 C 
BRANCH   15   16
ATOM    108  H16 UNL A   1      36.580  19.996   2.075  1.00  0.00    +0.000 H 
ATOM     16  C12 UNL A   1      37.409  20.577   1.871  1.00  0.00    +0.000 C 
BRANCH   16   17
ATOM     17  C13 UNL A   1      37.187  21.804   1.373  1.00  0.00    +0.000 C 
ATOM    109  H17 UNL A   1      37.491  22.621   1.925  1.00  0.00    +0.000 H 
BRANCH   17   18
ATOM    110  H18 UNL A   1      38.272  21.884  -1.115  1.00  0.00    +0.000 H 
ATOM    112  H20 UNL A   1      34.720  22.537  -3.268  1.00  0.00    +0.000 H 
ATOM     18  C14 UNL A   1      36.530  22.042   0.078  1.00  0.00    +0.000 C 
ATOM     19  C15 UNL A   1      37.249  22.027  -1.124  1.00  0.00    +0.000 C 
ATOM    114  H22 UNL A   1      34.594  22.208   0.922  1.00  0.00    +0.000 H 
ATOM     20  C16 UNL A   1      36.582  22.209  -2.335  1.00  0.00    +0.000 C 
ATOM     22  C17 UNL A   1      35.206  22.397  -2.369  1.00  0.00    +0.000 C 
ATOM     23  C18 UNL A   1      34.492  22.396  -1.177  1.00  0.00    +0.000 C 
ATOM     25  C19 UNL A   1      35.138  22.215   0.045  1.00  0.00    +0.000 C 
BRANCH   20   21
ATOM     21  O3  UNL A   1      37.252  22.196  -3.522  1.00  0.00    +0.000 O 
ATOM    111  H19 UNL A   1      38.121  21.849  -3.566  1.00  0.00    +0.000 H 
ENDBRANCH   20   21
BRANCH   23   24
ATOM    113  H21 UNL A   1      32.573  22.049  -0.713  1.00  0.00    +0.000 H 
ATOM     24  O4  UNL A   1      33.141  22.572  -1.245  1.00  0.00    +0.000 O 
ENDBRANCH   23   24
ENDBRANCH   17   18
ENDBRANCH   16   17
ENDBRANCH   15   16
BRANCH   28   29
ATOM    117  H25 UNL A   1      42.642  17.402   2.836  1.00  0.00    +0.000 H 
ATOM     29  O5  UNL A   1      42.407  18.249   3.161  1.00  0.00    +0.000 O 
ENDBRANCH   28   29
ENDBRANCH   11   13
ENDBRANCH   10   11
ENDBRANCH    9   10
ENDBRANCH    8    9
ENDBRANCH    7    8
ENDBRANCH    6    7
ENDBRANCH    5    6
ENDBRANCH    4    5
ENDBRANCH    3    4
ENDBRANCH    2    3
ENDBRANCH   30    2
ENDBRANCH   34   33
BRANCH   38   39
ATOM     39  C31 UNL A   1      52.532  22.462  17.102  1.00  0.00    +0.000 C 
ATOM     40  C32 UNL A   1      52.360  23.852  17.038  1.00  0.00    +0.000 C 
ATOM     41  F1  UNL A   1      53.102  24.586  16.195  1.00  0.00    +0.000 F 
ATOM     42  C33 UNL A   1      51.444  24.500  17.864  1.00  0.00    +0.000 C 
ATOM     43  F2  UNL A   1      51.324  25.834  17.813  1.00  0.00    +0.000 F 
ATOM     44  C34 UNL A   1      50.662  23.769  18.747  1.00  0.00    +0.000 C 
ATOM     45  F3  UNL A   1      49.776  24.393  19.535  1.00  0.00    +0.000 F 
ATOM     46  C35 UNL A   1      50.805  22.391  18.816  1.00  0.00    +0.000 C 
ATOM     47  F4  UNL A   1      50.042  21.682  19.659  1.00  0.00    +0.000 F 
ATOM     48  C36 UNL A   1      51.737  21.744  18.009  1.00  0.00    +0.000 C 
ATOM     49  F5  UNL A   1      51.857  20.412  18.104  1.00  0.00    +0.000 F 
ENDBRANCH   38   39
BRANCH   55   56
ATOM     65  C47 UNL A   1      59.548  18.618  17.965  1.00  0.00    +0.000 C 
ATOM     66  F10 UNL A   1      58.852  17.528  17.607  1.00  0.00    +0.000 F 
ATOM     56  C42 UNL A   1      59.253  19.865  17.394  1.00  0.00    +0.000 C 
ATOM     57  C43 UNL A   1      60.008  20.973  17.805  1.00  0.00    +0.000 C 
ATOM     58  F6  UNL A   1      59.774  22.183  17.275  1.00  0.00    +0.000 F 
ATOM     59  C44 UNL A   1      61.039  20.832  18.730  1.00  0.00    +0.000 C 
ATOM     60  F7  UNL A   1      61.780  21.894  19.071  1.00  0.00    +0.000 F 
ATOM     61  C45 UNL A   1      61.311  19.590  19.285  1.00  0.00    +0.000 C 
ATOM     62  F8  UNL A   1      62.305  19.456  20.175  1.00  0.00    +0.000 F 
ATOM     63  C46 UNL A   1      60.562  18.486  18.909  1.00  0.00    +0.000 C 
ATOM     64  F9  UNL A   1      60.818  17.286  19.451  1.00  0.00    +0.000 F 
ENDBRANCH   55   56
BRANCH   70   71
ATOM     71  C51 UNL A   1      58.746  17.968  10.719  1.00  0.00    +0.000 C 
ATOM     72  C52 UNL A   1      58.792  16.569  10.648  1.00  0.00    +0.000 C 
ATOM     73  F11 UNL A   1      58.021  15.833  11.462  1.00  0.00    +0.000 F 
ATOM     74  C53 UNL A   1      59.651  15.922   9.763  1.00  0.00    +0.000 C 
ATOM     75  F12 UNL A   1      59.701  14.583   9.740  1.00  0.00    +0.000 F 
ATOM     76  C54 UNL A   1      60.460  16.661   8.913  1.00  0.00    +0.000 C 
ATOM     77  F13 UNL A   1      61.279  16.039   8.056  1.00  0.00    +0.000 F 
ATOM     78  C55 UNL A   1      60.424  18.047   8.959  1.00  0.00    +0.000 C 
ATOM     79  F14 UNL A   1      61.193  18.765   8.128  1.00  0.00    +0.000 F 
ATOM     80  C56 UNL A   1      59.586  18.694   9.862  1.00  0.00    +0.000 C 
ATOM     81  F15 UNL A   1      59.575  20.035   9.889  1.00  0.00    +0.000 F 
ENDBRANCH   70   71
TORSDOF 21
ENDMDL
MODEL 3
REMARK VINA RESULT:     -10.4     36.494     42.035
ROOT
ATOM    129  H37 UNL A   1      14.909  56.311   4.850  1.00  0.00    +0.000 H 
ATOM     34  C27 UNL A   1      13.757  53.712   5.123  1.00  0.00    +0.000 C 
ATOM     35  C28 UNL A   1      14.742  54.182   4.089  1.00  0.00    +0.000 C 
ATOM     36  N3  UNL A   1      15.293  53.510   3.107  1.00  0.00    +0.000 N 
ATOM     37  C29 UNL A   1      16.098  54.415   2.428  1.00  0.00    +0.000 C 
ATOM     38  C30 UNL A   1      16.890  54.198   1.350  1.00  0.00    +0.000 C 
ATOM     50  C37 UNL A   1      17.058  52.920   0.706  1.00  0.00    +0.000 C 
ATOM     51  C38 UNL A   1      17.880  52.591  -0.358  1.00  0.00    +0.000 C 
ATOM     52  C39 UNL A   1      17.678  51.241  -0.668  1.00  0.00    +0.000 C 
ATOM     53  C40 UNL A   1      16.763  50.718   0.232  1.00  0.00    +0.000 C 
ATOM     54  N4  UNL A   1      16.388  51.760   1.066  1.00  0.00    +0.000 N 
ATOM     55  C41 UNL A   1      16.266  49.370   0.324  1.00  0.00    +0.000 C 
ATOM     67  C48 UNL A   1      15.375  48.932   1.246  1.00  0.00    +0.000 C 
ATOM     68  N5  UNL A   1      14.760  49.639   2.269  1.00  0.00    +0.000 N 
ATOM     69  C49 UNL A   1      13.969  48.786   2.870  1.00  0.00    +0.000 C 
ATOM     70  C50 UNL A   1      13.074  48.998   4.058  1.00  0.00    +0.000 C 
ATOM     82  C57 UNL A   1      12.993  50.224   4.608  1.00  0.00    +0.000 C 
ATOM     83  C58 UNL A   1      12.175  50.573   5.765  1.00  0.00    +0.000 C 
ATOM     84  C59 UNL A   1      12.332  51.878   6.031  1.00  0.00    +0.000 C 
ATOM     85  C60 UNL A   1      13.301  52.445   5.093  1.00  0.00    +0.000 C 
ATOM     86  N6  UNL A   1      13.611  51.399   4.260  1.00  0.00    +0.000 N 
ATOM     87  C61 UNL A   1      13.978  47.439   2.286  1.00  0.00    +0.000 C 
ATOM     88  C62 UNL A   1      14.880  47.572   1.323  1.00  0.00    +0.000 C 
ATOM     89  C63 UNL A   1      15.952  55.691   3.095  1.00  0.00    +0.000 C 
ATOM     90  C64 UNL A   1      15.162  55.589   4.156  1.00  0.00    +0.000 C 
ATOM    120  H28 UNL A   1      18.529  53.231  -0.841  1.00  0.00    +0.000 H 
ATOM    121  H29 UNL A   1      18.133  50.722  -1.435  1.00  0.00    +0.000 H 
ATOM    122  H30 UNL A   1      15.741  51.687   1.805  1.00  0.00    +0.000 H 
ATOM    123  H31 UNL A   1      11.574  49.921   6.294  1.00  0.00    +0.000 H 
ATOM    124  H32 UNL A   1      11.847  52.399   6.777  1.00  0.00    +0.000 H 
ATOM    125  H33 UNL A   1      14.216  51.483   3.489  1.00  0.00    +0.000 H 
ATOM    126  H34 UNL A   1      13.428  46.607   2.554  1.00  0.00    +0.000 H 
ATOM    127  H35 UNL A   1      15.190  46.804   0.707  1.00  0.00    +0.000 H 
ATOM    128  H36 UNL A   1      16.403  56.565   2.785  1.00  0.00    +0.000 H 
ENDROOT
BRANCH   34   33
ATOM     33  C26 UNL A   1      13.303  54.610   6.218  1.00  0.00    +0.000 C 
ATOM    130  H38 UNL A   1      14.967  54.307   7.490  1.00  0.00    +0.000 H 
ATOM    131  H39 UNL A   1      14.108  55.676   9.303  1.00  0.00    +0.000 H 
ATOM    118  H26 UNL A   1      10.839  56.790   6.905  1.00  0.00    +0.000 H 
ATOM    119  H27 UNL A   1      11.547  55.216   5.206  1.00  0.00    +0.000 H 
ATOM     91  C65 UNL A   1      14.054  54.778   7.391  1.00  0.00    +0.000 C 
ATOM     92  C66 UNL A   1      13.571  55.583   8.427  1.00  0.00    +0.000 C 
ATOM     30  C23 UNL A   1      12.358  56.262   8.275  1.00  0.00    +0.000 C 
ATOM     31  C24 UNL A   1      11.669  56.197   7.062  1.00  0.00    +0.000 C 
ATOM     32  C25 UNL A   1      12.106  55.330   6.065  1.00  0.00    +0.000 C 
BRANCH   30    2
ATOM      1  O1  UNL A   1      11.826  58.260   9.380  1.00  0.00    +0.000 O 
ATOM      2  C1  UNL A   1      11.819  57.033   9.417  1.00  0.00    +0.000 C 
BRANCH    2    3
ATOM      3  N1  UNL A   1      11.349  56.376  10.529  1.00  0.00    +0.000 N 
ATOM     93  H1  UNL A   1      11.888  56.489  11.345  1.00  0.00    +0.000 H 
BRANCH    3    4
ATOM      4  C2  UNL A   1      10.170  55.537  10.675  1.00  0.00    +0.000 C 
ATOM     94  H2  UNL A   1       9.351  56.015  10.180  1.00  0.00    +0.000 H 
ATOM     95  H3  UNL A   1       9.994  55.417  11.723  1.00  0.00    +0.000 H 
BRANCH    4    5
ATOM     97  H5  UNL A   1       9.525  53.565  10.451  1.00  0.00    +0.000 H 
ATOM      5  C3  UNL A   1      10.346  54.145  10.083  1.00  0.00    +0.000 C 
ATOM     96  H4  UNL A   1      10.367  54.238   9.019  1.00  0.00    +0.000 H 
BRANCH    5    6
ATOM     98  H6  UNL A   1      11.478  53.095  11.532  1.00  0.00    +0.000 H 
ATOM     99  H7  UNL A   1      12.416  54.085  10.363  1.00  0.00    +0.000 H 
ATOM      6  C4  UNL A   1      11.608  53.399  10.514  1.00  0.00    +0.000 C 
BRANCH    6    7
ATOM    100  H8  UNL A   1      13.028  52.128   9.590  1.00  0.00    +0.000 H 
ATOM    101  H9  UNL A   1      11.434  52.258   8.772  1.00  0.00    +0.000 H 
ATOM      7  C5  UNL A   1      11.964  52.156   9.696  1.00  0.00    +0.000 C 
BRANCH    7    8
ATOM    102  H10 UNL A   1      10.504  50.918  10.610  1.00  0.00    +0.000 H 
ATOM    103  H11 UNL A   1      12.209  50.591  11.066  1.00  0.00    +0.000 H 
ATOM      8  C6  UNL A   1      11.516  50.811  10.280  1.00  0.00    +0.000 C 
BRANCH    8    9
ATOM      9  C7  UNL A   1      11.578  49.621   9.326  1.00  0.00    +0.000 C 
ATOM    105  H13 UNL A   1      11.171  48.773   9.835  1.00  0.00    +0.000 H 
ATOM    104  H12 UNL A   1      11.014  49.855   8.447  1.00  0.00    +0.000 H 
BRANCH    9   10
ATOM     10  N2  UNL A   1      12.936  49.298   8.938  1.00  0.00    +0.000 N 
ATOM    106  H14 UNL A   1      13.225  49.644   8.063  1.00  0.00    +0.000 H 
BRANCH   10   11
ATOM     11  C8  UNL A   1      13.870  48.572   9.633  1.00  0.00    +0.000 C 
ATOM     12  O2  UNL A   1      13.754  47.354   9.734  1.00  0.00    +0.000 O 
BRANCH   11   13
ATOM    107  H15 UNL A   1      13.913  50.363  11.533  1.00  0.00    +0.000 H 
ATOM     13  C9  UNL A   1      15.071  49.233  10.175  1.00  0.00    +0.000 C 
ATOM     14  C10 UNL A   1      14.869  50.173  11.197  1.00  0.00    +0.000 C 
ATOM     15  C11 UNL A   1      15.951  50.856  11.766  1.00  0.00    +0.000 C 
ATOM    115  H23 UNL A   1      18.051  51.058  11.697  1.00  0.00    +0.000 H 
ATOM    116  H24 UNL A   1      18.397  49.473   9.896  1.00  0.00    +0.000 H 
ATOM     26  C20 UNL A   1      17.239  50.577  11.281  1.00  0.00    +0.000 C 
ATOM     27  C21 UNL A   1      17.443  49.657  10.245  1.00  0.00    +0.000 C 
ATOM     28  C22 UNL A   1      16.356  48.993   9.684  1.00  0.00    +0.000 C 
BRANCH   15   16
ATOM    108  H16 UNL A   1      16.260  51.650  13.741  1.00  0.00    +0.000 H 
ATOM     16  C12 UNL A   1      15.806  51.860  12.838  1.00  0.00    +0.000 C 
BRANCH   16   17
ATOM     17  C13 UNL A   1      15.135  53.020  12.747  1.00  0.00    +0.000 C 
ATOM    109  H17 UNL A   1      15.578  53.805  12.246  1.00  0.00    +0.000 H 
BRANCH   17   18
ATOM    110  H18 UNL A   1      13.411  51.195  13.780  1.00  0.00    +0.000 H 
ATOM    112  H20 UNL A   1      10.380  53.865  14.945  1.00  0.00    +0.000 H 
ATOM     18  C14 UNL A   1      13.799  53.226  13.327  1.00  0.00    +0.000 C 
ATOM     19  C15 UNL A   1      13.047  52.159  13.837  1.00  0.00    +0.000 C 
ATOM    114  H22 UNL A   1      13.853  55.329  13.081  1.00  0.00    +0.000 H 
ATOM     20  C16 UNL A   1      11.806  52.403  14.423  1.00  0.00    +0.000 C 
ATOM     22  C17 UNL A   1      11.302  53.694  14.516  1.00  0.00    +0.000 C 
ATOM     23  C18 UNL A   1      12.056  54.752  14.024  1.00  0.00    +0.000 C 
ATOM     25  C19 UNL A   1      13.300  54.533  13.435  1.00  0.00    +0.000 C 
BRANCH   20   21
ATOM     21  O3  UNL A   1      11.052  51.387  14.933  1.00  0.00    +0.000 O 
ATOM    111  H19 UNL A   1      10.296  51.086  14.469  1.00  0.00    +0.000 H 
ENDBRANCH   20   21
BRANCH   23   24
ATOM    113  H21 UNL A   1      10.730  56.225  13.718  1.00  0.00    +0.000 H 
ATOM     24  O4  UNL A   1      11.539  56.009  14.141  1.00  0.00    +0.000 O 
ENDBRANCH   23   24
ENDBRANCH   17   18
ENDBRANCH   16   17
ENDBRANCH   15   16
BRANCH   28   29
ATOM    117  H25 UNL A   1      17.005  47.303   8.819  1.00  0.00    +0.000 H 
ATOM     29  O5  UNL A   1      16.556  48.111   8.661  1.00  0.00    +0.000 O 
ENDBRANCH   28   29
ENDBRANCH   11   13
ENDBRANCH   10   11
ENDBRANCH    9   10
ENDBRANCH    8    9
ENDBRANCH    7    8
ENDBRANCH    6    7
ENDBRANCH    5    6
ENDBRANCH    4    5
ENDBRANCH    3    4
ENDBRANCH    2    3
ENDBRANCH   30    2
ENDBRANCH   34   33
BRANCH   38   39
ATOM     39  C31 UNL A   1      17.632  55.373   0.783  1.00  0.00    +0.000 C 
ATOM     40  C32 UNL A   1      18.908  55.733   1.239  1.00  0.00    +0.000 C 
ATOM     41  F1  UNL A   1      19.479  55.057   2.248  1.00  0.00    +0.000 F 
ATOM     42  C33 UNL A   1      19.592  56.810   0.682  1.00  0.00    +0.000 C 
ATOM     43  F2  UNL A   1      20.794  57.159   1.160  1.00  0.00    +0.000 F 
ATOM     44  C34 UNL A   1      19.028  57.529  -0.362  1.00  0.00    +0.000 C 
ATOM     45  F3  UNL A   1      19.691  58.561  -0.903  1.00  0.00    +0.000 F 
ATOM     46  C35 UNL A   1      17.774  57.182  -0.840  1.00  0.00    +0.000 C 
ATOM     47  F4  UNL A   1      17.232  57.868  -1.857  1.00  0.00    +0.000 F 
ATOM     48  C36 UNL A   1      17.077  56.120  -0.268  1.00  0.00    +0.000 C 
ATOM     49  F5  UNL A   1      15.862  55.814  -0.747  1.00  0.00    +0.000 F 
ENDBRANCH   38   39
BRANCH   55   56
ATOM     65  C47 UNL A   1      18.051  47.782  -0.475  1.00  0.00    +0.000 C 
ATOM     66  F10 UNL A   1      18.806  48.122   0.580  1.00  0.00    +0.000 F 
ATOM     56  C42 UNL A   1      16.784  48.358  -0.655  1.00  0.00    +0.000 C 
ATOM     57  C43 UNL A   1      16.037  47.972  -1.776  1.00  0.00    +0.000 C 
ATOM     58  F6  UNL A   1      14.814  48.483  -1.981  1.00  0.00    +0.000 F 
ATOM     59  C44 UNL A   1      16.527  47.022  -2.669  1.00  0.00    +0.000 C 
ATOM     60  F7  UNL A   1      15.776  46.631  -3.706  1.00  0.00    +0.000 F 
ATOM     61  C45 UNL A   1      17.784  46.468  -2.475  1.00  0.00    +0.000 C 
ATOM     62  F8  UNL A   1      18.254  45.553  -3.334  1.00  0.00    +0.000 F 
ATOM     63  C46 UNL A   1      18.549  46.853  -1.384  1.00  0.00    +0.000 C 
ATOM     64  F9  UNL A   1      19.767  46.324  -1.200  1.00  0.00    +0.000 F 
ENDBRANCH   55   56
BRANCH   70   71
ATOM     71  C51 UNL A   1      12.296  47.876   4.641  1.00  0.00    +0.000 C 
ATOM     72  C52 UNL A   1      12.746  47.210   5.788  1.00  0.00    +0.000 C 
ATOM     73  F11 UNL A   1      13.910  47.561   6.354  1.00  0.00    +0.000 F 
ATOM     74  C53 UNL A   1      12.016  46.160   6.341  1.00  0.00    +0.000 C 
ATOM     75  F12 UNL A   1      12.485  45.515   7.418  1.00  0.00    +0.000 F 
ATOM     76  C54 UNL A   1      10.812  45.774   5.773  1.00  0.00    +0.000 C 
ATOM     77  F13 UNL A   1      10.106  44.771   6.310  1.00  0.00    +0.000 F 
ATOM     78  C55 UNL A   1      10.342  46.427   4.643  1.00  0.00    +0.000 C 
ATOM     79  F14 UNL A   1       9.170  46.068   4.099  1.00  0.00    +0.000 F 
ATOM     80  C56 UNL A   1      11.084  47.458   4.074  1.00  0.00    +0.000 C 
ATOM     81  F15 UNL A   1      10.610  48.068   2.977  1.00  0.00    +0.000 F 
ENDBRANCH   70   71
TORSDOF 21
ENDMDL
MODEL 4
REMARK VINA RESULT:     -10.4      2.046      4.668
ROOT
ATOM    129  H37 UNL A   1      36.724  31.729  31.511  1.00  0.00    +0.000 H 
ATOM     34  C27 UNL A   1      38.304  29.974  29.903  1.00  0.00    +0.000 C 
ATOM     35  C28 UNL A   1      38.577  30.438  31.307  1.00  0.00    +0.000 C 
ATOM     36  N3  UNL A   1      39.577  30.134  32.098  1.00  0.00    +0.000 N 
ATOM     37  C29 UNL A   1      39.374  30.855  33.267  1.00  0.00    +0.000 C 
ATOM     38  C30 UNL A   1      40.126  30.864  34.395  1.00  0.00    +0.000 C 
ATOM     50  C37 UNL A   1      41.313  30.070  34.591  1.00  0.00    +0.000 C 
ATOM     51  C38 UNL A   1      42.109  29.972  35.719  1.00  0.00    +0.000 C 
ATOM     52  C39 UNL A   1      43.175  29.112  35.430  1.00  0.00    +0.000 C 
ATOM     53  C40 UNL A   1      43.018  28.640  34.137  1.00  0.00    +0.000 C 
ATOM     54  N4  UNL A   1      41.873  29.240  33.633  1.00  0.00    +0.000 N 
ATOM     55  C41 UNL A   1      43.849  27.713  33.413  1.00  0.00    +0.000 C 
ATOM     67  C48 UNL A   1      43.619  27.289  32.147  1.00  0.00    +0.000 C 
ATOM     68  N5  UNL A   1      42.583  27.628  31.288  1.00  0.00    +0.000 N 
ATOM     69  C49 UNL A   1      42.814  26.979  30.174  1.00  0.00    +0.000 C 
ATOM     70  C50 UNL A   1      42.007  26.956  28.907  1.00  0.00    +0.000 C 
ATOM     82  C57 UNL A   1      40.901  27.716  28.819  1.00  0.00    +0.000 C 
ATOM     83  C58 UNL A   1      40.019  27.786  27.659  1.00  0.00    +0.000 C 
ATOM     84  C59 UNL A   1      39.025  28.648  27.919  1.00  0.00    +0.000 C 
ATOM     85  C60 UNL A   1      39.173  29.152  29.285  1.00  0.00    +0.000 C 
ATOM     86  N6  UNL A   1      40.335  28.575  29.729  1.00  0.00    +0.000 N 
ATOM     87  C61 UNL A   1      44.035  26.165  30.192  1.00  0.00    +0.000 C 
ATOM     88  C62 UNL A   1      44.468  26.359  31.430  1.00  0.00    +0.000 C 
ATOM     89  C63 UNL A   1      38.165  31.627  33.081  1.00  0.00    +0.000 C 
ATOM     90  C64 UNL A   1      37.609  31.370  31.904  1.00  0.00    +0.000 C 
ATOM    120  H28 UNL A   1      41.946  30.452  36.618  1.00  0.00    +0.000 H 
ATOM    121  H29 UNL A   1      43.947  28.870  36.071  1.00  0.00    +0.000 H 
ATOM    122  H30 UNL A   1      41.513  29.096  32.728  1.00  0.00    +0.000 H 
ATOM    123  H31 UNL A   1      40.141  27.258  26.781  1.00  0.00    +0.000 H 
ATOM    124  H32 UNL A   1      38.276  28.914  27.261  1.00  0.00    +0.000 H 
ATOM    125  H33 UNL A   1      40.726  28.758  30.614  1.00  0.00    +0.000 H 
ATOM    126  H34 UNL A   1      44.449  25.591  29.439  1.00  0.00    +0.000 H 
ATOM    127  H35 UNL A   1      45.304  25.905  31.832  1.00  0.00    +0.000 H 
ATOM    128  H36 UNL A   1      37.786  32.293  33.772  1.00  0.00    +0.000 H 
ENDROOT
BRANCH   34   33
ATOM     33  C26 UNL A   1      37.060  30.370  29.191  1.00  0.00    +0.000 C 
ATOM    130  H38 UNL A   1      37.623  32.373  28.807  1.00  0.00    +0.000 H 
ATOM    131  H39 UNL A   1      35.514  33.000  27.778  1.00  0.00    +0.000 H 
ATOM    118  H26 UNL A   1      34.207  29.013  28.046  1.00  0.00    +0.000 H 
ATOM    119  H27 UNL A   1      36.189  28.446  29.317  1.00  0.00    +0.000 H 
ATOM     91  C65 UNL A   1      36.870  31.674  28.710  1.00  0.00    +0.000 C 
ATOM     92  C66 UNL A   1      35.664  32.030  28.098  1.00  0.00    +0.000 C 
ATOM     30  C23 UNL A   1      34.662  31.071  27.921  1.00  0.00    +0.000 C 
ATOM     31  C24 UNL A   1      34.895  29.743  28.285  1.00  0.00    +0.000 C 
ATOM     32  C25 UNL A   1      36.059  29.409  28.969  1.00  0.00    +0.000 C 
BRANCH   30    2
ATOM      1  O1  UNL A   1      33.040  32.675  27.378  1.00  0.00    +0.000 O 
ATOM      2  C1  UNL A   1      33.360  31.490  27.356  1.00  0.00    +0.000 C 
BRANCH    2    3
ATOM      3  N1  UNL A   1      32.498  30.549  26.846  1.00  0.00    +0.000 N 
ATOM     93  H1  UNL A   1      31.807  30.227  27.470  1.00  0.00    +0.000 H 
BRANCH    3    4
ATOM      4  C2  UNL A   1      32.458  29.959  25.518  1.00  0.00    +0.000 C 
ATOM     94  H2  UNL A   1      32.783  30.694  24.811  1.00  0.00    +0.000 H 
ATOM     95  H3  UNL A   1      31.451  29.646  25.340  1.00  0.00    +0.000 H 
BRANCH    4    5
ATOM     97  H5  UNL A   1      34.237  28.948  25.928  1.00  0.00    +0.000 H 
ATOM      5  C3  UNL A   1      33.346  28.729  25.379  1.00  0.00    +0.000 C 
ATOM     96  H4  UNL A   1      32.804  27.887  25.753  1.00  0.00    +0.000 H 
BRANCH    5    6
ATOM     98  H6  UNL A   1      33.768  27.339  23.839  1.00  0.00    +0.000 H 
ATOM     99  H7  UNL A   1      34.781  28.821  23.863  1.00  0.00    +0.000 H 
ATOM      6  C4  UNL A   1      33.801  28.402  23.958  1.00  0.00    +0.000 C 
BRANCH    6    7
ATOM    100  H8  UNL A   1      33.650  29.321  22.055  1.00  0.00    +0.000 H 
ATOM    101  H9  UNL A   1      32.438  29.833  23.279  1.00  0.00    +0.000 H 
ATOM      7  C5  UNL A   1      32.974  29.024  22.829  1.00  0.00    +0.000 C 
BRANCH    7    8
ATOM    102  H10 UNL A   1      32.104  27.117  22.504  1.00  0.00    +0.000 H 
ATOM    103  H11 UNL A   1      31.981  28.280  21.142  1.00  0.00    +0.000 H 
ATOM      8  C6  UNL A   1      31.907  28.124  22.198  1.00  0.00    +0.000 C 
BRANCH    8    9
ATOM      9  C7  UNL A   1      30.462  28.451  22.566  1.00  0.00    +0.000 C 
ATOM    105  H13 UNL A   1      30.388  29.512  22.690  1.00  0.00    +0.000 H 
ATOM    104  H12 UNL A   1      29.820  28.105  21.782  1.00  0.00    +0.000 H 
BRANCH    9   10
ATOM     10  N2  UNL A   1      30.057  27.829  23.810  1.00  0.00    +0.000 N 
ATOM    106  H14 UNL A   1      29.982  28.430  24.585  1.00  0.00    +0.000 H 
BRANCH   10   11
ATOM     11  C8  UNL A   1      29.764  26.509  24.045  1.00  0.00    +0.000 C 
ATOM     12  O2  UNL A   1      28.704  26.032  23.650  1.00  0.00    +0.000 O 
BRANCH   11   13
ATOM    107  H15 UNL A   1      32.043  25.765  23.008  1.00  0.00    +0.000 H 
ATOM     13  C9  UNL A   1      30.762  25.629  24.682  1.00  0.00    +0.000 C 
ATOM     14  C10 UNL A   1      31.923  25.351  23.945  1.00  0.00    +0.000 C 
ATOM     15  C11 UNL A   1      32.921  24.519  24.467  1.00  0.00    +0.000 C 
ATOM    115  H23 UNL A   1      33.452  23.366  26.153  1.00  0.00    +0.000 H 
ATOM    116  H24 UNL A   1      31.423  23.801  27.406  1.00  0.00    +0.000 H 
ATOM     26  C20 UNL A   1      32.722  23.969  25.743  1.00  0.00    +0.000 C 
ATOM     27  C21 UNL A   1      31.554  24.224  26.473  1.00  0.00    +0.000 C 
ATOM     28  C22 UNL A   1      30.568  25.046  25.936  1.00  0.00    +0.000 C 
BRANCH   15   16
ATOM    108  H16 UNL A   1      34.584  24.929  23.166  1.00  0.00    +0.000 H 
ATOM     16  C12 UNL A   1      34.161  24.184  23.742  1.00  0.00    +0.000 C 
BRANCH   16   17
ATOM     17  C13 UNL A   1      34.790  22.997  23.762  1.00  0.00    +0.000 C 
ATOM    109  H17 UNL A   1      34.362  22.206  23.256  1.00  0.00    +0.000 H 
BRANCH   17   18
ATOM    110  H18 UNL A   1      36.258  24.726  25.253  1.00  0.00    +0.000 H 
ATOM    112  H20 UNL A   1      39.294  22.055  26.403  1.00  0.00    +0.000 H 
ATOM     18  C14 UNL A   1      36.058  22.769  24.472  1.00  0.00    +0.000 C 
ATOM     19  C15 UNL A   1      36.674  23.782  25.219  1.00  0.00    +0.000 C 
ATOM    114  H22 UNL A   1      36.169  20.726  23.925  1.00  0.00    +0.000 H 
ATOM     20  C16 UNL A   1      37.850  23.511  25.917  1.00  0.00    +0.000 C 
ATOM     22  C17 UNL A   1      38.420  22.245  25.889  1.00  0.00    +0.000 C 
ATOM     23  C18 UNL A   1      37.800  21.238  25.161  1.00  0.00    +0.000 C 
ATOM     25  C19 UNL A   1      36.623  21.485  24.456  1.00  0.00    +0.000 C 
BRANCH   20   21
ATOM     21  O3  UNL A   1      38.471  24.474  26.657  1.00  0.00    +0.000 O 
ATOM    111  H19 UNL A   1      38.313  25.379  26.476  1.00  0.00    +0.000 H 
ENDBRANCH   20   21
BRANCH   23   24
ATOM    113  H21 UNL A   1      39.199  19.869  24.729  1.00  0.00    +0.000 H 
ATOM     24  O4  UNL A   1      38.379  20.003  25.162  1.00  0.00    +0.000 O 
ENDBRANCH   23   24
ENDBRANCH   17   18
ENDBRANCH   16   17
ENDBRANCH   15   16
BRANCH   28   29
ATOM    117  H25 UNL A   1      28.605  25.372  26.191  1.00  0.00    +0.000 H 
ATOM     29  O5  UNL A   1      29.421  25.278  26.641  1.00  0.00    +0.000 O 
ENDBRANCH   28   29
ENDBRANCH   11   13
ENDBRANCH   10   11
ENDBRANCH    9   10
ENDBRANCH    8    9
ENDBRANCH    7    8
ENDBRANCH    6    7
ENDBRANCH    5    6
ENDBRANCH    4    5
ENDBRANCH    3    4
ENDBRANCH    2    3
ENDBRANCH   30    2
ENDBRANCH   34   33
BRANCH   38   39
ATOM     39  C31 UNL A   1      39.697  31.774  35.510  1.00  0.00    +0.000 C 
ATOM     40  C32 UNL A   1      40.238  33.058  35.666  1.00  0.00    +0.000 C 
ATOM     41  F1  UNL A   1      41.207  33.487  34.842  1.00  0.00    +0.000 F 
ATOM     42  C33 UNL A   1      39.807  33.898  36.690  1.00  0.00    +0.000 C 
ATOM     43  F2  UNL A   1      40.366  35.107  36.843  1.00  0.00    +0.000 F 
ATOM     44  C34 UNL A   1      38.807  33.484  37.558  1.00  0.00    +0.000 C 
ATOM     45  F3  UNL A   1      38.389  34.296  38.538  1.00  0.00    +0.000 F 
ATOM     46  C35 UNL A   1      38.247  32.224  37.413  1.00  0.00    +0.000 C 
ATOM     47  F4  UNL A   1      37.273  31.826  38.243  1.00  0.00    +0.000 F 
ATOM     48  C36 UNL A   1      38.693  31.372  36.405  1.00  0.00    +0.000 C 
ATOM     49  F5  UNL A   1      38.137  30.157  36.295  1.00  0.00    +0.000 F 
ENDBRANCH   38   39
BRANCH   55   56
ATOM     65  C47 UNL A   1      46.291  27.797  34.026  1.00  0.00    +0.000 C 
ATOM     66  F10 UNL A   1      46.413  28.935  33.325  1.00  0.00    +0.000 F 
ATOM     56  C42 UNL A   1      45.050  27.149  34.112  1.00  0.00    +0.000 C 
ATOM     57  C43 UNL A   1      44.977  25.961  34.853  1.00  0.00    +0.000 C 
ATOM     58  F6  UNL A   1      43.808  25.315  34.979  1.00  0.00    +0.000 F 
ATOM     59  C44 UNL A   1      46.098  25.457  35.508  1.00  0.00    +0.000 C 
ATOM     60  F7  UNL A   1      45.994  24.348  36.251  1.00  0.00    +0.000 F 
ATOM     61  C45 UNL A   1      47.317  26.112  35.405  1.00  0.00    +0.000 C 
ATOM     62  F8  UNL A   1      48.395  25.626  36.037  1.00  0.00    +0.000 F 
ATOM     63  C46 UNL A   1      47.416  27.276  34.659  1.00  0.00    +0.000 C 
ATOM     64  F9  UNL A   1      48.595  27.905  34.552  1.00  0.00    +0.000 F 
ENDBRANCH   55   56
BRANCH   70   71
ATOM     71  C51 UNL A   1      42.402  26.095  27.764  1.00  0.00    +0.000 C 
ATOM     72  C52 UNL A   1      43.325  26.544  26.811  1.00  0.00    +0.000 C 
ATOM     73  F11 UNL A   1      43.839  27.780  26.906  1.00  0.00    +0.000 F 
ATOM     74  C53 UNL A   1      43.701  25.737  25.740  1.00  0.00    +0.000 C 
ATOM     75  F12 UNL A   1      44.559  26.204  24.821  1.00  0.00    +0.000 F 
ATOM     76  C54 UNL A   1      43.182  24.458  25.616  1.00  0.00    +0.000 C 
ATOM     77  F13 UNL A   1      43.551  23.679  24.591  1.00  0.00    +0.000 F 
ATOM     78  C55 UNL A   1      42.274  23.988  26.554  1.00  0.00    +0.000 C 
ATOM     79  F14 UNL A   1      41.782  22.746  26.447  1.00  0.00    +0.000 F 
ATOM     80  C56 UNL A   1      41.877  24.804  27.610  1.00  0.00    +0.000 C 
ATOM     81  F15 UNL A   1      40.994  24.327  28.499  1.00  0.00    +0.000 F 
ENDBRANCH   70   71
TORSDOF 21
ENDMDL
MODEL 5
REMARK VINA RESULT:     -10.3     17.594     23.901
ROOT
ATOM    129  H37 UNL A   1      22.981  36.699  48.478  1.00  0.00    +0.000 H 
ATOM     34  C27 UNL A   1      25.366  38.271  48.496  1.00  0.00    +0.000 C 
ATOM     35  C28 UNL A   1      25.104  36.998  47.739  1.00  0.00    +0.000 C 
ATOM     36  N3  UNL A   1      25.894  36.345  46.922  1.00  0.00    +0.000 N 
ATOM     37  C29 UNL A   1      25.185  35.220  46.522  1.00  0.00    +0.000 C 
ATOM     38  C30 UNL A   1      25.566  34.242  45.663  1.00  0.00    +0.000 C 
ATOM     50  C37 UNL A   1      26.827  34.215  44.966  1.00  0.00    +0.000 C 
ATOM     51  C38 UNL A   1      27.279  33.295  44.035  1.00  0.00    +0.000 C 
ATOM     52  C39 UNL A   1      28.579  33.652  43.662  1.00  0.00    +0.000 C 
ATOM     53  C40 UNL A   1      28.921  34.819  44.327  1.00  0.00    +0.000 C 
ATOM     54  N4  UNL A   1      27.837  35.150  45.126  1.00  0.00    +0.000 N 
ATOM     55  C41 UNL A   1      30.143  35.575  44.242  1.00  0.00    +0.000 C 
ATOM     67  C48 UNL A   1      30.397  36.721  44.920  1.00  0.00    +0.000 C 
ATOM     68  N5  UNL A   1      29.584  37.404  45.812  1.00  0.00    +0.000 N 
ATOM     69  C49 UNL A   1      30.283  38.435  46.217  1.00  0.00    +0.000 C 
ATOM     70  C50 UNL A   1      29.893  39.527  47.172  1.00  0.00    +0.000 C 
ATOM     82  C57 UNL A   1      28.686  39.482  47.765  1.00  0.00    +0.000 C 
ATOM     83  C58 UNL A   1      28.172  40.474  48.703  1.00  0.00    +0.000 C 
ATOM     84  C59 UNL A   1      26.945  40.105  49.098  1.00  0.00    +0.000 C 
ATOM     85  C60 UNL A   1      26.566  38.876  48.399  1.00  0.00    +0.000 C 
ATOM     86  N6  UNL A   1      27.675  38.557  47.659  1.00  0.00    +0.000 N 
ATOM     87  C61 UNL A   1      31.630  38.515  45.639  1.00  0.00    +0.000 C 
ATOM     88  C62 UNL A   1      31.635  37.468  44.827  1.00  0.00    +0.000 C 
ATOM     89  C63 UNL A   1      23.907  35.265  47.198  1.00  0.00    +0.000 C 
ATOM     90  C64 UNL A   1      23.788  36.368  47.926  1.00  0.00    +0.000 C 
ATOM    120  H28 UNL A   1      26.748  32.486  43.679  1.00  0.00    +0.000 H 
ATOM    121  H29 UNL A   1      29.182  33.135  43.004  1.00  0.00    +0.000 H 
ATOM    122  H30 UNL A   1      27.794  35.935  45.721  1.00  0.00    +0.000 H 
ATOM    123  H31 UNL A   1      28.672  41.322  49.012  1.00  0.00    +0.000 H 
ATOM    124  H32 UNL A   1      26.361  40.607  49.784  1.00  0.00    +0.000 H 
ATOM    125  H33 UNL A   1      27.742  37.746  47.105  1.00  0.00    +0.000 H 
ATOM    126  H34 UNL A   1      32.377  39.206  45.819  1.00  0.00    +0.000 H 
ATOM    127  H35 UNL A   1      32.422  37.217  44.207  1.00  0.00    +0.000 H 
ATOM    128  H36 UNL A   1      23.183  34.534  47.126  1.00  0.00    +0.000 H 
ENDROOT
BRANCH   34   33
ATOM     33  C26 UNL A   1      24.306  38.908  49.320  1.00  0.00    +0.000 C 
ATOM    130  H38 UNL A   1      24.809  37.961  51.144  1.00  0.00    +0.000 H 
ATOM    131  H39 UNL A   1      22.971  38.924  52.405  1.00  0.00    +0.000 H 
ATOM    118  H26 UNL A   1      21.907  41.248  49.067  1.00  0.00    +0.000 H 
ATOM    119  H27 UNL A   1      23.561  40.088  47.730  1.00  0.00    +0.000 H 
ATOM     91  C65 UNL A   1      24.150  38.606  50.681  1.00  0.00    +0.000 C 
ATOM     92  C66 UNL A   1      23.105  39.177  51.414  1.00  0.00    +0.000 C 
ATOM     30  C23 UNL A   1      22.241  40.090  50.801  1.00  0.00    +0.000 C 
ATOM     31  C24 UNL A   1      22.468  40.488  49.482  1.00  0.00    +0.000 C 
ATOM     32  C25 UNL A   1      23.454  39.857  48.730  1.00  0.00    +0.000 C 
BRANCH   30    2
ATOM      1  O1  UNL A   1      20.945  41.822  51.706  1.00  0.00    +0.000 O 
ATOM      2  C1  UNL A   1      21.086  40.610  51.567  1.00  0.00    +0.000 C 
BRANCH    2    3
ATOM      3  N1  UNL A   1      20.199  39.738  52.151  1.00  0.00    +0.000 N 
ATOM     93  H1  UNL A   1      20.415  39.472  53.074  1.00  0.00    +0.000 H 
BRANCH    3    4
ATOM      4  C2  UNL A   1      18.988  39.149  51.602  1.00  0.00    +0.000 C 
ATOM     94  H2  UNL A   1      18.145  39.666  52.009  1.00  0.00    +0.000 H 
ATOM     95  H3  UNL A   1      18.992  38.112  51.866  1.00  0.00    +0.000 H 
BRANCH    4    5
ATOM     97  H5  UNL A   1      17.874  39.227  49.839  1.00  0.00    +0.000 H 
ATOM      5  C3  UNL A   1      18.916  39.228  50.083  1.00  0.00    +0.000 C 
ATOM     96  H4  UNL A   1      19.431  40.113  49.773  1.00  0.00    +0.000 H 
BRANCH    5    6
ATOM     98  H6  UNL A   1      20.518  38.310  49.049  1.00  0.00    +0.000 H 
ATOM     99  H7  UNL A   1      18.868  37.862  48.503  1.00  0.00    +0.000 H 
ATOM      6  C4  UNL A   1      19.521  38.044  49.330  1.00  0.00    +0.000 C 
BRANCH    6    7
ATOM    100  H8  UNL A   1      19.012  36.001  49.563  1.00  0.00    +0.000 H 
ATOM    101  H9  UNL A   1      19.213  36.943  51.080  1.00  0.00    +0.000 H 
ATOM      7  C5  UNL A   1      19.588  36.724  50.102  1.00  0.00    +0.000 C 
BRANCH    7    8
ATOM    102  H10 UNL A   1      21.213  36.210  51.365  1.00  0.00    +0.000 H 
ATOM    103  H11 UNL A   1      21.642  36.710  49.695  1.00  0.00    +0.000 H 
ATOM      8  C6  UNL A   1      20.987  36.140  50.321  1.00  0.00    +0.000 C 
BRANCH    8    9
ATOM      9  C7  UNL A   1      21.171  34.685  49.897  1.00  0.00    +0.000 C 
ATOM    105  H13 UNL A   1      22.214  34.526  49.714  1.00  0.00    +0.000 H 
ATOM    104  H12 UNL A   1      20.812  34.050  50.680  1.00  0.00    +0.000 H 
BRANCH    9   10
ATOM     10  N2  UNL A   1      20.454  34.373  48.678  1.00  0.00    +0.000 N 
ATOM    106  H14 UNL A   1      19.576  34.805  48.574  1.00  0.00    +0.000 H 
BRANCH   10   11
ATOM     11  C8  UNL A   1      20.842  33.552  47.649  1.00  0.00    +0.000 C 
ATOM     12  O2  UNL A   1      21.755  32.748  47.811  1.00  0.00    +0.000 O 
BRANCH   11   13
ATOM    107  H15 UNL A   1      19.277  31.652  46.773  1.00  0.00    +0.000 H 
ATOM     13  C9  UNL A   1      20.099  33.557  46.375  1.00  0.00    +0.000 C 
ATOM     14  C10 UNL A   1      19.315  32.428  46.095  1.00  0.00    +0.000 C 
ATOM     15  C11 UNL A   1      18.581  32.342  44.905  1.00  0.00    +0.000 C 
ATOM    115  H23 UNL A   1      18.114  33.378  43.126  1.00  0.00    +0.000 H 
ATOM    116  H24 UNL A   1      19.510  35.305  43.583  1.00  0.00    +0.000 H 
ATOM     26  C20 UNL A   1      18.659  33.414  44.001  1.00  0.00    +0.000 C 
ATOM     27  C21 UNL A   1      19.460  34.532  44.265  1.00  0.00    +0.000 C 
ATOM     28  C22 UNL A   1      20.189  34.598  45.449  1.00  0.00    +0.000 C 
BRANCH   15   16
ATOM    108  H16 UNL A   1      16.948  30.968  45.172  1.00  0.00    +0.000 H 
ATOM     16  C12 UNL A   1      17.743  31.181  44.549  1.00  0.00    +0.000 C 
BRANCH   16   17
ATOM     17  C13 UNL A   1      17.920  30.376  43.488  1.00  0.00    +0.000 C 
ATOM    109  H17 UNL A   1      18.572  30.677  42.747  1.00  0.00    +0.000 H 
BRANCH   17   18
ATOM    110  H18 UNL A   1      18.115  28.127  44.995  1.00  0.00    +0.000 H 
ATOM    112  H20 UNL A   1      15.286  25.805  42.924  1.00  0.00    +0.000 H 
ATOM     18  C14 UNL A   1      17.229  29.088  43.329  1.00  0.00    +0.000 C 
ATOM     19  C15 UNL A   1      17.436  28.028  44.223  1.00  0.00    +0.000 C 
ATOM    114  H22 UNL A   1      16.110  29.725  41.648  1.00  0.00    +0.000 H 
ATOM     20  C16 UNL A   1      16.725  26.839  44.066  1.00  0.00    +0.000 C 
ATOM     22  C17 UNL A   1      15.804  26.690  43.038  1.00  0.00    +0.000 C 
ATOM     23  C18 UNL A   1      15.587  27.747  42.162  1.00  0.00    +0.000 C 
ATOM     25  C19 UNL A   1      16.286  28.945  42.300  1.00  0.00    +0.000 C 
BRANCH   20   21
ATOM     21  O3  UNL A   1      16.901  25.791  44.921  1.00  0.00    +0.000 O 
ATOM    111  H19 UNL A   1      17.717  25.684  45.369  1.00  0.00    +0.000 H 
ENDBRANCH   20   21
BRANCH   23   24
ATOM    113  H21 UNL A   1      14.948  27.510  40.277  1.00  0.00    +0.000 H 
ATOM     24  O4  UNL A   1      14.668  27.573  41.170  1.00  0.00    +0.000 O 
ENDBRANCH   23   24
ENDBRANCH   17   18
ENDBRANCH   16   17
ENDBRANCH   15   16
BRANCH   28   29
ATOM    117  H25 UNL A   1      20.665  36.386  46.225  1.00  0.00    +0.000 H 
ATOM     29  O5  UNL A   1      20.983  35.682  45.695  1.00  0.00    +0.000 O 
ENDBRANCH   28   29
ENDBRANCH   11   13
ENDBRANCH   10   11
ENDBRANCH    9   10
ENDBRANCH    8    9
ENDBRANCH    7    8
ENDBRANCH    6    7
ENDBRANCH    5    6
ENDBRANCH    4    5
ENDBRANCH    3    4
ENDBRANCH    2    3
ENDBRANCH   30    2
ENDBRANCH   34   33
BRANCH   38   39
ATOM     39  C31 UNL A   1      24.611  33.106  45.434  1.00  0.00    +0.000 C 
ATOM     40  C32 UNL A   1      23.552  33.203  44.521  1.00  0.00    +0.000 C 
ATOM     41  F1  UNL A   1      23.331  34.351  43.863  1.00  0.00    +0.000 F 
ATOM     42  C33 UNL A   1      22.693  32.128  44.302  1.00  0.00    +0.000 C 
ATOM     43  F2  UNL A   1      21.664  32.256  43.453  1.00  0.00    +0.000 F 
ATOM     44  C34 UNL A   1      22.895  30.927  44.968  1.00  0.00    +0.000 C 
ATOM     45  F3  UNL A   1      22.073  29.892  44.751  1.00  0.00    +0.000 F 
ATOM     46  C35 UNL A   1      23.946  30.804  45.864  1.00  0.00    +0.000 C 
ATOM     47  F4  UNL A   1      24.150  29.642  46.499  1.00  0.00    +0.000 F 
ATOM     48  C36 UNL A   1      24.791  31.886  46.103  1.00  0.00    +0.000 C 
ATOM     49  F5  UNL A   1      25.794  31.737  46.981  1.00  0.00    +0.000 F 
ENDBRANCH   38   39
BRANCH   55   56
ATOM     65  C47 UNL A   1      32.143  34.122  43.754  1.00  0.00    +0.000 C 
ATOM     66  F10 UNL A   1      32.073  33.632  45.001  1.00  0.00    +0.000 F 
ATOM     56  C42 UNL A   1      31.216  35.080  43.317  1.00  0.00    +0.000 C 
ATOM     57  C43 UNL A   1      31.335  35.563  42.007  1.00  0.00    +0.000 C 
ATOM     58  F6  UNL A   1      30.462  36.467  41.538  1.00  0.00    +0.000 F 
ATOM     59  C44 UNL A   1      32.328  35.084  41.156  1.00  0.00    +0.000 C 
ATOM     60  F7  UNL A   1      32.393  35.523  39.892  1.00  0.00    +0.000 F 
ATOM     61  C45 UNL A   1      33.238  34.140  41.610  1.00  0.00    +0.000 C 
ATOM     62  F8  UNL A   1      34.192  33.679  40.790  1.00  0.00    +0.000 F 
ATOM     63  C46 UNL A   1      33.151  33.665  42.910  1.00  0.00    +0.000 C 
ATOM     64  F9  UNL A   1      34.034  32.759  43.352  1.00  0.00    +0.000 F 
ENDBRANCH   55   56
BRANCH   70   71
ATOM     71  C51 UNL A   1      30.810  40.659  47.456  1.00  0.00    +0.000 C 
ATOM     72  C52 UNL A   1      31.793  40.557  48.449  1.00  0.00    +0.000 C 
ATOM     73  F11 UNL A   1      31.892  39.437  49.181  1.00  0.00    +0.000 F 
ATOM     74  C53 UNL A   1      32.658  41.616  48.715  1.00  0.00    +0.000 C 
ATOM     75  F12 UNL A   1      33.566  41.506  49.694  1.00  0.00    +0.000 F 
ATOM     76  C54 UNL A   1      32.574  42.786  47.975  1.00  0.00    +0.000 C 
ATOM     77  F13 UNL A   1      33.412  43.800  48.225  1.00  0.00    +0.000 F 
ATOM     78  C55 UNL A   1      31.616  42.905  46.980  1.00  0.00    +0.000 C 
ATOM     79  F14 UNL A   1      31.542  44.028  46.252  1.00  0.00    +0.000 F 
ATOM     80  C56 UNL A   1      30.733  41.857  46.732  1.00  0.00    +0.000 C 
ATOM     81  F15 UNL A   1      29.812  42.002  45.768  1.00  0.00    +0.000 F 
ENDBRANCH   70   71
TORSDOF 21
ENDMDL
MODEL 6
REMARK VINA RESULT:     -10.3      1.669      4.095
ROOT
ATOM    129  H37 UNL A   1      36.589  32.044  31.534  1.00  0.00    +0.000 H 
ATOM     34  C27 UNL A   1      38.190  30.327  29.905  1.00  0.00    +0.000 C 
ATOM     35  C28 UNL A   1      38.442  30.753  31.325  1.00  0.00    +0.000 C 
ATOM     36  N3  UNL A   1      39.429  30.426  32.123  1.00  0.00    +0.000 N 
ATOM     37  C29 UNL A   1      39.209  31.116  33.308  1.00  0.00    +0.000 C 
ATOM     38  C30 UNL A   1      39.943  31.094  34.447  1.00  0.00    +0.000 C 
ATOM     50  C37 UNL A   1      41.124  30.292  34.641  1.00  0.00    +0.000 C 
ATOM     51  C38 UNL A   1      41.903  30.162  35.778  1.00  0.00    +0.000 C 
ATOM     52  C39 UNL A   1      42.971  29.307  35.483  1.00  0.00    +0.000 C 
ATOM     53  C40 UNL A   1      42.833  28.869  34.176  1.00  0.00    +0.000 C 
ATOM     54  N4  UNL A   1      41.698  29.485  33.670  1.00  0.00    +0.000 N 
ATOM     55  C41 UNL A   1      43.673  27.959  33.441  1.00  0.00    +0.000 C 
ATOM     67  C48 UNL A   1      43.462  27.569  32.161  1.00  0.00    +0.000 C 
ATOM     68  N5  UNL A   1      42.441  27.933  31.296  1.00  0.00    +0.000 N 
ATOM     69  C49 UNL A   1      42.688  27.313  30.168  1.00  0.00    +0.000 C 
ATOM     70  C50 UNL A   1      41.901  27.325  28.889  1.00  0.00    +0.000 C 
ATOM     82  C57 UNL A   1      40.798  28.091  28.803  1.00  0.00    +0.000 C 
ATOM     83  C58 UNL A   1      39.935  28.194  27.631  1.00  0.00    +0.000 C 
ATOM     84  C59 UNL A   1      38.939  29.052  27.898  1.00  0.00    +0.000 C 
ATOM     85  C60 UNL A   1      39.066  29.519  29.279  1.00  0.00    +0.000 C 
ATOM     86  N6  UNL A   1      40.220  28.927  29.727  1.00  0.00    +0.000 N 
ATOM     87  C61 UNL A   1      43.907  26.495  30.184  1.00  0.00    +0.000 C 
ATOM     88  C62 UNL A   1      44.320  26.656  31.434  1.00  0.00    +0.000 C 
ATOM     89  C63 UNL A   1      38.005  31.897  33.122  1.00  0.00    +0.000 C 
ATOM     90  C64 UNL A   1      37.466  31.672  31.931  1.00  0.00    +0.000 C 
ATOM    120  H28 UNL A   1      41.726  30.618  36.686  1.00  0.00    +0.000 H 
ATOM    121  H29 UNL A   1      43.732  29.046  36.129  1.00  0.00    +0.000 H 
ATOM    122  H30 UNL A   1      41.352  29.366  32.756  1.00  0.00    +0.000 H 
ATOM    123  H31 UNL A   1      40.069  27.688  26.742  1.00  0.00    +0.000 H 
ATOM    124  H32 UNL A   1      38.201  29.336  27.236  1.00  0.00    +0.000 H 
ATOM    125  H33 UNL A   1      40.597  29.086  30.622  1.00  0.00    +0.000 H 
ATOM    126  H34 UNL A   1      44.330  25.940  29.423  1.00  0.00    +0.000 H 
ATOM    127  H35 UNL A   1      45.149  26.189  31.836  1.00  0.00    +0.000 H 
ATOM    128  H36 UNL A   1      37.617  32.545  33.824  1.00  0.00    +0.000 H 
ENDROOT
BRANCH   34   33
ATOM     33  C26 UNL A   1      36.959  30.745  29.184  1.00  0.00    +0.000 C 
ATOM    130  H38 UNL A   1      37.596  32.711  28.727  1.00  0.00    +0.000 H 
ATOM    131  H39 UNL A   1      35.507  33.381  27.685  1.00  0.00    +0.000 H 
ATOM    118  H26 UNL A   1      34.049  29.459  28.099  1.00  0.00    +0.000 H 
ATOM    119  H27 UNL A   1      36.015  28.862  29.381  1.00  0.00    +0.000 H 
ATOM     91  C65 UNL A   1      36.816  32.038  28.658  1.00  0.00    +0.000 C 
ATOM     92  C66 UNL A   1      35.622  32.418  28.038  1.00  0.00    +0.000 C 
ATOM     30  C23 UNL A   1      34.583  31.493  27.899  1.00  0.00    +0.000 C 
ATOM     31  C24 UNL A   1      34.767  30.171  28.309  1.00  0.00    +0.000 C 
ATOM     32  C25 UNL A   1      35.920  29.816  29.000  1.00  0.00    +0.000 C 
BRANCH   30    2
ATOM      1  O1  UNL A   1      33.051  33.141  27.240  1.00  0.00    +0.000 O 
ATOM      2  C1  UNL A   1      33.294  31.941  27.325  1.00  0.00    +0.000 C 
BRANCH    2    3
ATOM      3  N1  UNL A   1      32.360  31.015  26.926  1.00  0.00    +0.000 N 
ATOM     93  H1  UNL A   1      31.504  31.043  27.412  1.00  0.00    +0.000 H 
BRANCH    3    4
ATOM      4  C2  UNL A   1      32.454  29.998  25.891  1.00  0.00    +0.000 C 
ATOM     94  H2  UNL A   1      33.488  29.791  25.712  1.00  0.00    +0.000 H 
ATOM     95  H3  UNL A   1      31.964  30.385  25.022  1.00  0.00    +0.000 H 
BRANCH    4    5
ATOM     97  H5  UNL A   1      31.357  28.846  27.242  1.00  0.00    +0.000 H 
ATOM      5  C3  UNL A   1      31.758  28.695  26.262  1.00  0.00    +0.000 C 
ATOM     96  H4  UNL A   1      31.016  28.494  25.518  1.00  0.00    +0.000 H 
BRANCH    5    6
ATOM     98  H6  UNL A   1      32.111  26.623  26.017  1.00  0.00    +0.000 H 
ATOM     99  H7  UNL A   1      32.952  27.409  27.394  1.00  0.00    +0.000 H 
ATOM      6  C4  UNL A   1      32.664  27.470  26.366  1.00  0.00    +0.000 C 
BRANCH    6    7
ATOM    100  H8  UNL A   1      34.780  27.457  26.270  1.00  0.00    +0.000 H 
ATOM    101  H9  UNL A   1      33.939  28.462  25.040  1.00  0.00    +0.000 H 
ATOM      7  C5  UNL A   1      33.972  27.534  25.573  1.00  0.00    +0.000 C 
BRANCH    7    8
ATOM    102  H10 UNL A   1      33.384  25.734  24.617  1.00  0.00    +0.000 H 
ATOM    103  H11 UNL A   1      35.149  26.057  24.669  1.00  0.00    +0.000 H 
ATOM      8  C6  UNL A   1      34.168  26.453  24.505  1.00  0.00    +0.000 C 
BRANCH    8    9
ATOM      9  C7  UNL A   1      34.155  26.940  23.059  1.00  0.00    +0.000 C 
ATOM    105  H13 UNL A   1      33.676  27.897  23.039  1.00  0.00    +0.000 H 
ATOM    104  H12 UNL A   1      35.164  27.002  22.707  1.00  0.00    +0.000 H 
BRANCH    9   10
ATOM     10  N2  UNL A   1      33.411  26.054  22.187  1.00  0.00    +0.000 N 
ATOM    106  H14 UNL A   1      33.948  25.407  21.675  1.00  0.00    +0.000 H 
BRANCH   10   11
ATOM     11  C8  UNL A   1      32.055  26.000  21.984  1.00  0.00    +0.000 C 
ATOM     12  O2  UNL A   1      31.603  25.926  20.845  1.00  0.00    +0.000 O 
BRANCH   11   13
ATOM    107  H15 UNL A   1      32.069  24.176  23.853  1.00  0.00    +0.000 H 
ATOM     13  C9  UNL A   1      31.135  25.929  23.135  1.00  0.00    +0.000 C 
ATOM     14  C10 UNL A   1      31.314  24.858  24.023  1.00  0.00    +0.000 C 
ATOM     15  C11 UNL A   1      30.482  24.706  25.139  1.00  0.00    +0.000 C 
ATOM    115  H23 UNL A   1      28.848  25.566  26.162  1.00  0.00    +0.000 H 
ATOM    116  H24 UNL A   1      28.502  27.385  24.599  1.00  0.00    +0.000 H 
ATOM     26  C20 UNL A   1      29.463  25.651  25.338  1.00  0.00    +0.000 C 
ATOM     27  C21 UNL A   1      29.264  26.707  24.440  1.00  0.00    +0.000 C 
ATOM     28  C22 UNL A   1      30.095  26.840  23.332  1.00  0.00    +0.000 C 
BRANCH   15   16
ATOM    108  H16 UNL A   1      30.438  23.823  27.100  1.00  0.00    +0.000 H 
ATOM     16  C12 UNL A   1      30.615  23.600  26.108  1.00  0.00    +0.000 C 
BRANCH   16   17
ATOM     17  C13 UNL A   1      30.946  22.332  25.815  1.00  0.00    +0.000 C 
ATOM    109  H17 UNL A   1      30.188  21.650  25.659  1.00  0.00    +0.000 H 
BRANCH   17   18
ATOM    110  H18 UNL A   1      31.898  19.961  24.896  1.00  0.00    +0.000 H 
ATOM    112  H20 UNL A   1      35.998  20.781  25.339  1.00  0.00    +0.000 H 
ATOM     18  C14 UNL A   1      32.337  21.867  25.708  1.00  0.00    +0.000 C 
ATOM     19  C15 UNL A   1      32.652  20.605  25.185  1.00  0.00    +0.000 C 
ATOM    114  H22 UNL A   1      33.157  23.676  26.443  1.00  0.00    +0.000 H 
ATOM     20  C16 UNL A   1      33.986  20.221  25.055  1.00  0.00    +0.000 C 
ATOM     22  C17 UNL A   1      35.014  21.075  25.432  1.00  0.00    +0.000 C 
ATOM     23  C18 UNL A   1      34.701  22.331  25.937  1.00  0.00    +0.000 C 
ATOM     25  C19 UNL A   1      33.375  22.737  26.074  1.00  0.00    +0.000 C 
BRANCH   20   21
ATOM     21  O3  UNL A   1      34.325  19.002  24.545  1.00  0.00    +0.000 O 
ATOM    111  H19 UNL A   1      33.733  18.280  24.622  1.00  0.00    +0.000 H 
ENDBRANCH   20   21
BRANCH   23   24
ATOM    113  H21 UNL A   1      36.480  22.800  26.731  1.00  0.00    +0.000 H 
ATOM     24  O4  UNL A   1      35.733  23.151  26.287  1.00  0.00    +0.000 O 
ENDBRANCH   23   24
ENDBRANCH   17   18
ENDBRANCH   16   17
ENDBRANCH   15   16
BRANCH   28   29
ATOM    117  H25 UNL A   1      29.075  27.920  21.983  1.00  0.00    +0.000 H 
ATOM     29  O5  UNL A   1      29.887  27.860  22.448  1.00  0.00    +0.000 O 
ENDBRANCH   28   29
ENDBRANCH   11   13
ENDBRANCH   10   11
ENDBRANCH    9   10
ENDBRANCH    8    9
ENDBRANCH    7    8
ENDBRANCH    6    7
ENDBRANCH    5    6
ENDBRANCH    4    5
ENDBRANCH    3    4
ENDBRANCH    2    3
ENDBRANCH   30    2
ENDBRANCH   34   33
BRANCH   38   39
ATOM     39  C31 UNL A   1      39.499  31.976  35.578  1.00  0.00    +0.000 C 
ATOM     40  C32 UNL A   1      38.553  31.549  36.521  1.00  0.00    +0.000 C 
ATOM     41  F1  UNL A   1      37.973  30.345  36.399  1.00  0.00    +0.000 F 
ATOM     42  C33 UNL A   1      38.174  32.372  37.580  1.00  0.00    +0.000 C 
ATOM     43  F2  UNL A   1      37.240  31.958  38.447  1.00  0.00    +0.000 F 
ATOM     44  C34 UNL A   1      38.755  33.622  37.734  1.00  0.00    +0.000 C 
ATOM     45  F3  UNL A   1      38.395  34.409  38.757  1.00  0.00    +0.000 F 
ATOM     46  C35 UNL A   1      39.704  34.059  36.822  1.00  0.00    +0.000 C 
ATOM     47  F4  UNL A   1      40.275  35.262  36.975  1.00  0.00    +0.000 F 
ATOM     48  C36 UNL A   1      40.067  33.248  35.748  1.00  0.00    +0.000 C 
ATOM     49  F5  UNL A   1      40.982  33.702  34.879  1.00  0.00    +0.000 F 
ENDBRANCH   38   39
BRANCH   55   56
ATOM     65  C47 UNL A   1      46.104  28.024  34.100  1.00  0.00    +0.000 C 
ATOM     66  F10 UNL A   1      46.238  29.183  33.438  1.00  0.00    +0.000 F 
ATOM     56  C42 UNL A   1      44.861  27.373  34.144  1.00  0.00    +0.000 C 
ATOM     57  C43 UNL A   1      44.775  26.163  34.847  1.00  0.00    +0.000 C 
ATOM     58  F6  UNL A   1      43.605  25.514  34.931  1.00  0.00    +0.000 F 
ATOM     59  C44 UNL A   1      45.885  25.639  35.505  1.00  0.00    +0.000 C 
ATOM     60  F7  UNL A   1      45.768  24.507  36.212  1.00  0.00    +0.000 F 
ATOM     61  C45 UNL A   1      47.105  26.297  35.445  1.00  0.00    +0.000 C 
ATOM     62  F8  UNL A   1      48.172  25.791  36.081  1.00  0.00    +0.000 F 
ATOM     63  C46 UNL A   1      47.217  27.483  34.737  1.00  0.00    +0.000 C 
ATOM     64  F9  UNL A   1      48.397  28.115  34.672  1.00  0.00    +0.000 F 
ENDBRANCH   55   56
BRANCH   70   71
ATOM     71  C51 UNL A   1      42.312  26.494  27.730  1.00  0.00    +0.000 C 
ATOM     72  C52 UNL A   1      43.247  26.967  26.800  1.00  0.00    +0.000 C 
ATOM     73  F11 UNL A   1      43.758  28.200  26.934  1.00  0.00    +0.000 F 
ATOM     74  C53 UNL A   1      43.638  26.188  25.714  1.00  0.00    +0.000 C 
ATOM     75  F12 UNL A   1      44.507  26.677  24.820  1.00  0.00    +0.000 F 
ATOM     76  C54 UNL A   1      43.122  24.911  25.552  1.00  0.00    +0.000 C 
ATOM     77  F13 UNL A   1      43.505  24.159  24.512  1.00  0.00    +0.000 F 
ATOM     78  C55 UNL A   1      42.202  24.418  26.466  1.00  0.00    +0.000 C 
ATOM     79  F14 UNL A   1      41.712  23.178  26.321  1.00  0.00    +0.000 F 
ATOM     80  C56 UNL A   1      41.791  25.207  27.536  1.00  0.00    +0.000 C 
ATOM     81  F15 UNL A   1      40.895  24.707  28.402  1.00  0.00    +0.000 F 
ENDBRANCH   70   71
TORSDOF 21
ENDMDL
MODEL 7
REMARK VINA RESULT:     -10.2      2.727      5.309
ROOT
ATOM    129  H37 UNL A   1      36.330  31.737  31.369  1.00  0.00    +0.000 H 
ATOM     34  C27 UNL A   1      38.021  30.067  29.783  1.00  0.00    +0.000 C 
ATOM     35  C28 UNL A   1      38.244  30.532  31.195  1.00  0.00    +0.000 C 
ATOM     36  N3  UNL A   1      39.241  30.268  32.005  1.00  0.00    +0.000 N 
ATOM     37  C29 UNL A   1      38.981  30.970  33.175  1.00  0.00    +0.000 C 
ATOM     38  C30 UNL A   1      39.708  31.005  34.318  1.00  0.00    +0.000 C 
ATOM     50  C37 UNL A   1      40.925  30.265  34.533  1.00  0.00    +0.000 C 
ATOM     51  C38 UNL A   1      41.702  30.195  35.677  1.00  0.00    +0.000 C 
ATOM     52  C39 UNL A   1      42.812  29.386  35.405  1.00  0.00    +0.000 C 
ATOM     53  C40 UNL A   1      42.703  28.917  34.106  1.00  0.00    +0.000 C 
ATOM     54  N4  UNL A   1      41.543  29.468  33.582  1.00  0.00    +0.000 N 
ATOM     55  C41 UNL A   1      43.590  28.035  33.394  1.00  0.00    +0.000 C 
ATOM     67  C48 UNL A   1      43.406  27.610  32.120  1.00  0.00    +0.000 C 
ATOM     68  N5  UNL A   1      42.374  27.908  31.242  1.00  0.00    +0.000 N 
ATOM     69  C49 UNL A   1      42.658  27.279  30.129  1.00  0.00    +0.000 C 
ATOM     70  C50 UNL A   1      41.879  27.228  28.845  1.00  0.00    +0.000 C 
ATOM     82  C57 UNL A   1      40.741  27.938  28.739  1.00  0.00    +0.000 C 
ATOM     83  C58 UNL A   1      39.881  27.976  27.561  1.00  0.00    +0.000 C 
ATOM     84  C59 UNL A   1      38.844  28.790  27.805  1.00  0.00    +0.000 C 
ATOM     85  C60 UNL A   1      38.940  29.290  29.177  1.00  0.00    +0.000 C 
ATOM     86  N6  UNL A   1      40.118  28.763  29.643  1.00  0.00    +0.000 N 
ATOM     87  C61 UNL A   1      43.914  26.520  30.167  1.00  0.00    +0.000 C 
ATOM     88  C62 UNL A   1      44.312  26.725  31.415  1.00  0.00    +0.000 C 
ATOM     89  C63 UNL A   1      37.742  31.688  32.968  1.00  0.00    +0.000 C 
ATOM     90  C64 UNL A   1      37.222  31.415  31.778  1.00  0.00    +0.000 C 
ATOM    120  H28 UNL A   1      41.498  30.659  36.576  1.00  0.00    +0.000 H 
ATOM    121  H29 UNL A   1      43.580  29.175  36.060  1.00  0.00    +0.000 H 
ATOM    122  H30 UNL A   1      41.208  29.315  32.668  1.00  0.00    +0.000 H 
ATOM    123  H31 UNL A   1      40.045  27.461  26.682  1.00  0.00    +0.000 H 
ATOM    124  H32 UNL A   1      38.097  29.026  27.134  1.00  0.00    +0.000 H 
ATOM    125  H33 UNL A   1      40.481  28.957  30.536  1.00  0.00    +0.000 H 
ATOM    126  H34 UNL A   1      44.369  25.972  29.419  1.00  0.00    +0.000 H 
ATOM    127  H35 UNL A   1      45.159  26.307  31.831  1.00  0.00    +0.000 H 
ATOM    128  H36 UNL A   1      37.319  32.331  33.655  1.00  0.00    +0.000 H 
ENDROOT
BRANCH   34   33
ATOM     33  C26 UNL A   1      36.776  30.411  29.047  1.00  0.00    +0.000 C 
ATOM    130  H38 UNL A   1      37.275  32.429  28.648  1.00  0.00    +0.000 H 
ATOM    131  H39 UNL A   1      35.162  32.969  27.580  1.00  0.00    +0.000 H 
ATOM    118  H26 UNL A   1      33.989  28.943  27.876  1.00  0.00    +0.000 H 
ATOM    119  H27 UNL A   1      35.971  28.460  29.183  1.00  0.00    +0.000 H 
ATOM     91  C65 UNL A   1      36.549  31.702  28.548  1.00  0.00    +0.000 C 
ATOM     92  C66 UNL A   1      35.341  32.009  27.914  1.00  0.00    +0.000 C 
ATOM     30  C23 UNL A   1      34.376  31.014  27.733  1.00  0.00    +0.000 C 
ATOM     31  C24 UNL A   1      34.648  29.699  28.116  1.00  0.00    +0.000 C 
ATOM     32  C25 UNL A   1      35.813  29.413  28.822  1.00  0.00    +0.000 C 
BRANCH   30    2
ATOM      1  O1  UNL A   1      32.758  32.564  27.040  1.00  0.00    +0.000 O 
ATOM      2  C1  UNL A   1      33.068  31.381  27.144  1.00  0.00    +0.000 C 
BRANCH    2    3
ATOM      3  N1  UNL A   1      32.191  30.398  26.752  1.00  0.00    +0.000 N 
ATOM     93  H1  UNL A   1      31.593  30.061  27.458  1.00  0.00    +0.000 H 
BRANCH    3    4
ATOM      4  C2  UNL A   1      32.019  29.782  25.446  1.00  0.00    +0.000 C 
ATOM     94  H2  UNL A   1      31.509  30.475  24.810  1.00  0.00    +0.000 H 
ATOM     95  H3  UNL A   1      31.461  28.881  25.591  1.00  0.00    +0.000 H 
BRANCH    4    5
ATOM     97  H5  UNL A   1      33.874  30.312  24.650  1.00  0.00    +0.000 H 
ATOM      5  C3  UNL A   1      33.335  29.398  24.784  1.00  0.00    +0.000 C 
ATOM     96  H4  UNL A   1      33.830  28.693  25.418  1.00  0.00    +0.000 H 
BRANCH    5    6
ATOM     98  H6  UNL A   1      33.649  27.798  23.434  1.00  0.00    +0.000 H 
ATOM     99  H7  UNL A   1      33.721  29.449  22.731  1.00  0.00    +0.000 H 
ATOM      6  C4  UNL A   1      33.217  28.776  23.393  1.00  0.00    +0.000 C 
BRANCH    6    7
ATOM    100  H8  UNL A   1      31.783  29.077  21.864  1.00  0.00    +0.000 H 
ATOM    101  H9  UNL A   1      31.163  29.127  23.550  1.00  0.00    +0.000 H 
ATOM      7  C5  UNL A   1      31.796  28.638  22.840  1.00  0.00    +0.000 C 
BRANCH    7    8
ATOM    102  H10 UNL A   1      31.970  26.549  23.161  1.00  0.00    +0.000 H 
ATOM    103  H11 UNL A   1      31.096  27.046  21.674  1.00  0.00    +0.000 H 
ATOM      8  C6  UNL A   1      31.254  27.210  22.720  1.00  0.00    +0.000 C 
BRANCH    8    9
ATOM      9  C7  UNL A   1      29.905  26.956  23.387  1.00  0.00    +0.000 C 
ATOM    105  H13 UNL A   1      29.769  27.699  24.144  1.00  0.00    +0.000 H 
ATOM    104  H12 UNL A   1      29.137  27.011  22.644  1.00  0.00    +0.000 H 
BRANCH    9   10
ATOM     10  N2  UNL A   1      29.844  25.656  24.025  1.00  0.00    +0.000 N 
ATOM    106  H14 UNL A   1      29.382  24.951  23.517  1.00  0.00    +0.000 H 
BRANCH   10   11
ATOM     11  C8  UNL A   1      30.349  25.283  25.245  1.00  0.00    +0.000 C 
ATOM     12  O2  UNL A   1      29.691  25.461  26.266  1.00  0.00    +0.000 O 
BRANCH   11   13
ATOM    107  H15 UNL A   1      30.787  22.804  24.549  1.00  0.00    +0.000 H 
ATOM     13  C9  UNL A   1      31.638  24.572  25.329  1.00  0.00    +0.000 C 
ATOM     14  C10 UNL A   1      31.653  23.235  24.904  1.00  0.00    +0.000 C 
ATOM     15  C11 UNL A   1      32.831  22.480  24.956  1.00  0.00    +0.000 C 
ATOM    115  H23 UNL A   1      34.874  22.564  25.481  1.00  0.00    +0.000 H 
ATOM    116  H24 UNL A   1      34.838  24.857  26.266  1.00  0.00    +0.000 H 
ATOM     26  C20 UNL A   1      33.992  23.098  25.449  1.00  0.00    +0.000 C 
ATOM     27  C21 UNL A   1      33.976  24.425  25.898  1.00  0.00    +0.000 C 
ATOM     28  C22 UNL A   1      32.795  25.159  25.847  1.00  0.00    +0.000 C 
BRANCH   15   16
ATOM    108  H16 UNL A   1      33.460  20.868  23.678  1.00  0.00    +0.000 H 
ATOM     16  C12 UNL A   1      32.913  21.070  24.529  1.00  0.00    +0.000 C 
BRANCH   16   17
ATOM     17  C13 UNL A   1      32.338  20.025  25.148  1.00  0.00    +0.000 C 
ATOM    109  H17 UNL A   1      31.615  20.212  25.860  1.00  0.00    +0.000 H 
BRANCH   17   18
ATOM    110  H18 UNL A   1      33.759  19.003  23.073  1.00  0.00    +0.000 H 
ATOM    112  H20 UNL A   1      33.676  14.968  24.255  1.00  0.00    +0.000 H 
ATOM     18  C14 UNL A   1      32.689  18.626  24.861  1.00  0.00    +0.000 C 
ATOM     19  C15 UNL A   1      33.457  18.276  23.741  1.00  0.00    +0.000 C 
ATOM    114  H22 UNL A   1      31.758  17.876  26.609  1.00  0.00    +0.000 H 
ATOM     20  C16 UNL A   1      33.809  16.944  23.531  1.00  0.00    +0.000 C 
ATOM     22  C17 UNL A   1      33.417  15.953  24.421  1.00  0.00    +0.000 C 
ATOM     23  C18 UNL A   1      32.670  16.303  25.539  1.00  0.00    +0.000 C 
ATOM     25  C19 UNL A   1      32.306  17.629  25.770  1.00  0.00    +0.000 C 
BRANCH   20   21
ATOM     21  O3  UNL A   1      34.558  16.572  22.453  1.00  0.00    +0.000 O 
ATOM    111  H19 UNL A   1      35.409  16.940  22.324  1.00  0.00    +0.000 H 
ENDBRANCH   20   21
BRANCH   23   24
ATOM    113  H21 UNL A   1      32.830  14.532  26.464  1.00  0.00    +0.000 H 
ATOM     24  O4  UNL A   1      32.309  15.309  26.401  1.00  0.00    +0.000 O 
ENDBRANCH   23   24
ENDBRANCH   17   18
ENDBRANCH   16   17
ENDBRANCH   15   16
BRANCH   28   29
ATOM    117  H25 UNL A   1      33.542  26.812  26.703  1.00  0.00    +0.000 H 
ATOM     29  O5  UNL A   1      32.778  26.446  26.303  1.00  0.00    +0.000 O 
ENDBRANCH   28   29
ENDBRANCH   11   13
ENDBRANCH   10   11
ENDBRANCH    9   10
ENDBRANCH    8    9
ENDBRANCH    7    8
ENDBRANCH    6    7
ENDBRANCH    5    6
ENDBRANCH    4    5
ENDBRANCH    3    4
ENDBRANCH    2    3
ENDBRANCH   30    2
ENDBRANCH   34   33
BRANCH   38   39
ATOM     39  C31 UNL A   1      39.215  31.886  35.429  1.00  0.00    +0.000 C 
ATOM     40  C32 UNL A   1      38.367  31.403  36.435  1.00  0.00    +0.000 C 
ATOM     41  F1  UNL A   1      37.924  30.137  36.395  1.00  0.00    +0.000 F 
ATOM     42  C33 UNL A   1      37.942  32.230  37.473  1.00  0.00    +0.000 C 
ATOM     43  F2  UNL A   1      37.100  31.756  38.402  1.00  0.00    +0.000 F 
ATOM     44  C34 UNL A   1      38.381  33.543  37.543  1.00  0.00    +0.000 C 
ATOM     45  F3  UNL A   1      37.978  34.335  38.547  1.00  0.00    +0.000 F 
ATOM     46  C35 UNL A   1      39.234  34.038  36.568  1.00  0.00    +0.000 C 
ATOM     47  F4  UNL A   1      39.669  35.304  36.640  1.00  0.00    +0.000 F 
ATOM     48  C36 UNL A   1      39.640  33.221  35.515  1.00  0.00    +0.000 C 
ATOM     49  F5  UNL A   1      40.458  33.732  34.583  1.00  0.00    +0.000 F 
ENDBRANCH   38   39
BRANCH   55   56
ATOM     65  C47 UNL A   1      46.019  28.214  34.040  1.00  0.00    +0.000 C 
ATOM     66  F10 UNL A   1      46.108  29.350  33.333  1.00  0.00    +0.000 F 
ATOM     56  C42 UNL A   1      44.801  27.520  34.114  1.00  0.00    +0.000 C 
ATOM     57  C43 UNL A   1      44.761  26.336  34.863  1.00  0.00    +0.000 C 
ATOM     58  F6  UNL A   1      43.616  25.647  34.977  1.00  0.00    +0.000 F 
ATOM     59  C44 UNL A   1      45.891  25.878  35.537  1.00  0.00    +0.000 C 
ATOM     60  F7  UNL A   1      45.818  24.771  36.287  1.00  0.00    +0.000 F 
ATOM     61  C45 UNL A   1      47.086  26.577  35.447  1.00  0.00    +0.000 C 
ATOM     62  F8  UNL A   1      48.172  26.136  36.098  1.00  0.00    +0.000 F 
ATOM     63  C46 UNL A   1      47.152  27.739  34.694  1.00  0.00    +0.000 C 
ATOM     64  F9  UNL A   1      48.309  28.411  34.599  1.00  0.00    +0.000 F 
ENDBRANCH   55   56
BRANCH   70   71
ATOM     71  C51 UNL A   1      42.336  26.395  27.705  1.00  0.00    +0.000 C 
ATOM     72  C52 UNL A   1      43.249  26.897  26.768  1.00  0.00    +0.000 C 
ATOM     73  F11 UNL A   1      43.695  28.157  26.877  1.00  0.00    +0.000 F 
ATOM     74  C53 UNL A   1      43.683  26.116  25.700  1.00  0.00    +0.000 C 
ATOM     75  F12 UNL A   1      44.530  26.631  24.797  1.00  0.00    +0.000 F 
ATOM     76  C54 UNL A   1      43.234  24.811  25.563  1.00  0.00    +0.000 C 
ATOM     77  F13 UNL A   1      43.660  24.058  24.540  1.00  0.00    +0.000 F 
ATOM     78  C55 UNL A   1      42.338  24.290  26.485  1.00  0.00    +0.000 C 
ATOM     79  F14 UNL A   1      41.914  23.024  26.365  1.00  0.00    +0.000 F 
ATOM     80  C56 UNL A   1      41.883  25.079  27.537  1.00  0.00    +0.000 C 
ATOM     81  F15 UNL A   1      41.012  24.552  28.411  1.00  0.00    +0.000 F 
ENDBRANCH   70   71
TORSDOF 21
ENDMDL
MODEL 8
REMARK VINA RESULT:     -10.2     20.238     26.364
ROOT
ATOM    129  H37 UNL A   1      54.101  18.185   9.245  1.00  0.00    +0.000 H 
ATOM     34  C27 UNL A   1      53.135  19.612  11.524  1.00  0.00    +0.000 C 
ATOM     35  C28 UNL A   1      54.487  18.982  11.332  1.00  0.00    +0.000 C 
ATOM     36  N3  UNL A   1      55.512  18.961  12.150  1.00  0.00    +0.000 N 
ATOM     37  C29 UNL A   1      56.498  18.222  11.510  1.00  0.00    +0.000 C 
ATOM     38  C30 UNL A   1      57.750  17.933  11.939  1.00  0.00    +0.000 C 
ATOM     50  C37 UNL A   1      58.308  18.386  13.188  1.00  0.00    +0.000 C 
ATOM     51  C38 UNL A   1      59.586  18.190  13.685  1.00  0.00    +0.000 C 
ATOM     52  C39 UNL A   1      59.658  18.775  14.954  1.00  0.00    +0.000 C 
ATOM     53  C40 UNL A   1      58.440  19.375  15.229  1.00  0.00    +0.000 C 
ATOM     54  N4  UNL A   1      57.620  19.124  14.139  1.00  0.00    +0.000 N 
ATOM     55  C41 UNL A   1      58.050  20.119  16.399  1.00  0.00    +0.000 C 
ATOM     67  C48 UNL A   1      56.835  20.688  16.588  1.00  0.00    +0.000 C 
ATOM     68  N5  UNL A   1      55.732  20.690  15.746  1.00  0.00    +0.000 N 
ATOM     69  C49 UNL A   1      54.796  21.348  16.383  1.00  0.00    +0.000 C 
ATOM     70  C50 UNL A   1      53.399  21.675  15.939  1.00  0.00    +0.000 C 
ATOM     82  C57 UNL A   1      52.967  21.226  14.746  1.00  0.00    +0.000 C 
ATOM     83  C58 UNL A   1      51.643  21.473  14.184  1.00  0.00    +0.000 C 
ATOM     84  C59 UNL A   1      51.558  20.870  12.989  1.00  0.00    +0.000 C 
ATOM     85  C60 UNL A   1      52.841  20.237  12.680  1.00  0.00    +0.000 C 
ATOM     86  N6  UNL A   1      53.604  20.466  13.796  1.00  0.00    +0.000 N 
ATOM     87  C61 UNL A   1      55.193  21.826  17.713  1.00  0.00    +0.000 C 
ATOM     88  C62 UNL A   1      56.457  21.430  17.774  1.00  0.00    +0.000 C 
ATOM     89  C63 UNL A   1      55.946  17.795  10.242  1.00  0.00    +0.000 C 
ATOM     90  C64 UNL A   1      54.724  18.278  10.063  1.00  0.00    +0.000 C 
ATOM    120  H28 UNL A   1      60.352  17.696  13.202  1.00  0.00    +0.000 H 
ATOM    121  H29 UNL A   1      60.479  18.764  15.578  1.00  0.00    +0.000 H 
ATOM    122  H30 UNL A   1      56.686  19.426  14.054  1.00  0.00    +0.000 H 
ATOM    123  H31 UNL A   1      50.894  22.024  14.633  1.00  0.00    +0.000 H 
ATOM    124  H32 UNL A   1      50.722  20.855  12.385  1.00  0.00    +0.000 H 
ATOM    125  H33 UNL A   1      54.519  20.120  13.906  1.00  0.00    +0.000 H 
ATOM    126  H34 UNL A   1      54.634  22.336  18.417  1.00  0.00    +0.000 H 
ATOM    127  H35 UNL A   1      57.090  21.626  18.565  1.00  0.00    +0.000 H 
ATOM    128  H36 UNL A   1      56.439  17.192   9.565  1.00  0.00    +0.000 H 
ENDROOT
BRANCH   34   33
ATOM     33  C26 UNL A   1      52.120  19.599  10.437  1.00  0.00    +0.000 C 
ATOM    130  H38 UNL A   1      51.295  17.704  10.893  1.00  0.00    +0.000 H 
ATOM    131  H39 UNL A   1      49.755  17.680   9.014  1.00  0.00    +0.000 H 
ATOM    118  H26 UNL A   1      50.897  21.606   8.035  1.00  0.00    +0.000 H 
ATOM    119  H27 UNL A   1      52.623  21.529   9.732  1.00  0.00    +0.000 H 
ATOM     91  C65 UNL A   1      51.262  18.507  10.244  1.00  0.00    +0.000 C 
ATOM     92  C66 UNL A   1      50.360  18.500   9.175  1.00  0.00    +0.000 C 
ATOM     30  C23 UNL A   1      50.278  19.607   8.325  1.00  0.00    +0.000 C 
ATOM     31  C24 UNL A   1      51.042  20.747   8.588  1.00  0.00    +0.000 C 
ATOM     32  C25 UNL A   1      51.998  20.719   9.598  1.00  0.00    +0.000 C 
BRANCH   30    2
ATOM      1  O1  UNL A   1      48.253  20.013   7.215  1.00  0.00    +0.000 O 
ATOM      2  C1  UNL A   1      49.385  19.543   7.146  1.00  0.00    +0.000 C 
BRANCH    2    3
ATOM      3  N1  UNL A   1      49.811  18.924   5.995  1.00  0.00    +0.000 N 
ATOM     93  H1  UNL A   1      50.076  19.529   5.264  1.00  0.00    +0.000 H 
BRANCH    3    4
ATOM      4  C2  UNL A   1      49.926  17.505   5.700  1.00  0.00    +0.000 C 
ATOM     94  H2  UNL A   1      50.585  17.063   6.416  1.00  0.00    +0.000 H 
ATOM     95  H3  UNL A   1      50.298  17.419   4.700  1.00  0.00    +0.000 H 
BRANCH    4    5
ATOM     97  H5  UNL A   1      48.467  16.463   6.768  1.00  0.00    +0.000 H 
ATOM      5  C3  UNL A   1      48.593  16.770   5.751  1.00  0.00    +0.000 C 
ATOM     96  H4  UNL A   1      47.834  17.437   5.404  1.00  0.00    +0.000 H 
BRANCH    5    6
ATOM     98  H6  UNL A   1      48.892  14.688   5.512  1.00  0.00    +0.000 H 
ATOM     99  H7  UNL A   1      49.082  15.686   4.032  1.00  0.00    +0.000 H 
ATOM      6  C4  UNL A   1      48.513  15.492   4.917  1.00  0.00    +0.000 C 
BRANCH    6    7
ATOM    100  H8  UNL A   1      47.134  14.052   4.200  1.00  0.00    +0.000 H 
ATOM    101  H9  UNL A   1      46.914  15.728   3.591  1.00  0.00    +0.000 H 
ATOM      7  C5  UNL A   1      47.116  15.097   4.431  1.00  0.00    +0.000 C 
BRANCH    7    8
ATOM    102  H10 UNL A   1      46.382  15.417   6.395  1.00  0.00    +0.000 H 
ATOM    103  H11 UNL A   1      45.297  14.511   5.289  1.00  0.00    +0.000 H 
ATOM      8  C6  UNL A   1      45.965  15.339   5.413  1.00  0.00    +0.000 C 
BRANCH    8    9
ATOM      9  C7  UNL A   1      45.127  16.589   5.157  1.00  0.00    +0.000 C 
ATOM    105  H13 UNL A   1      44.121  16.375   5.451  1.00  0.00    +0.000 H 
ATOM    104  H12 UNL A   1      45.535  17.399   5.725  1.00  0.00    +0.000 H 
BRANCH    9   10
ATOM     10  N2  UNL A   1      45.112  16.962   3.757  1.00  0.00    +0.000 N 
ATOM    106  H14 UNL A   1      44.626  16.354   3.157  1.00  0.00    +0.000 H 
BRANCH   10   11
ATOM     11  C8  UNL A   1      45.688  18.057   3.162  1.00  0.00    +0.000 C 
ATOM     12  O2  UNL A   1      46.895  18.074   2.939  1.00  0.00    +0.000 O 
BRANCH   11   13
ATOM    107  H15 UNL A   1      43.838  17.926   1.323  1.00  0.00    +0.000 H 
ATOM     13  C9  UNL A   1      44.849  19.175   2.695  1.00  0.00    +0.000 C 
ATOM     14  C10 UNL A   1      43.913  18.888   1.690  1.00  0.00    +0.000 C 
ATOM     15  C11 UNL A   1      43.079  19.890   1.179  1.00  0.00    +0.000 C 
ATOM    115  H23 UNL A   1      42.596  21.938   1.346  1.00  0.00    +0.000 H 
ATOM    116  H24 UNL A   1      44.248  22.449   3.043  1.00  0.00    +0.000 H 
ATOM     26  C20 UNL A   1      43.211  21.188   1.697  1.00  0.00    +0.000 C 
ATOM     27  C21 UNL A   1      44.161  21.486   2.683  1.00  0.00    +0.000 C 
ATOM     28  C22 UNL A   1      44.988  20.480   3.174  1.00  0.00    +0.000 C 
BRANCH   15   16
ATOM    108  H16 UNL A   1      42.065  18.716  -0.311  1.00  0.00    +0.000 H 
ATOM     16  C12 UNL A   1      42.079  19.654   0.119  1.00  0.00    +0.000 C 
BRANCH   16   17
ATOM     17  C13 UNL A   1      41.187  20.549  -0.336  1.00  0.00    +0.000 C 
ATOM    109  H17 UNL A   1      41.433  21.109  -1.167  1.00  0.00    +0.000 H 
BRANCH   17   18
ATOM    110  H18 UNL A   1      38.973  21.741  -1.358  1.00  0.00    +0.000 H 
ATOM    112  H20 UNL A   1      36.446  21.195   1.958  1.00  0.00    +0.000 H 
ATOM     18  C14 UNL A   1      39.876  20.771   0.293  1.00  0.00    +0.000 C 
ATOM     19  C15 UNL A   1      38.827  21.393  -0.397  1.00  0.00    +0.000 C 
ATOM    114  H22 UNL A   1      40.412  19.807   2.100  1.00  0.00    +0.000 H 
ATOM     20  C16 UNL A   1      37.584  21.542   0.218  1.00  0.00    +0.000 C 
ATOM     22  C17 UNL A   1      37.366  21.075   1.507  1.00  0.00    +0.000 C 
ATOM     23  C18 UNL A   1      38.403  20.445   2.184  1.00  0.00    +0.000 C 
ATOM     25  C19 UNL A   1      39.653  20.284   1.589  1.00  0.00    +0.000 C 
BRANCH   20   21
ATOM     21  O3  UNL A   1      36.542  22.139  -0.428  1.00  0.00    +0.000 O 
ATOM    111  H19 UNL A   1      36.156  21.728  -1.176  1.00  0.00    +0.000 H 
ENDBRANCH   20   21
BRANCH   23   24
ATOM    113  H21 UNL A   1      37.591  20.472   4.017  1.00  0.00    +0.000 H 
ATOM     24  O4  UNL A   1      38.154  19.987   3.445  1.00  0.00    +0.000 O 
ENDBRANCH   23   24
ENDBRANCH   17   18
ENDBRANCH   16   17
ENDBRANCH   15   16
BRANCH   28   29
ATOM    117  H25 UNL A   1      46.797  20.443   4.039  1.00  0.00    +0.000 H 
ATOM     29  O5  UNL A   1      45.926  20.777   4.121  1.00  0.00    +0.000 O 
ENDBRANCH   28   29
ENDBRANCH   11   13
ENDBRANCH   10   11
ENDBRANCH    9   10
ENDBRANCH    8    9
ENDBRANCH    7    8
ENDBRANCH    6    7
ENDBRANCH    5    6
ENDBRANCH    4    5
ENDBRANCH    3    4
ENDBRANCH    2    3
ENDBRANCH   30    2
ENDBRANCH   34   33
BRANCH   38   39
ATOM     39  C31 UNL A   1      58.608  17.073  11.057  1.00  0.00    +0.000 C 
ATOM     40  C32 UNL A   1      59.443  17.623  10.074  1.00  0.00    +0.000 C 
ATOM     41  F1  UNL A   1      59.451  18.947   9.859  1.00  0.00    +0.000 F 
ATOM     42  C33 UNL A   1      60.252  16.810   9.283  1.00  0.00    +0.000 C 
ATOM     43  F2  UNL A   1      61.013  17.354   8.324  1.00  0.00    +0.000 F 
ATOM     44  C34 UNL A   1      60.265  15.437   9.481  1.00  0.00    +0.000 C 
ATOM     45  F3  UNL A   1      61.050  14.657   8.725  1.00  0.00    +0.000 F 
ATOM     46  C35 UNL A   1      59.459  14.873  10.458  1.00  0.00    +0.000 C 
ATOM     47  F4  UNL A   1      59.479  13.547  10.658  1.00  0.00    +0.000 F 
ATOM     48  C36 UNL A   1      58.631  15.681  11.233  1.00  0.00    +0.000 C 
ATOM     49  F5  UNL A   1      57.857  15.105  12.165  1.00  0.00    +0.000 F 
ENDBRANCH   38   39
BRANCH   55   56
ATOM     65  C47 UNL A   1      59.275  19.300  18.442  1.00  0.00    +0.000 C 
ATOM     66  F10 UNL A   1      58.576  18.157  18.386  1.00  0.00    +0.000 F 
ATOM     56  C42 UNL A   1      59.066  20.306  17.486  1.00  0.00    +0.000 C 
ATOM     57  C43 UNL A   1      59.819  21.483  17.592  1.00  0.00    +0.000 C 
ATOM     58  F6  UNL A   1      59.667  22.465  16.692  1.00  0.00    +0.000 F 
ATOM     59  C44 UNL A   1      60.768  21.636  18.600  1.00  0.00    +0.000 C 
ATOM     60  F7  UNL A   1      61.512  22.749  18.653  1.00  0.00    +0.000 F 
ATOM     61  C45 UNL A   1      60.956  20.631  19.537  1.00  0.00    +0.000 C 
ATOM     62  F8  UNL A   1      61.871  20.779  20.506  1.00  0.00    +0.000 F 
ATOM     63  C46 UNL A   1      60.205  19.468  19.464  1.00  0.00    +0.000 C 
ATOM     64  F9  UNL A   1      60.380  18.499  20.374  1.00  0.00    +0.000 F 
ENDBRANCH   55   56
BRANCH   70   71
ATOM     71  C51 UNL A   1      52.499  22.499  16.785  1.00  0.00    +0.000 C 
ATOM     72  C52 UNL A   1      52.367  23.876  16.566  1.00  0.00    +0.000 C 
ATOM     73  F11 UNL A   1      53.084  24.472  15.602  1.00  0.00    +0.000 F 
ATOM     74  C53 UNL A   1      51.520  24.651  17.355  1.00  0.00    +0.000 C 
ATOM     75  F12 UNL A   1      51.438  25.972  17.147  1.00  0.00    +0.000 F 
ATOM     76  C54 UNL A   1      50.771  24.059  18.360  1.00  0.00    +0.000 C 
ATOM     77  F13 UNL A   1      49.950  24.803  19.112  1.00  0.00    +0.000 F 
ATOM     78  C55 UNL A   1      50.878  22.695  18.588  1.00  0.00    +0.000 C 
ATOM     79  F14 UNL A   1      50.143  22.116  19.549  1.00  0.00    +0.000 F 
ATOM     80  C56 UNL A   1      51.744  21.925  17.818  1.00  0.00    +0.000 C 
ATOM     81  F15 UNL A   1      51.834  20.609  18.064  1.00  0.00    +0.000 F 
ENDBRANCH   70   71
TORSDOF 21
ENDMDL
MODEL 9
REMARK VINA RESULT:     -10.2     19.516     27.568
ROOT
ATOM    129  H37 UNL A   1      27.043  37.163  45.583  1.00  0.00    +0.000 H 
ATOM     34  C27 UNL A   1      25.735  39.469  46.647  1.00  0.00    +0.000 C 
ATOM     35  C28 UNL A   1      25.179  38.081  46.491  1.00  0.00    +0.000 C 
ATOM     36  N3  UNL A   1      23.994  37.624  46.816  1.00  0.00    +0.000 N 
ATOM     37  C29 UNL A   1      23.978  36.290  46.431  1.00  0.00    +0.000 C 
ATOM     38  C30 UNL A   1      22.983  35.380  46.572  1.00  0.00    +0.000 C 
ATOM     50  C37 UNL A   1      21.714  35.652  47.199  1.00  0.00    +0.000 C 
ATOM     51  C38 UNL A   1      20.665  34.780  47.437  1.00  0.00    +0.000 C 
ATOM     52  C39 UNL A   1      19.623  35.501  48.031  1.00  0.00    +0.000 C 
ATOM     53  C40 UNL A   1      20.039  36.811  48.204  1.00  0.00    +0.000 C 
ATOM     54  N4  UNL A   1      21.323  36.890  47.685  1.00  0.00    +0.000 N 
ATOM     55  C41 UNL A   1      19.321  37.910  48.796  1.00  0.00    +0.000 C 
ATOM     67  C48 UNL A   1      19.806  39.167  48.940  1.00  0.00    +0.000 C 
ATOM     68  N5  UNL A   1      21.044  39.671  48.571  1.00  0.00    +0.000 N 
ATOM     69  C49 UNL A   1      21.026  40.940  48.896  1.00  0.00    +0.000 C 
ATOM     70  C50 UNL A   1      22.107  41.972  48.743  1.00  0.00    +0.000 C 
ATOM     82  C57 UNL A   1      23.270  41.625  48.162  1.00  0.00    +0.000 C 
ATOM     83  C58 UNL A   1      24.406  42.517  47.956  1.00  0.00    +0.000 C 
ATOM     84  C59 UNL A   1      25.387  41.838  47.342  1.00  0.00    +0.000 C 
ATOM     85  C60 UNL A   1      24.965  40.449  47.158  1.00  0.00    +0.000 C 
ATOM     86  N6  UNL A   1      23.681  40.423  47.638  1.00  0.00    +0.000 N 
ATOM     87  C61 UNL A   1      19.765  41.392  49.495  1.00  0.00    +0.000 C 
ATOM     88  C62 UNL A   1      19.069  40.264  49.534  1.00  0.00    +0.000 C 
ATOM     89  C63 UNL A   1      25.265  36.010  45.830  1.00  0.00    +0.000 C 
ATOM     90  C64 UNL A   1      26.060  37.071  45.885  1.00  0.00    +0.000 C 
ATOM    120  H28 UNL A   1      20.653  33.773  47.213  1.00  0.00    +0.000 H 
ATOM    121  H29 UNL A   1      18.701  35.122  48.296  1.00  0.00    +0.000 H 
ATOM    122  H30 UNL A   1      21.874  37.706  47.664  1.00  0.00    +0.000 H 
ATOM    123  H31 UNL A   1      24.449  43.509  48.238  1.00  0.00    +0.000 H 
ATOM    124  H32 UNL A   1      26.293  42.232  47.047  1.00  0.00    +0.000 H 
ATOM    125  H33 UNL A   1      23.109  39.623  47.611  1.00  0.00    +0.000 H 
ATOM    126  H34 UNL A   1      19.491  42.338  49.805  1.00  0.00    +0.000 H 
ATOM    127  H35 UNL A   1      18.122  40.179  49.936  1.00  0.00    +0.000 H 
ATOM    128  H36 UNL A   1      25.529  35.105  45.412  1.00  0.00    +0.000 H 
ENDROOT
BRANCH   34   33
ATOM     33  C26 UNL A   1      27.144  39.777  46.290  1.00  0.00    +0.000 C 
ATOM    130  H38 UNL A   1      26.742  40.590  44.378  1.00  0.00    +0.000 H 
ATOM    131  H39 UNL A   1      29.073  40.940  43.793  1.00  0.00    +0.000 H 
ATOM    118  H26 UNL A   1      30.216  39.724  47.652  1.00  0.00    +0.000 H 
ATOM    119  H27 UNL A   1      27.923  39.114  48.141  1.00  0.00    +0.000 H 
ATOM     91  C65 UNL A   1      27.484  40.339  45.050  1.00  0.00    +0.000 C 
ATOM     92  C66 UNL A   1      28.825  40.561  44.720  1.00  0.00    +0.000 C 
ATOM     30  C23 UNL A   1      29.828  40.268  45.649  1.00  0.00    +0.000 C 
ATOM     31  C24 UNL A   1      29.487  39.826  46.929  1.00  0.00    +0.000 C 
ATOM     32  C25 UNL A   1      28.162  39.525  47.226  1.00  0.00    +0.000 C 
BRANCH   30    2
ATOM      1  O1  UNL A   1      31.895  41.375  45.665  1.00  0.00    +0.000 O 
ATOM      2  C1  UNL A   1      31.245  40.421  45.247  1.00  0.00    +0.000 C 
BRANCH    2    3
ATOM      3  N1  UNL A   1      31.814  39.521  44.379  1.00  0.00    +0.000 N 
ATOM     93  H1  UNL A   1      32.400  39.911  43.690  1.00  0.00    +0.000 H 
BRANCH    3    4
ATOM      4  C2  UNL A   1      31.676  38.074  44.329  1.00  0.00    +0.000 C 
ATOM     94  H2  UNL A   1      31.415  37.725  45.306  1.00  0.00    +0.000 H 
ATOM     95  H3  UNL A   1      32.612  37.678  43.995  1.00  0.00    +0.000 H 
BRANCH    4    5
ATOM     97  H5  UNL A   1      30.309  38.476  42.804  1.00  0.00    +0.000 H 
ATOM      5  C3  UNL A   1      30.609  37.605  43.348  1.00  0.00    +0.000 C 
ATOM     96  H4  UNL A   1      31.037  36.840  42.737  1.00  0.00    +0.000 H 
BRANCH    5    6
ATOM     98  H6  UNL A   1      28.521  37.677  43.686  1.00  0.00    +0.000 H 
ATOM     99  H7  UNL A   1      29.516  37.027  45.032  1.00  0.00    +0.000 H 
ATOM      6  C4  UNL A   1      29.334  37.046  43.977  1.00  0.00    +0.000 C 
BRANCH    6    7
ATOM    100  H8  UNL A   1      28.092  35.645  42.987  1.00  0.00    +0.000 H 
ATOM    101  H9  UNL A   1      28.846  35.088  44.520  1.00  0.00    +0.000 H 
ATOM      7  C5  UNL A   1      28.972  35.609  43.594  1.00  0.00    +0.000 C 
BRANCH    7    8
ATOM    102  H10 UNL A   1      30.744  35.530  42.430  1.00  0.00    +0.000 H 
ATOM    103  H11 UNL A   1      29.513  34.272  42.075  1.00  0.00    +0.000 H 
ATOM      8  C6  UNL A   1      30.041  34.826  42.824  1.00  0.00    +0.000 C 
BRANCH    8    9
ATOM      9  C7  UNL A   1      30.817  33.791  43.635  1.00  0.00    +0.000 C 
ATOM    105  H13 UNL A   1      30.107  33.196  44.171  1.00  0.00    +0.000 H 
ATOM    104  H12 UNL A   1      31.399  33.194  42.964  1.00  0.00    +0.000 H 
BRANCH    9   10
ATOM     10  N2  UNL A   1      31.704  34.404  44.603  1.00  0.00    +0.000 N 
ATOM    106  H14 UNL A   1      32.313  35.091  44.251  1.00  0.00    +0.000 H 
BRANCH   10   11
ATOM     11  C8  UNL A   1      31.802  34.149  45.948  1.00  0.00    +0.000 C 
ATOM     12  O2  UNL A   1      32.903  34.116  46.491  1.00  0.00    +0.000 O 
BRANCH   11   13
ATOM    107  H15 UNL A   1      30.306  36.108  46.811  1.00  0.00    +0.000 H 
ATOM     13  C9  UNL A   1      30.584  34.015  46.769  1.00  0.00    +0.000 C 
ATOM     14  C10 UNL A   1      29.929  35.202  47.129  1.00  0.00    +0.000 C 
ATOM     15  C11 UNL A   1      28.770  35.171  47.914  1.00  0.00    +0.000 C 
ATOM    115  H23 UNL A   1      27.427  33.874  48.899  1.00  0.00    +0.000 H 
ATOM    116  H24 UNL A   1      28.587  31.826  48.323  1.00  0.00    +0.000 H 
ATOM     26  C20 UNL A   1      28.288  33.921  48.333  1.00  0.00    +0.000 C 
ATOM     27  C21 UNL A   1      28.952  32.734  47.997  1.00  0.00    +0.000 C 
ATOM     28  C22 UNL A   1      30.108  32.783  47.223  1.00  0.00    +0.000 C 
BRANCH   15   16
ATOM    108  H16 UNL A   1      27.818  37.073  47.597  1.00  0.00    +0.000 H 
ATOM     16  C12 UNL A   1      28.038  36.383  48.331  1.00  0.00    +0.000 C 
BRANCH   16   17
ATOM     17  C13 UNL A   1      27.634  36.668  49.580  1.00  0.00    +0.000 C 
ATOM    109  H17 UNL A   1      28.344  36.720  50.326  1.00  0.00    +0.000 H 
BRANCH   17   18
ATOM    110  H18 UNL A   1      26.410  38.994  50.260  1.00  0.00    +0.000 H 
ATOM    112  H20 UNL A   1      22.516  37.478  50.723  1.00  0.00    +0.000 H 
ATOM     18  C14 UNL A   1      26.227  36.910  49.935  1.00  0.00    +0.000 C 
ATOM     19  C15 UNL A   1      25.757  38.194  50.243  1.00  0.00    +0.000 C 
ATOM    114  H22 UNL A   1      25.652  34.892  49.650  1.00  0.00    +0.000 H 
ATOM     20  C16 UNL A   1      24.407  38.389  50.528  1.00  0.00    +0.000 C 
ATOM     22  C17 UNL A   1      23.512  37.327  50.504  1.00  0.00    +0.000 C 
ATOM     23  C18 UNL A   1      23.976  36.057  50.184  1.00  0.00    +0.000 C 
ATOM     25  C19 UNL A   1      25.322  35.839  49.894  1.00  0.00    +0.000 C 
BRANCH   20   21
ATOM     21  O3  UNL A   1      23.918  39.627  50.827  1.00  0.00    +0.000 O 
ATOM    111  H19 UNL A   1      23.439  39.763  51.621  1.00  0.00    +0.000 H 
ENDBRANCH   20   21
BRANCH   23   24
ATOM    113  H21 UNL A   1      23.367  34.151  50.077  1.00  0.00    +0.000 H 
ATOM     24  O4  UNL A   1      23.072  35.037  50.158  1.00  0.00    +0.000 O 
ENDBRANCH   23   24
ENDBRANCH   17   18
ENDBRANCH   16   17
ENDBRANCH   15   16
BRANCH   28   29
ATOM    117  H25 UNL A   1      31.071  31.063  47.595  1.00  0.00    +0.000 H 
ATOM     29  O5  UNL A   1      30.764  31.626  46.912  1.00  0.00    +0.000 O 
ENDBRANCH   28   29
ENDBRANCH   11   13
ENDBRANCH   10   11
ENDBRANCH    9   10
ENDBRANCH    8    9
ENDBRANCH    7    8
ENDBRANCH    6    7
ENDBRANCH    5    6
ENDBRANCH    4    5
ENDBRANCH    3    4
ENDBRANCH    2    3
ENDBRANCH   30    2
ENDBRANCH   34   33
BRANCH   38   39
ATOM     39  C31 UNL A   1      23.217  34.001  46.027  1.00  0.00    +0.000 C 
ATOM     40  C32 UNL A   1      23.945  33.038  46.739  1.00  0.00    +0.000 C 
ATOM     41  F1  UNL A   1      24.506  33.351  47.918  1.00  0.00    +0.000 F 
ATOM     42  C33 UNL A   1      24.128  31.755  46.228  1.00  0.00    +0.000 C 
ATOM     43  F2  UNL A   1      24.861  30.863  46.909  1.00  0.00    +0.000 F 
ATOM     44  C34 UNL A   1      23.562  31.401  45.013  1.00  0.00    +0.000 C 
ATOM     45  F3  UNL A   1      23.732  30.164  44.526  1.00  0.00    +0.000 F 
ATOM     46  C35 UNL A   1      22.824  32.333  44.298  1.00  0.00    +0.000 C 
ATOM     47  F4  UNL A   1      22.266  31.989  43.129  1.00  0.00    +0.000 F 
ATOM     48  C36 UNL A   1      22.661  33.624  44.795  1.00  0.00    +0.000 C 
ATOM     49  F5  UNL A   1      21.949  34.505  44.076  1.00  0.00    +0.000 F 
ENDBRANCH   38   39
BRANCH   55   56
ATOM     65  C47 UNL A   1      16.879  37.408  48.432  1.00  0.00    +0.000 C 
ATOM     66  F10 UNL A   1      17.094  37.396  47.108  1.00  0.00    +0.000 F 
ATOM     56  C42 UNL A   1      17.940  37.650  49.318  1.00  0.00    +0.000 C 
ATOM     57  C43 UNL A   1      17.662  37.655  50.692  1.00  0.00    +0.000 C 
ATOM     58  F6  UNL A   1      18.646  37.864  51.579  1.00  0.00    +0.000 F 
ATOM     59  C44 UNL A   1      16.376  37.398  51.163  1.00  0.00    +0.000 C 
ATOM     60  F7  UNL A   1      16.143  37.359  52.481  1.00  0.00    +0.000 F 
ATOM     61  C45 UNL A   1      15.342  37.166  50.268  1.00  0.00    +0.000 C 
ATOM     62  F8  UNL A   1      14.105  36.918  50.722  1.00  0.00    +0.000 F 
ATOM     63  C46 UNL A   1      15.591  37.178  48.904  1.00  0.00    +0.000 C 
ATOM     64  F9  UNL A   1      14.590  36.962  48.039  1.00  0.00    +0.000 F 
ENDBRANCH   55   56
BRANCH   70   71
ATOM     71  C51 UNL A   1      21.918  43.359  49.240  1.00  0.00    +0.000 C 
ATOM     72  C52 UNL A   1      21.434  44.365  48.394  1.00  0.00    +0.000 C 
ATOM     73  F11 UNL A   1      21.168  44.090  47.109  1.00  0.00    +0.000 F 
ATOM     74  C53 UNL A   1      21.251  45.666  48.858  1.00  0.00    +0.000 C 
ATOM     75  F12 UNL A   1      20.820  46.619  48.020  1.00  0.00    +0.000 F 
ATOM     76  C54 UNL A   1      21.522  45.977  50.181  1.00  0.00    +0.000 C 
ATOM     77  F13 UNL A   1      21.337  47.226  50.629  1.00  0.00    +0.000 F 
ATOM     78  C55 UNL A   1      21.992  44.994  51.039  1.00  0.00    +0.000 C 
ATOM     79  F14 UNL A   1      22.240  45.287  52.323  1.00  0.00    +0.000 F 
ATOM     80  C56 UNL A   1      22.201  43.700  50.569  1.00  0.00    +0.000 C 
ATOM     81  F15 UNL A   1      22.662  42.770  51.419  1.00  0.00    +0.000 F 
ENDBRANCH   70   71
TORSDOF 21
ENDMDL
MODEL 10
REMARK VINA RESULT:     -10.2     25.556     33.353
ROOT
ATOM    129  H37 UNL A   1      21.436  16.720   7.908  1.00  0.00    +0.000 H 
ATOM     34  C27 UNL A   1      21.586  18.675   5.830  1.00  0.00    +0.000 C 
ATOM     35  C28 UNL A   1      20.358  18.162   6.530  1.00  0.00    +0.000 C 
ATOM     36  N3  UNL A   1      19.104  18.502   6.354  1.00  0.00    +0.000 N 
ATOM     37  C29 UNL A   1      18.366  17.708   7.222  1.00  0.00    +0.000 C 
ATOM     38  C30 UNL A   1      17.026  17.699   7.427  1.00  0.00    +0.000 C 
ATOM     50  C37 UNL A   1      16.094  18.572   6.760  1.00  0.00    +0.000 C 
ATOM     51  C38 UNL A   1      14.725  18.674   6.942  1.00  0.00    +0.000 C 
ATOM     52  C39 UNL A   1      14.233  19.628   6.044  1.00  0.00    +0.000 C 
ATOM     53  C40 UNL A   1      15.301  20.153   5.334  1.00  0.00    +0.000 C 
ATOM     54  N4  UNL A   1      16.436  19.493   5.781  1.00  0.00    +0.000 N 
ATOM     55  C41 UNL A   1      15.289  21.178   4.323  1.00  0.00    +0.000 C 
ATOM     67  C48 UNL A   1      16.386  21.648   3.680  1.00  0.00    +0.000 C 
ATOM     68  N5  UNL A   1      17.713  21.274   3.833  1.00  0.00    +0.000 N 
ATOM     69  C49 UNL A   1      18.390  21.995   2.975  1.00  0.00    +0.000 C 
ATOM     70  C50 UNL A   1      19.870  22.021   2.719  1.00  0.00    +0.000 C 
ATOM     82  C57 UNL A   1      20.670  21.182   3.402  1.00  0.00    +0.000 C 
ATOM     83  C58 UNL A   1      22.120  21.103   3.264  1.00  0.00    +0.000 C 
ATOM     84  C59 UNL A   1      22.585  20.154   4.089  1.00  0.00    +0.000 C 
ATOM     85  C60 UNL A   1      21.469  19.593   4.852  1.00  0.00    +0.000 C 
ATOM     86  N6  UNL A   1      20.366  20.235   4.350  1.00  0.00    +0.000 N 
ATOM     87  C61 UNL A   1      17.566  22.901   2.165  1.00  0.00    +0.000 C 
ATOM     88  C62 UNL A   1      16.357  22.677   2.661  1.00  0.00    +0.000 C 
ATOM     89  C63 UNL A   1      19.307  16.854   7.914  1.00  0.00    +0.000 C 
ATOM     90  C64 UNL A   1      20.555  17.127   7.556  1.00  0.00    +0.000 C 
ATOM    120  H28 UNL A   1      14.164  18.138   7.621  1.00  0.00    +0.000 H 
ATOM    121  H29 UNL A   1      13.243  19.896   5.930  1.00  0.00    +0.000 H 
ATOM    122  H30 UNL A   1      17.349  19.654   5.451  1.00  0.00    +0.000 H 
ATOM    123  H31 UNL A   1      22.695  21.684   2.633  1.00  0.00    +0.000 H 
ATOM    124  H32 UNL A   1      23.572  19.865   4.173  1.00  0.00    +0.000 H 
ATOM    125  H33 UNL A   1      19.446  20.038   4.640  1.00  0.00    +0.000 H 
ATOM    126  H34 UNL A   1      17.852  23.543   1.408  1.00  0.00    +0.000 H 
ATOM    127  H35 UNL A   1      15.504  23.173   2.359  1.00  0.00    +0.000 H 
ATOM    128  H36 UNL A   1      19.042  16.126   8.595  1.00  0.00    +0.000 H 
ENDROOT
BRANCH   34   33
ATOM     33  C26 UNL A   1      22.944  18.220   6.228  1.00  0.00    +0.000 C 
ATOM    130  H38 UNL A   1      23.249  19.659   7.750  1.00  0.00    +0.000 H 
ATOM    131  H39 UNL A   1      25.518  18.961   8.259  1.00  0.00    +0.000 H 
ATOM    118  H26 UNL A   1      25.129  15.753   5.571  1.00  0.00    +0.000 H 
ATOM    119  H27 UNL A   1      22.976  16.606   4.861  1.00  0.00    +0.000 H 
ATOM     91  C65 UNL A   1      23.673  18.872   7.234  1.00  0.00    +0.000 C 
ATOM     92  C66 UNL A   1      24.972  18.457   7.544  1.00  0.00    +0.000 C 
ATOM     30  C23 UNL A   1      25.529  17.359   6.883  1.00  0.00    +0.000 C 
ATOM     31  C24 UNL A   1      24.763  16.631   5.970  1.00  0.00    +0.000 C 
ATOM     32  C25 UNL A   1      23.504  17.094   5.601  1.00  0.00    +0.000 C 
BRANCH   30    2
ATOM      1  O1  UNL A   1      27.218  15.839   7.465  1.00  0.00    +0.000 O 
ATOM      2  C1  UNL A   1      26.938  16.994   7.157  1.00  0.00    +0.000 C 
BRANCH    2    3
ATOM      3  N1  UNL A   1      27.918  17.955   7.106  1.00  0.00    +0.000 N 
ATOM     93  H1  UNL A   1      28.368  18.053   6.235  1.00  0.00    +0.000 H 
BRANCH    3    4
ATOM      4  C2  UNL A   1      28.389  18.850   8.152  1.00  0.00    +0.000 C 
ATOM     94  H2  UNL A   1      27.828  19.759   8.097  1.00  0.00    +0.000 H 
ATOM     95  H3  UNL A   1      29.434  19.009   7.986  1.00  0.00    +0.000 H 
BRANCH    4    5
ATOM     97  H5  UNL A   1      27.878  17.272   9.418  1.00  0.00    +0.000 H 
ATOM      5  C3  UNL A   1      28.235  18.271   9.552  1.00  0.00    +0.000 C 
ATOM     96  H4  UNL A   1      29.186  18.328  10.039  1.00  0.00    +0.000 H 
BRANCH    5    6
ATOM     98  H6  UNL A   1      26.767  18.223  11.076  1.00  0.00    +0.000 H 
ATOM     99  H7  UNL A   1      26.517  19.438   9.777  1.00  0.00    +0.000 H 
ATOM      6  C4  UNL A   1      27.208  18.965  10.444  1.00  0.00    +0.000 C 
BRANCH    6    7
ATOM    100  H8  UNL A   1      28.574  20.536  10.837  1.00  0.00    +0.000 H 
ATOM    101  H9  UNL A   1      28.000  19.612  12.267  1.00  0.00    +0.000 H 
ATOM      7  C5  UNL A   1      27.746  20.084  11.341  1.00  0.00    +0.000 C 
BRANCH    7    8
ATOM    102  H10 UNL A   1      27.116  22.108  11.277  1.00  0.00    +0.000 H 
ATOM    103  H11 UNL A   1      26.705  21.203  12.772  1.00  0.00    +0.000 H 
ATOM      8  C6  UNL A   1      26.755  21.195  11.703  1.00  0.00    +0.000 C 
BRANCH    8    9
ATOM      9  C7  UNL A   1      25.321  20.987  11.222  1.00  0.00    +0.000 C 
ATOM    105  H13 UNL A   1      24.957  21.926  10.863  1.00  0.00    +0.000 H 
ATOM    104  H12 UNL A   1      25.322  20.247  10.448  1.00  0.00    +0.000 H 
BRANCH    9   10
ATOM     10  N2  UNL A   1      24.443  20.547  12.287  1.00  0.00    +0.000 N 
ATOM    106  H14 UNL A   1      24.735  20.765  13.201  1.00  0.00    +0.000 H 
BRANCH   10   11
ATOM     11  C8  UNL A   1      23.256  19.866  12.184  1.00  0.00    +0.000 C 
ATOM     12  O2  UNL A   1      22.204  20.479  12.024  1.00  0.00    +0.000 O 
BRANCH   11   13
ATOM    107  H15 UNL A   1      23.749  18.356  10.112  1.00  0.00    +0.000 H 
ATOM     13  C9  UNL A   1      23.246  18.392  12.163  1.00  0.00    +0.000 C 
ATOM     14  C10 UNL A   1      23.536  17.775  10.937  1.00  0.00    +0.000 C 
ATOM     15  C11 UNL A   1      23.541  16.379  10.820  1.00  0.00    +0.000 C 
ATOM    115  H23 UNL A   1      23.256  14.589  11.903  1.00  0.00    +0.000 H 
ATOM    116  H24 UNL A   1      22.701  15.653  14.008  1.00  0.00    +0.000 H 
ATOM     26  C20 UNL A   1      23.243  15.619  11.963  1.00  0.00    +0.000 C 
ATOM     27  C21 UNL A   1      22.928  16.231  13.183  1.00  0.00    +0.000 C 
ATOM     28  C22 UNL A   1      22.919  17.619  13.279  1.00  0.00    +0.000 C 
BRANCH   15   16
ATOM    108  H16 UNL A   1      24.241  16.226   8.792  1.00  0.00    +0.000 H 
ATOM     16  C12 UNL A   1      23.833  15.669   9.560  1.00  0.00    +0.000 C 
BRANCH   16   17
ATOM     17  C13 UNL A   1      23.615  14.366   9.321  1.00  0.00    +0.000 C 
ATOM    109  H17 UNL A   1      23.983  13.675   9.993  1.00  0.00    +0.000 H 
BRANCH   17   18
ATOM    110  H18 UNL A   1      20.938  14.096   8.963  1.00  0.00    +0.000 H 
ATOM    112  H20 UNL A   1      21.028  12.704   4.997  1.00  0.00    +0.000 H 
ATOM     18  C14 UNL A   1      22.879  13.874   8.147  1.00  0.00    +0.000 C 
ATOM     19  C15 UNL A   1      21.478  13.821   8.128  1.00  0.00    +0.000 C 
ATOM    114  H22 UNL A   1      24.626  13.571   6.990  1.00  0.00    +0.000 H 
ATOM     20  C16 UNL A   1      20.816  13.394   6.978  1.00  0.00    +0.000 C 
ATOM     22  C17 UNL A   1      21.525  13.025   5.842  1.00  0.00    +0.000 C 
ATOM     23  C18 UNL A   1      22.912  13.093   5.857  1.00  0.00    +0.000 C 
ATOM     25  C19 UNL A   1      23.596  13.518   6.995  1.00  0.00    +0.000 C 
BRANCH   20   21
ATOM     21  O3  UNL A   1      19.454  13.335   6.925  1.00  0.00    +0.000 O 
ATOM    111  H19 UNL A   1      18.977  13.955   6.411  1.00  0.00    +0.000 H 
ENDBRANCH   20   21
BRANCH   23   24
ATOM    113  H21 UNL A   1      24.447  12.383   4.780  1.00  0.00    +0.000 H 
ATOM     24  O4  UNL A   1      23.580  12.735   4.722  1.00  0.00    +0.000 O 
ENDBRANCH   23   24
ENDBRANCH   17   18
ENDBRANCH   16   17
ENDBRANCH   15   16
BRANCH   28   29
ATOM    117  H25 UNL A   1      22.985  17.914  15.263  1.00  0.00    +0.000 H 
ATOM     29  O5  UNL A   1      22.593  18.213  14.465  1.00  0.00    +0.000 O 
ENDBRANCH   28   29
ENDBRANCH   11   13
ENDBRANCH   10   11
ENDBRANCH    9   10
ENDBRANCH    8    9
ENDBRANCH    7    8
ENDBRANCH    6    7
ENDBRANCH    5    6
ENDBRANCH    4    5
ENDBRANCH    3    4
ENDBRANCH    2    3
ENDBRANCH   30    2
ENDBRANCH   34   33
BRANCH   38   39
ATOM     39  C31 UNL A   1      16.478  16.702   8.407  1.00  0.00    +0.000 C 
ATOM     40  C32 UNL A   1      16.252  17.033   9.750  1.00  0.00    +0.000 C 
ATOM     41  F1  UNL A   1      16.580  18.250  10.210  1.00  0.00    +0.000 F 
ATOM     42  C33 UNL A   1      15.718  16.101  10.638  1.00  0.00    +0.000 C 
ATOM     43  F2  UNL A   1      15.547  16.428  11.926  1.00  0.00    +0.000 F 
ATOM     44  C34 UNL A   1      15.370  14.834  10.193  1.00  0.00    +0.000 C 
ATOM     45  F3  UNL A   1      14.848  13.942  11.046  1.00  0.00    +0.000 F 
ATOM     46  C35 UNL A   1      15.570  14.491   8.865  1.00  0.00    +0.000 C 
ATOM     47  F4  UNL A   1      15.223  13.270   8.430  1.00  0.00    +0.000 F 
ATOM     48  C36 UNL A   1      16.127  15.411   7.981  1.00  0.00    +0.000 C 
ATOM     49  F5  UNL A   1      16.315  15.046   6.704  1.00  0.00    +0.000 F 
ENDBRANCH   38   39
BRANCH   55   56
ATOM     65  C47 UNL A   1      13.521  22.945   4.633  1.00  0.00    +0.000 C 
ATOM     66  F10 UNL A   1      14.269  23.505   5.595  1.00  0.00    +0.000 F 
ATOM     56  C42 UNL A   1      13.972  21.798   3.963  1.00  0.00    +0.000 C 
ATOM     57  C43 UNL A   1      13.150  21.249   2.968  1.00  0.00    +0.000 C 
ATOM     58  F6  UNL A   1      13.547  20.163   2.289  1.00  0.00    +0.000 F 
ATOM     59  C44 UNL A   1      11.935  21.844   2.636  1.00  0.00    +0.000 C 
ATOM     60  F7  UNL A   1      11.190  21.332   1.648  1.00  0.00    +0.000 F 
ATOM     61  C45 UNL A   1      11.507  22.975   3.315  1.00  0.00    +0.000 C 
ATOM     62  F8  UNL A   1      10.337  23.547   2.993  1.00  0.00    +0.000 F 
ATOM     63  C46 UNL A   1      12.294  23.521   4.317  1.00  0.00    +0.000 C 
ATOM     64  F9  UNL A   1      11.876  24.610   4.978  1.00  0.00    +0.000 F 
ENDBRANCH   55   56
BRANCH   70   71
ATOM     71  C51 UNL A   1      20.461  22.968   1.740  1.00  0.00    +0.000 C 
ATOM     72  C52 UNL A   1      20.440  22.690   0.367  1.00  0.00    +0.000 C 
ATOM     73  F11 UNL A   1      19.910  21.540  -0.075  1.00  0.00    +0.000 F 
ATOM     74  C53 UNL A   1      20.990  23.578  -0.554  1.00  0.00    +0.000 C 
ATOM     75  F12 UNL A   1      20.988  23.272  -1.859  1.00  0.00    +0.000 F 
ATOM     76  C54 UNL A   1      21.547  24.772  -0.122  1.00  0.00    +0.000 C 
ATOM     77  F13 UNL A   1      22.067  25.630  -1.009  1.00  0.00    +0.000 F 
ATOM     78  C55 UNL A   1      21.570  25.073   1.232  1.00  0.00    +0.000 C 
ATOM     79  F14 UNL A   1      22.093  26.233   1.652  1.00  0.00    +0.000 F 
ATOM     80  C56 UNL A   1      21.045  24.173   2.155  1.00  0.00    +0.000 C 
ATOM     81  F15 UNL A   1      21.086  24.486   3.459  1.00  0.00    +0.000 F 
ENDBRANCH   70   71
TORSDOF 21
ENDMDL
