MODEL 1
REMARK VINA RESULT:     -11.2      0.000      0.000
ROOT
ATOM    129  H39 UNL A   1      41.322  28.808  26.051  1.00  0.00    +0.000 H 
ATOM     29  C23 UNL A   1      40.817  28.032  28.763  1.00  0.00    +0.000 C 
ATOM     30  C24 UNL A   1      41.911  28.882  28.241  1.00  0.00    +0.000 C 
ATOM     31  N4  UNL A   1      42.913  29.363  28.897  1.00  0.00    +0.000 N 
ATOM     32  C25 UNL A   1      43.646  30.109  27.978  1.00  0.00    +0.000 C 
ATOM     33  C26 UNL A   1      44.471  31.110  28.388  1.00  0.00    +0.000 C 
ATOM     45  C33 UNL A   1      44.735  31.016  29.802  1.00  0.00    +0.000 C 
ATOM     46  C34 UNL A   1      45.399  30.114  30.609  1.00  0.00    +0.000 C 
ATOM     47  C35 UNL A   1      44.629  30.051  31.809  1.00  0.00    +0.000 C 
ATOM     48  C36 UNL A   1      43.573  30.958  31.699  1.00  0.00    +0.000 C 
ATOM     49  N5  UNL A   1      43.935  31.752  30.641  1.00  0.00    +0.000 N 
ATOM     50  C37 UNL A   1      42.302  31.063  32.384  1.00  0.00    +0.000 C 
ATOM     62  C44 UNL A   1      41.234  31.797  31.951  1.00  0.00    +0.000 C 
ATOM     63  N6  UNL A   1      39.949  31.517  32.397  1.00  0.00    +0.000 N 
ATOM     64  C45 UNL A   1      39.164  31.929  31.438  1.00  0.00    +0.000 C 
ATOM     65  C46 UNL A   1      37.937  31.205  31.016  1.00  0.00    +0.000 C 
ATOM     77  C53 UNL A   1      38.355  30.021  30.504  1.00  0.00    +0.000 C 
ATOM     78  C54 UNL A   1      37.637  28.785  30.304  1.00  0.00    +0.000 C 
ATOM     79  C55 UNL A   1      38.506  27.874  29.820  1.00  0.00    +0.000 C 
ATOM     80  C56 UNL A   1      39.785  28.520  29.490  1.00  0.00    +0.000 C 
ATOM     81  N7  UNL A   1      39.655  29.783  30.013  1.00  0.00    +0.000 N 
ATOM     82  C57 UNL A   1      39.763  32.849  30.488  1.00  0.00    +0.000 C 
ATOM     83  C58 UNL A   1      41.049  32.682  30.803  1.00  0.00    +0.000 C 
ATOM     84  C59 UNL A   1      43.131  29.769  26.677  1.00  0.00    +0.000 C 
ATOM     85  C60 UNL A   1      41.983  29.098  26.788  1.00  0.00    +0.000 C 
ATOM    120  H30 UNL A   1      46.265  29.598  30.392  1.00  0.00    +0.000 H 
ATOM    121  H31 UNL A   1      44.818  29.440  32.619  1.00  0.00    +0.000 H 
ATOM    122  H32 UNL A   1      43.668  32.690  30.504  1.00  0.00    +0.000 H 
ATOM    123  H33 UNL A   1      36.637  28.626  30.497  1.00  0.00    +0.000 H 
ATOM    124  H34 UNL A   1      38.302  26.869  29.698  1.00  0.00    +0.000 H 
ATOM    125  H35 UNL A   1      40.384  30.443  30.041  1.00  0.00    +0.000 H 
ATOM    126  H36 UNL A   1      39.324  33.454  29.777  1.00  0.00    +0.000 H 
ATOM    127  H37 UNL A   1      41.826  33.128  30.292  1.00  0.00    +0.000 H 
ATOM    128  H38 UNL A   1      43.586  30.011  25.783  1.00  0.00    +0.000 H 
ENDROOT
BRANCH   29   28
ATOM    130  H40 UNL A   1      39.272  27.139  26.881  1.00  0.00    +0.000 H 
ATOM    131  H41 UNL A   1      38.674  24.796  26.631  1.00  0.00    +0.000 H 
ATOM     28  C22 UNL A   1      40.807  26.675  28.250  1.00  0.00    +0.000 C 
ATOM     86  C61 UNL A   1      39.816  26.385  27.330  1.00  0.00    +0.000 C 
ATOM     87  C62 UNL A   1      39.580  25.079  27.036  1.00  0.00    +0.000 C 
ATOM    118  H28 UNL A   1      42.363  23.709  28.313  1.00  0.00    +0.000 H 
ATOM     25  C19 UNL A   1      40.559  24.127  27.281  1.00  0.00    +0.000 C 
ATOM     26  C20 UNL A   1      41.646  24.422  28.108  1.00  0.00    +0.000 C 
ATOM     27  C21 UNL A   1      41.738  25.703  28.648  1.00  0.00    +0.000 C 
ATOM    119  H29 UNL A   1      42.478  25.934  29.329  1.00  0.00    +0.000 H 
BRANCH   25   23
ATOM     23  C18 UNL A   1      40.401  22.820  26.616  1.00  0.00    +0.000 C 
ATOM     24  O3  UNL A   1      41.351  22.273  26.094  1.00  0.00    +0.000 O 
BRANCH   23   22
ATOM    117  H27 UNL A   1      38.746  22.069  27.503  1.00  0.00    +0.000 H 
ATOM     22  N3  UNL A   1      39.142  22.235  26.617  1.00  0.00    +0.000 N 
BRANCH   22   21
ATOM    115  H25 UNL A   1      38.970  21.700  24.621  1.00  0.00    +0.000 H 
ATOM    116  H26 UNL A   1      37.819  20.931  25.725  1.00  0.00    +0.000 H 
ATOM     21  C17 UNL A   1      38.327  21.835  25.465  1.00  0.00    +0.000 C 
BRANCH   21   20
ATOM    113  H23 UNL A   1      36.527  22.870  25.877  1.00  0.00    +0.000 H 
ATOM    114  H24 UNL A   1      37.769  23.813  25.030  1.00  0.00    +0.000 H 
ATOM     20  C16 UNL A   1      37.273  22.868  25.110  1.00  0.00    +0.000 C 
BRANCH   20   19
ATOM     19  C15 UNL A   1      36.588  22.597  23.763  1.00  0.00    +0.000 C 
ATOM    111  H21 UNL A   1      37.325  22.700  22.995  1.00  0.00    +0.000 H 
ATOM    112  H22 UNL A   1      36.172  21.614  23.849  1.00  0.00    +0.000 H 
BRANCH   19   18
ATOM     18  C14 UNL A   1      35.405  23.511  23.404  1.00  0.00    +0.000 C 
ATOM    109  H19 UNL A   1      35.263  24.202  24.209  1.00  0.00    +0.000 H 
ATOM    110  H20 UNL A   1      35.663  23.982  22.478  1.00  0.00    +0.000 H 
BRANCH   18   17
ATOM     17  C13 UNL A   1      34.076  22.790  23.159  1.00  0.00    +0.000 C 
ATOM    107  H17 UNL A   1      34.235  22.025  22.428  1.00  0.00    +0.000 H 
ATOM    108  H18 UNL A   1      33.757  22.387  24.098  1.00  0.00    +0.000 H 
BRANCH   17   16
ATOM    105  H15 UNL A   1      32.575  23.335  21.742  1.00  0.00    +0.000 H 
ATOM    106  H16 UNL A   1      32.196  23.763  23.401  1.00  0.00    +0.000 H 
ATOM     16  C12 UNL A   1      32.967  23.717  22.661  1.00  0.00    +0.000 C 
BRANCH   16   15
ATOM     15  N2  UNL A   1      33.482  25.048  22.441  1.00  0.00    +0.000 N 
ATOM    104  H14 UNL A   1      34.447  25.144  22.610  1.00  0.00    +0.000 H 
BRANCH   15   13
ATOM     13  C11 UNL A   1      32.864  26.188  22.041  1.00  0.00    +0.000 C 
ATOM     14  O2  UNL A   1      31.770  26.071  21.484  1.00  0.00    +0.000 O 
BRANCH   13   12
ATOM     12  C10 UNL A   1      33.524  27.549  22.157  1.00  0.00    +0.000 C 
ATOM    102  H12 UNL A   1      34.566  27.371  22.323  1.00  0.00    +0.000 H 
ATOM    103  H13 UNL A   1      33.236  28.032  21.246  1.00  0.00    +0.000 H 
BRANCH   12   11
ATOM     11  C9  UNL A   1      33.074  28.549  23.230  1.00  0.00    +0.000 C 
ATOM    100  H10 UNL A   1      33.959  28.840  23.757  1.00  0.00    +0.000 H 
ATOM    101  H11 UNL A   1      32.549  29.278  22.650  1.00  0.00    +0.000 H 
BRANCH   11   10
ATOM     10  C8  UNL A   1      32.034  28.184  24.304  1.00  0.00    +0.000 C 
ATOM     99  H9  UNL A   1      31.221  27.804  23.722  1.00  0.00    +0.000 H 
ATOM     98  H8  UNL A   1      31.874  29.068  24.884  1.00  0.00    +0.000 H 
BRANCH   10    9
ATOM      2  C2  UNL A   1      33.491  22.849  26.909  1.00  0.00    +0.000 C 
ATOM      3  C3  UNL A   1      32.097  22.703  26.964  1.00  0.00    +0.000 C 
ATOM      4  C4  UNL A   1      31.262  23.767  26.580  1.00  0.00    +0.000 C 
ATOM      6  C6  UNL A   1      31.885  24.917  26.109  1.00  0.00    +0.000 C 
ATOM      7  C7  UNL A   1      31.302  26.124  25.481  1.00  0.00    +0.000 C 
ATOM      8  O1  UNL A   1      30.133  26.178  25.125  1.00  0.00    +0.000 O 
ATOM      9  N1  UNL A   1      32.279  27.103  25.256  1.00  0.00    +0.000 N 
ATOM     88  S1  UNL A   1      33.845  26.607  25.742  1.00  0.00    +0.000 S 
ATOM     89  C63 UNL A   1      33.262  24.995  26.161  1.00  0.00    +0.000 C 
ATOM     90  N8  UNL A   1      34.088  24.000  26.525  1.00  0.00    +0.000 N 
ATOM     94  H4  UNL A   1      31.685  21.813  27.285  1.00  0.00    +0.000 H 
BRANCH    2    1
ATOM      1  C1  UNL A   1      34.403  21.708  27.249  1.00  0.00    +0.000 C 
ATOM     91  H1  UNL A   1      34.653  21.174  26.356  1.00  0.00    +0.000 H 
ATOM     92  H2  UNL A   1      33.911  21.049  27.933  1.00  0.00    +0.000 H 
ATOM     93  H3  UNL A   1      35.297  22.088  27.699  1.00  0.00    +0.000 H 
ENDBRANCH    2    1
BRANCH    4    5
ATOM     97  H7  UNL A   1      29.404  24.510  27.248  1.00  0.00    +0.000 H 
ATOM      5  C5  UNL A   1      29.776  23.661  26.713  1.00  0.00    +0.000 C 
ATOM     95  H5  UNL A   1      29.528  22.767  27.246  1.00  0.00    +0.000 H 
ATOM     96  H6  UNL A   1      29.331  23.631  25.739  1.00  0.00    +0.000 H 
ENDBRANCH    4    5
ENDBRANCH   10    9
ENDBRANCH   11   10
ENDBRANCH   12   11
ENDBRANCH   13   12
ENDBRANCH   15   13
ENDBRANCH   16   15
ENDBRANCH   17   16
ENDBRANCH   18   17
ENDBRANCH   19   18
ENDBRANCH   20   19
ENDBRANCH   21   20
ENDBRANCH   22   21
ENDBRANCH   23   22
ENDBRANCH   25   23
ENDBRANCH   29   28
BRANCH   33   34
ATOM     34  C27 UNL A   1      44.768  32.358  27.594  1.00  0.00    +0.000 C 
ATOM     35  C28 UNL A   1      45.988  32.460  26.897  1.00  0.00    +0.000 C 
ATOM     36  F1  UNL A   1      46.783  31.390  26.749  1.00  0.00    +0.000 F 
ATOM     37  C29 UNL A   1      46.458  33.681  26.403  1.00  0.00    +0.000 C 
ATOM     38  F2  UNL A   1      47.674  33.748  25.846  1.00  0.00    +0.000 F 
ATOM     39  C30 UNL A   1      45.703  34.832  26.539  1.00  0.00    +0.000 C 
ATOM     40  F3  UNL A   1      46.173  36.010  26.111  1.00  0.00    +0.000 F 
ATOM     41  C31 UNL A   1      44.478  34.763  27.166  1.00  0.00    +0.000 C 
ATOM     42  F4  UNL A   1      43.740  35.870  27.325  1.00  0.00    +0.000 F 
ATOM     43  C32 UNL A   1      44.032  33.558  27.708  1.00  0.00    +0.000 C 
ATOM     44  F5  UNL A   1      42.911  33.642  28.434  1.00  0.00    +0.000 F 
ENDBRANCH   33   34
BRANCH   50   51
ATOM     51  C38 UNL A   1      42.075  30.122  33.542  1.00  0.00    +0.000 C 
ATOM     52  C39 UNL A   1      41.703  28.773  33.403  1.00  0.00    +0.000 C 
ATOM     53  F6  UNL A   1      41.476  28.246  32.193  1.00  0.00    +0.000 F 
ATOM     54  C40 UNL A   1      41.610  27.924  34.507  1.00  0.00    +0.000 C 
ATOM     55  F7  UNL A   1      41.244  26.644  34.344  1.00  0.00    +0.000 F 
ATOM     56  C41 UNL A   1      41.931  28.392  35.770  1.00  0.00    +0.000 C 
ATOM     57  F8  UNL A   1      41.885  27.569  36.826  1.00  0.00    +0.000 F 
ATOM     58  C42 UNL A   1      42.325  29.710  35.931  1.00  0.00    +0.000 C 
ATOM     59  F9  UNL A   1      42.680  30.158  37.143  1.00  0.00    +0.000 F 
ATOM     60  C43 UNL A   1      42.382  30.567  34.834  1.00  0.00    +0.000 C 
ATOM     61  F10 UNL A   1      42.790  31.832  35.027  1.00  0.00    +0.000 F 
ENDBRANCH   50   51
BRANCH   65   66
ATOM     66  C47 UNL A   1      36.648  31.896  30.779  1.00  0.00    +0.000 C 
ATOM     67  C48 UNL A   1      35.785  32.180  31.849  1.00  0.00    +0.000 C 
ATOM     68  F11 UNL A   1      35.986  31.608  33.046  1.00  0.00    +0.000 F 
ATOM     69  C49 UNL A   1      34.754  33.117  31.729  1.00  0.00    +0.000 C 
ATOM     70  F12 UNL A   1      33.996  33.417  32.794  1.00  0.00    +0.000 F 
ATOM     71  C50 UNL A   1      34.553  33.790  30.535  1.00  0.00    +0.000 C 
ATOM     72  F13 UNL A   1      33.615  34.742  30.442  1.00  0.00    +0.000 F 
ATOM     73  C51 UNL A   1      35.360  33.501  29.449  1.00  0.00    +0.000 C 
ATOM     74  F14 UNL A   1      35.200  34.171  28.299  1.00  0.00    +0.000 F 
ATOM     75  C52 UNL A   1      36.392  32.567  29.568  1.00  0.00    +0.000 C 
ATOM     76  F15 UNL A   1      37.196  32.404  28.508  1.00  0.00    +0.000 F 
ENDBRANCH   65   66
TORSDOF 20
ENDMDL
MODEL 2
REMARK VINA RESULT:     -11.1      1.300      1.702
ROOT
ATOM    129  H39 UNL A   1      41.140  28.720  26.091  1.00  0.00    +0.000 H 
ATOM     29  C23 UNL A   1      40.641  28.018  28.825  1.00  0.00    +0.000 C 
ATOM     30  C24 UNL A   1      41.758  28.819  28.273  1.00  0.00    +0.000 C 
ATOM     31  N4  UNL A   1      42.784  29.279  28.907  1.00  0.00    +0.000 N 
ATOM     32  C25 UNL A   1      43.530  29.979  27.965  1.00  0.00    +0.000 C 
ATOM     33  C26 UNL A   1      44.395  30.959  28.344  1.00  0.00    +0.000 C 
ATOM     45  C33 UNL A   1      44.672  30.885  29.756  1.00  0.00    +0.000 C 
ATOM     46  C34 UNL A   1      45.314  29.978  30.575  1.00  0.00    +0.000 C 
ATOM     47  C35 UNL A   1      44.556  29.966  31.785  1.00  0.00    +0.000 C 
ATOM     48  C36 UNL A   1      43.531  30.907  31.667  1.00  0.00    +0.000 C 
ATOM     49  N5  UNL A   1      43.908  31.666  30.588  1.00  0.00    +0.000 N 
ATOM     50  C37 UNL A   1      42.273  31.070  32.364  1.00  0.00    +0.000 C 
ATOM     62  C44 UNL A   1      41.226  31.832  31.927  1.00  0.00    +0.000 C 
ATOM     63  N6  UNL A   1      39.938  31.606  32.394  1.00  0.00    +0.000 N 
ATOM     64  C45 UNL A   1      39.155  32.024  31.436  1.00  0.00    +0.000 C 
ATOM     65  C46 UNL A   1      37.899  31.335  31.042  1.00  0.00    +0.000 C 
ATOM     77  C53 UNL A   1      38.270  30.127  30.551  1.00  0.00    +0.000 C 
ATOM     78  C54 UNL A   1      37.508  28.913  30.385  1.00  0.00    +0.000 C 
ATOM     79  C55 UNL A   1      38.339  27.963  29.911  1.00  0.00    +0.000 C 
ATOM     80  C56 UNL A   1      39.635  28.557  29.553  1.00  0.00    +0.000 C 
ATOM     81  N7  UNL A   1      39.555  29.834  30.050  1.00  0.00    +0.000 N 
ATOM     82  C57 UNL A   1      39.774  32.904  30.460  1.00  0.00    +0.000 C 
ATOM     83  C58 UNL A   1      41.057  32.699  30.764  1.00  0.00    +0.000 C 
ATOM     84  C59 UNL A   1      42.988  29.630  26.677  1.00  0.00    +0.000 C 
ATOM     85  C60 UNL A   1      41.819  29.002  26.815  1.00  0.00    +0.000 C 
ATOM    120  H30 UNL A   1      46.159  29.428  30.359  1.00  0.00    +0.000 H 
ATOM    121  H31 UNL A   1      44.735  29.365  32.605  1.00  0.00    +0.000 H 
ATOM    122  H32 UNL A   1      43.671  32.610  30.436  1.00  0.00    +0.000 H 
ATOM    123  H33 UNL A   1      36.505  28.793  30.593  1.00  0.00    +0.000 H 
ATOM    124  H34 UNL A   1      38.099  26.963  29.812  1.00  0.00    +0.000 H 
ATOM    125  H35 UNL A   1      40.307  30.469  30.057  1.00  0.00    +0.000 H 
ATOM    126  H36 UNL A   1      39.348  33.509  29.741  1.00  0.00    +0.000 H 
ATOM    127  H37 UNL A   1      41.844  33.106  30.235  1.00  0.00    +0.000 H 
ATOM    128  H38 UNL A   1      43.441  29.838  25.773  1.00  0.00    +0.000 H 
ENDROOT
BRANCH   29   28
ATOM    130  H40 UNL A   1      38.778  27.035  27.312  1.00  0.00    +0.000 H 
ATOM    131  H41 UNL A   1      38.232  24.668  27.217  1.00  0.00    +0.000 H 
ATOM     28  C22 UNL A   1      40.578  26.652  28.340  1.00  0.00    +0.000 C 
ATOM     86  C61 UNL A   1      39.431  26.310  27.648  1.00  0.00    +0.000 C 
ATOM     87  C62 UNL A   1      39.191  24.990  27.424  1.00  0.00    +0.000 C 
ATOM    118  H28 UNL A   1      42.228  23.745  28.116  1.00  0.00    +0.000 H 
ATOM     25  C19 UNL A   1      40.235  24.079  27.473  1.00  0.00    +0.000 C 
ATOM     26  C20 UNL A   1      41.457  24.428  28.055  1.00  0.00    +0.000 C 
ATOM     27  C21 UNL A   1      41.608  25.722  28.549  1.00  0.00    +0.000 C 
ATOM    119  H29 UNL A   1      42.463  25.991  29.061  1.00  0.00    +0.000 H 
BRANCH   25   23
ATOM     23  C18 UNL A   1      39.995  22.754  26.870  1.00  0.00    +0.000 C 
ATOM     24  O3  UNL A   1      40.641  21.789  27.222  1.00  0.00    +0.000 O 
BRANCH   23   22
ATOM    117  H27 UNL A   1      38.811  23.469  25.394  1.00  0.00    +0.000 H 
ATOM     22  N3  UNL A   1      39.006  22.648  25.901  1.00  0.00    +0.000 N 
BRANCH   22   21
ATOM    115  H25 UNL A   1      38.752  20.912  24.796  1.00  0.00    +0.000 H 
ATOM    116  H26 UNL A   1      38.061  20.894  26.426  1.00  0.00    +0.000 H 
ATOM     21  C17 UNL A   1      38.216  21.468  25.537  1.00  0.00    +0.000 C 
BRANCH   21   20
ATOM    113  H23 UNL A   1      36.675  21.238  24.104  1.00  0.00    +0.000 H 
ATOM    114  H24 UNL A   1      36.133  21.634  25.747  1.00  0.00    +0.000 H 
ATOM     20  C16 UNL A   1      36.851  21.829  24.979  1.00  0.00    +0.000 C 
BRANCH   20   19
ATOM     19  C15 UNL A   1      36.724  23.311  24.601  1.00  0.00    +0.000 C 
ATOM    111  H21 UNL A   1      37.678  23.771  24.754  1.00  0.00    +0.000 H 
ATOM    112  H22 UNL A   1      36.389  23.317  23.584  1.00  0.00    +0.000 H 
BRANCH   19   18
ATOM     18  C14 UNL A   1      35.679  24.126  25.381  1.00  0.00    +0.000 C 
ATOM    109  H19 UNL A   1      35.098  23.446  25.968  1.00  0.00    +0.000 H 
ATOM    110  H20 UNL A   1      36.229  24.833  25.966  1.00  0.00    +0.000 H 
BRANCH   18   17
ATOM     17  C13 UNL A   1      34.716  24.946  24.516  1.00  0.00    +0.000 C 
ATOM    107  H17 UNL A   1      35.231  25.249  23.629  1.00  0.00    +0.000 H 
ATOM    108  H18 UNL A   1      33.875  24.321  24.299  1.00  0.00    +0.000 H 
BRANCH   17   16
ATOM    105  H15 UNL A   1      33.531  25.899  26.015  1.00  0.00    +0.000 H 
ATOM    106  H16 UNL A   1      35.010  26.751  25.608  1.00  0.00    +0.000 H 
ATOM     16  C12 UNL A   1      34.184  26.194  25.221  1.00  0.00    +0.000 C 
BRANCH   16   15
ATOM     15  N2  UNL A   1      33.454  27.025  24.292  1.00  0.00    +0.000 N 
ATOM    104  H14 UNL A   1      33.604  26.806  23.345  1.00  0.00    +0.000 H 
BRANCH   15   13
ATOM     13  C11 UNL A   1      32.599  28.057  24.502  1.00  0.00    +0.000 C 
ATOM     14  O2  UNL A   1      33.041  29.198  24.347  1.00  0.00    +0.000 O 
BRANCH   13   12
ATOM     12  C10 UNL A   1      31.188  27.846  25.020  1.00  0.00    +0.000 C 
ATOM    102  H12 UNL A   1      31.280  27.533  26.039  1.00  0.00    +0.000 H 
ATOM    103  H13 UNL A   1      30.719  28.788  24.825  1.00  0.00    +0.000 H 
BRANCH   12   11
ATOM     11  C9  UNL A   1      30.244  26.847  24.338  1.00  0.00    +0.000 C 
ATOM    100  H10 UNL A   1      29.283  27.317  24.309  1.00  0.00    +0.000 H 
ATOM    101  H11 UNL A   1      30.756  26.649  23.419  1.00  0.00    +0.000 H 
BRANCH   11   10
ATOM     10  C8  UNL A   1      30.015  25.430  24.890  1.00  0.00    +0.000 C 
ATOM     99  H9  UNL A   1      29.227  25.061  24.267  1.00  0.00    +0.000 H 
ATOM     98  H8  UNL A   1      29.827  25.539  25.937  1.00  0.00    +0.000 H 
BRANCH   10    9
ATOM      2  C2  UNL A   1      32.994  20.100  24.588  1.00  0.00    +0.000 C 
ATOM      3  C3  UNL A   1      33.394  20.459  25.882  1.00  0.00    +0.000 C 
ATOM      4  C4  UNL A   1      33.058  21.722  26.399  1.00  0.00    +0.000 C 
ATOM      6  C6  UNL A   1      32.285  22.546  25.590  1.00  0.00    +0.000 C 
ATOM      7  C7  UNL A   1      31.633  23.839  25.899  1.00  0.00    +0.000 C 
ATOM      8  O1  UNL A   1      31.556  24.279  27.038  1.00  0.00    +0.000 O 
ATOM      9  N1  UNL A   1      31.038  24.394  24.758  1.00  0.00    +0.000 N 
ATOM     88  S1  UNL A   1      31.214  23.410  23.368  1.00  0.00    +0.000 S 
ATOM     89  C63 UNL A   1      32.000  22.137  24.304  1.00  0.00    +0.000 C 
ATOM     90  N8  UNL A   1      32.309  20.939  23.778  1.00  0.00    +0.000 N 
ATOM     94  H4  UNL A   1      33.936  19.793  26.457  1.00  0.00    +0.000 H 
BRANCH    2    1
ATOM      1  C1  UNL A   1      33.281  18.735  24.038  1.00  0.00    +0.000 C 
ATOM     91  H1  UNL A   1      34.212  18.381  24.431  1.00  0.00    +0.000 H 
ATOM     92  H2  UNL A   1      33.341  18.784  22.971  1.00  0.00    +0.000 H 
ATOM     93  H3  UNL A   1      32.497  18.064  24.321  1.00  0.00    +0.000 H 
ENDBRANCH    2    1
BRANCH    4    5
ATOM     97  H7  UNL A   1      34.607  22.318  27.702  1.00  0.00    +0.000 H 
ATOM      5  C5  UNL A   1      33.550  22.156  27.744  1.00  0.00    +0.000 C 
ATOM     95  H5  UNL A   1      33.334  21.396  28.465  1.00  0.00    +0.000 H 
ATOM     96  H6  UNL A   1      33.060  23.065  28.026  1.00  0.00    +0.000 H 
ENDBRANCH    4    5
ENDBRANCH   10    9
ENDBRANCH   11   10
ENDBRANCH   12   11
ENDBRANCH   13   12
ENDBRANCH   15   13
ENDBRANCH   16   15
ENDBRANCH   17   16
ENDBRANCH   18   17
ENDBRANCH   19   18
ENDBRANCH   20   19
ENDBRANCH   21   20
ENDBRANCH   22   21
ENDBRANCH   23   22
ENDBRANCH   25   23
ENDBRANCH   29   28
BRANCH   33   34
ATOM     34  C27 UNL A   1      44.724  32.180  27.521  1.00  0.00    +0.000 C 
ATOM     35  C28 UNL A   1      45.986  32.274  26.902  1.00  0.00    +0.000 C 
ATOM     36  F1  UNL A   1      46.805  31.214  26.850  1.00  0.00    +0.000 F 
ATOM     37  C29 UNL A   1      46.470  33.483  26.390  1.00  0.00    +0.000 C 
ATOM     38  F2  UNL A   1      47.719  33.549  25.911  1.00  0.00    +0.000 F 
ATOM     39  C30 UNL A   1      45.691  34.625  26.429  1.00  0.00    +0.000 C 
ATOM     40  F3  UNL A   1      46.171  35.793  25.985  1.00  0.00    +0.000 F 
ATOM     41  C31 UNL A   1      44.428  34.560  26.977  1.00  0.00    +0.000 C 
ATOM     42  F4  UNL A   1      43.665  35.659  27.041  1.00  0.00    +0.000 F 
ATOM     43  C32 UNL A   1      43.965  33.370  27.537  1.00  0.00    +0.000 C 
ATOM     44  F5  UNL A   1      42.798  33.463  28.184  1.00  0.00    +0.000 F 
ENDBRANCH   33   34
BRANCH   50   51
ATOM     51  C38 UNL A   1      42.027  30.162  33.545  1.00  0.00    +0.000 C 
ATOM     52  C39 UNL A   1      41.649  28.811  33.437  1.00  0.00    +0.000 C 
ATOM     53  F6  UNL A   1      41.432  28.253  32.239  1.00  0.00    +0.000 F 
ATOM     54  C40 UNL A   1      41.539  27.992  34.562  1.00  0.00    +0.000 C 
ATOM     55  F7  UNL A   1      41.167  26.711  34.429  1.00  0.00    +0.000 F 
ATOM     56  C41 UNL A   1      41.849  28.493  35.815  1.00  0.00    +0.000 C 
ATOM     57  F8  UNL A   1      41.786  27.698  36.893  1.00  0.00    +0.000 F 
ATOM     58  C42 UNL A   1      42.249  29.812  35.946  1.00  0.00    +0.000 C 
ATOM     59  F9  UNL A   1      42.593  30.290  37.150  1.00  0.00    +0.000 F 
ATOM     60  C43 UNL A   1      42.323  30.639  34.828  1.00  0.00    +0.000 C 
ATOM     61  F10 UNL A   1      42.736  31.906  34.991  1.00  0.00    +0.000 F 
ENDBRANCH   50   51
BRANCH   65   66
ATOM     66  C47 UNL A   1      36.633  32.065  30.806  1.00  0.00    +0.000 C 
ATOM     67  C48 UNL A   1      35.779  32.377  31.877  1.00  0.00    +0.000 C 
ATOM     68  F11 UNL A   1      35.964  31.802  33.074  1.00  0.00    +0.000 F 
ATOM     69  C49 UNL A   1      34.778  33.347  31.756  1.00  0.00    +0.000 C 
ATOM     70  F12 UNL A   1      34.031  33.672  32.821  1.00  0.00    +0.000 F 
ATOM     71  C50 UNL A   1      34.597  34.023  30.560  1.00  0.00    +0.000 C 
ATOM     72  F13 UNL A   1      33.689  35.004  30.467  1.00  0.00    +0.000 F 
ATOM     73  C51 UNL A   1      35.394  33.707  29.475  1.00  0.00    +0.000 C 
ATOM     74  F14 UNL A   1      35.253  34.380  28.323  1.00  0.00    +0.000 F 
ATOM     75  C52 UNL A   1      36.396  32.742  29.593  1.00  0.00    +0.000 C 
ATOM     76  F15 UNL A   1      37.193  32.552  28.534  1.00  0.00    +0.000 F 
ENDBRANCH   65   66
TORSDOF 20
ENDMDL
MODEL 3
REMARK VINA RESULT:     -11.1      1.117      2.518
ROOT
ATOM    129  H39 UNL A   1      41.309  28.989  25.997  1.00  0.00    +0.000 H 
ATOM     29  C23 UNL A   1      40.759  28.242  28.709  1.00  0.00    +0.000 C 
ATOM     30  C24 UNL A   1      41.860  29.090  28.197  1.00  0.00    +0.000 C 
ATOM     31  N4  UNL A   1      42.848  29.583  28.864  1.00  0.00    +0.000 N 
ATOM     32  C25 UNL A   1      43.594  30.321  27.950  1.00  0.00    +0.000 C 
ATOM     33  C26 UNL A   1      44.409  31.330  28.362  1.00  0.00    +0.000 C 
ATOM     45  C33 UNL A   1      44.648  31.253  29.782  1.00  0.00    +0.000 C 
ATOM     46  C34 UNL A   1      45.300  30.363  30.611  1.00  0.00    +0.000 C 
ATOM     47  C35 UNL A   1      44.509  30.310  31.798  1.00  0.00    +0.000 C 
ATOM     48  C36 UNL A   1      43.452  31.212  31.659  1.00  0.00    +0.000 C 
ATOM     49  N5  UNL A   1      43.831  31.995  30.598  1.00  0.00    +0.000 N 
ATOM     50  C37 UNL A   1      42.169  31.320  32.320  1.00  0.00    +0.000 C 
ATOM     62  C44 UNL A   1      41.107  32.045  31.860  1.00  0.00    +0.000 C 
ATOM     63  N6  UNL A   1      39.815  31.765  32.286  1.00  0.00    +0.000 N 
ATOM     64  C45 UNL A   1      39.045  32.163  31.309  1.00  0.00    +0.000 C 
ATOM     65  C46 UNL A   1      37.829  31.430  30.874  1.00  0.00    +0.000 C 
ATOM     77  C53 UNL A   1      38.260  30.242  30.383  1.00  0.00    +0.000 C 
ATOM     78  C54 UNL A   1      37.550  29.001  30.185  1.00  0.00    +0.000 C 
ATOM     79  C55 UNL A   1      38.430  28.088  29.726  1.00  0.00    +0.000 C 
ATOM     80  C56 UNL A   1      39.713  28.735  29.411  1.00  0.00    +0.000 C 
ATOM     81  N7  UNL A   1      39.569  30.003  29.918  1.00  0.00    +0.000 N 
ATOM     82  C57 UNL A   1      39.658  33.075  30.359  1.00  0.00    +0.000 C 
ATOM     83  C58 UNL A   1      40.938  32.916  30.699  1.00  0.00    +0.000 C 
ATOM     84  C59 UNL A   1      43.104  29.964  26.644  1.00  0.00    +0.000 C 
ATOM     85  C60 UNL A   1      41.956  29.290  26.742  1.00  0.00    +0.000 C 
ATOM    120  H30 UNL A   1      46.172  29.847  30.415  1.00  0.00    +0.000 H 
ATOM    121  H31 UNL A   1      44.687  29.709  32.618  1.00  0.00    +0.000 H 
ATOM    122  H32 UNL A   1      43.562  32.931  30.447  1.00  0.00    +0.000 H 
ATOM    123  H33 UNL A   1      36.547  28.841  30.362  1.00  0.00    +0.000 H 
ATOM    124  H34 UNL A   1      38.232  27.080  29.612  1.00  0.00    +0.000 H 
ATOM    125  H35 UNL A   1      40.295  30.666  29.952  1.00  0.00    +0.000 H 
ATOM    126  H36 UNL A   1      39.229  33.670  29.634  1.00  0.00    +0.000 H 
ATOM    127  H37 UNL A   1      41.724  33.359  30.197  1.00  0.00    +0.000 H 
ATOM    128  H38 UNL A   1      43.574  30.197  25.756  1.00  0.00    +0.000 H 
ENDROOT
BRANCH   29   28
ATOM    130  H40 UNL A   1      42.146  26.279  29.684  1.00  0.00    +0.000 H 
ATOM    131  H41 UNL A   1      42.791  24.319  28.399  1.00  0.00    +0.000 H 
ATOM     28  C22 UNL A   1      40.763  26.879  28.211  1.00  0.00    +0.000 C 
ATOM     86  C61 UNL A   1      41.671  26.023  28.805  1.00  0.00    +0.000 C 
ATOM     87  C62 UNL A   1      41.919  24.832  28.195  1.00  0.00    +0.000 C 
ATOM    118  H28 UNL A   1      39.313  24.735  26.085  1.00  0.00    +0.000 H 
ATOM     25  C19 UNL A   1      40.998  24.309  27.300  1.00  0.00    +0.000 C 
ATOM     26  C20 UNL A   1      39.985  25.114  26.770  1.00  0.00    +0.000 C 
ATOM     27  C21 UNL A   1      39.904  26.439  27.192  1.00  0.00    +0.000 C 
ATOM    119  H29 UNL A   1      39.226  27.086  26.761  1.00  0.00    +0.000 H 
BRANCH   25   23
ATOM     23  C18 UNL A   1      41.132  22.880  26.961  1.00  0.00    +0.000 C 
ATOM     24  O3  UNL A   1      42.205  22.421  26.627  1.00  0.00    +0.000 O 
BRANCH   23   22
ATOM    117  H27 UNL A   1      39.664  21.905  27.953  1.00  0.00    +0.000 H 
ATOM     22  N3  UNL A   1      40.000  22.081  27.045  1.00  0.00    +0.000 N 
BRANCH   22   21
ATOM    115  H25 UNL A   1      39.861  21.429  25.081  1.00  0.00    +0.000 H 
ATOM    116  H26 UNL A   1      38.945  20.490  26.269  1.00  0.00    +0.000 H 
ATOM     21  C17 UNL A   1      39.240  21.467  25.951  1.00  0.00    +0.000 C 
BRANCH   21   20
ATOM    113  H23 UNL A   1      37.306  22.174  26.442  1.00  0.00    +0.000 H 
ATOM    114  H24 UNL A   1      38.269  23.249  25.410  1.00  0.00    +0.000 H 
ATOM     20  C16 UNL A   1      37.978  22.240  25.612  1.00  0.00    +0.000 C 
BRANCH   20   19
ATOM     19  C15 UNL A   1      37.262  21.713  24.360  1.00  0.00    +0.000 C 
ATOM    111  H21 UNL A   1      37.998  21.260  23.729  1.00  0.00    +0.000 H 
ATOM    112  H22 UNL A   1      36.515  21.037  24.724  1.00  0.00    +0.000 H 
BRANCH   19   18
ATOM     18  C14 UNL A   1      36.500  22.752  23.522  1.00  0.00    +0.000 C 
ATOM    109  H19 UNL A   1      36.946  23.710  23.695  1.00  0.00    +0.000 H 
ATOM    110  H20 UNL A   1      36.570  22.425  22.506  1.00  0.00    +0.000 H 
BRANCH   18   17
ATOM     17  C13 UNL A   1      35.004  22.866  23.830  1.00  0.00    +0.000 C 
ATOM    107  H17 UNL A   1      34.852  23.714  24.465  1.00  0.00    +0.000 H 
ATOM    108  H18 UNL A   1      34.494  22.968  22.895  1.00  0.00    +0.000 H 
BRANCH   17   16
ATOM    105  H15 UNL A   1      33.523  21.343  24.043  1.00  0.00    +0.000 H 
ATOM    106  H16 UNL A   1      35.150  20.837  24.463  1.00  0.00    +0.000 H 
ATOM     16  C12 UNL A   1      34.434  21.629  24.525  1.00  0.00    +0.000 C 
BRANCH   16   15
ATOM     15  N2  UNL A   1      34.167  21.909  25.916  1.00  0.00    +0.000 N 
ATOM    104  H14 UNL A   1      34.969  21.955  26.484  1.00  0.00    +0.000 H 
BRANCH   15   13
ATOM     13  C11 UNL A   1      32.999  22.119  26.574  1.00  0.00    +0.000 C 
ATOM     14  O2  UNL A   1      33.058  22.248  27.800  1.00  0.00    +0.000 O 
BRANCH   13   12
ATOM     12  C10 UNL A   1      31.655  22.085  25.871  1.00  0.00    +0.000 C 
ATOM    102  H12 UNL A   1      31.840  21.732  24.877  1.00  0.00    +0.000 H 
ATOM    103  H13 UNL A   1      31.062  21.473  26.518  1.00  0.00    +0.000 H 
BRANCH   12   11
ATOM     11  C9  UNL A   1      30.809  23.357  25.734  1.00  0.00    +0.000 C 
ATOM    100  H10 UNL A   1      29.788  23.042  25.769  1.00  0.00    +0.000 H 
ATOM    101  H11 UNL A   1      31.194  23.966  26.525  1.00  0.00    +0.000 H 
BRANCH   11   10
ATOM     10  C8  UNL A   1      30.931  24.294  24.520  1.00  0.00    +0.000 C 
ATOM     99  H9  UNL A   1      29.915  24.583  24.346  1.00  0.00    +0.000 H 
ATOM     98  H8  UNL A   1      31.440  23.741  23.760  1.00  0.00    +0.000 H 
BRANCH   10    9
ATOM      2  C2  UNL A   1      33.171  29.630  26.490  1.00  0.00    +0.000 C 
ATOM      3  C3  UNL A   1      32.124  30.148  25.714  1.00  0.00    +0.000 C 
ATOM      4  C4  UNL A   1      31.346  29.290  24.917  1.00  0.00    +0.000 C 
ATOM      6  C6  UNL A   1      31.639  27.933  24.985  1.00  0.00    +0.000 C 
ATOM      7  C7  UNL A   1      30.914  26.775  24.414  1.00  0.00    +0.000 C 
ATOM      8  O1  UNL A   1      29.798  26.878  23.924  1.00  0.00    +0.000 O 
ATOM      9  N1  UNL A   1      31.616  25.581  24.625  1.00  0.00    +0.000 N 
ATOM     88  S1  UNL A   1      33.074  25.808  25.494  1.00  0.00    +0.000 S 
ATOM     89  C63 UNL A   1      32.734  27.525  25.720  1.00  0.00    +0.000 C 
ATOM     90  N8  UNL A   1      33.499  28.318  26.489  1.00  0.00    +0.000 N 
ATOM     94  H4  UNL A   1      31.924  31.161  25.730  1.00  0.00    +0.000 H 
BRANCH    2    1
ATOM      1  C1  UNL A   1      33.971  30.514  27.400  1.00  0.00    +0.000 C 
ATOM     91  H1  UNL A   1      35.007  30.256  27.325  1.00  0.00    +0.000 H 
ATOM     92  H2  UNL A   1      33.643  30.379  28.409  1.00  0.00    +0.000 H 
ATOM     93  H3  UNL A   1      33.836  31.536  27.114  1.00  0.00    +0.000 H 
ENDBRANCH    2    1
BRANCH    4    5
ATOM     97  H7  UNL A   1      30.289  29.296  23.092  1.00  0.00    +0.000 H 
ATOM      5  C5  UNL A   1      30.283  29.834  24.017  1.00  0.00    +0.000 C 
ATOM     95  H5  UNL A   1      30.472  30.870  23.828  1.00  0.00    +0.000 H 
ATOM     96  H6  UNL A   1      29.327  29.725  24.487  1.00  0.00    +0.000 H 
ENDBRANCH    4    5
ENDBRANCH   10    9
ENDBRANCH   11   10
ENDBRANCH   12   11
ENDBRANCH   13   12
ENDBRANCH   15   13
ENDBRANCH   16   15
ENDBRANCH   17   16
ENDBRANCH   18   17
ENDBRANCH   19   18
ENDBRANCH   20   19
ENDBRANCH   21   20
ENDBRANCH   22   21
ENDBRANCH   23   22
ENDBRANCH   25   23
ENDBRANCH   29   28
BRANCH   33   34
ATOM     34  C27 UNL A   1      44.714  32.570  27.560  1.00  0.00    +0.000 C 
ATOM     35  C28 UNL A   1      45.929  32.651  26.850  1.00  0.00    +0.000 C 
ATOM     36  F1  UNL A   1      46.707  31.569  26.699  1.00  0.00    +0.000 F 
ATOM     37  C29 UNL A   1      46.412  33.863  26.346  1.00  0.00    +0.000 C 
ATOM     38  F2  UNL A   1      47.622  33.910  25.775  1.00  0.00    +0.000 F 
ATOM     39  C30 UNL A   1      45.674  35.025  26.483  1.00  0.00    +0.000 C 
ATOM     40  F3  UNL A   1      46.157  36.194  26.045  1.00  0.00    +0.000 F 
ATOM     41  C31 UNL A   1      44.455  34.977  27.124  1.00  0.00    +0.000 C 
ATOM     42  F4  UNL A   1      43.734  36.094  27.285  1.00  0.00    +0.000 F 
ATOM     43  C32 UNL A   1      43.998  33.780  27.675  1.00  0.00    +0.000 C 
ATOM     44  F5  UNL A   1      42.885  33.884  28.413  1.00  0.00    +0.000 F 
ENDBRANCH   33   34
BRANCH   50   51
ATOM     51  C38 UNL A   1      41.925  30.392  33.485  1.00  0.00    +0.000 C 
ATOM     52  C39 UNL A   1      41.586  29.032  33.355  1.00  0.00    +0.000 C 
ATOM     53  F6  UNL A   1      41.409  28.483  32.147  1.00  0.00    +0.000 F 
ATOM     54  C40 UNL A   1      41.476  28.198  34.468  1.00  0.00    +0.000 C 
ATOM     55  F7  UNL A   1      41.142  26.908  34.313  1.00  0.00    +0.000 F 
ATOM     56  C41 UNL A   1      41.747  28.692  35.733  1.00  0.00    +0.000 C 
ATOM     57  F8  UNL A   1      41.684  27.883  36.800  1.00  0.00    +0.000 F 
ATOM     58  C42 UNL A   1      42.107  30.020  35.886  1.00  0.00    +0.000 C 
ATOM     59  F9  UNL A   1      42.414  30.493  37.103  1.00  0.00    +0.000 F 
ATOM     60  C43 UNL A   1      42.181  30.862  34.779  1.00  0.00    +0.000 C 
ATOM     61  F10 UNL A   1      42.556  32.138  34.965  1.00  0.00    +0.000 F 
ENDBRANCH   50   51
BRANCH   65   66
ATOM     66  C47 UNL A   1      36.542  32.113  30.606  1.00  0.00    +0.000 C 
ATOM     67  C48 UNL A   1      35.700  32.487  31.666  1.00  0.00    +0.000 C 
ATOM     68  F11 UNL A   1      35.918  32.008  32.900  1.00  0.00    +0.000 F 
ATOM     69  C49 UNL A   1      34.676  33.423  31.492  1.00  0.00    +0.000 C 
ATOM     70  F12 UNL A   1      33.939  33.812  32.543  1.00  0.00    +0.000 F 
ATOM     71  C50 UNL A   1      34.459  34.003  30.252  1.00  0.00    +0.000 C 
ATOM     72  F13 UNL A   1      33.528  34.955  30.102  1.00  0.00    +0.000 F 
ATOM     73  C51 UNL A   1      35.244  33.623  29.179  1.00  0.00    +0.000 C 
ATOM     74  F14 UNL A   1      35.068  34.204  27.983  1.00  0.00    +0.000 F 
ATOM     75  C52 UNL A   1      36.269  32.691  29.351  1.00  0.00    +0.000 C 
ATOM     76  F15 UNL A   1      37.053  32.439  28.294  1.00  0.00    +0.000 F 
ENDBRANCH   65   66
TORSDOF 20
ENDMDL
MODEL 4
REMARK VINA RESULT:     -10.8      3.199      8.823
ROOT
ATOM    129  H39 UNL A   1      38.606  27.431  30.965  1.00  0.00    +0.000 H 
ATOM     29  C23 UNL A   1      40.118  29.000  29.103  1.00  0.00    +0.000 C 
ATOM     30  C24 UNL A   1      40.413  28.734  30.530  1.00  0.00    +0.000 C 
ATOM     31  N4  UNL A   1      41.362  29.238  31.243  1.00  0.00    +0.000 N 
ATOM     32  C25 UNL A   1      41.236  28.666  32.505  1.00  0.00    +0.000 C 
ATOM     33  C26 UNL A   1      42.298  28.595  33.352  1.00  0.00    +0.000 C 
ATOM     45  C33 UNL A   1      43.358  29.474  32.925  1.00  0.00    +0.000 C 
ATOM     46  C34 UNL A   1      43.506  30.842  32.826  1.00  0.00    +0.000 C 
ATOM     47  C35 UNL A   1      44.271  31.050  31.639  1.00  0.00    +0.000 C 
ATOM     48  C36 UNL A   1      44.602  29.801  31.109  1.00  0.00    +0.000 C 
ATOM     49  N5  UNL A   1      44.345  28.933  32.138  1.00  0.00    +0.000 N 
ATOM     50  C37 UNL A   1      45.005  29.381  29.784  1.00  0.00    +0.000 C 
ATOM     62  C44 UNL A   1      44.980  28.094  29.326  1.00  0.00    +0.000 C 
ATOM     63  N6  UNL A   1      44.957  27.823  27.965  1.00  0.00    +0.000 N 
ATOM     64  C45 UNL A   1      44.368  26.661  27.863  1.00  0.00    +0.000 C 
ATOM     65  C46 UNL A   1      43.411  26.319  26.779  1.00  0.00    +0.000 C 
ATOM     77  C53 UNL A   1      42.338  27.128  26.955  1.00  0.00    +0.000 C 
ATOM     78  C54 UNL A   1      41.304  27.521  26.028  1.00  0.00    +0.000 C 
ATOM     79  C55 UNL A   1      40.488  28.390  26.659  1.00  0.00    +0.000 C 
ATOM     80  C56 UNL A   1      40.829  28.457  28.088  1.00  0.00    +0.000 C 
ATOM     81  N7  UNL A   1      42.003  27.750  28.175  1.00  0.00    +0.000 N 
ATOM     82  C57 UNL A   1      44.308  25.880  29.086  1.00  0.00    +0.000 C 
ATOM     83  C58 UNL A   1      44.632  26.829  29.967  1.00  0.00    +0.000 C 
ATOM     84  C59 UNL A   1      39.953  28.012  32.527  1.00  0.00    +0.000 C 
ATOM     85  C60 UNL A   1      39.448  27.928  31.294  1.00  0.00    +0.000 C 
ATOM    120  H30 UNL A   1      43.142  31.560  33.472  1.00  0.00    +0.000 H 
ATOM    121  H31 UNL A   1      44.533  31.966  31.240  1.00  0.00    +0.000 H 
ATOM    122  H32 UNL A   1      44.791  28.067  32.288  1.00  0.00    +0.000 H 
ATOM    123  H33 UNL A   1      41.205  27.194  25.054  1.00  0.00    +0.000 H 
ATOM    124  H34 UNL A   1      39.734  28.930  26.205  1.00  0.00    +0.000 H 
ATOM    125  H35 UNL A   1      42.546  27.686  28.993  1.00  0.00    +0.000 H 
ATOM    126  H36 UNL A   1      44.080  24.884  29.231  1.00  0.00    +0.000 H 
ATOM    127  H37 UNL A   1      44.635  26.684  30.989  1.00  0.00    +0.000 H 
ATOM    128  H38 UNL A   1      39.488  27.658  33.377  1.00  0.00    +0.000 H 
ENDROOT
BRANCH   29   28
ATOM    130  H40 UNL A   1      39.682  31.512  29.581  1.00  0.00    +0.000 H 
ATOM    131  H41 UNL A   1      37.472  32.441  29.978  1.00  0.00    +0.000 H 
ATOM     28  C22 UNL A   1      38.871  29.703  28.863  1.00  0.00    +0.000 C 
ATOM     86  C61 UNL A   1      38.822  31.012  29.306  1.00  0.00    +0.000 C 
ATOM     87  C62 UNL A   1      37.607  31.619  29.369  1.00  0.00    +0.000 C 
ATOM    118  H28 UNL A   1      35.819  29.482  27.501  1.00  0.00    +0.000 H 
ATOM     25  C19 UNL A   1      36.551  31.132  28.614  1.00  0.00    +0.000 C 
ATOM     26  C20 UNL A   1      36.613  29.858  28.043  1.00  0.00    +0.000 C 
ATOM     27  C21 UNL A   1      37.773  29.109  28.222  1.00  0.00    +0.000 C 
ATOM    119  H29 UNL A   1      37.825  28.133  27.889  1.00  0.00    +0.000 H 
BRANCH   25   23
ATOM     23  C18 UNL A   1      35.390  32.025  28.434  1.00  0.00    +0.000 C 
ATOM     24  O3  UNL A   1      35.223  32.978  29.166  1.00  0.00    +0.000 O 
BRANCH   23   22
ATOM    117  H27 UNL A   1      34.839  31.918  26.490  1.00  0.00    +0.000 H 
ATOM     22  N3  UNL A   1      34.506  31.744  27.400  1.00  0.00    +0.000 N 
BRANCH   22   21
ATOM    115  H25 UNL A   1      33.049  30.658  28.399  1.00  0.00    +0.000 H 
ATOM    116  H26 UNL A   1      32.470  32.053  27.475  1.00  0.00    +0.000 H 
ATOM     21  C17 UNL A   1      33.140  31.220  27.493  1.00  0.00    +0.000 C 
BRANCH   21   20
ATOM    113  H23 UNL A   1      31.720  30.348  26.186  1.00  0.00    +0.000 H 
ATOM    114  H24 UNL A   1      33.310  30.680  25.470  1.00  0.00    +0.000 H 
ATOM     20  C16 UNL A   1      32.781  30.317  26.326  1.00  0.00    +0.000 C 
BRANCH   20   19
ATOM     19  C15 UNL A   1      33.203  28.856  26.538  1.00  0.00    +0.000 C 
ATOM    111  H21 UNL A   1      33.445  28.444  25.580  1.00  0.00    +0.000 H 
ATOM    112  H22 UNL A   1      34.024  28.893  27.223  1.00  0.00    +0.000 H 
BRANCH   19   18
ATOM     18  C14 UNL A   1      32.162  27.934  27.196  1.00  0.00    +0.000 C 
ATOM    109  H19 UNL A   1      32.461  27.768  28.210  1.00  0.00    +0.000 H 
ATOM    110  H20 UNL A   1      31.221  28.435  27.104  1.00  0.00    +0.000 H 
BRANCH   18   17
ATOM     17  C13 UNL A   1      31.986  26.569  26.525  1.00  0.00    +0.000 C 
ATOM    107  H17 UNL A   1      31.432  25.935  27.186  1.00  0.00    +0.000 H 
ATOM    108  H18 UNL A   1      31.472  26.733  25.601  1.00  0.00    +0.000 H 
BRANCH   17   16
ATOM    105  H15 UNL A   1      33.628  26.186  25.215  1.00  0.00    +0.000 H 
ATOM    106  H16 UNL A   1      34.041  26.168  26.920  1.00  0.00    +0.000 H 
ATOM     16  C12 UNL A   1      33.312  25.884  26.191  1.00  0.00    +0.000 C 
BRANCH   16   15
ATOM     15  N2  UNL A   1      33.159  24.448  26.217  1.00  0.00    +0.000 N 
ATOM    104  H14 UNL A   1      32.288  24.138  26.553  1.00  0.00    +0.000 H 
BRANCH   15   13
ATOM     13  C11 UNL A   1      34.011  23.455  25.860  1.00  0.00    +0.000 C 
ATOM     14  O2  UNL A   1      34.292  22.616  26.720  1.00  0.00    +0.000 O 
BRANCH   13   12
ATOM     12  C10 UNL A   1      34.693  23.421  24.505  1.00  0.00    +0.000 C 
ATOM    102  H12 UNL A   1      34.862  24.440  24.223  1.00  0.00    +0.000 H 
ATOM    103  H13 UNL A   1      35.547  22.801  24.683  1.00  0.00    +0.000 H 
BRANCH   12   11
ATOM     11  C9  UNL A   1      34.020  22.741  23.306  1.00  0.00    +0.000 C 
ATOM    100  H10 UNL A   1      34.802  22.524  22.609  1.00  0.00    +0.000 H 
ATOM    101  H11 UNL A   1      33.498  21.932  23.773  1.00  0.00    +0.000 H 
BRANCH   11   10
ATOM     10  C8  UNL A   1      32.900  23.422  22.501  1.00  0.00    +0.000 C 
ATOM     99  H9  UNL A   1      32.118  22.692  22.526  1.00  0.00    +0.000 H 
ATOM     98  H8  UNL A   1      33.323  23.681  21.553  1.00  0.00    +0.000 H 
BRANCH   10    9
ATOM      2  C2  UNL A   1      29.449  28.435  23.073  1.00  0.00    +0.000 C 
ATOM      3  C3  UNL A   1      30.680  29.081  22.895  1.00  0.00    +0.000 C 
ATOM      4  C4  UNL A   1      31.868  28.331  22.838  1.00  0.00    +0.000 C 
ATOM      6  C6  UNL A   1      31.742  26.950  22.915  1.00  0.00    +0.000 C 
ATOM      7  C7  UNL A   1      32.759  25.891  22.719  1.00  0.00    +0.000 C 
ATOM      8  O1  UNL A   1      33.871  26.126  22.266  1.00  0.00    +0.000 O 
ATOM      9  N1  UNL A   1      32.234  24.623  23.000  1.00  0.00    +0.000 N 
ATOM     88  S1  UNL A   1      30.584  24.669  23.455  1.00  0.00    +0.000 S 
ATOM     89  C63 UNL A   1      30.498  26.408  23.162  1.00  0.00    +0.000 C 
ATOM     90  N8  UNL A   1      29.345  27.095  23.226  1.00  0.00    +0.000 N 
ATOM     94  H4  UNL A   1      30.714  30.110  22.805  1.00  0.00    +0.000 H 
BRANCH    2    1
ATOM      1  C1  UNL A   1      28.162  29.205  23.070  1.00  0.00    +0.000 C 
ATOM     91  H1  UNL A   1      27.521  28.824  22.302  1.00  0.00    +0.000 H 
ATOM     92  H2  UNL A   1      28.365  30.238  22.884  1.00  0.00    +0.000 H 
ATOM     93  H3  UNL A   1      27.681  29.100  24.020  1.00  0.00    +0.000 H 
ENDBRANCH    2    1
BRANCH    4    5
ATOM     97  H7  UNL A   1      33.384  29.279  21.718  1.00  0.00    +0.000 H 
ATOM      5  C5  UNL A   1      33.198  29.008  22.736  1.00  0.00    +0.000 C 
ATOM     95  H5  UNL A   1      33.964  28.342  23.074  1.00  0.00    +0.000 H 
ATOM     96  H6  UNL A   1      33.198  29.889  23.346  1.00  0.00    +0.000 H 
ENDBRANCH    4    5
ENDBRANCH   10    9
ENDBRANCH   11   10
ENDBRANCH   12   11
ENDBRANCH   13   12
ENDBRANCH   15   13
ENDBRANCH   16   15
ENDBRANCH   17   16
ENDBRANCH   18   17
ENDBRANCH   19   18
ENDBRANCH   20   19
ENDBRANCH   21   20
ENDBRANCH   22   21
ENDBRANCH   23   22
ENDBRANCH   25   23
ENDBRANCH   29   28
BRANCH   33   34
ATOM     34  C27 UNL A   1      42.520  27.498  34.363  1.00  0.00    +0.000 C 
ATOM     35  C28 UNL A   1      43.097  26.281  33.946  1.00  0.00    +0.000 C 
ATOM     36  F1  UNL A   1      43.648  26.167  32.730  1.00  0.00    +0.000 F 
ATOM     37  C29 UNL A   1      43.052  25.131  34.741  1.00  0.00    +0.000 C 
ATOM     38  F2  UNL A   1      43.515  23.971  34.258  1.00  0.00    +0.000 F 
ATOM     39  C30 UNL A   1      42.479  25.168  35.999  1.00  0.00    +0.000 C 
ATOM     40  F3  UNL A   1      42.391  24.057  36.740  1.00  0.00    +0.000 F 
ATOM     41  C31 UNL A   1      41.953  26.353  36.465  1.00  0.00    +0.000 C 
ATOM     42  F4  UNL A   1      41.376  26.405  37.673  1.00  0.00    +0.000 F 
ATOM     43  C32 UNL A   1      41.947  27.487  35.653  1.00  0.00    +0.000 C 
ATOM     44  F5  UNL A   1      41.267  28.531  36.141  1.00  0.00    +0.000 F 
ENDBRANCH   33   34
BRANCH   50   51
ATOM     51  C38 UNL A   1      45.267  30.473  28.774  1.00  0.00    +0.000 C 
ATOM     52  C39 UNL A   1      44.258  31.157  28.072  1.00  0.00    +0.000 C 
ATOM     53  F6  UNL A   1      42.970  30.832  28.233  1.00  0.00    +0.000 F 
ATOM     54  C40 UNL A   1      44.555  32.230  27.230  1.00  0.00    +0.000 C 
ATOM     55  F7  UNL A   1      43.573  32.857  26.566  1.00  0.00    +0.000 F 
ATOM     56  C41 UNL A   1      45.861  32.672  27.105  1.00  0.00    +0.000 C 
ATOM     57  F8  UNL A   1      46.145  33.729  26.331  1.00  0.00    +0.000 F 
ATOM     58  C42 UNL A   1      46.870  32.032  27.806  1.00  0.00    +0.000 C 
ATOM     59  F9  UNL A   1      48.130  32.482  27.724  1.00  0.00    +0.000 F 
ATOM     60  C43 UNL A   1      46.579  30.938  28.618  1.00  0.00    +0.000 C 
ATOM     61  F10 UNL A   1      47.580  30.358  29.298  1.00  0.00    +0.000 F 
ENDBRANCH   50   51
BRANCH   65   66
ATOM     66  C47 UNL A   1      43.477  25.039  26.037  1.00  0.00    +0.000 C 
ATOM     67  C48 UNL A   1      44.535  24.782  25.151  1.00  0.00    +0.000 C 
ATOM     68  F11 UNL A   1      45.350  25.776  24.770  1.00  0.00    +0.000 F 
ATOM     69  C49 UNL A   1      44.823  23.486  24.711  1.00  0.00    +0.000 C 
ATOM     70  F12 UNL A   1      45.887  23.268  23.924  1.00  0.00    +0.000 F 
ATOM     71  C50 UNL A   1      44.055  22.414  25.137  1.00  0.00    +0.000 C 
ATOM     72  F13 UNL A   1      44.376  21.164  24.776  1.00  0.00    +0.000 F 
ATOM     73  C51 UNL A   1      42.979  22.641  25.976  1.00  0.00    +0.000 C 
ATOM     74  F14 UNL A   1      42.251  21.608  26.424  1.00  0.00    +0.000 F 
ATOM     75  C52 UNL A   1      42.692  23.933  26.419  1.00  0.00    +0.000 C 
ATOM     76  F15 UNL A   1      41.696  24.071  27.304  1.00  0.00    +0.000 F 
ENDBRANCH   65   66
TORSDOF 20
ENDMDL
MODEL 5
REMARK VINA RESULT:     -10.7      4.488      7.244
ROOT
ATOM    129  H39 UNL A   1      41.519  28.797  25.993  1.00  0.00    +0.000 H 
ATOM     29  C23 UNL A   1      40.980  28.051  28.708  1.00  0.00    +0.000 C 
ATOM     30  C24 UNL A   1      42.047  28.941  28.196  1.00  0.00    +0.000 C 
ATOM     31  N4  UNL A   1      43.008  29.483  28.866  1.00  0.00    +0.000 N 
ATOM     32  C25 UNL A   1      43.728  30.244  27.951  1.00  0.00    +0.000 C 
ATOM     33  C26 UNL A   1      44.495  31.291  28.361  1.00  0.00    +0.000 C 
ATOM     45  C33 UNL A   1      44.725  31.237  29.783  1.00  0.00    +0.000 C 
ATOM     46  C34 UNL A   1      45.409  30.384  30.625  1.00  0.00    +0.000 C 
ATOM     47  C35 UNL A   1      44.612  30.307  31.806  1.00  0.00    +0.000 C 
ATOM     48  C36 UNL A   1      43.518  31.161  31.650  1.00  0.00    +0.000 C 
ATOM     49  N5  UNL A   1      43.870  31.950  30.586  1.00  0.00    +0.000 N 
ATOM     50  C37 UNL A   1      42.226  31.218  32.301  1.00  0.00    +0.000 C 
ATOM     62  C44 UNL A   1      41.137  31.893  31.826  1.00  0.00    +0.000 C 
ATOM     63  N6  UNL A   1      39.855  31.561  32.245  1.00  0.00    +0.000 N 
ATOM     64  C45 UNL A   1      39.076  31.916  31.259  1.00  0.00    +0.000 C 
ATOM     65  C46 UNL A   1      37.897  31.126  30.821  1.00  0.00    +0.000 C 
ATOM     77  C53 UNL A   1      38.383  29.954  30.344  1.00  0.00    +0.000 C 
ATOM     78  C54 UNL A   1      37.730  28.682  30.152  1.00  0.00    +0.000 C 
ATOM     79  C55 UNL A   1      38.652  27.804  29.709  1.00  0.00    +0.000 C 
ATOM     80  C56 UNL A   1      39.908  28.503  29.398  1.00  0.00    +0.000 C 
ATOM     81  N7  UNL A   1      39.705  29.768  29.891  1.00  0.00    +0.000 N 
ATOM     82  C57 UNL A   1      39.656  32.845  30.305  1.00  0.00    +0.000 C 
ATOM     83  C58 UNL A   1      40.940  32.745  30.657  1.00  0.00    +0.000 C 
ATOM     84  C59 UNL A   1      43.264  29.855  26.645  1.00  0.00    +0.000 C 
ATOM     85  C60 UNL A   1      42.146  29.132  26.741  1.00  0.00    +0.000 C 
ATOM    120  H30 UNL A   1      46.305  29.905  30.440  1.00  0.00    +0.000 H 
ATOM    121  H31 UNL A   1      44.809  29.722  32.633  1.00  0.00    +0.000 H 
ATOM    122  H32 UNL A   1      43.562  32.872  30.424  1.00  0.00    +0.000 H 
ATOM    123  H33 UNL A   1      36.733  28.479  30.323  1.00  0.00    +0.000 H 
ATOM    124  H34 UNL A   1      38.499  26.788  29.603  1.00  0.00    +0.000 H 
ATOM    125  H35 UNL A   1      40.401  30.463  29.924  1.00  0.00    +0.000 H 
ATOM    126  H36 UNL A   1      39.208  33.415  29.571  1.00  0.00    +0.000 H 
ATOM    127  H37 UNL A   1      41.709  33.217  30.156  1.00  0.00    +0.000 H 
ATOM    128  H38 UNL A   1      43.731  30.101  25.758  1.00  0.00    +0.000 H 
ENDROOT
BRANCH   29   28
ATOM    130  H40 UNL A   1      42.156  26.075  29.908  1.00  0.00    +0.000 H 
ATOM    131  H41 UNL A   1      42.977  24.098  28.756  1.00  0.00    +0.000 H 
ATOM     28  C22 UNL A   1      41.047  26.685  28.222  1.00  0.00    +0.000 C 
ATOM     86  C61 UNL A   1      41.830  25.819  28.963  1.00  0.00    +0.000 C 
ATOM     87  C62 UNL A   1      42.159  24.622  28.408  1.00  0.00    +0.000 C 
ATOM    118  H28 UNL A   1      39.942  24.548  25.891  1.00  0.00    +0.000 H 
ATOM     25  C19 UNL A   1      41.394  24.106  27.373  1.00  0.00    +0.000 C 
ATOM     26  C20 UNL A   1      40.496  24.922  26.678  1.00  0.00    +0.000 C 
ATOM     27  C21 UNL A   1      40.365  26.251  27.075  1.00  0.00    +0.000 C 
ATOM    119  H29 UNL A   1      39.778  26.905  26.535  1.00  0.00    +0.000 H 
BRANCH   25   23
ATOM     23  C18 UNL A   1      41.562  22.673  27.066  1.00  0.00    +0.000 C 
ATOM     24  O3  UNL A   1      41.399  21.833  27.927  1.00  0.00    +0.000 O 
BRANCH   23   22
ATOM    117  H27 UNL A   1      41.177  21.930  25.225  1.00  0.00    +0.000 H 
ATOM     22  N3  UNL A   1      41.900  22.320  25.767  1.00  0.00    +0.000 N 
BRANCH   22   21
ATOM    115  H25 UNL A   1      43.415  21.544  24.582  1.00  0.00    +0.000 H 
ATOM    116  H26 UNL A   1      43.134  23.285  24.427  1.00  0.00    +0.000 H 
ATOM     21  C17 UNL A   1      43.199  22.456  25.099  1.00  0.00    +0.000 C 
BRANCH   21   20
ATOM    113  H23 UNL A   1      43.964  22.591  27.068  1.00  0.00    +0.000 H 
ATOM    114  H24 UNL A   1      45.129  22.072  25.834  1.00  0.00    +0.000 H 
ATOM     20  C16 UNL A   1      44.328  22.740  26.073  1.00  0.00    +0.000 C 
BRANCH   20   19
ATOM     19  C15 UNL A   1      44.878  24.169  25.963  1.00  0.00    +0.000 C 
ATOM    111  H21 UNL A   1      45.001  24.549  26.956  1.00  0.00    +0.000 H 
ATOM    112  H22 UNL A   1      45.789  24.081  25.408  1.00  0.00    +0.000 H 
BRANCH   19   18
ATOM     18  C14 UNL A   1      44.017  25.173  25.180  1.00  0.00    +0.000 C 
ATOM    109  H19 UNL A   1      44.068  24.915  24.142  1.00  0.00    +0.000 H 
ATOM    110  H20 UNL A   1      43.031  25.103  25.589  1.00  0.00    +0.000 H 
BRANCH   18   17
ATOM     17  C13 UNL A   1      44.434  26.639  25.323  1.00  0.00    +0.000 C 
ATOM    107  H17 UNL A   1      44.182  27.154  24.420  1.00  0.00    +0.000 H 
ATOM    108  H18 UNL A   1      43.913  27.036  26.170  1.00  0.00    +0.000 H 
BRANCH   17   16
ATOM    105  H15 UNL A   1      46.350  25.883  25.889  1.00  0.00    +0.000 H 
ATOM    106  H16 UNL A   1      46.400  27.162  24.688  1.00  0.00    +0.000 H 
ATOM     16  C12 UNL A   1      45.930  26.820  25.586  1.00  0.00    +0.000 C 
BRANCH   16   15
ATOM     15  N2  UNL A   1      46.146  27.795  26.627  1.00  0.00    +0.000 N 
ATOM    104  H14 UNL A   1      46.128  28.730  26.320  1.00  0.00    +0.000 H 
BRANCH   15   13
ATOM     13  C11 UNL A   1      46.371  27.645  27.957  1.00  0.00    +0.000 C 
ATOM     14  O2  UNL A   1      47.251  28.346  28.463  1.00  0.00    +0.000 O 
BRANCH   13   12
ATOM     12  C10 UNL A   1      45.665  26.585  28.782  1.00  0.00    +0.000 C 
ATOM    102  H12 UNL A   1      44.837  26.243  28.197  1.00  0.00    +0.000 H 
ATOM    103  H13 UNL A   1      46.449  25.889  28.997  1.00  0.00    +0.000 H 
BRANCH   12   11
ATOM     11  C9  UNL A   1      45.111  26.916  30.174  1.00  0.00    +0.000 C 
ATOM    100  H10 UNL A   1      44.977  27.977  30.197  1.00  0.00    +0.000 H 
ATOM    101  H11 UNL A   1      44.252  26.280  30.228  1.00  0.00    +0.000 H 
BRANCH   11   10
ATOM     10  C8  UNL A   1      45.865  26.548  31.464  1.00  0.00    +0.000 C 
ATOM     99  H9  UNL A   1      46.573  27.345  31.556  1.00  0.00    +0.000 H 
ATOM     98  H8  UNL A   1      46.234  25.553  31.326  1.00  0.00    +0.000 H 
BRANCH   10    9
ATOM      2  C2  UNL A   1      44.468  25.901  37.380  1.00  0.00    +0.000 C 
ATOM      3  C3  UNL A   1      43.700  24.833  36.894  1.00  0.00    +0.000 C 
ATOM      4  C4  UNL A   1      43.579  24.624  35.509  1.00  0.00    +0.000 C 
ATOM      6  C6  UNL A   1      44.289  25.485  34.680  1.00  0.00    +0.000 C 
ATOM      7  C7  UNL A   1      44.507  25.431  33.217  1.00  0.00    +0.000 C 
ATOM      8  O1  UNL A   1      44.204  24.454  32.545  1.00  0.00    +0.000 O 
ATOM      9  N1  UNL A   1      45.193  26.564  32.761  1.00  0.00    +0.000 N 
ATOM     88  S1  UNL A   1      45.597  27.651  34.022  1.00  0.00    +0.000 S 
ATOM     89  C63 UNL A   1      44.959  26.551  35.246  1.00  0.00    +0.000 C 
ATOM     90  N8  UNL A   1      45.090  26.781  36.563  1.00  0.00    +0.000 N 
ATOM     94  H4  UNL A   1      43.223  24.199  37.555  1.00  0.00    +0.000 H 
BRANCH    2    1
ATOM      1  C1  UNL A   1      44.667  26.105  38.852  1.00  0.00    +0.000 C 
ATOM     91  H1  UNL A   1      45.684  25.893  39.107  1.00  0.00    +0.000 H 
ATOM     92  H2  UNL A   1      44.019  25.449  39.395  1.00  0.00    +0.000 H 
ATOM     93  H3  UNL A   1      44.439  27.120  39.105  1.00  0.00    +0.000 H 
ENDBRANCH    2    1
BRANCH    4    5
ATOM     97  H7  UNL A   1      42.975  22.606  35.401  1.00  0.00    +0.000 H 
ATOM      5  C5  UNL A   1      42.696  23.545  34.970  1.00  0.00    +0.000 C 
ATOM     95  H5  UNL A   1      42.801  23.495  33.907  1.00  0.00    +0.000 H 
ATOM     96  H6  UNL A   1      41.676  23.761  35.217  1.00  0.00    +0.000 H 
ENDBRANCH    4    5
ENDBRANCH   10    9
ENDBRANCH   11   10
ENDBRANCH   12   11
ENDBRANCH   13   12
ENDBRANCH   15   13
ENDBRANCH   16   15
ENDBRANCH   17   16
ENDBRANCH   18   17
ENDBRANCH   19   18
ENDBRANCH   20   19
ENDBRANCH   21   20
ENDBRANCH   22   21
ENDBRANCH   23   22
ENDBRANCH   25   23
ENDBRANCH   29   28
BRANCH   33   34
ATOM     34  C27 UNL A   1      44.752  32.536  27.550  1.00  0.00    +0.000 C 
ATOM     35  C28 UNL A   1      45.967  32.662  26.846  1.00  0.00    +0.000 C 
ATOM     36  F1  UNL A   1      46.790  31.613  26.708  1.00  0.00    +0.000 F 
ATOM     37  C29 UNL A   1      46.401  33.889  26.333  1.00  0.00    +0.000 C 
ATOM     38  F2  UNL A   1      47.612  33.983  25.769  1.00  0.00    +0.000 F 
ATOM     39  C30 UNL A   1      45.614  35.020  26.457  1.00  0.00    +0.000 C 
ATOM     40  F3  UNL A   1      46.049  36.205  26.011  1.00  0.00    +0.000 F 
ATOM     41  C31 UNL A   1      44.394  34.926  27.091  1.00  0.00    +0.000 C 
ATOM     42  F4  UNL A   1      43.626  36.014  27.238  1.00  0.00    +0.000 F 
ATOM     43  C32 UNL A   1      43.984  33.716  27.650  1.00  0.00    +0.000 C 
ATOM     44  F5  UNL A   1      42.865  33.779  28.380  1.00  0.00    +0.000 F 
ENDBRANCH   33   34
BRANCH   50   51
ATOM     51  C38 UNL A   1      42.013  30.291  33.473  1.00  0.00    +0.000 C 
ATOM     52  C39 UNL A   1      41.723  28.920  33.352  1.00  0.00    +0.000 C 
ATOM     53  F6  UNL A   1      41.567  28.356  32.148  1.00  0.00    +0.000 F 
ATOM     54  C40 UNL A   1      41.641  28.090  34.471  1.00  0.00    +0.000 C 
ATOM     55  F7  UNL A   1      41.353  26.788  34.326  1.00  0.00    +0.000 F 
ATOM     56  C41 UNL A   1      41.892  28.602  35.733  1.00  0.00    +0.000 C 
ATOM     57  F8  UNL A   1      41.857  27.800  36.806  1.00  0.00    +0.000 F 
ATOM     58  C42 UNL A   1      42.205  29.944  35.877  1.00  0.00    +0.000 C 
ATOM     59  F9  UNL A   1      42.493  30.436  37.090  1.00  0.00    +0.000 F 
ATOM     60  C43 UNL A   1      42.251  30.780  34.764  1.00  0.00    +0.000 C 
ATOM     61  F10 UNL A   1      42.580  32.069  34.941  1.00  0.00    +0.000 F 
ENDBRANCH   50   51
BRANCH   65   66
ATOM     66  C47 UNL A   1      36.583  31.751  30.537  1.00  0.00    +0.000 C 
ATOM     67  C48 UNL A   1      35.752  32.170  31.589  1.00  0.00    +0.000 C 
ATOM     68  F11 UNL A   1      36.011  31.783  32.846  1.00  0.00    +0.000 F 
ATOM     69  C49 UNL A   1      34.695  33.061  31.375  1.00  0.00    +0.000 C 
ATOM     70  F12 UNL A   1      33.968  33.497  32.414  1.00  0.00    +0.000 F 
ATOM     71  C50 UNL A   1      34.435  33.548  30.105  1.00  0.00    +0.000 C 
ATOM     72  F13 UNL A   1      33.471  34.459  29.912  1.00  0.00    +0.000 F 
ATOM     73  C51 UNL A   1      35.209  33.120  29.042  1.00  0.00    +0.000 C 
ATOM     74  F14 UNL A   1      34.990  33.612  27.813  1.00  0.00    +0.000 F 
ATOM     75  C52 UNL A   1      36.267  32.233  29.253  1.00  0.00    +0.000 C 
ATOM     76  F15 UNL A   1      37.036  31.934  28.198  1.00  0.00    +0.000 F 
ENDBRANCH   65   66
TORSDOF 20
ENDMDL
MODEL 6
REMARK VINA RESULT:     -10.5      3.222      8.658
ROOT
ATOM    129  H39 UNL A   1      38.852  27.453  32.096  1.00  0.00    +0.000 H 
ATOM     29  C23 UNL A   1      40.123  28.764  29.886  1.00  0.00    +0.000 C 
ATOM     30  C24 UNL A   1      40.640  28.573  31.260  1.00  0.00    +0.000 C 
ATOM     31  N4  UNL A   1      41.731  29.046  31.762  1.00  0.00    +0.000 N 
ATOM     32  C25 UNL A   1      41.786  28.573  33.069  1.00  0.00    +0.000 C 
ATOM     33  C26 UNL A   1      42.971  28.474  33.730  1.00  0.00    +0.000 C 
ATOM     45  C33 UNL A   1      43.999  29.233  33.062  1.00  0.00    +0.000 C 
ATOM     46  C34 UNL A   1      44.220  30.576  32.830  1.00  0.00    +0.000 C 
ATOM     47  C35 UNL A   1      44.781  30.640  31.518  1.00  0.00    +0.000 C 
ATOM     48  C36 UNL A   1      44.930  29.335  31.043  1.00  0.00    +0.000 C 
ATOM     49  N5  UNL A   1      44.796  28.562  32.168  1.00  0.00    +0.000 N 
ATOM     50  C37 UNL A   1      45.069  28.795  29.708  1.00  0.00    +0.000 C 
ATOM     62  C44 UNL A   1      44.877  27.485  29.366  1.00  0.00    +0.000 C 
ATOM     63  N6  UNL A   1      44.601  27.125  28.054  1.00  0.00    +0.000 N 
ATOM     64  C45 UNL A   1      43.926  26.011  28.147  1.00  0.00    +0.000 C 
ATOM     65  C46 UNL A   1      42.775  25.674  27.269  1.00  0.00    +0.000 C 
ATOM     77  C53 UNL A   1      41.805  26.577  27.556  1.00  0.00    +0.000 C 
ATOM     78  C54 UNL A   1      40.656  26.988  26.786  1.00  0.00    +0.000 C 
ATOM     79  C55 UNL A   1      40.023  27.961  27.472  1.00  0.00    +0.000 C 
ATOM     80  C56 UNL A   1      40.609  28.097  28.814  1.00  0.00    +0.000 C 
ATOM     81  N7  UNL A   1      41.729  27.306  28.760  1.00  0.00    +0.000 N 
ATOM     82  C57 UNL A   1      44.024  25.322  29.421  1.00  0.00    +0.000 C 
ATOM     83  C58 UNL A   1      44.559  26.299  30.156  1.00  0.00    +0.000 C 
ATOM     84  C59 UNL A   1      40.484  28.029  33.358  1.00  0.00    +0.000 C 
ATOM     85  C60 UNL A   1      39.770  27.902  32.238  1.00  0.00    +0.000 C 
ATOM    120  H30 UNL A   1      44.023  31.363  33.467  1.00  0.00    +0.000 H 
ATOM    121  H31 UNL A   1      45.032  31.502  31.009  1.00  0.00    +0.000 H 
ATOM    122  H32 UNL A   1      45.201  27.676  32.311  1.00  0.00    +0.000 H 
ATOM    123  H33 UNL A   1      40.369  26.605  25.872  1.00  0.00    +0.000 H 
ATOM    124  H34 UNL A   1      39.240  28.528  27.108  1.00  0.00    +0.000 H 
ATOM    125  H35 UNL A   1      42.400  27.254  29.478  1.00  0.00    +0.000 H 
ATOM    126  H36 UNL A   1      43.758  24.360  29.683  1.00  0.00    +0.000 H 
ATOM    127  H37 UNL A   1      44.729  26.225  31.171  1.00  0.00    +0.000 H 
ATOM    128  H38 UNL A   1      40.151  27.772  34.300  1.00  0.00    +0.000 H 
ENDROOT
BRANCH   29   28
ATOM    130  H40 UNL A   1      39.990  31.305  29.380  1.00  0.00    +0.000 H 
ATOM    131  H41 UNL A   1      38.131  32.716  30.058  1.00  0.00    +0.000 H 
ATOM     28  C22 UNL A   1      38.904  29.548  29.802  1.00  0.00    +0.000 C 
ATOM     86  C61 UNL A   1      39.073  30.911  29.643  1.00  0.00    +0.000 C 
ATOM     87  C62 UNL A   1      37.995  31.716  29.844  1.00  0.00    +0.000 C 
ATOM    118  H28 UNL A   1      35.557  29.413  29.757  1.00  0.00    +0.000 H 
ATOM     25  C19 UNL A   1      36.715  31.190  29.762  1.00  0.00    +0.000 C 
ATOM     26  C20 UNL A   1      36.510  29.808  29.794  1.00  0.00    +0.000 C 
ATOM     27  C21 UNL A   1      37.624  28.976  29.874  1.00  0.00    +0.000 C 
ATOM    119  H29 UNL A   1      37.511  27.956  29.986  1.00  0.00    +0.000 H 
BRANCH   25   23
ATOM     23  C18 UNL A   1      35.605  32.151  29.620  1.00  0.00    +0.000 C 
ATOM     24  O3  UNL A   1      35.257  32.837  30.559  1.00  0.00    +0.000 O 
BRANCH   23   22
ATOM    117  H27 UNL A   1      35.351  32.927  27.769  1.00  0.00    +0.000 H 
ATOM     22  N3  UNL A   1      34.983  32.251  28.383  1.00  0.00    +0.000 N 
BRANCH   22   21
ATOM    115  H25 UNL A   1      33.289  31.099  28.706  1.00  0.00    +0.000 H 
ATOM    116  H26 UNL A   1      33.256  32.126  27.265  1.00  0.00    +0.000 H 
ATOM     21  C17 UNL A   1      33.847  31.476  27.874  1.00  0.00    +0.000 C 
BRANCH   21   20
ATOM    113  H23 UNL A   1      34.085  30.547  25.987  1.00  0.00    +0.000 H 
ATOM    114  H24 UNL A   1      35.320  30.142  27.195  1.00  0.00    +0.000 H 
ATOM     20  C16 UNL A   1      34.279  30.304  27.011  1.00  0.00    +0.000 C 
BRANCH   20   19
ATOM     19  C15 UNL A   1      33.547  28.998  27.350  1.00  0.00    +0.000 C 
ATOM    111  H21 UNL A   1      34.174  28.433  28.007  1.00  0.00    +0.000 H 
ATOM    112  H22 UNL A   1      32.613  29.299  27.780  1.00  0.00    +0.000 H 
BRANCH   19   18
ATOM     18  C14 UNL A   1      33.178  28.095  26.161  1.00  0.00    +0.000 C 
ATOM    109  H19 UNL A   1      33.410  27.085  26.428  1.00  0.00    +0.000 H 
ATOM    110  H20 UNL A   1      32.138  28.259  25.974  1.00  0.00    +0.000 H 
BRANCH   18   17
ATOM     17  C13 UNL A   1      33.903  28.416  24.851  1.00  0.00    +0.000 C 
ATOM    107  H17 UNL A   1      34.689  29.112  25.060  1.00  0.00    +0.000 H 
ATOM    108  H18 UNL A   1      34.277  27.493  24.460  1.00  0.00    +0.000 H 
BRANCH   17   16
ATOM    105  H15 UNL A   1      33.038  30.090  23.845  1.00  0.00    +0.000 H 
ATOM    106  H16 UNL A   1      33.311  28.690  22.823  1.00  0.00    +0.000 H 
ATOM     16  C12 UNL A   1      32.988  29.022  23.786  1.00  0.00    +0.000 C 
BRANCH   16   15
ATOM     15  N2  UNL A   1      31.623  28.600  23.994  1.00  0.00    +0.000 N 
ATOM    104  H14 UNL A   1      31.287  28.741  24.908  1.00  0.00    +0.000 H 
BRANCH   15   13
ATOM     13  C11 UNL A   1      30.725  28.040  23.145  1.00  0.00    +0.000 C 
ATOM     14  O2  UNL A   1      29.592  28.527  23.120  1.00  0.00    +0.000 O 
BRANCH   13   12
ATOM     12  C10 UNL A   1      31.041  26.794  22.338  1.00  0.00    +0.000 C 
ATOM    102  H12 UNL A   1      30.247  26.680  21.628  1.00  0.00    +0.000 H 
ATOM    103  H13 UNL A   1      32.023  26.996  21.963  1.00  0.00    +0.000 H 
BRANCH   12   11
ATOM     11  C9  UNL A   1      31.210  25.435  23.028  1.00  0.00    +0.000 C 
ATOM    100  H10 UNL A   1      31.379  25.645  24.063  1.00  0.00    +0.000 H 
ATOM    101  H11 UNL A   1      30.315  24.925  22.738  1.00  0.00    +0.000 H 
BRANCH   11   10
ATOM     10  C8  UNL A   1      32.300  24.434  22.608  1.00  0.00    +0.000 C 
ATOM     99  H9  UNL A   1      32.951  25.035  22.008  1.00  0.00    +0.000 H 
ATOM     98  H8  UNL A   1      31.795  23.613  22.144  1.00  0.00    +0.000 H 
BRANCH   10    9
ATOM      2  C2  UNL A   1      37.149  21.996  25.420  1.00  0.00    +0.000 C 
ATOM      3  C3  UNL A   1      36.407  20.814  25.280  1.00  0.00    +0.000 C 
ATOM      4  C4  UNL A   1      35.095  20.861  24.778  1.00  0.00    +0.000 C 
ATOM      6  C6  UNL A   1      34.615  22.107  24.393  1.00  0.00    +0.000 C 
ATOM      7  C7  UNL A   1      33.365  22.466  23.683  1.00  0.00    +0.000 C 
ATOM      8  O1  UNL A   1      32.641  21.626  23.167  1.00  0.00    +0.000 O 
ATOM      9  N1  UNL A   1      33.213  23.855  23.591  1.00  0.00    +0.000 N 
ATOM     88  S1  UNL A   1      34.516  24.717  24.293  1.00  0.00    +0.000 S 
ATOM     89  C63 UNL A   1      35.390  23.223  24.636  1.00  0.00    +0.000 C 
ATOM     90  N8  UNL A   1      36.644  23.213  25.117  1.00  0.00    +0.000 N 
ATOM     94  H4  UNL A   1      36.826  19.908  25.546  1.00  0.00    +0.000 H 
BRANCH    2    1
ATOM      1  C1  UNL A   1      38.573  21.965  25.890  1.00  0.00    +0.000 C 
ATOM     91  H1  UNL A   1      38.807  22.889  26.377  1.00  0.00    +0.000 H 
ATOM     92  H2  UNL A   1      39.223  21.830  25.051  1.00  0.00    +0.000 H 
ATOM     93  H3  UNL A   1      38.705  21.156  26.578  1.00  0.00    +0.000 H 
ENDBRANCH    2    1
BRANCH    4    5
ATOM     97  H7  UNL A   1      33.290  19.823  25.114  1.00  0.00    +0.000 H 
ATOM      5  C5  UNL A   1      34.258  19.624  24.703  1.00  0.00    +0.000 C 
ATOM     95  H5  UNL A   1      34.728  18.841  25.261  1.00  0.00    +0.000 H 
ATOM     96  H6  UNL A   1      34.156  19.323  23.681  1.00  0.00    +0.000 H 
ENDBRANCH    4    5
ENDBRANCH   10    9
ENDBRANCH   11   10
ENDBRANCH   12   11
ENDBRANCH   13   12
ENDBRANCH   15   13
ENDBRANCH   16   15
ENDBRANCH   17   16
ENDBRANCH   18   17
ENDBRANCH   19   18
ENDBRANCH   20   19
ENDBRANCH   21   20
ENDBRANCH   22   21
ENDBRANCH   23   22
ENDBRANCH   25   23
ENDBRANCH   29   28
BRANCH   33   34
ATOM     34  C27 UNL A   1      43.289  27.434  34.775  1.00  0.00    +0.000 C 
ATOM     35  C28 UNL A   1      43.549  27.842  36.098  1.00  0.00    +0.000 C 
ATOM     36  F1  UNL A   1      43.305  29.102  36.486  1.00  0.00    +0.000 F 
ATOM     37  C29 UNL A   1      44.139  26.987  37.034  1.00  0.00    +0.000 C 
ATOM     38  F2  UNL A   1      44.469  27.452  38.245  1.00  0.00    +0.000 F 
ATOM     39  C30 UNL A   1      44.440  25.679  36.698  1.00  0.00    +0.000 C 
ATOM     40  F3  UNL A   1      45.050  24.873  37.576  1.00  0.00    +0.000 F 
ATOM     41  C31 UNL A   1      44.150  25.225  35.430  1.00  0.00    +0.000 C 
ATOM     42  F4  UNL A   1      44.451  23.968  35.079  1.00  0.00    +0.000 F 
ATOM     43  C32 UNL A   1      43.612  26.092  34.479  1.00  0.00    +0.000 C 
ATOM     44  F5  UNL A   1      43.524  25.593  33.241  1.00  0.00    +0.000 F 
ENDBRANCH   33   34
BRANCH   50   51
ATOM     51  C38 UNL A   1      45.225  29.790  28.584  1.00  0.00    +0.000 C 
ATOM     52  C39 UNL A   1      44.158  30.498  28.001  1.00  0.00    +0.000 C 
ATOM     53  F6  UNL A   1      42.897  30.282  28.393  1.00  0.00    +0.000 F 
ATOM     54  C40 UNL A   1      44.377  31.483  27.037  1.00  0.00    +0.000 C 
ATOM     55  F7  UNL A   1      43.339  32.135  26.492  1.00  0.00    +0.000 F 
ATOM     56  C41 UNL A   1      45.669  31.816  26.667  1.00  0.00    +0.000 C 
ATOM     57  F8  UNL A   1      45.884  32.792  25.774  1.00  0.00    +0.000 F 
ATOM     58  C42 UNL A   1      46.738  31.152  27.245  1.00  0.00    +0.000 C 
ATOM     59  F9  UNL A   1      47.992  31.501  26.924  1.00  0.00    +0.000 F 
ATOM     60  C43 UNL A   1      46.519  30.143  28.180  1.00  0.00    +0.000 C 
ATOM     61  F10 UNL A   1      47.582  29.538  28.734  1.00  0.00    +0.000 F 
ENDBRANCH   50   51
BRANCH   65   66
ATOM     66  C47 UNL A   1      42.623  24.345  26.633  1.00  0.00    +0.000 C 
ATOM     67  C48 UNL A   1      43.334  24.030  25.463  1.00  0.00    +0.000 C 
ATOM     68  F11 UNL A   1      43.949  24.998  24.769  1.00  0.00    +0.000 F 
ATOM     69  C49 UNL A   1      43.493  22.707  25.038  1.00  0.00    +0.000 C 
ATOM     70  F12 UNL A   1      44.240  22.438  23.957  1.00  0.00    +0.000 F 
ATOM     71  C50 UNL A   1      42.939  21.666  25.764  1.00  0.00    +0.000 C 
ATOM     72  F13 UNL A   1      43.155  20.394  25.398  1.00  0.00    +0.000 F 
ATOM     73  C51 UNL A   1      42.197  21.947  26.896  1.00  0.00    +0.000 C 
ATOM     74  F14 UNL A   1      41.687  20.945  27.628  1.00  0.00    +0.000 F 
ATOM     75  C52 UNL A   1      42.039  23.266  27.325  1.00  0.00    +0.000 C 
ATOM     76  F15 UNL A   1      41.391  23.462  28.481  1.00  0.00    +0.000 F 
ENDBRANCH   65   66
TORSDOF 20
ENDMDL
MODEL 7
REMARK VINA RESULT:     -10.5      3.337      8.687
ROOT
ATOM    129  H39 UNL A   1      38.681  27.532  32.179  1.00  0.00    +0.000 H 
ATOM     29  C23 UNL A   1      40.064  28.751  29.985  1.00  0.00    +0.000 C 
ATOM     30  C24 UNL A   1      40.564  28.493  31.354  1.00  0.00    +0.000 C 
ATOM     31  N4  UNL A   1      41.696  28.855  31.858  1.00  0.00    +0.000 N 
ATOM     32  C25 UNL A   1      41.709  28.359  33.158  1.00  0.00    +0.000 C 
ATOM     33  C26 UNL A   1      42.881  28.140  33.813  1.00  0.00    +0.000 C 
ATOM     45  C33 UNL A   1      43.974  28.810  33.153  1.00  0.00    +0.000 C 
ATOM     46  C34 UNL A   1      44.319  30.129  32.939  1.00  0.00    +0.000 C 
ATOM     47  C35 UNL A   1      44.880  30.160  31.627  1.00  0.00    +0.000 C 
ATOM     48  C36 UNL A   1      44.905  28.855  31.132  1.00  0.00    +0.000 C 
ATOM     49  N5  UNL A   1      44.703  28.081  32.246  1.00  0.00    +0.000 N 
ATOM     50  C37 UNL A   1      44.990  28.323  29.789  1.00  0.00    +0.000 C 
ATOM     62  C44 UNL A   1      44.677  27.043  29.429  1.00  0.00    +0.000 C 
ATOM     63  N6  UNL A   1      44.365  26.729  28.113  1.00  0.00    +0.000 N 
ATOM     64  C45 UNL A   1      43.589  25.681  28.192  1.00  0.00    +0.000 C 
ATOM     65  C46 UNL A   1      42.410  25.466  27.314  1.00  0.00    +0.000 C 
ATOM     77  C53 UNL A   1      41.530  26.451  27.617  1.00  0.00    +0.000 C 
ATOM     78  C54 UNL A   1      40.422  26.979  26.857  1.00  0.00    +0.000 C 
ATOM     79  C55 UNL A   1      39.884  27.997  27.560  1.00  0.00    +0.000 C 
ATOM     80  C56 UNL A   1      40.483  28.058  28.901  1.00  0.00    +0.000 C 
ATOM     81  N7  UNL A   1      41.525  27.166  28.832  1.00  0.00    +0.000 N 
ATOM     82  C57 UNL A   1      43.626  24.967  29.456  1.00  0.00    +0.000 C 
ATOM     83  C58 UNL A   1      44.252  25.879  30.203  1.00  0.00    +0.000 C 
ATOM     84  C59 UNL A   1      40.363  27.934  33.444  1.00  0.00    +0.000 C 
ATOM     85  C60 UNL A   1      39.637  27.891  32.325  1.00  0.00    +0.000 C 
ATOM    120  H30 UNL A   1      44.198  30.922  33.588  1.00  0.00    +0.000 H 
ATOM    121  H31 UNL A   1      45.210  31.003  31.129  1.00  0.00    +0.000 H 
ATOM    122  H32 UNL A   1      45.024  27.158  32.375  1.00  0.00    +0.000 H 
ATOM    123  H33 UNL A   1      40.098  26.638  25.939  1.00  0.00    +0.000 H 
ATOM    124  H34 UNL A   1      39.157  28.640  27.207  1.00  0.00    +0.000 H 
ATOM    125  H35 UNL A   1      42.189  27.041  29.547  1.00  0.00    +0.000 H 
ATOM    126  H36 UNL A   1      43.272  24.031  29.705  1.00  0.00    +0.000 H 
ATOM    127  H37 UNL A   1      44.416  25.775  31.217  1.00  0.00    +0.000 H 
ATOM    128  H38 UNL A   1      40.009  27.696  34.383  1.00  0.00    +0.000 H 
ENDROOT
BRANCH   29   28
ATOM    130  H40 UNL A   1      37.605  28.111  30.505  1.00  0.00    +0.000 H 
ATOM    131  H41 UNL A   1      35.686  29.300  29.604  1.00  0.00    +0.000 H 
ATOM     28  C22 UNL A   1      38.923  29.646  29.916  1.00  0.00    +0.000 C 
ATOM     86  C61 UNL A   1      37.686  29.063  30.116  1.00  0.00    +0.000 C 
ATOM     87  C62 UNL A   1      36.580  29.782  29.784  1.00  0.00    +0.000 C 
ATOM    118  H28 UNL A   1      37.958  32.828  29.513  1.00  0.00    +0.000 H 
ATOM     25  C19 UNL A   1      36.657  31.163  29.688  1.00  0.00    +0.000 C 
ATOM     26  C20 UNL A   1      37.897  31.803  29.609  1.00  0.00    +0.000 C 
ATOM     27  C21 UNL A   1      39.049  31.022  29.667  1.00  0.00    +0.000 C 
ATOM    119  H29 UNL A   1      39.979  31.447  29.527  1.00  0.00    +0.000 H 
BRANCH   25   23
ATOM     23  C18 UNL A   1      35.382  31.906  29.694  1.00  0.00    +0.000 C 
ATOM     24  O3  UNL A   1      34.905  32.308  30.735  1.00  0.00    +0.000 O 
BRANCH   23   22
ATOM    117  H27 UNL A   1      34.473  33.063  28.306  1.00  0.00    +0.000 H 
ATOM     22  N3  UNL A   1      34.756  32.135  28.476  1.00  0.00    +0.000 N 
BRANCH   22   21
ATOM    115  H25 UNL A   1      34.681  31.626  26.467  1.00  0.00    +0.000 H 
ATOM    116  H26 UNL A   1      35.067  30.305  27.581  1.00  0.00    +0.000 H 
ATOM     21  C17 UNL A   1      34.463  31.171  27.411  1.00  0.00    +0.000 C 
BRANCH   21   20
ATOM    113  H23 UNL A   1      32.664  30.702  28.422  1.00  0.00    +0.000 H 
ATOM    114  H24 UNL A   1      32.465  31.426  26.814  1.00  0.00    +0.000 H 
ATOM     20  C16 UNL A   1      33.012  30.726  27.410  1.00  0.00    +0.000 C 
BRANCH   20   19
ATOM     19  C15 UNL A   1      32.803  29.337  26.789  1.00  0.00    +0.000 C 
ATOM    111  H21 UNL A   1      33.661  28.742  27.024  1.00  0.00    +0.000 H 
ATOM    112  H22 UNL A   1      31.886  28.974  27.206  1.00  0.00    +0.000 H 
BRANCH   19   18
ATOM     18  C14 UNL A   1      32.605  29.295  25.265  1.00  0.00    +0.000 C 
ATOM    109  H19 UNL A   1      33.258  30.020  24.826  1.00  0.00    +0.000 H 
ATOM    110  H20 UNL A   1      32.819  28.291  24.965  1.00  0.00    +0.000 H 
BRANCH   18   17
ATOM     17  C13 UNL A   1      31.181  29.590  24.786  1.00  0.00    +0.000 C 
ATOM    107  H17 UNL A   1      30.493  29.156  25.481  1.00  0.00    +0.000 H 
ATOM    108  H18 UNL A   1      31.078  30.654  24.731  1.00  0.00    +0.000 H 
BRANCH   17   16
ATOM    105  H15 UNL A   1      29.824  28.953  23.264  1.00  0.00    +0.000 H 
ATOM    106  H16 UNL A   1      31.297  29.692  22.661  1.00  0.00    +0.000 H 
ATOM     16  C12 UNL A   1      30.884  29.032  23.394  1.00  0.00    +0.000 C 
BRANCH   16   15
ATOM     15  N2  UNL A   1      31.479  27.726  23.235  1.00  0.00    +0.000 N 
ATOM    104  H14 UNL A   1      32.426  27.741  22.966  1.00  0.00    +0.000 H 
BRANCH   15   13
ATOM     13  C11 UNL A   1      30.958  26.484  23.392  1.00  0.00    +0.000 C 
ATOM     14  O2  UNL A   1      31.185  25.660  22.502  1.00  0.00    +0.000 O 
BRANCH   13   12
ATOM     12  C10 UNL A   1      30.035  26.133  24.544  1.00  0.00    +0.000 C 
ATOM    102  H12 UNL A   1      29.307  26.916  24.602  1.00  0.00    +0.000 H 
ATOM    103  H13 UNL A   1      29.695  25.151  24.287  1.00  0.00    +0.000 H 
BRANCH   12   11
ATOM     11  C9  UNL A   1      30.589  25.943  25.962  1.00  0.00    +0.000 C 
ATOM    100  H10 UNL A   1      30.673  26.923  26.383  1.00  0.00    +0.000 H 
ATOM    101  H11 UNL A   1      29.889  25.252  26.383  1.00  0.00    +0.000 H 
BRANCH   11   10
ATOM     10  C8  UNL A   1      31.932  25.242  26.228  1.00  0.00    +0.000 C 
ATOM     99  H9  UNL A   1      31.838  24.938  27.250  1.00  0.00    +0.000 H 
ATOM     98  H8  UNL A   1      32.696  25.946  25.975  1.00  0.00    +0.000 H 
BRANCH   10    9
ATOM      2  C2  UNL A   1      33.409  19.447  24.961  1.00  0.00    +0.000 C 
ATOM      3  C3  UNL A   1      34.684  20.002  24.786  1.00  0.00    +0.000 C 
ATOM      4  C4  UNL A   1      34.861  21.395  24.847  1.00  0.00    +0.000 C 
ATOM      6  C6  UNL A   1      33.736  22.159  25.134  1.00  0.00    +0.000 C 
ATOM      7  C7  UNL A   1      33.620  23.605  25.430  1.00  0.00    +0.000 C 
ATOM      8  O1  UNL A   1      34.597  24.312  25.638  1.00  0.00    +0.000 O 
ATOM      9  N1  UNL A   1      32.279  23.993  25.554  1.00  0.00    +0.000 N 
ATOM     88  S1  UNL A   1      31.186  22.690  25.355  1.00  0.00    +0.000 S 
ATOM     89  C63 UNL A   1      32.510  21.531  25.218  1.00  0.00    +0.000 C 
ATOM     90  N8  UNL A   1      32.306  20.204  25.161  1.00  0.00    +0.000 N 
ATOM     94  H4  UNL A   1      35.495  19.386  24.613  1.00  0.00    +0.000 H 
BRANCH    2    1
ATOM      1  C1  UNL A   1      33.205  17.961  24.967  1.00  0.00    +0.000 C 
ATOM     91  H1  UNL A   1      33.128  17.617  25.978  1.00  0.00    +0.000 H 
ATOM     92  H2  UNL A   1      34.034  17.485  24.490  1.00  0.00    +0.000 H 
ATOM     93  H3  UNL A   1      32.304  17.723  24.440  1.00  0.00    +0.000 H 
ENDBRANCH    2    1
BRANCH    4    5
ATOM     97  H7  UNL A   1      36.650  21.527  23.737  1.00  0.00    +0.000 H 
ATOM      5  C5  UNL A   1      36.197  22.011  24.576  1.00  0.00    +0.000 C 
ATOM     95  H5  UNL A   1      36.824  21.895  25.436  1.00  0.00    +0.000 H 
ATOM     96  H6  UNL A   1      36.073  23.053  24.363  1.00  0.00    +0.000 H 
ENDBRANCH    4    5
ENDBRANCH   10    9
ENDBRANCH   11   10
ENDBRANCH   12   11
ENDBRANCH   13   12
ENDBRANCH   15   13
ENDBRANCH   16   15
ENDBRANCH   17   16
ENDBRANCH   18   17
ENDBRANCH   19   18
ENDBRANCH   20   19
ENDBRANCH   21   20
ENDBRANCH   22   21
ENDBRANCH   23   22
ENDBRANCH   25   23
ENDBRANCH   29   28
BRANCH   33   34
ATOM     34  C27 UNL A   1      43.103  27.060  34.842  1.00  0.00    +0.000 C 
ATOM     35  C28 UNL A   1      43.267  27.418  36.195  1.00  0.00    +0.000 C 
ATOM     36  F1  UNL A   1      43.012  28.669  36.607  1.00  0.00    +0.000 F 
ATOM     37  C29 UNL A   1      43.771  26.521  37.142  1.00  0.00    +0.000 C 
ATOM     38  F2  UNL A   1      44.014  26.939  38.391  1.00  0.00    +0.000 F 
ATOM     39  C30 UNL A   1      44.078  25.221  36.785  1.00  0.00    +0.000 C 
ATOM     40  F3  UNL A   1      44.607  24.375  37.677  1.00  0.00    +0.000 F 
ATOM     41  C31 UNL A   1      43.879  24.815  35.482  1.00  0.00    +0.000 C 
ATOM     42  F4  UNL A   1      44.187  23.566  35.111  1.00  0.00    +0.000 F 
ATOM     43  C32 UNL A   1      43.428  25.724  34.525  1.00  0.00    +0.000 C 
ATOM     44  F5  UNL A   1      43.428  25.268  33.266  1.00  0.00    +0.000 F 
ENDBRANCH   33   34
BRANCH   50   51
ATOM     51  C38 UNL A   1      45.237  29.316  28.679  1.00  0.00    +0.000 C 
ATOM     52  C39 UNL A   1      44.238  30.125  28.106  1.00  0.00    +0.000 C 
ATOM     53  F6  UNL A   1      42.962  30.018  28.497  1.00  0.00    +0.000 F 
ATOM     54  C40 UNL A   1      44.545  31.100  27.157  1.00  0.00    +0.000 C 
ATOM     55  F7  UNL A   1      43.570  31.850  26.621  1.00  0.00    +0.000 F 
ATOM     56  C41 UNL A   1      45.862  31.321  26.791  1.00  0.00    +0.000 C 
ATOM     57  F8  UNL A   1      46.165  32.286  25.911  1.00  0.00    +0.000 F 
ATOM     58  C42 UNL A   1      46.867  30.556  27.358  1.00  0.00    +0.000 C 
ATOM     59  F9  UNL A   1      48.148  30.794  27.042  1.00  0.00    +0.000 F 
ATOM     60  C43 UNL A   1      46.558  29.557  28.279  1.00  0.00    +0.000 C 
ATOM     61  F10 UNL A   1      47.561  28.852  28.825  1.00  0.00    +0.000 F 
ENDBRANCH   50   51
BRANCH   65   66
ATOM     66  C47 UNL A   1      42.134  24.167  26.659  1.00  0.00    +0.000 C 
ATOM     67  C48 UNL A   1      43.046  23.625  25.738  1.00  0.00    +0.000 C 
ATOM     68  F11 UNL A   1      44.038  24.383  25.248  1.00  0.00    +0.000 F 
ATOM     69  C49 UNL A   1      43.003  22.275  25.374  1.00  0.00    +0.000 C 
ATOM     70  F12 UNL A   1      43.935  21.775  24.549  1.00  0.00    +0.000 F 
ATOM     71  C50 UNL A   1      42.042  21.434  25.911  1.00  0.00    +0.000 C 
ATOM     72  F13 UNL A   1      42.047  20.126  25.620  1.00  0.00    +0.000 F 
ATOM     73  C51 UNL A   1      41.104  21.948  26.787  1.00  0.00    +0.000 C 
ATOM     74  F14 UNL A   1      40.191  21.136  27.342  1.00  0.00    +0.000 F 
ATOM     75  C52 UNL A   1      41.147  23.294  27.155  1.00  0.00    +0.000 C 
ATOM     76  F15 UNL A   1      40.269  23.705  28.080  1.00  0.00    +0.000 F 
ENDBRANCH   65   66
TORSDOF 20
ENDMDL
MODEL 8
REMARK VINA RESULT:     -10.4      3.168      8.668
ROOT
ATOM    129  H39 UNL A   1      38.575  27.710  30.975  1.00  0.00    +0.000 H 
ATOM     29  C23 UNL A   1      40.150  29.245  29.137  1.00  0.00    +0.000 C 
ATOM     30  C24 UNL A   1      40.434  28.944  30.559  1.00  0.00    +0.000 C 
ATOM     31  N4  UNL A   1      41.404  29.396  31.279  1.00  0.00    +0.000 N 
ATOM     32  C25 UNL A   1      41.255  28.809  32.531  1.00  0.00    +0.000 C 
ATOM     33  C26 UNL A   1      42.314  28.680  33.376  1.00  0.00    +0.000 C 
ATOM     45  C33 UNL A   1      43.410  29.521  32.963  1.00  0.00    +0.000 C 
ATOM     46  C34 UNL A   1      43.614  30.884  32.886  1.00  0.00    +0.000 C 
ATOM     47  C35 UNL A   1      44.386  31.079  31.702  1.00  0.00    +0.000 C 
ATOM     48  C36 UNL A   1      44.664  29.827  31.150  1.00  0.00    +0.000 C 
ATOM     49  N5  UNL A   1      44.372  28.953  32.166  1.00  0.00    +0.000 N 
ATOM     50  C37 UNL A   1      45.049  29.412  29.818  1.00  0.00    +0.000 C 
ATOM     62  C44 UNL A   1      44.970  28.135  29.339  1.00  0.00    +0.000 C 
ATOM     63  N6  UNL A   1      44.935  27.887  27.974  1.00  0.00    +0.000 N 
ATOM     64  C45 UNL A   1      44.299  26.753  27.854  1.00  0.00    +0.000 C 
ATOM     65  C46 UNL A   1      43.328  26.469  26.766  1.00  0.00    +0.000 C 
ATOM     77  C53 UNL A   1      42.289  27.318  26.956  1.00  0.00    +0.000 C 
ATOM     78  C54 UNL A   1      41.271  27.769  26.037  1.00  0.00    +0.000 C 
ATOM     79  C55 UNL A   1      40.493  28.661  26.683  1.00  0.00    +0.000 C 
ATOM     80  C56 UNL A   1      40.837  28.690  28.113  1.00  0.00    +0.000 C 
ATOM     81  N7  UNL A   1      41.981  27.934  28.186  1.00  0.00    +0.000 N 
ATOM     82  C57 UNL A   1      44.207  25.955  29.063  1.00  0.00    +0.000 C 
ATOM     83  C58 UNL A   1      44.571  26.874  29.959  1.00  0.00    +0.000 C 
ATOM     84  C59 UNL A   1      39.946  28.209  32.545  1.00  0.00    +0.000 C 
ATOM     85  C60 UNL A   1      39.438  28.166  31.311  1.00  0.00    +0.000 C 
ATOM    120  H30 UNL A   1      43.281  31.605  33.544  1.00  0.00    +0.000 H 
ATOM    121  H31 UNL A   1      44.686  31.990  31.318  1.00  0.00    +0.000 H 
ATOM    122  H32 UNL A   1      44.782  28.067  32.301  1.00  0.00    +0.000 H 
ATOM    123  H33 UNL A   1      41.159  27.463  25.058  1.00  0.00    +0.000 H 
ATOM    124  H34 UNL A   1      39.762  29.239  26.239  1.00  0.00    +0.000 H 
ATOM    125  H35 UNL A   1      42.521  27.834  29.002  1.00  0.00    +0.000 H 
ATOM    126  H36 UNL A   1      43.938  24.967  29.193  1.00  0.00    +0.000 H 
ATOM    127  H37 UNL A   1      44.568  26.713  30.979  1.00  0.00    +0.000 H 
ATOM    128  H38 UNL A   1      39.468  27.860  33.390  1.00  0.00    +0.000 H 
ENDROOT
BRANCH   29   28
ATOM    130  H40 UNL A   1      37.991  28.342  28.018  1.00  0.00    +0.000 H 
ATOM    131  H41 UNL A   1      36.356  29.759  26.911  1.00  0.00    +0.000 H 
ATOM     28  C22 UNL A   1      38.933  30.003  28.911  1.00  0.00    +0.000 C 
ATOM     86  C61 UNL A   1      37.947  29.359  28.187  1.00  0.00    +0.000 C 
ATOM     87  C62 UNL A   1      36.919  30.107  27.703  1.00  0.00    +0.000 C 
ATOM    118  H28 UNL A   1      37.349  32.889  29.526  1.00  0.00    +0.000 H 
ATOM     25  C19 UNL A   1      36.628  31.335  28.276  1.00  0.00    +0.000 C 
ATOM     26  C20 UNL A   1      37.551  31.964  29.117  1.00  0.00    +0.000 C 
ATOM     27  C21 UNL A   1      38.750  31.309  29.391  1.00  0.00    +0.000 C 
ATOM    119  H29 UNL A   1      39.490  31.776  29.937  1.00  0.00    +0.000 H 
BRANCH   25   23
ATOM     23  C18 UNL A   1      35.309  31.920  27.972  1.00  0.00    +0.000 C 
ATOM     24  O3  UNL A   1      35.012  33.024  28.380  1.00  0.00    +0.000 O 
BRANCH   23   22
ATOM    117  H27 UNL A   1      34.056  31.630  26.411  1.00  0.00    +0.000 H 
ATOM     22  N3  UNL A   1      34.428  31.174  27.200  1.00  0.00    +0.000 N 
BRANCH   22   21
ATOM    115  H25 UNL A   1      34.841  29.156  27.439  1.00  0.00    +0.000 H 
ATOM    116  H26 UNL A   1      33.440  29.765  28.333  1.00  0.00    +0.000 H 
ATOM     21  C17 UNL A   1      33.982  29.793  27.412  1.00  0.00    +0.000 C 
BRANCH   21   20
ATOM    113  H23 UNL A   1      32.170  28.905  26.772  1.00  0.00    +0.000 H 
ATOM    114  H24 UNL A   1      32.834  30.144  25.688  1.00  0.00    +0.000 H 
ATOM     20  C16 UNL A   1      33.052  29.306  26.316  1.00  0.00    +0.000 C 
BRANCH   20   19
ATOM     19  C15 UNL A   1      33.678  28.221  25.427  1.00  0.00    +0.000 C 
ATOM    111  H21 UNL A   1      33.184  28.251  24.478  1.00  0.00    +0.000 H 
ATOM    112  H22 UNL A   1      34.723  28.453  25.389  1.00  0.00    +0.000 H 
BRANCH   19   18
ATOM     18  C14 UNL A   1      33.597  26.779  25.953  1.00  0.00    +0.000 C 
ATOM    109  H19 UNL A   1      34.078  26.747  26.908  1.00  0.00    +0.000 H 
ATOM    110  H20 UNL A   1      32.556  26.533  25.990  1.00  0.00    +0.000 H 
BRANCH   18   17
ATOM     17  C13 UNL A   1      34.252  25.723  25.058  1.00  0.00    +0.000 C 
ATOM    107  H17 UNL A   1      33.596  25.520  24.237  1.00  0.00    +0.000 H 
ATOM    108  H18 UNL A   1      35.191  26.120  24.734  1.00  0.00    +0.000 H 
BRANCH   17   16
ATOM    105  H15 UNL A   1      35.283  24.578  26.536  1.00  0.00    +0.000 H 
ATOM    106  H16 UNL A   1      33.636  24.054  26.232  1.00  0.00    +0.000 H 
ATOM     16  C12 UNL A   1      34.541  24.409  25.785  1.00  0.00    +0.000 C 
BRANCH   16   15
ATOM     15  N2  UNL A   1      35.024  23.414  24.856  1.00  0.00    +0.000 N 
ATOM    104  H14 UNL A   1      34.742  23.556  23.924  1.00  0.00    +0.000 H 
BRANCH   15   13
ATOM     13  C11 UNL A   1      35.798  22.316  25.049  1.00  0.00    +0.000 C 
ATOM     14  O2  UNL A   1      36.977  22.389  24.696  1.00  0.00    +0.000 O 
BRANCH   13   12
ATOM     12  C10 UNL A   1      35.232  21.007  25.567  1.00  0.00    +0.000 C 
ATOM    102  H12 UNL A   1      36.052  20.320  25.621  1.00  0.00    +0.000 H 
ATOM    103  H13 UNL A   1      34.759  21.297  26.482  1.00  0.00    +0.000 H 
BRANCH   12   11
ATOM     11  C9  UNL A   1      34.107  20.287  24.813  1.00  0.00    +0.000 C 
ATOM    100  H10 UNL A   1      34.232  20.537  23.780  1.00  0.00    +0.000 H 
ATOM    101  H11 UNL A   1      34.243  19.273  25.125  1.00  0.00    +0.000 H 
BRANCH   11   10
ATOM     10  C8  UNL A   1      32.622  20.526  25.137  1.00  0.00    +0.000 C 
ATOM     99  H9  UNL A   1      32.645  20.757  26.181  1.00  0.00    +0.000 H 
ATOM     98  H8  UNL A   1      32.098  19.648  24.821  1.00  0.00    +0.000 H 
BRANCH   10    9
ATOM      2  C2  UNL A   1      31.063  26.036  22.997  1.00  0.00    +0.000 C 
ATOM      3  C3  UNL A   1      30.439  26.144  24.248  1.00  0.00    +0.000 C 
ATOM      4  C4  UNL A   1      30.400  25.037  25.114  1.00  0.00    +0.000 C 
ATOM      6  C6  UNL A   1      31.043  23.882  24.685  1.00  0.00    +0.000 C 
ATOM      7  C7  UNL A   1      31.326  22.625  25.416  1.00  0.00    +0.000 C 
ATOM      8  O1  UNL A   1      31.161  22.518  26.624  1.00  0.00    +0.000 O 
ATOM      9  N1  UNL A   1      31.900  21.664  24.573  1.00  0.00    +0.000 N 
ATOM     88  S1  UNL A   1      32.128  22.231  22.973  1.00  0.00    +0.000 S 
ATOM     89  C63 UNL A   1      31.566  23.846  23.409  1.00  0.00    +0.000 C 
ATOM     90  N8  UNL A   1      31.617  24.884  22.556  1.00  0.00    +0.000 N 
ATOM     94  H4  UNL A   1      30.010  27.038  24.534  1.00  0.00    +0.000 H 
BRANCH    2    1
ATOM      1  C1  UNL A   1      31.177  27.220  22.083  1.00  0.00    +0.000 C 
ATOM     91  H1  UNL A   1      30.409  27.171  21.340  1.00  0.00    +0.000 H 
ATOM     92  H2  UNL A   1      32.135  27.213  21.608  1.00  0.00    +0.000 H 
ATOM     93  H3  UNL A   1      31.067  28.120  22.651  1.00  0.00    +0.000 H 
ENDBRANCH    2    1
BRANCH    4    5
ATOM     97  H7  UNL A   1      28.616  24.990  26.238  1.00  0.00    +0.000 H 
ATOM      5  C5  UNL A   1      29.665  25.106  26.415  1.00  0.00    +0.000 C 
ATOM     95  H5  UNL A   1      29.846  26.054  26.876  1.00  0.00    +0.000 H 
ATOM     96  H6  UNL A   1      30.008  24.324  27.060  1.00  0.00    +0.000 H 
ENDBRANCH    4    5
ENDBRANCH   10    9
ENDBRANCH   11   10
ENDBRANCH   12   11
ENDBRANCH   13   12
ENDBRANCH   15   13
ENDBRANCH   16   15
ENDBRANCH   17   16
ENDBRANCH   18   17
ENDBRANCH   19   18
ENDBRANCH   20   19
ENDBRANCH   21   20
ENDBRANCH   22   21
ENDBRANCH   23   22
ENDBRANCH   25   23
ENDBRANCH   29   28
BRANCH   33   34
ATOM     34  C27 UNL A   1      42.490  27.558  34.368  1.00  0.00    +0.000 C 
ATOM     35  C28 UNL A   1      43.045  26.336  33.938  1.00  0.00    +0.000 C 
ATOM     36  F1  UNL A   1      43.615  26.231  32.729  1.00  0.00    +0.000 F 
ATOM     37  C29 UNL A   1      42.957  25.172  34.708  1.00  0.00    +0.000 C 
ATOM     38  F2  UNL A   1      43.401  24.010  34.210  1.00  0.00    +0.000 F 
ATOM     39  C30 UNL A   1      42.363  25.198  35.957  1.00  0.00    +0.000 C 
ATOM     40  F3  UNL A   1      42.234  24.075  36.674  1.00  0.00    +0.000 F 
ATOM     41  C31 UNL A   1      41.858  26.386  36.437  1.00  0.00    +0.000 C 
ATOM     42  F4  UNL A   1      41.261  26.429  37.636  1.00  0.00    +0.000 F 
ATOM     43  C32 UNL A   1      41.895  27.536  35.648  1.00  0.00    +0.000 C 
ATOM     44  F5  UNL A   1      41.232  28.587  36.145  1.00  0.00    +0.000 F 
ENDBRANCH   33   34
BRANCH   50   51
ATOM     51  C38 UNL A   1      45.355  30.509  28.826  1.00  0.00    +0.000 C 
ATOM     52  C39 UNL A   1      46.647  30.815  28.361  1.00  0.00    +0.000 C 
ATOM     53  F6  UNL A   1      47.717  30.158  28.826  1.00  0.00    +0.000 F 
ATOM     54  C40 UNL A   1      46.856  31.769  27.364  1.00  0.00    +0.000 C 
ATOM     55  F7  UNL A   1      48.101  32.046  26.947  1.00  0.00    +0.000 F 
ATOM     56  C41 UNL A   1      45.776  32.406  26.778  1.00  0.00    +0.000 C 
ATOM     57  F8  UNL A   1      45.970  33.292  25.791  1.00  0.00    +0.000 F 
ATOM     58  C42 UNL A   1      44.492  32.105  27.200  1.00  0.00    +0.000 C 
ATOM     59  F9  UNL A   1      43.440  32.685  26.606  1.00  0.00    +0.000 F 
ATOM     60  C43 UNL A   1      44.285  31.179  28.221  1.00  0.00    +0.000 C 
ATOM     61  F10 UNL A   1      43.025  30.897  28.587  1.00  0.00    +0.000 F 
ENDBRANCH   50   51
BRANCH   65   66
ATOM     66  C47 UNL A   1      43.339  25.199  26.002  1.00  0.00    +0.000 C 
ATOM     67  C48 UNL A   1      44.397  24.905  25.126  1.00  0.00    +0.000 C 
ATOM     68  F11 UNL A   1      45.265  25.863  24.773  1.00  0.00    +0.000 F 
ATOM     69  C49 UNL A   1      44.625  23.603  24.667  1.00  0.00    +0.000 C 
ATOM     70  F12 UNL A   1      45.688  23.345  23.891  1.00  0.00    +0.000 F 
ATOM     71  C50 UNL A   1      43.799  22.564  25.064  1.00  0.00    +0.000 C 
ATOM     72  F13 UNL A   1      44.062  21.306  24.686  1.00  0.00    +0.000 F 
ATOM     73  C51 UNL A   1      42.724  22.831  25.893  1.00  0.00    +0.000 C 
ATOM     74  F14 UNL A   1      41.939  21.828  26.313  1.00  0.00    +0.000 F 
ATOM     75  C52 UNL A   1      42.495  24.129  26.354  1.00  0.00    +0.000 C 
ATOM     76  F15 UNL A   1      41.495  24.301  27.229  1.00  0.00    +0.000 F 
ENDBRANCH   65   66
TORSDOF 20
ENDMDL
MODEL 9
REMARK VINA RESULT:     -10.3      3.258      8.810
ROOT
ATOM    129  H39 UNL A   1      38.869  27.478  31.477  1.00  0.00    +0.000 H 
ATOM     29  C23 UNL A   1      40.406  28.984  29.584  1.00  0.00    +0.000 C 
ATOM     30  C24 UNL A   1      40.748  28.653  30.986  1.00  0.00    +0.000 C 
ATOM     31  N4  UNL A   1      41.767  29.061  31.664  1.00  0.00    +0.000 N 
ATOM     32  C25 UNL A   1      41.658  28.460  32.914  1.00  0.00    +0.000 C 
ATOM     33  C26 UNL A   1      42.752  28.282  33.704  1.00  0.00    +0.000 C 
ATOM     45  C33 UNL A   1      43.855  29.091  33.249  1.00  0.00    +0.000 C 
ATOM     46  C34 UNL A   1      44.103  30.447  33.180  1.00  0.00    +0.000 C 
ATOM     47  C35 UNL A   1      44.823  30.633  31.962  1.00  0.00    +0.000 C 
ATOM     48  C36 UNL A   1      45.030  29.380  31.382  1.00  0.00    +0.000 C 
ATOM     49  N5  UNL A   1      44.757  28.501  32.399  1.00  0.00    +0.000 N 
ATOM     50  C37 UNL A   1      45.336  28.972  30.027  1.00  0.00    +0.000 C 
ATOM     62  C44 UNL A   1      45.188  27.705  29.536  1.00  0.00    +0.000 C 
ATOM     63  N6  UNL A   1      45.079  27.479  28.170  1.00  0.00    +0.000 N 
ATOM     64  C45 UNL A   1      44.398  26.370  28.067  1.00  0.00    +0.000 C 
ATOM     65  C46 UNL A   1      43.366  26.135  27.024  1.00  0.00    +0.000 C 
ATOM     77  C53 UNL A   1      42.368  27.017  27.276  1.00  0.00    +0.000 C 
ATOM     78  C54 UNL A   1      41.323  27.516  26.413  1.00  0.00    +0.000 C 
ATOM     79  C55 UNL A   1      40.609  28.425  27.109  1.00  0.00    +0.000 C 
ATOM     80  C56 UNL A   1      41.023  28.421  28.520  1.00  0.00    +0.000 C 
ATOM     81  N7  UNL A   1      42.141  27.624  28.528  1.00  0.00    +0.000 N 
ATOM     82  C57 UNL A   1      44.336  25.557  29.269  1.00  0.00    +0.000 C 
ATOM     83  C58 UNL A   1      44.775  26.450  30.158  1.00  0.00    +0.000 C 
ATOM     84  C59 UNL A   1      40.331  27.906  32.983  1.00  0.00    +0.000 C 
ATOM     85  C60 UNL A   1      39.762  27.899  31.776  1.00  0.00    +0.000 C 
ATOM    120  H30 UNL A   1      43.828  31.170  33.863  1.00  0.00    +0.000 H 
ATOM    121  H31 UNL A   1      45.136  31.538  31.576  1.00  0.00    +0.000 H 
ATOM    122  H32 UNL A   1      45.142  27.600  32.502  1.00  0.00    +0.000 H 
ATOM    123  H33 UNL A   1      41.153  27.229  25.438  1.00  0.00    +0.000 H 
ATOM    124  H34 UNL A   1      39.878  29.034  26.708  1.00  0.00    +0.000 H 
ATOM    125  H35 UNL A   1      42.717  27.494  29.315  1.00  0.00    +0.000 H 
ATOM    126  H36 UNL A   1      44.039  24.577  29.399  1.00  0.00    +0.000 H 
ATOM    127  H37 UNL A   1      44.816  26.274  31.174  1.00  0.00    +0.000 H 
ATOM    128  H38 UNL A   1      39.882  27.562  33.846  1.00  0.00    +0.000 H 
ENDROOT
BRANCH   29   28
ATOM    130  H40 UNL A   1      38.081  28.103  28.847  1.00  0.00    +0.000 H 
ATOM    131  H41 UNL A   1      36.385  29.495  27.800  1.00  0.00    +0.000 H 
ATOM     28  C22 UNL A   1      39.207  29.787  29.427  1.00  0.00    +0.000 C 
ATOM     86  C61 UNL A   1      38.107  29.133  28.906  1.00  0.00    +0.000 C 
ATOM     87  C62 UNL A   1      37.061  29.887  28.473  1.00  0.00    +0.000 C 
ATOM    118  H28 UNL A   1      37.853  32.813  29.911  1.00  0.00    +0.000 H 
ATOM     25  C19 UNL A   1      36.905  31.184  28.939  1.00  0.00    +0.000 C 
ATOM     26  C20 UNL A   1      37.957  31.839  29.585  1.00  0.00    +0.000 C 
ATOM     27  C21 UNL A   1      39.149  31.145  29.780  1.00  0.00    +0.000 C 
ATOM    119  H29 UNL A   1      39.975  31.620  30.175  1.00  0.00    +0.000 H 
BRANCH   25   23
ATOM     23  C18 UNL A   1      35.586  31.813  28.737  1.00  0.00    +0.000 C 
ATOM     24  O3  UNL A   1      35.148  32.606  29.545  1.00  0.00    +0.000 O 
BRANCH   23   22
ATOM    117  H27 UNL A   1      35.320  31.662  26.737  1.00  0.00    +0.000 H 
ATOM     22  N3  UNL A   1      34.872  31.477  27.594  1.00  0.00    +0.000 N 
BRANCH   22   21
ATOM    115  H25 UNL A   1      33.118  30.823  28.486  1.00  0.00    +0.000 H 
ATOM    116  H26 UNL A   1      32.947  31.500  26.859  1.00  0.00    +0.000 H 
ATOM     21  C17 UNL A   1      33.536  30.881  27.503  1.00  0.00    +0.000 C 
BRANCH   21   20
ATOM    113  H23 UNL A   1      33.853  29.563  25.877  1.00  0.00    +0.000 H 
ATOM    114  H24 UNL A   1      34.251  28.906  27.477  1.00  0.00    +0.000 H 
ATOM     20  C16 UNL A   1      33.559  29.487  26.903  1.00  0.00    +0.000 C 
BRANCH   20   19
ATOM     19  C15 UNL A   1      32.200  28.775  26.971  1.00  0.00    +0.000 C 
ATOM    111  H21 UNL A   1      32.337  27.859  27.508  1.00  0.00    +0.000 H 
ATOM    112  H22 UNL A   1      31.538  29.470  27.444  1.00  0.00    +0.000 H 
BRANCH   19   18
ATOM     18  C14 UNL A   1      31.542  28.434  25.624  1.00  0.00    +0.000 C 
ATOM    109  H19 UNL A   1      30.572  28.887  25.605  1.00  0.00    +0.000 H 
ATOM    110  H20 UNL A   1      32.201  28.805  24.868  1.00  0.00    +0.000 H 
BRANCH   18   17
ATOM     17  C13 UNL A   1      31.371  26.938  25.343  1.00  0.00    +0.000 C 
ATOM    107  H17 UNL A   1      31.990  26.393  26.024  1.00  0.00    +0.000 H 
ATOM    108  H18 UNL A   1      30.333  26.708  25.472  1.00  0.00    +0.000 H 
BRANCH   17   16
ATOM    105  H15 UNL A   1      30.860  26.344  23.357  1.00  0.00    +0.000 H 
ATOM    106  H16 UNL A   1      32.296  27.346  23.468  1.00  0.00    +0.000 H 
ATOM     16  C12 UNL A   1      31.750  26.543  23.916  1.00  0.00    +0.000 C 
BRANCH   16   15
ATOM     15  N2  UNL A   1      32.580  25.361  23.923  1.00  0.00    +0.000 N 
ATOM    104  H14 UNL A   1      33.242  25.332  24.651  1.00  0.00    +0.000 H 
BRANCH   15   13
ATOM     13  C11 UNL A   1      32.604  24.284  23.098  1.00  0.00    +0.000 C 
ATOM     14  O2  UNL A   1      33.375  24.328  22.136  1.00  0.00    +0.000 O 
BRANCH   13   12
ATOM     12  C10 UNL A   1      31.651  23.116  23.264  1.00  0.00    +0.000 C 
ATOM    102  H12 UNL A   1      30.747  23.384  22.756  1.00  0.00    +0.000 H 
ATOM    103  H13 UNL A   1      32.215  22.291  22.881  1.00  0.00    +0.000 H 
BRANCH   12   11
ATOM     11  C9  UNL A   1      31.241  22.631  24.660  1.00  0.00    +0.000 C 
ATOM    100  H10 UNL A   1      31.283  23.489  25.298  1.00  0.00    +0.000 H 
ATOM    101  H11 UNL A   1      30.295  22.171  24.467  1.00  0.00    +0.000 H 
BRANCH   11   10
ATOM     10  C8  UNL A   1      31.999  21.511  25.393  1.00  0.00    +0.000 C 
ATOM     99  H9  UNL A   1      32.117  20.771  24.630  1.00  0.00    +0.000 H 
ATOM     98  H8  UNL A   1      31.416  21.264  26.255  1.00  0.00    +0.000 H 
BRANCH   10    9
ATOM      2  C2  UNL A   1      37.803  23.321  26.027  1.00  0.00    +0.000 C 
ATOM      3  C3  UNL A   1      38.067  22.043  25.515  1.00  0.00    +0.000 C 
ATOM      4  C4  UNL A   1      37.013  21.136  25.307  1.00  0.00    +0.000 C 
ATOM      6  C6  UNL A   1      35.729  21.591  25.585  1.00  0.00    +0.000 C 
ATOM      7  C7  UNL A   1      34.418  20.957  25.318  1.00  0.00    +0.000 C 
ATOM      8  O1  UNL A   1      34.303  19.961  24.616  1.00  0.00    +0.000 O 
ATOM      9  N1  UNL A   1      33.368  21.708  25.863  1.00  0.00    +0.000 N 
ATOM     88  S1  UNL A   1      33.905  23.136  26.643  1.00  0.00    +0.000 S 
ATOM     89  C63 UNL A   1      35.575  22.838  26.155  1.00  0.00    +0.000 C 
ATOM     90  N8  UNL A   1      36.559  23.727  26.370  1.00  0.00    +0.000 N 
ATOM     94  H4  UNL A   1      39.036  21.769  25.289  1.00  0.00    +0.000 H 
BRANCH    2    1
ATOM      1  C1  UNL A   1      38.900  24.330  26.195  1.00  0.00    +0.000 C 
ATOM     91  H1  UNL A   1      38.876  24.721  27.191  1.00  0.00    +0.000 H 
ATOM     92  H2  UNL A   1      38.762  25.128  25.496  1.00  0.00    +0.000 H 
ATOM     93  H3  UNL A   1      39.846  23.861  26.019  1.00  0.00    +0.000 H 
ENDBRANCH    2    1
BRANCH    4    5
ATOM     97  H7  UNL A   1      37.613  19.147  25.671  1.00  0.00    +0.000 H 
ATOM      5  C5  UNL A   1      37.283  19.740  24.844  1.00  0.00    +0.000 C 
ATOM     95  H5  UNL A   1      38.042  19.755  24.090  1.00  0.00    +0.000 H 
ATOM     96  H6  UNL A   1      36.386  19.318  24.439  1.00  0.00    +0.000 H 
ENDBRANCH    4    5
ENDBRANCH   10    9
ENDBRANCH   11   10
ENDBRANCH   12   11
ENDBRANCH   13   12
ENDBRANCH   15   13
ENDBRANCH   16   15
ENDBRANCH   17   16
ENDBRANCH   18   17
ENDBRANCH   19   18
ENDBRANCH   20   19
ENDBRANCH   21   20
ENDBRANCH   22   21
ENDBRANCH   23   22
ENDBRANCH   25   23
ENDBRANCH   29   28
BRANCH   33   34
ATOM     34  C27 UNL A   1      42.936  27.140  34.672  1.00  0.00    +0.000 C 
ATOM     35  C28 UNL A   1      42.929  27.401  36.057  1.00  0.00    +0.000 C 
ATOM     36  F1  UNL A   1      42.546  28.597  36.526  1.00  0.00    +0.000 F 
ATOM     37  C29 UNL A   1      43.390  26.465  36.988  1.00  0.00    +0.000 C 
ATOM     38  F2  UNL A   1      43.468  26.799  38.283  1.00  0.00    +0.000 F 
ATOM     39  C30 UNL A   1      43.822  25.218  36.576  1.00  0.00    +0.000 C 
ATOM     40  F3  UNL A   1      44.311  24.339  37.460  1.00  0.00    +0.000 F 
ATOM     41  C31 UNL A   1      43.793  24.904  35.235  1.00  0.00    +0.000 C 
ATOM     42  F4  UNL A   1      44.225  23.708  34.813  1.00  0.00    +0.000 F 
ATOM     43  C32 UNL A   1      43.385  25.855  34.300  1.00  0.00    +0.000 C 
ATOM     44  F5  UNL A   1      43.551  25.500  33.020  1.00  0.00    +0.000 F 
ENDBRANCH   33   34
BRANCH   50   51
ATOM     51  C38 UNL A   1      45.632  30.071  29.036  1.00  0.00    +0.000 C 
ATOM     52  C39 UNL A   1      46.913  30.351  28.526  1.00  0.00    +0.000 C 
ATOM     53  F6  UNL A   1      47.982  29.664  28.945  1.00  0.00    +0.000 F 
ATOM     54  C40 UNL A   1      47.109  31.311  27.532  1.00  0.00    +0.000 C 
ATOM     55  F7  UNL A   1      48.343  31.563  27.073  1.00  0.00    +0.000 F 
ATOM     56  C41 UNL A   1      46.024  31.981  26.993  1.00  0.00    +0.000 C 
ATOM     57  F8  UNL A   1      46.203  32.872  26.008  1.00  0.00    +0.000 F 
ATOM     58  C42 UNL A   1      44.749  31.705  27.459  1.00  0.00    +0.000 C 
ATOM     59  F9  UNL A   1      43.690  32.317  26.910  1.00  0.00    +0.000 F 
ATOM     60  C43 UNL A   1      44.557  30.774  28.477  1.00  0.00    +0.000 C 
ATOM     61  F10 UNL A   1      43.304  30.518  28.886  1.00  0.00    +0.000 F 
ENDBRANCH   50   51
BRANCH   65   66
ATOM     66  C47 UNL A   1      43.295  24.877  26.245  1.00  0.00    +0.000 C 
ATOM     67  C48 UNL A   1      44.197  24.638  25.195  1.00  0.00    +0.000 C 
ATOM     68  F11 UNL A   1      44.954  25.637  24.717  1.00  0.00    +0.000 F 
ATOM     69  C49 UNL A   1      44.394  23.354  24.677  1.00  0.00    +0.000 C 
ATOM     70  F12 UNL A   1      45.316  23.151  23.725  1.00  0.00    +0.000 F 
ATOM     71  C50 UNL A   1      43.689  22.276  25.189  1.00  0.00    +0.000 C 
ATOM     72  F13 UNL A   1      43.933  21.035  24.746  1.00  0.00    +0.000 F 
ATOM     73  C51 UNL A   1      42.763  22.487  26.194  1.00  0.00    +0.000 C 
ATOM     74  F14 UNL A   1      42.102  21.446  26.723  1.00  0.00    +0.000 F 
ATOM     75  C52 UNL A   1      42.567  23.767  26.714  1.00  0.00    +0.000 C 
ATOM     76  F15 UNL A   1      41.726  23.886  27.751  1.00  0.00    +0.000 F 
ENDBRANCH   65   66
TORSDOF 20
ENDMDL
MODEL 10
REMARK VINA RESULT:     -10.3      1.441      2.683
ROOT
ATOM    129  H39 UNL A   1      41.274  28.512  26.157  1.00  0.00    +0.000 H 
ATOM     29  C23 UNL A   1      40.769  27.812  28.890  1.00  0.00    +0.000 C 
ATOM     30  C24 UNL A   1      41.900  28.591  28.338  1.00  0.00    +0.000 C 
ATOM     31  N4  UNL A   1      42.936  29.028  28.970  1.00  0.00    +0.000 N 
ATOM     32  C25 UNL A   1      43.695  29.716  28.028  1.00  0.00    +0.000 C 
ATOM     33  C26 UNL A   1      44.580  30.677  28.408  1.00  0.00    +0.000 C 
ATOM     45  C33 UNL A   1      44.859  30.593  29.820  1.00  0.00    +0.000 C 
ATOM     46  C34 UNL A   1      45.484  29.670  30.634  1.00  0.00    +0.000 C 
ATOM     47  C35 UNL A   1      44.730  29.670  31.846  1.00  0.00    +0.000 C 
ATOM     48  C36 UNL A   1      43.724  30.632  31.734  1.00  0.00    +0.000 C 
ATOM     49  N5  UNL A   1      44.113  31.386  30.657  1.00  0.00    +0.000 N 
ATOM     50  C37 UNL A   1      42.471  30.818  32.434  1.00  0.00    +0.000 C 
ATOM     62  C44 UNL A   1      41.439  31.602  32.003  1.00  0.00    +0.000 C 
ATOM     63  N6  UNL A   1      40.147  31.401  32.472  1.00  0.00    +0.000 N 
ATOM     64  C45 UNL A   1      39.371  31.838  31.517  1.00  0.00    +0.000 C 
ATOM     65  C46 UNL A   1      38.100  31.176  31.125  1.00  0.00    +0.000 C 
ATOM     77  C53 UNL A   1      38.445  29.963  30.629  1.00  0.00    +0.000 C 
ATOM     78  C54 UNL A   1      37.658  28.765  30.461  1.00  0.00    +0.000 C 
ATOM     79  C55 UNL A   1      38.468  27.799  29.981  1.00  0.00    +0.000 C 
ATOM     80  C56 UNL A   1      39.776  28.368  29.622  1.00  0.00    +0.000 C 
ATOM     81  N7  UNL A   1      39.723  29.645  30.124  1.00  0.00    +0.000 N 
ATOM     82  C57 UNL A   1      40.005  32.708  30.542  1.00  0.00    +0.000 C 
ATOM     83  C58 UNL A   1      41.285  32.476  30.843  1.00  0.00    +0.000 C 
ATOM     84  C59 UNL A   1      43.143  29.383  26.741  1.00  0.00    +0.000 C 
ATOM     85  C60 UNL A   1      41.961  28.778  26.880  1.00  0.00    +0.000 C 
ATOM    120  H30 UNL A   1      46.318  29.104  30.414  1.00  0.00    +0.000 H 
ATOM    121  H31 UNL A   1      44.898  29.063  32.664  1.00  0.00    +0.000 H 
ATOM    122  H32 UNL A   1      43.895  32.335  30.508  1.00  0.00    +0.000 H 
ATOM    123  H33 UNL A   1      36.653  28.664  30.671  1.00  0.00    +0.000 H 
ATOM    124  H34 UNL A   1      38.208  26.805  29.880  1.00  0.00    +0.000 H 
ATOM    125  H35 UNL A   1      40.487  30.264  30.131  1.00  0.00    +0.000 H 
ATOM    126  H36 UNL A   1      39.589  33.324  29.827  1.00  0.00    +0.000 H 
ATOM    127  H37 UNL A   1      42.078  32.870  30.313  1.00  0.00    +0.000 H 
ATOM    128  H38 UNL A   1      43.597  29.584  25.837  1.00  0.00    +0.000 H 
ENDROOT
BRANCH   29   28
ATOM    130  H40 UNL A   1      39.031  26.934  27.176  1.00  0.00    +0.000 H 
ATOM    131  H41 UNL A   1      38.355  24.604  27.020  1.00  0.00    +0.000 H 
ATOM     28  C22 UNL A   1      40.677  26.448  28.401  1.00  0.00    +0.000 C 
ATOM     86  C61 UNL A   1      39.596  26.173  27.584  1.00  0.00    +0.000 C 
ATOM     87  C62 UNL A   1      39.301  24.869  27.333  1.00  0.00    +0.000 C 
ATOM    118  H28 UNL A   1      42.159  23.445  28.364  1.00  0.00    +0.000 H 
ATOM     25  C19 UNL A   1      40.275  23.895  27.500  1.00  0.00    +0.000 C 
ATOM     26  C20 UNL A   1      41.443  24.173  28.216  1.00  0.00    +0.000 C 
ATOM     27  C21 UNL A   1      41.617  25.458  28.725  1.00  0.00    +0.000 C 
ATOM    119  H29 UNL A   1      42.424  25.679  29.330  1.00  0.00    +0.000 H 
BRANCH   25   23
ATOM     23  C18 UNL A   1      40.024  22.584  26.874  1.00  0.00    +0.000 C 
ATOM     24  O3  UNL A   1      40.610  21.593  27.258  1.00  0.00    +0.000 O 
BRANCH   23   22
ATOM    117  H27 UNL A   1      39.089  23.283  25.222  1.00  0.00    +0.000 H 
ATOM     22  N3  UNL A   1      39.094  22.520  25.845  1.00  0.00    +0.000 N 
BRANCH   22   21
ATOM    115  H25 UNL A   1      38.222  21.160  24.545  1.00  0.00    +0.000 H 
ATOM    116  H26 UNL A   1      38.318  20.652  26.238  1.00  0.00    +0.000 H 
ATOM     21  C17 UNL A   1      38.119  21.460  25.567  1.00  0.00    +0.000 C 
BRANCH   21   20
ATOM    113  H23 UNL A   1      36.520  21.976  26.854  1.00  0.00    +0.000 H 
ATOM    114  H24 UNL A   1      36.569  22.855  25.312  1.00  0.00    +0.000 H 
ATOM     20  C16 UNL A   1      36.688  21.909  25.799  1.00  0.00    +0.000 C 
BRANCH   20   19
ATOM     19  C15 UNL A   1      35.648  20.953  25.199  1.00  0.00    +0.000 C 
ATOM    111  H21 UNL A   1      36.011  20.630  24.246  1.00  0.00    +0.000 H 
ATOM    112  H22 UNL A   1      35.535  20.168  25.918  1.00  0.00    +0.000 H 
BRANCH   19   18
ATOM     18  C14 UNL A   1      34.235  21.524  24.993  1.00  0.00    +0.000 C 
ATOM    109  H19 UNL A   1      33.545  20.706  24.979  1.00  0.00    +0.000 H 
ATOM    110  H20 UNL A   1      34.070  22.209  25.799  1.00  0.00    +0.000 H 
BRANCH   18   17
ATOM     17  C13 UNL A   1      34.041  22.329  23.705  1.00  0.00    +0.000 C 
ATOM    107  H17 UNL A   1      34.777  22.015  22.995  1.00  0.00    +0.000 H 
ATOM    108  H18 UNL A   1      33.045  22.140  23.360  1.00  0.00    +0.000 H 
BRANCH   17   16
ATOM    105  H15 UNL A   1      33.466  24.158  24.646  1.00  0.00    +0.000 H 
ATOM    106  H16 UNL A   1      35.168  24.059  24.231  1.00  0.00    +0.000 H 
ATOM     16  C12 UNL A   1      34.172  23.839  23.908  1.00  0.00    +0.000 C 
BRANCH   16   15
ATOM     15  N2  UNL A   1      33.916  24.539  22.672  1.00  0.00    +0.000 N 
ATOM    104  H14 UNL A   1      34.725  24.815  22.185  1.00  0.00    +0.000 H 
BRANCH   15   13
ATOM     13  C11 UNL A   1      32.751  24.884  22.068  1.00  0.00    +0.000 C 
ATOM     14  O2  UNL A   1      32.796  25.144  20.863  1.00  0.00    +0.000 O 
BRANCH   13   12
ATOM     12  C10 UNL A   1      31.459  25.061  22.843  1.00  0.00    +0.000 C 
ATOM    102  H12 UNL A   1      30.705  24.520  22.308  1.00  0.00    +0.000 H 
ATOM    103  H13 UNL A   1      31.720  24.721  23.824  1.00  0.00    +0.000 H 
BRANCH   12   11
ATOM     11  C9  UNL A   1      30.889  26.461  23.107  1.00  0.00    +0.000 C 
ATOM    100  H10 UNL A   1      30.188  26.651  22.322  1.00  0.00    +0.000 H 
ATOM    101  H11 UNL A   1      30.534  26.370  24.113  1.00  0.00    +0.000 H 
BRANCH   11   10
ATOM     10  C8  UNL A   1      31.787  27.706  23.195  1.00  0.00    +0.000 C 
ATOM     99  H9  UNL A   1      31.326  28.377  22.500  1.00  0.00    +0.000 H 
ATOM     98  H8  UNL A   1      32.785  27.376  22.996  1.00  0.00    +0.000 H 
BRANCH   10    9
ATOM      2  C2  UNL A   1      32.705  32.172  27.267  1.00  0.00    +0.000 C 
ATOM      3  C3  UNL A   1      33.800  31.373  27.625  1.00  0.00    +0.000 C 
ATOM      4  C4  UNL A   1      33.971  30.107  27.036  1.00  0.00    +0.000 C 
ATOM      6  C6  UNL A   1      33.044  29.734  26.070  1.00  0.00    +0.000 C 
ATOM      7  C7  UNL A   1      33.038  28.566  25.160  1.00  0.00    +0.000 C 
ATOM      8  O1  UNL A   1      34.009  27.833  25.028  1.00  0.00    +0.000 O 
ATOM      9  N1  UNL A   1      31.852  28.506  24.416  1.00  0.00    +0.000 N 
ATOM     88  S1  UNL A   1      30.785  29.802  24.756  1.00  0.00    +0.000 S 
ATOM     89  C63 UNL A   1      31.959  30.555  25.837  1.00  0.00    +0.000 C 
ATOM     90  N8  UNL A   1      31.764  31.766  26.385  1.00  0.00    +0.000 N 
ATOM     94  H4  UNL A   1      34.483  31.714  28.321  1.00  0.00    +0.000 H 
BRANCH    2    1
ATOM      1  C1  UNL A   1      32.537  33.552  27.830  1.00  0.00    +0.000 C 
ATOM     91  H1  UNL A   1      32.363  33.487  28.884  1.00  0.00    +0.000 H 
ATOM     92  H2  UNL A   1      31.705  34.031  27.360  1.00  0.00    +0.000 H 
ATOM     93  H3  UNL A   1      33.425  34.121  27.650  1.00  0.00    +0.000 H 
ENDBRANCH    2    1
BRANCH    4    5
ATOM     97  H7  UNL A   1      35.134  28.361  26.810  1.00  0.00    +0.000 H 
ATOM      5  C5  UNL A   1      35.083  29.205  27.467  1.00  0.00    +0.000 C 
ATOM     95  H5  UNL A   1      34.902  28.868  28.466  1.00  0.00    +0.000 H 
ATOM     96  H6  UNL A   1      36.010  29.739  27.434  1.00  0.00    +0.000 H 
ENDBRANCH    4    5
ENDBRANCH   10    9
ENDBRANCH   11   10
ENDBRANCH   12   11
ENDBRANCH   13   12
ENDBRANCH   15   13
ENDBRANCH   16   15
ENDBRANCH   17   16
ENDBRANCH   18   17
ENDBRANCH   19   18
ENDBRANCH   20   19
ENDBRANCH   21   20
ENDBRANCH   22   21
ENDBRANCH   23   22
ENDBRANCH   25   23
ENDBRANCH   29   28
BRANCH   33   34
ATOM     34  C27 UNL A   1      44.932  31.894  27.589  1.00  0.00    +0.000 C 
ATOM     35  C28 UNL A   1      46.212  31.986  27.006  1.00  0.00    +0.000 C 
ATOM     36  F1  UNL A   1      47.033  30.927  26.985  1.00  0.00    +0.000 F 
ATOM     37  C29 UNL A   1      46.709  33.193  26.502  1.00  0.00    +0.000 C 
ATOM     38  F2  UNL A   1      47.971  33.258  26.060  1.00  0.00    +0.000 F 
ATOM     39  C30 UNL A   1      45.928  34.334  26.511  1.00  0.00    +0.000 C 
ATOM     40  F3  UNL A   1      46.419  35.500  26.075  1.00  0.00    +0.000 F 
ATOM     41  C31 UNL A   1      44.649  34.270  27.022  1.00  0.00    +0.000 C 
ATOM     42  F4  UNL A   1      43.883  35.369  27.058  1.00  0.00    +0.000 F 
ATOM     43  C32 UNL A   1      44.172  33.083  27.575  1.00  0.00    +0.000 C 
ATOM     44  F5  UNL A   1      42.985  33.178  28.187  1.00  0.00    +0.000 F 
ENDBRANCH   33   34
BRANCH   50   51
ATOM     51  C38 UNL A   1      42.210  29.911  33.613  1.00  0.00    +0.000 C 
ATOM     52  C39 UNL A   1      41.777  28.577  33.502  1.00  0.00    +0.000 C 
ATOM     53  F6  UNL A   1      41.519  28.037  32.305  1.00  0.00    +0.000 F 
ATOM     54  C40 UNL A   1      41.655  27.755  34.623  1.00  0.00    +0.000 C 
ATOM     55  F7  UNL A   1      41.231  26.489  34.488  1.00  0.00    +0.000 F 
ATOM     56  C41 UNL A   1      42.005  28.233  35.875  1.00  0.00    +0.000 C 
ATOM     57  F8  UNL A   1      41.929  27.433  36.948  1.00  0.00    +0.000 F 
ATOM     58  C42 UNL A   1      42.458  29.535  36.008  1.00  0.00    +0.000 C 
ATOM     59  F9  UNL A   1      42.840  29.990  37.209  1.00  0.00    +0.000 F 
ATOM     60  C43 UNL A   1      42.545  30.367  34.894  1.00  0.00    +0.000 C 
ATOM     61  F10 UNL A   1      43.010  31.616  35.059  1.00  0.00    +0.000 F 
ENDBRANCH   50   51
BRANCH   65   66
ATOM     66  C47 UNL A   1      36.848  31.933  30.894  1.00  0.00    +0.000 C 
ATOM     67  C48 UNL A   1      35.936  32.137  31.942  1.00  0.00    +0.000 C 
ATOM     68  F11 UNL A   1      36.053  31.441  33.082  1.00  0.00    +0.000 F 
ATOM     69  C49 UNL A   1      34.942  33.118  31.865  1.00  0.00    +0.000 C 
ATOM     70  F12 UNL A   1      34.135  33.336  32.914  1.00  0.00    +0.000 F 
ATOM     71  C50 UNL A   1      34.827  33.914  30.737  1.00  0.00    +0.000 C 
ATOM     72  F13 UNL A   1      33.925  34.904  30.694  1.00  0.00    +0.000 F 
ATOM     73  C51 UNL A   1      35.684  33.708  29.671  1.00  0.00    +0.000 C 
ATOM     74  F14 UNL A   1      35.608  34.496  28.589  1.00  0.00    +0.000 F 
ATOM     75  C52 UNL A   1      36.679  32.731  29.746  1.00  0.00    +0.000 C 
ATOM     76  F15 UNL A   1      37.535  32.648  28.719  1.00  0.00    +0.000 F 
ENDBRANCH   65   66
TORSDOF 20
ENDMDL
