MODEL 1
REMARK VINA RESULT:     -11.4      0.000      0.000
ROOT
ATOM     19  C15 UNL A   1      41.448  26.032  27.788  1.00  0.00    +0.000 C 
ATOM     20  C16 UNL A   1      40.772  27.138  28.546  1.00  0.00    +0.000 C 
ATOM     21  N3  UNL A   1      41.208  28.339  28.828  1.00  0.00    +0.000 N 
ATOM     22  C17 UNL A   1      40.156  28.977  29.470  1.00  0.00    +0.000 C 
ATOM     23  C18 UNL A   1      40.121  30.225  29.994  1.00  0.00    +0.000 C 
ATOM     35  C25 UNL A   1      41.238  31.130  29.996  1.00  0.00    +0.000 C 
ATOM     36  C26 UNL A   1      41.330  32.389  30.565  1.00  0.00    +0.000 C 
ATOM     37  C27 UNL A   1      42.599  32.904  30.282  1.00  0.00    +0.000 C 
ATOM     38  C28 UNL A   1      43.313  31.950  29.572  1.00  0.00    +0.000 C 
ATOM     39  N4  UNL A   1      42.464  30.869  29.400  1.00  0.00    +0.000 N 
ATOM     40  C29 UNL A   1      44.668  32.019  29.089  1.00  0.00    +0.000 C 
ATOM     52  C36 UNL A   1      45.301  31.043  28.395  1.00  0.00    +0.000 C 
ATOM     53  N5  UNL A   1      44.826  29.794  28.019  1.00  0.00    +0.000 N 
ATOM     54  C37 UNL A   1      45.810  29.212  27.376  1.00  0.00    +0.000 C 
ATOM     55  C38 UNL A   1      45.857  27.839  26.766  1.00  0.00    +0.000 C 
ATOM     67  C45 UNL A   1      44.810  27.007  26.925  1.00  0.00    +0.000 C 
ATOM     68  C46 UNL A   1      44.708  25.659  26.373  1.00  0.00    +0.000 C 
ATOM     69  C47 UNL A   1      43.483  25.171  26.631  1.00  0.00    +0.000 C 
ATOM     70  C48 UNL A   1      42.730  26.160  27.402  1.00  0.00    +0.000 C 
ATOM     71  N6  UNL A   1      43.617  27.195  27.579  1.00  0.00    +0.000 N 
ATOM     72  C49 UNL A   1      47.014  30.043  27.242  1.00  0.00    +0.000 C 
ATOM     73  C50 UNL A   1      46.661  31.138  27.903  1.00  0.00    +0.000 C 
ATOM     74  C51 UNL A   1      39.049  28.044  29.503  1.00  0.00    +0.000 C 
ATOM     75  C52 UNL A   1      39.404  26.866  29.012  1.00  0.00    +0.000 C 
ATOM    112  H21 UNL A   1      40.590  32.864  31.105  1.00  0.00    +0.000 H 
ATOM    113  H22 UNL A   1      42.946  33.837  30.553  1.00  0.00    +0.000 H 
ATOM    114  H23 UNL A   1      42.696  30.038  28.925  1.00  0.00    +0.000 H 
ATOM    115  H24 UNL A   1      45.457  25.160  25.868  1.00  0.00    +0.000 H 
ATOM    116  H25 UNL A   1      43.131  24.248  26.334  1.00  0.00    +0.000 H 
ATOM    117  H26 UNL A   1      43.415  27.993  28.119  1.00  0.00    +0.000 H 
ATOM    118  H27 UNL A   1      47.902  29.831  26.761  1.00  0.00    +0.000 H 
ATOM    119  H28 UNL A   1      47.276  31.953  28.049  1.00  0.00    +0.000 H 
ATOM    120  H29 UNL A   1      38.108  28.267  29.863  1.00  0.00    +0.000 H 
ATOM    121  H30 UNL A   1      38.862  25.989  28.967  1.00  0.00    +0.000 H 
ENDROOT
BRANCH   19   18
ATOM     76  C53 UNL A   1      39.535  25.062  26.536  1.00  0.00    +0.000 C 
ATOM     77  C54 UNL A   1      38.751  23.988  26.131  1.00  0.00    +0.000 C 
ATOM    110  H19 UNL A   1      40.473  21.507  27.601  1.00  0.00    +0.000 H 
ATOM     15  C11 UNL A   1      39.133  22.688  26.470  1.00  0.00    +0.000 C 
ATOM     16  C12 UNL A   1      40.224  22.467  27.315  1.00  0.00    +0.000 C 
ATOM     17  C13 UNL A   1      40.975  23.553  27.772  1.00  0.00    +0.000 C 
ATOM    111  H20 UNL A   1      41.768  23.395  28.414  1.00  0.00    +0.000 H 
ATOM     18  C14 UNL A   1      40.654  24.854  27.360  1.00  0.00    +0.000 C 
ATOM    122  H31 UNL A   1      39.294  26.018  26.230  1.00  0.00    +0.000 H 
ATOM    123  H32 UNL A   1      37.892  24.151  25.582  1.00  0.00    +0.000 H 
BRANCH   15   13
ATOM     13  C10 UNL A   1      38.401  21.530  25.918  1.00  0.00    +0.000 C 
ATOM     14  O2  UNL A   1      39.020  20.560  25.493  1.00  0.00    +0.000 O 
BRANCH   13   12
ATOM     12  N2  UNL A   1      37.029  21.565  25.871  1.00  0.00    +0.000 N 
ATOM    109  H18 UNL A   1      36.572  21.678  26.736  1.00  0.00    +0.000 H 
BRANCH   12   11
ATOM     11  C9  UNL A   1      36.162  21.456  24.707  1.00  0.00    +0.000 C 
ATOM    108  H17 UNL A   1      35.159  21.642  25.030  1.00  0.00    +0.000 H 
ATOM    107  H16 UNL A   1      36.263  20.474  24.294  1.00  0.00    +0.000 H 
BRANCH   11   10
ATOM    105  H14 UNL A   1      37.447  22.919  23.876  1.00  0.00    +0.000 H 
ATOM     10  C8  UNL A   1      36.503  22.479  23.631  1.00  0.00    +0.000 C 
ATOM    106  H15 UNL A   1      36.515  21.948  22.702  1.00  0.00    +0.000 H 
BRANCH   10    9
ATOM      9  C7  UNL A   1      35.479  23.604  23.474  1.00  0.00    +0.000 C 
ATOM    103  H12 UNL A   1      35.863  24.306  22.764  1.00  0.00    +0.000 H 
ATOM    104  H13 UNL A   1      34.568  23.137  23.160  1.00  0.00    +0.000 H 
BRANCH    9    8
ATOM    101  H10 UNL A   1      34.701  23.672  25.446  1.00  0.00    +0.000 H 
ATOM    102  H11 UNL A   1      36.071  24.775  25.108  1.00  0.00    +0.000 H 
ATOM      8  C6  UNL A   1      35.147  24.363  24.762  1.00  0.00    +0.000 C 
BRANCH    8    7
ATOM     99  H8  UNL A   1      34.767  26.414  24.339  1.00  0.00    +0.000 H 
ATOM    100  H9  UNL A   1      33.486  25.276  23.838  1.00  0.00    +0.000 H 
ATOM      7  C5  UNL A   1      34.188  25.552  24.598  1.00  0.00    +0.000 C 
BRANCH    7    6
ATOM     97  H6  UNL A   1      33.913  26.583  26.451  1.00  0.00    +0.000 H 
ATOM     98  H7  UNL A   1      32.433  26.306  25.550  1.00  0.00    +0.000 H 
ATOM      6  C4  UNL A   1      33.369  25.884  25.851  1.00  0.00    +0.000 C 
BRANCH    6    5
ATOM      5  N1  UNL A   1      33.115  24.687  26.626  1.00  0.00    +0.000 N 
ATOM     96  H5  UNL A   1      33.807  24.450  27.285  1.00  0.00    +0.000 H 
BRANCH    5    3
ATOM      3  C3  UNL A   1      32.043  23.842  26.562  1.00  0.00    +0.000 C 
ATOM      4  O1  UNL A   1      30.927  24.353  26.688  1.00  0.00    +0.000 O 
BRANCH    3    2
ATOM      2  C2  UNL A   1      32.265  22.320  26.410  1.00  0.00    +0.000 C 
ATOM     95  H4  UNL A   1      31.452  21.795  26.868  1.00  0.00    +0.000 H 
BRANCH    2    1
ATOM      1  C1  UNL A   1      33.542  21.906  27.149  1.00  0.00    +0.000 C 
ATOM     92  H1  UNL A   1      33.282  21.348  28.025  1.00  0.00    +0.000 H 
ATOM     93  H2  UNL A   1      34.089  22.780  27.434  1.00  0.00    +0.000 H 
ATOM     94  H3  UNL A   1      34.146  21.300  26.507  1.00  0.00    +0.000 H 
ENDBRANCH    2    1
BRANCH    2   78
ATOM    132  H41 UNL A   1      32.751  19.880  25.352  1.00  0.00    +0.000 H 
ATOM     78  C55 UNL A   1      32.238  21.890  24.935  1.00  0.00    +0.000 C 
ATOM     79  C56 UNL A   1      31.985  22.782  23.881  1.00  0.00    +0.000 C 
ATOM     80  C57 UNL A   1      31.901  22.331  22.561  1.00  0.00    +0.000 C 
ATOM     81  C58 UNL A   1      32.050  20.977  22.273  1.00  0.00    +0.000 C 
ATOM     82  C59 UNL A   1      32.321  20.066  23.297  1.00  0.00    +0.000 C 
ATOM     91  C67 UNL A   1      32.468  20.537  24.609  1.00  0.00    +0.000 C 
ATOM    124  H33 UNL A   1      31.860  23.786  24.084  1.00  0.00    +0.000 H 
ATOM    125  H34 UNL A   1      31.727  23.004  21.799  1.00  0.00    +0.000 H 
ATOM    126  H35 UNL A   1      31.961  20.646  21.299  1.00  0.00    +0.000 H 
BRANCH   82   83
ATOM     83  C60 UNL A   1      32.463  18.626  22.939  1.00  0.00    +0.000 C 
ATOM     84  O3  UNL A   1      32.140  18.245  21.815  1.00  0.00    +0.000 O 
BRANCH   83   85
ATOM    129  H38 UNL A   1      34.599  15.099  26.279  1.00  0.00    +0.000 H 
ATOM    130  H39 UNL A   1      32.246  15.651  26.481  1.00  0.00    +0.000 H 
ATOM    131  H40 UNL A   1      31.231  17.239  24.947  1.00  0.00    +0.000 H 
ATOM     85  C61 UNL A   1      33.018  17.625  23.882  1.00  0.00    +0.000 C 
ATOM     86  C62 UNL A   1      34.367  17.275  23.746  1.00  0.00    +0.000 C 
ATOM     87  C63 UNL A   1      34.942  16.355  24.620  1.00  0.00    +0.000 C 
ATOM     88  C64 UNL A   1      34.169  15.770  25.624  1.00  0.00    +0.000 C 
ATOM     89  C65 UNL A   1      32.817  16.092  25.744  1.00  0.00    +0.000 C 
ATOM     90  C66 UNL A   1      32.234  17.013  24.868  1.00  0.00    +0.000 C 
ATOM    127  H36 UNL A   1      34.936  17.700  22.997  1.00  0.00    +0.000 H 
ATOM    128  H37 UNL A   1      35.939  16.106  24.526  1.00  0.00    +0.000 H 
ENDBRANCH   83   85
ENDBRANCH   82   83
ENDBRANCH    2   78
ENDBRANCH    3    2
ENDBRANCH    5    3
ENDBRANCH    6    5
ENDBRANCH    7    6
ENDBRANCH    8    7
ENDBRANCH    9    8
ENDBRANCH   10    9
ENDBRANCH   11   10
ENDBRANCH   12   11
ENDBRANCH   13   12
ENDBRANCH   15   13
ENDBRANCH   19   18
BRANCH   23   24
ATOM     33  C24 UNL A   1      37.803  31.188  29.776  1.00  0.00    +0.000 C 
ATOM     34  F5  UNL A   1      37.978  31.270  28.449  1.00  0.00    +0.000 F 
ATOM     24  C19 UNL A   1      38.825  30.683  30.595  1.00  0.00    +0.000 C 
ATOM     25  C20 UNL A   1      38.590  30.626  31.977  1.00  0.00    +0.000 C 
ATOM     26  F1  UNL A   1      39.528  30.139  32.802  1.00  0.00    +0.000 F 
ATOM     27  C21 UNL A   1      37.365  31.018  32.512  1.00  0.00    +0.000 C 
ATOM     28  F2  UNL A   1      37.141  30.894  33.828  1.00  0.00    +0.000 F 
ATOM     29  C22 UNL A   1      36.370  31.512  31.683  1.00  0.00    +0.000 C 
ATOM     30  F3  UNL A   1      35.190  31.886  32.199  1.00  0.00    +0.000 F 
ATOM     31  C23 UNL A   1      36.591  31.609  30.318  1.00  0.00    +0.000 C 
ATOM     32  F4  UNL A   1      35.634  32.097  29.517  1.00  0.00    +0.000 F 
ENDBRANCH   23   24
BRANCH   40   41
ATOM     41  C30 UNL A   1      45.445  33.263  29.402  1.00  0.00    +0.000 C 
ATOM     42  C31 UNL A   1      45.401  34.386  28.565  1.00  0.00    +0.000 C 
ATOM     43  F6  UNL A   1      44.728  34.338  27.406  1.00  0.00    +0.000 F 
ATOM     44  C32 UNL A   1      46.066  35.560  28.911  1.00  0.00    +0.000 C 
ATOM     45  F7  UNL A   1      46.031  36.615  28.087  1.00  0.00    +0.000 F 
ATOM     46  C33 UNL A   1      46.764  35.638  30.107  1.00  0.00    +0.000 C 
ATOM     47  F8  UNL A   1      47.389  36.774  30.447  1.00  0.00    +0.000 F 
ATOM     48  C34 UNL A   1      46.818  34.538  30.951  1.00  0.00    +0.000 C 
ATOM     49  F9  UNL A   1      47.483  34.616  32.112  1.00  0.00    +0.000 F 
ATOM     50  C35 UNL A   1      46.174  33.357  30.597  1.00  0.00    +0.000 C 
ATOM     51  F10 UNL A   1      46.240  32.309  31.433  1.00  0.00    +0.000 F 
ENDBRANCH   40   41
BRANCH   55   56
ATOM     65  C44 UNL A   1      48.105  26.712  26.656  1.00  0.00    +0.000 C 
ATOM     66  F15 UNL A   1      48.038  26.456  27.971  1.00  0.00    +0.000 F 
ATOM     56  C39 UNL A   1      47.049  27.373  26.013  1.00  0.00    +0.000 C 
ATOM     57  C40 UNL A   1      47.172  27.625  24.641  1.00  0.00    +0.000 C 
ATOM     58  F11 UNL A   1      46.178  28.239  23.982  1.00  0.00    +0.000 F 
ATOM     59  C41 UNL A   1      48.306  27.228  23.936  1.00  0.00    +0.000 C 
ATOM     60  F12 UNL A   1      48.389  27.460  22.619  1.00  0.00    +0.000 F 
ATOM     61  C42 UNL A   1      49.347  26.590  24.594  1.00  0.00    +0.000 C 
ATOM     62  F13 UNL A   1      50.445  26.223  23.919  1.00  0.00    +0.000 F 
ATOM     63  C43 UNL A   1      49.248  26.335  25.955  1.00  0.00    +0.000 C 
ATOM     64  F14 UNL A   1      50.259  25.733  26.597  1.00  0.00    +0.000 F 
ENDBRANCH   55   56
TORSDOF 19
ENDMDL
MODEL 2
REMARK VINA RESULT:     -11.3      4.142      9.546
ROOT
ATOM     19  C15 UNL A   1      38.147  30.282  29.718  1.00  0.00    +0.000 C 
ATOM     20  C16 UNL A   1      39.196  29.359  29.169  1.00  0.00    +0.000 C 
ATOM     21  N3  UNL A   1      40.264  28.876  29.752  1.00  0.00    +0.000 N 
ATOM     22  C17 UNL A   1      40.836  28.013  28.826  1.00  0.00    +0.000 C 
ATOM     23  C18 UNL A   1      41.978  27.296  28.938  1.00  0.00    +0.000 C 
ATOM     35  C25 UNL A   1      42.848  27.336  30.083  1.00  0.00    +0.000 C 
ATOM     36  C26 UNL A   1      44.066  26.705  30.265  1.00  0.00    +0.000 C 
ATOM     37  C27 UNL A   1      44.527  27.012  31.550  1.00  0.00    +0.000 C 
ATOM     38  C28 UNL A   1      43.617  27.868  32.151  1.00  0.00    +0.000 C 
ATOM     39  N4  UNL A   1      42.590  28.054  31.242  1.00  0.00    +0.000 N 
ATOM     40  C29 UNL A   1      43.682  28.470  33.458  1.00  0.00    +0.000 C 
ATOM     52  C36 UNL A   1      42.747  29.298  33.984  1.00  0.00    +0.000 C 
ATOM     53  N5  UNL A   1      41.570  29.759  33.409  1.00  0.00    +0.000 N 
ATOM     54  C37 UNL A   1      41.013  30.539  34.303  1.00  0.00    +0.000 C 
ATOM     55  C38 UNL A   1      39.732  31.322  34.207  1.00  0.00    +0.000 C 
ATOM     67  C45 UNL A   1      39.047  31.330  33.048  1.00  0.00    +0.000 C 
ATOM     68  C46 UNL A   1      37.784  32.025  32.816  1.00  0.00    +0.000 C 
ATOM     69  C47 UNL A   1      37.333  31.717  31.589  1.00  0.00    +0.000 C 
ATOM     70  C48 UNL A   1      38.298  30.835  30.935  1.00  0.00    +0.000 C 
ATOM     71  N6  UNL A   1      39.311  30.705  31.854  1.00  0.00    +0.000 N 
ATOM     72  C49 UNL A   1      41.761  30.636  35.564  1.00  0.00    +0.000 C 
ATOM     73  C50 UNL A   1      42.822  29.883  35.307  1.00  0.00    +0.000 C 
ATOM     74  C51 UNL A   1      39.978  28.012  27.660  1.00  0.00    +0.000 C 
ATOM     75  C52 UNL A   1      38.992  28.885  27.792  1.00  0.00    +0.000 C 
ATOM    112  H21 UNL A   1      44.549  26.111  29.574  1.00  0.00    +0.000 H 
ATOM    113  H22 UNL A   1      45.397  26.660  31.978  1.00  0.00    +0.000 H 
ATOM    114  H23 UNL A   1      41.793  28.613  31.395  1.00  0.00    +0.000 H 
ATOM    115  H24 UNL A   1      37.313  32.653  33.486  1.00  0.00    +0.000 H 
ATOM    116  H25 UNL A   1      36.448  32.049  31.175  1.00  0.00    +0.000 H 
ATOM    117  H26 UNL A   1      40.144  30.211  31.675  1.00  0.00    +0.000 H 
ATOM    118  H27 UNL A   1      41.523  31.155  36.424  1.00  0.00    +0.000 H 
ATOM    119  H28 UNL A   1      43.602  29.733  35.965  1.00  0.00    +0.000 H 
ATOM    120  H29 UNL A   1      40.118  27.409  26.833  1.00  0.00    +0.000 H 
ATOM    121  H30 UNL A   1      38.269  29.161  27.109  1.00  0.00    +0.000 H 
ENDROOT
BRANCH   19   18
ATOM     76  C53 UNL A   1      36.074  29.361  28.707  1.00  0.00    +0.000 C 
ATOM     77  C54 UNL A   1      34.896  29.499  27.982  1.00  0.00    +0.000 C 
ATOM    110  H19 UNL A   1      34.989  32.816  27.465  1.00  0.00    +0.000 H 
ATOM     15  C11 UNL A   1      34.473  30.770  27.585  1.00  0.00    +0.000 C 
ATOM     16  C12 UNL A   1      35.285  31.887  27.802  1.00  0.00    +0.000 C 
ATOM     17  C13 UNL A   1      36.499  31.738  28.478  1.00  0.00    +0.000 C 
ATOM    111  H20 UNL A   1      37.111  32.556  28.621  1.00  0.00    +0.000 H 
ATOM     18  C14 UNL A   1      36.886  30.479  28.961  1.00  0.00    +0.000 C 
ATOM    122  H31 UNL A   1      36.354  28.433  29.060  1.00  0.00    +0.000 H 
ATOM    123  H32 UNL A   1      34.336  28.666  27.738  1.00  0.00    +0.000 H 
BRANCH   15   13
ATOM     13  C10 UNL A   1      33.151  30.950  26.953  1.00  0.00    +0.000 C 
ATOM     14  O2  UNL A   1      32.544  32.008  27.092  1.00  0.00    +0.000 O 
BRANCH   13   12
ATOM     12  N2  UNL A   1      32.606  29.917  26.231  1.00  0.00    +0.000 N 
ATOM    109  H18 UNL A   1      32.966  29.793  25.322  1.00  0.00    +0.000 H 
BRANCH   12   11
ATOM     11  C9  UNL A   1      31.566  28.982  26.633  1.00  0.00    +0.000 C 
ATOM    108  H17 UNL A   1      30.805  28.999  25.881  1.00  0.00    +0.000 H 
ATOM    107  H16 UNL A   1      31.182  29.285  27.585  1.00  0.00    +0.000 H 
BRANCH   11   10
ATOM    105  H14 UNL A   1      32.952  27.463  26.126  1.00  0.00    +0.000 H 
ATOM     10  C8  UNL A   1      32.082  27.552  26.743  1.00  0.00    +0.000 C 
ATOM    106  H15 UNL A   1      32.283  27.382  27.780  1.00  0.00    +0.000 H 
BRANCH   10    9
ATOM      9  C7  UNL A   1      31.081  26.479  26.313  1.00  0.00    +0.000 C 
ATOM    103  H12 UNL A   1      30.171  26.640  26.853  1.00  0.00    +0.000 H 
ATOM    104  H13 UNL A   1      30.970  26.582  25.254  1.00  0.00    +0.000 H 
BRANCH    9    8
ATOM    101  H10 UNL A   1      32.566  24.965  26.295  1.00  0.00    +0.000 H 
ATOM    102  H11 UNL A   1      31.334  24.836  27.589  1.00  0.00    +0.000 H 
ATOM      8  C6  UNL A   1      31.531  25.036  26.557  1.00  0.00    +0.000 C 
BRANCH    8    7
ATOM     99  H8  UNL A   1      29.730  24.228  25.761  1.00  0.00    +0.000 H 
ATOM    100  H9  UNL A   1      31.197  23.945  24.785  1.00  0.00    +0.000 H 
ATOM      7  C5  UNL A   1      30.767  23.965  25.765  1.00  0.00    +0.000 C 
BRANCH    7    6
ATOM     97  H6  UNL A   1      31.436  22.584  27.254  1.00  0.00    +0.000 H 
ATOM     98  H7  UNL A   1      29.918  22.145  26.488  1.00  0.00    +0.000 H 
ATOM      6  C4  UNL A   1      30.898  22.545  26.329  1.00  0.00    +0.000 C 
BRANCH    6    5
ATOM      5  N1  UNL A   1      31.608  21.690  25.400  1.00  0.00    +0.000 N 
ATOM     96  H5  UNL A   1      31.104  21.420  24.599  1.00  0.00    +0.000 H 
BRANCH    5    3
ATOM      3  C3  UNL A   1      32.884  21.209  25.489  1.00  0.00    +0.000 C 
ATOM      4  O1  UNL A   1      33.136  20.486  26.457  1.00  0.00    +0.000 O 
BRANCH    3    2
ATOM      2  C2  UNL A   1      33.945  21.632  24.449  1.00  0.00    +0.000 C 
ATOM     95  H4  UNL A   1      33.622  21.341  23.471  1.00  0.00    +0.000 H 
BRANCH    2    1
ATOM      1  C1  UNL A   1      35.263  20.899  24.724  1.00  0.00    +0.000 C 
ATOM     92  H1  UNL A   1      35.581  20.393  23.836  1.00  0.00    +0.000 H 
ATOM     93  H2  UNL A   1      35.117  20.185  25.508  1.00  0.00    +0.000 H 
ATOM     94  H3  UNL A   1      36.010  21.605  25.019  1.00  0.00    +0.000 H 
ENDBRANCH    2    1
BRANCH    2   78
ATOM    132  H41 UNL A   1      32.983  23.344  22.590  1.00  0.00    +0.000 H 
ATOM     78  C55 UNL A   1      34.092  23.161  24.383  1.00  0.00    +0.000 C 
ATOM     79  C56 UNL A   1      34.832  23.901  25.318  1.00  0.00    +0.000 C 
ATOM     80  C57 UNL A   1      34.879  25.296  25.258  1.00  0.00    +0.000 C 
ATOM     81  C58 UNL A   1      34.171  25.978  24.271  1.00  0.00    +0.000 C 
ATOM     82  C59 UNL A   1      33.439  25.270  23.314  1.00  0.00    +0.000 C 
ATOM     91  C67 UNL A   1      33.452  23.868  23.344  1.00  0.00    +0.000 C 
ATOM    124  H33 UNL A   1      35.349  23.407  26.062  1.00  0.00    +0.000 H 
ATOM    125  H34 UNL A   1      35.438  25.822  25.946  1.00  0.00    +0.000 H 
ATOM    126  H35 UNL A   1      34.187  27.010  24.246  1.00  0.00    +0.000 H 
BRANCH   82   83
ATOM     83  C60 UNL A   1      32.692  26.045  22.284  1.00  0.00    +0.000 C 
ATOM     84  O3  UNL A   1      32.942  25.869  21.092  1.00  0.00    +0.000 O 
BRANCH   83   85
ATOM    129  H38 UNL A   1      28.945  29.607  23.479  1.00  0.00    +0.000 H 
ATOM    130  H39 UNL A   1      28.386  27.247  23.490  1.00  0.00    +0.000 H 
ATOM    131  H40 UNL A   1      30.087  25.589  22.978  1.00  0.00    +0.000 H 
ATOM     85  C61 UNL A   1      31.620  27.008  22.637  1.00  0.00    +0.000 C 
ATOM     86  C62 UNL A   1      31.947  28.369  22.668  1.00  0.00    +0.000 C 
ATOM     87  C63 UNL A   1      30.971  29.315  22.975  1.00  0.00    +0.000 C 
ATOM     88  C64 UNL A   1      29.670  28.905  23.265  1.00  0.00    +0.000 C 
ATOM     89  C65 UNL A   1      29.347  27.547  23.266  1.00  0.00    +0.000 C 
ATOM     90  C66 UNL A   1      30.322  26.594  22.962  1.00  0.00    +0.000 C 
ATOM    127  H36 UNL A   1      32.913  28.671  22.464  1.00  0.00    +0.000 H 
ATOM    128  H37 UNL A   1      31.210  30.319  22.987  1.00  0.00    +0.000 H 
ENDBRANCH   83   85
ENDBRANCH   82   83
ENDBRANCH    2   78
ENDBRANCH    3    2
ENDBRANCH    5    3
ENDBRANCH    6    5
ENDBRANCH    7    6
ENDBRANCH    8    7
ENDBRANCH    9    8
ENDBRANCH   10    9
ENDBRANCH   11   10
ENDBRANCH   12   11
ENDBRANCH   13   12
ENDBRANCH   15   13
ENDBRANCH   19   18
BRANCH   23   24
ATOM     33  C24 UNL A   1      43.256  26.828  26.818  1.00  0.00    +0.000 C 
ATOM     34  F5  UNL A   1      43.810  28.047  26.900  1.00  0.00    +0.000 F 
ATOM     24  C19 UNL A   1      42.342  26.398  27.792  1.00  0.00    +0.000 C 
ATOM     25  C20 UNL A   1      41.789  25.116  27.652  1.00  0.00    +0.000 C 
ATOM     26  F1  UNL A   1      40.921  24.653  28.564  1.00  0.00    +0.000 F 
ATOM     27  C21 UNL A   1      42.169  24.282  26.604  1.00  0.00    +0.000 C 
ATOM     28  F2  UNL A   1      41.676  23.038  26.527  1.00  0.00    +0.000 F 
ATOM     29  C22 UNL A   1      43.076  24.728  25.654  1.00  0.00    +0.000 C 
ATOM     30  F3  UNL A   1      43.444  23.923  24.647  1.00  0.00    +0.000 F 
ATOM     31  C23 UNL A   1      43.611  26.003  25.753  1.00  0.00    +0.000 C 
ATOM     32  F4  UNL A   1      44.478  26.439  24.829  1.00  0.00    +0.000 F 
ENDBRANCH   23   24
BRANCH   40   41
ATOM     41  C30 UNL A   1      44.893  28.175  34.291  1.00  0.00    +0.000 C 
ATOM     42  C31 UNL A   1      44.953  27.053  35.128  1.00  0.00    +0.000 C 
ATOM     43  F6  UNL A   1      43.879  26.261  35.273  1.00  0.00    +0.000 F 
ATOM     44  C32 UNL A   1      46.114  26.751  35.834  1.00  0.00    +0.000 C 
ATOM     45  F7  UNL A   1      46.145  25.687  36.647  1.00  0.00    +0.000 F 
ATOM     46  C33 UNL A   1      47.240  27.550  35.697  1.00  0.00    +0.000 C 
ATOM     47  F8  UNL A   1      48.363  27.248  36.364  1.00  0.00    +0.000 F 
ATOM     48  C34 UNL A   1      47.203  28.664  34.872  1.00  0.00    +0.000 C 
ATOM     49  F9  UNL A   1      48.293  29.431  34.731  1.00  0.00    +0.000 F 
ATOM     50  C35 UNL A   1      46.037  28.982  34.183  1.00  0.00    +0.000 C 
ATOM     51  F10 UNL A   1      46.028  30.063  33.390  1.00  0.00    +0.000 F 
ENDBRANCH   40   41
BRANCH   55   56
ATOM     65  C44 UNL A   1      39.538  33.466  35.512  1.00  0.00    +0.000 C 
ATOM     66  F15 UNL A   1      40.284  34.091  34.590  1.00  0.00    +0.000 F 
ATOM     56  C39 UNL A   1      39.224  32.108  35.359  1.00  0.00    +0.000 C 
ATOM     57  C40 UNL A   1      38.450  31.499  36.355  1.00  0.00    +0.000 C 
ATOM     58  F11 UNL A   1      38.111  30.206  36.241  1.00  0.00    +0.000 F 
ATOM     59  C41 UNL A   1      38.004  32.220  37.460  1.00  0.00    +0.000 C 
ATOM     60  F12 UNL A   1      37.246  31.619  38.388  1.00  0.00    +0.000 F 
ATOM     61  C42 UNL A   1      38.341  33.558  37.601  1.00  0.00    +0.000 C 
ATOM     62  F13 UNL A   1      37.925  34.246  38.673  1.00  0.00    +0.000 F 
ATOM     63  C43 UNL A   1      39.110  34.180  36.629  1.00  0.00    +0.000 C 
ATOM     64  F14 UNL A   1      39.451  35.468  36.769  1.00  0.00    +0.000 F 
ENDBRANCH   55   56
TORSDOF 19
ENDMDL
MODEL 3
REMARK VINA RESULT:     -11.2      4.432      9.384
ROOT
ATOM     19  C15 UNL A   1      38.300  30.460  29.951  1.00  0.00    +0.000 C 
ATOM     20  C16 UNL A   1      39.295  29.497  29.373  1.00  0.00    +0.000 C 
ATOM     21  N3  UNL A   1      40.316  28.913  29.946  1.00  0.00    +0.000 N 
ATOM     22  C17 UNL A   1      40.846  28.060  28.987  1.00  0.00    +0.000 C 
ATOM     23  C18 UNL A   1      41.935  27.262  29.079  1.00  0.00    +0.000 C 
ATOM     35  C25 UNL A   1      42.783  27.185  30.238  1.00  0.00    +0.000 C 
ATOM     36  C26 UNL A   1      43.952  26.464  30.407  1.00  0.00    +0.000 C 
ATOM     37  C27 UNL A   1      44.408  26.674  31.714  1.00  0.00    +0.000 C 
ATOM     38  C28 UNL A   1      43.547  27.558  32.344  1.00  0.00    +0.000 C 
ATOM     39  N4  UNL A   1      42.552  27.860  31.428  1.00  0.00    +0.000 N 
ATOM     40  C29 UNL A   1      43.627  28.089  33.680  1.00  0.00    +0.000 C 
ATOM     52  C36 UNL A   1      42.740  28.951  34.233  1.00  0.00    +0.000 C 
ATOM     53  N5  UNL A   1      41.608  29.520  33.664  1.00  0.00    +0.000 N 
ATOM     54  C37 UNL A   1      41.087  30.290  34.588  1.00  0.00    +0.000 C 
ATOM     55  C38 UNL A   1      39.865  31.163  34.512  1.00  0.00    +0.000 C 
ATOM     67  C45 UNL A   1      39.204  31.276  33.345  1.00  0.00    +0.000 C 
ATOM     68  C46 UNL A   1      37.996  32.067  33.129  1.00  0.00    +0.000 C 
ATOM     69  C47 UNL A   1      37.549  31.852  31.880  1.00  0.00    +0.000 C 
ATOM     70  C48 UNL A   1      38.465  30.940  31.197  1.00  0.00    +0.000 C 
ATOM     71  N6  UNL A   1      39.449  30.695  32.124  1.00  0.00    +0.000 N 
ATOM     72  C49 UNL A   1      41.816  30.272  35.865  1.00  0.00    +0.000 C 
ATOM     73  C50 UNL A   1      42.828  29.462  35.586  1.00  0.00    +0.000 C 
ATOM     74  C51 UNL A   1      40.013  28.177  27.808  1.00  0.00    +0.000 C 
ATOM     75  C52 UNL A   1      39.086  29.108  27.970  1.00  0.00    +0.000 C 
ATOM    112  H21 UNL A   1      44.408  25.874  29.694  1.00  0.00    +0.000 H 
ATOM    113  H22 UNL A   1      45.244  26.242  32.137  1.00  0.00    +0.000 H 
ATOM    114  H23 UNL A   1      41.792  28.464  31.597  1.00  0.00    +0.000 H 
ATOM    115  H24 UNL A   1      37.555  32.691  33.823  1.00  0.00    +0.000 H 
ATOM    116  H25 UNL A   1      36.697  32.264  31.470  1.00  0.00    +0.000 H 
ATOM    117  H26 UNL A   1      40.250  30.154  31.933  1.00  0.00    +0.000 H 
ATOM    118  H27 UNL A   1      41.597  30.763  36.746  1.00  0.00    +0.000 H 
ATOM    119  H28 UNL A   1      43.583  29.226  36.248  1.00  0.00    +0.000 H 
ATOM    120  H29 UNL A   1      40.128  27.608  26.954  1.00  0.00    +0.000 H 
ATOM    121  H30 UNL A   1      38.396  29.466  27.290  1.00  0.00    +0.000 H 
ENDROOT
BRANCH   19   18
ATOM     76  C53 UNL A   1      36.096  29.782  29.031  1.00  0.00    +0.000 C 
ATOM     77  C54 UNL A   1      34.939  30.034  28.302  1.00  0.00    +0.000 C 
ATOM    110  H19 UNL A   1      35.520  33.244  27.502  1.00  0.00    +0.000 H 
ATOM     15  C11 UNL A   1      34.705  31.316  27.800  1.00  0.00    +0.000 C 
ATOM     16  C12 UNL A   1      35.679  32.312  27.917  1.00  0.00    +0.000 C 
ATOM     17  C13 UNL A   1      36.868  32.039  28.597  1.00  0.00    +0.000 C 
ATOM    111  H20 UNL A   1      37.599  32.765  28.667  1.00  0.00    +0.000 H 
ATOM     18  C14 UNL A   1      37.070  30.781  29.186  1.00  0.00    +0.000 C 
ATOM    122  H31 UNL A   1      36.240  28.854  29.461  1.00  0.00    +0.000 H 
ATOM    123  H32 UNL A   1      34.257  29.277  28.134  1.00  0.00    +0.000 H 
BRANCH   15   13
ATOM     13  C10 UNL A   1      33.414  31.640  27.160  1.00  0.00    +0.000 C 
ATOM     14  O2  UNL A   1      32.889  32.732  27.357  1.00  0.00    +0.000 O 
BRANCH   13   12
ATOM     12  N2  UNL A   1      32.806  30.701  26.365  1.00  0.00    +0.000 N 
ATOM    109  H18 UNL A   1      33.275  30.479  25.527  1.00  0.00    +0.000 H 
BRANCH   12   11
ATOM     11  C9  UNL A   1      31.556  29.991  26.597  1.00  0.00    +0.000 C 
ATOM    108  H17 UNL A   1      30.784  30.511  26.071  1.00  0.00    +0.000 H 
ATOM    107  H16 UNL A   1      31.365  29.968  27.650  1.00  0.00    +0.000 H 
BRANCH   11   10
ATOM    105  H14 UNL A   1      30.649  28.104  26.280  1.00  0.00    +0.000 H 
ATOM     10  C8  UNL A   1      31.595  28.560  26.074  1.00  0.00    +0.000 C 
ATOM    106  H15 UNL A   1      31.812  28.627  25.028  1.00  0.00    +0.000 H 
BRANCH   10    9
ATOM      9  C7  UNL A   1      32.690  27.687  26.689  1.00  0.00    +0.000 C 
ATOM    103  H12 UNL A   1      33.253  28.291  27.370  1.00  0.00    +0.000 H 
ATOM    104  H13 UNL A   1      32.188  26.869  27.161  1.00  0.00    +0.000 H 
BRANCH    9    8
ATOM    101  H10 UNL A   1      34.636  27.051  26.135  1.00  0.00    +0.000 H 
ATOM    102  H11 UNL A   1      33.279  26.096  25.459  1.00  0.00    +0.000 H 
ATOM      8  C6  UNL A   1      33.666  27.067  25.685  1.00  0.00    +0.000 C 
BRANCH    8    7
ATOM     99  H8  UNL A   1      32.906  28.402  24.211  1.00  0.00    +0.000 H 
ATOM    100  H9  UNL A   1      34.682  28.374  24.380  1.00  0.00    +0.000 H 
ATOM      7  C5  UNL A   1      33.780  27.799  24.339  1.00  0.00    +0.000 C 
BRANCH    7    6
ATOM     97  H6  UNL A   1      34.865  27.016  22.671  1.00  0.00    +0.000 H 
ATOM     98  H7  UNL A   1      33.795  25.860  23.447  1.00  0.00    +0.000 H 
ATOM      6  C4  UNL A   1      33.905  26.874  23.123  1.00  0.00    +0.000 C 
BRANCH    6    5
ATOM      5  N1  UNL A   1      32.873  27.168  22.150  1.00  0.00    +0.000 N 
ATOM     96  H5  UNL A   1      32.955  28.034  21.689  1.00  0.00    +0.000 H 
BRANCH    5    3
ATOM      3  C3  UNL A   1      31.800  26.403  21.788  1.00  0.00    +0.000 C 
ATOM      4  O1  UNL A   1      31.934  25.704  20.780  1.00  0.00    +0.000 O 
BRANCH    3    2
ATOM      2  C2  UNL A   1      30.481  26.494  22.586  1.00  0.00    +0.000 C 
ATOM     95  H4  UNL A   1      29.686  26.064  22.012  1.00  0.00    +0.000 H 
BRANCH    2    1
ATOM      1  C1  UNL A   1      30.119  27.964  22.825  1.00  0.00    +0.000 C 
ATOM     92  H1  UNL A   1      29.455  28.297  22.055  1.00  0.00    +0.000 H 
ATOM     93  H2  UNL A   1      31.009  28.557  22.810  1.00  0.00    +0.000 H 
ATOM     94  H3  UNL A   1      29.640  28.064  23.776  1.00  0.00    +0.000 H 
ENDBRANCH    2    1
BRANCH    2   78
ATOM    132  H41 UNL A   1      31.930  24.267  23.088  1.00  0.00    +0.000 H 
ATOM     78  C55 UNL A   1      30.541  25.656  23.874  1.00  0.00    +0.000 C 
ATOM     79  C56 UNL A   1      29.763  25.938  25.008  1.00  0.00    +0.000 C 
ATOM     80  C57 UNL A   1      29.904  25.191  26.180  1.00  0.00    +0.000 C 
ATOM     81  C58 UNL A   1      30.838  24.159  26.246  1.00  0.00    +0.000 C 
ATOM     82  C59 UNL A   1      31.614  23.842  25.128  1.00  0.00    +0.000 C 
ATOM     91  C67 UNL A   1      31.420  24.555  23.937  1.00  0.00    +0.000 C 
ATOM    124  H33 UNL A   1      29.078  26.708  24.976  1.00  0.00    +0.000 H 
ATOM    125  H34 UNL A   1      29.315  25.405  27.000  1.00  0.00    +0.000 H 
ATOM    126  H35 UNL A   1      30.956  23.628  27.122  1.00  0.00    +0.000 H 
BRANCH   82   83
ATOM     83  C60 UNL A   1      32.605  22.736  25.250  1.00  0.00    +0.000 C 
ATOM     84  O3  UNL A   1      32.214  21.593  25.484  1.00  0.00    +0.000 O 
BRANCH   83   85
ATOM    129  H38 UNL A   1      37.794  23.481  24.427  1.00  0.00    +0.000 H 
ATOM    130  H39 UNL A   1      36.796  24.263  26.494  1.00  0.00    +0.000 H 
ATOM    131  H40 UNL A   1      34.428  23.909  26.915  1.00  0.00    +0.000 H 
ATOM     85  C61 UNL A   1      34.061  22.951  25.065  1.00  0.00    +0.000 C 
ATOM     86  C62 UNL A   1      34.649  22.468  23.890  1.00  0.00    +0.000 C 
ATOM     87  C63 UNL A   1      36.010  22.662  23.658  1.00  0.00    +0.000 C 
ATOM     88  C64 UNL A   1      36.790  23.326  24.605  1.00  0.00    +0.000 C 
ATOM     89  C65 UNL A   1      36.214  23.781  25.792  1.00  0.00    +0.000 C 
ATOM     90  C66 UNL A   1      34.851  23.586  26.031  1.00  0.00    +0.000 C 
ATOM    127  H36 UNL A   1      34.074  21.967  23.195  1.00  0.00    +0.000 H 
ATOM    128  H37 UNL A   1      36.440  22.316  22.787  1.00  0.00    +0.000 H 
ENDBRANCH   83   85
ENDBRANCH   82   83
ENDBRANCH    2   78
ENDBRANCH    3    2
ENDBRANCH    5    3
ENDBRANCH    6    5
ENDBRANCH    7    6
ENDBRANCH    8    7
ENDBRANCH    9    8
ENDBRANCH   10    9
ENDBRANCH   11   10
ENDBRANCH   12   11
ENDBRANCH   13   12
ENDBRANCH   15   13
ENDBRANCH   19   18
BRANCH   23   24
ATOM     33  C24 UNL A   1      41.606  25.171  27.713  1.00  0.00    +0.000 C 
ATOM     34  F5  UNL A   1      40.689  24.755  28.599  1.00  0.00    +0.000 F 
ATOM     24  C19 UNL A   1      42.259  26.401  27.895  1.00  0.00    +0.000 C 
ATOM     25  C20 UNL A   1      43.213  26.784  26.939  1.00  0.00    +0.000 C 
ATOM     26  F1  UNL A   1      43.855  27.954  27.060  1.00  0.00    +0.000 F 
ATOM     27  C21 UNL A   1      43.471  25.989  25.825  1.00  0.00    +0.000 C 
ATOM     28  F2  UNL A   1      44.340  26.406  24.894  1.00  0.00    +0.000 F 
ATOM     29  C22 UNL A   1      42.811  24.779  25.666  1.00  0.00    +0.000 C 
ATOM     30  F3  UNL A   1      43.058  24.016  24.592  1.00  0.00    +0.000 F 
ATOM     31  C23 UNL A   1      41.889  24.364  26.614  1.00  0.00    +0.000 C 
ATOM     32  F4  UNL A   1      41.259  23.190  26.467  1.00  0.00    +0.000 F 
ENDBRANCH   23   24
BRANCH   40   41
ATOM     41  C30 UNL A   1      44.799  27.670  34.516  1.00  0.00    +0.000 C 
ATOM     42  C31 UNL A   1      45.975  28.430  34.566  1.00  0.00    +0.000 C 
ATOM     43  F6  UNL A   1      46.111  29.513  33.786  1.00  0.00    +0.000 F 
ATOM     44  C32 UNL A   1      47.023  28.068  35.408  1.00  0.00    +0.000 C 
ATOM     45  F7  UNL A   1      48.148  28.795  35.424  1.00  0.00    +0.000 F 
ATOM     46  C33 UNL A   1      46.905  26.956  36.229  1.00  0.00    +0.000 C 
ATOM     47  F8  UNL A   1      47.908  26.619  37.051  1.00  0.00    +0.000 F 
ATOM     48  C34 UNL A   1      45.748  26.192  36.197  1.00  0.00    +0.000 C 
ATOM     49  F9  UNL A   1      45.628  25.123  36.997  1.00  0.00    +0.000 F 
ATOM     50  C35 UNL A   1      44.708  26.537  35.340  1.00  0.00    +0.000 C 
ATOM     51  F10 UNL A   1      43.600  25.781  35.330  1.00  0.00    +0.000 F 
ENDBRANCH   40   41
BRANCH   55   56
ATOM     65  C44 UNL A   1      39.892  33.196  35.996  1.00  0.00    +0.000 C 
ATOM     66  F15 UNL A   1      40.799  33.768  35.190  1.00  0.00    +0.000 F 
ATOM     56  C39 UNL A   1      39.388  31.923  35.695  1.00  0.00    +0.000 C 
ATOM     57  C40 UNL A   1      38.451  31.365  36.574  1.00  0.00    +0.000 C 
ATOM     58  F11 UNL A   1      37.930  30.156  36.316  1.00  0.00    +0.000 F 
ATOM     59  C41 UNL A   1      38.030  32.055  37.708  1.00  0.00    +0.000 C 
ATOM     60  F12 UNL A   1      37.115  31.508  38.521  1.00  0.00    +0.000 F 
ATOM     61  C42 UNL A   1      38.554  33.306  37.997  1.00  0.00    +0.000 C 
ATOM     62  F13 UNL A   1      38.161  33.962  39.097  1.00  0.00    +0.000 F 
ATOM     63  C43 UNL A   1      39.487  33.876  37.143  1.00  0.00    +0.000 C 
ATOM     64  F14 UNL A   1      40.008  35.077  37.426  1.00  0.00    +0.000 F 
ENDBRANCH   55   56
TORSDOF 19
ENDMDL
MODEL 4
REMARK VINA RESULT:     -11.2      4.197      9.086
ROOT
ATOM     19  C15 UNL A   1      38.167  30.209  29.841  1.00  0.00    +0.000 C 
ATOM     20  C16 UNL A   1      39.180  29.263  29.263  1.00  0.00    +0.000 C 
ATOM     21  N3  UNL A   1      40.256  28.761  29.812  1.00  0.00    +0.000 N 
ATOM     22  C17 UNL A   1      40.780  27.882  28.873  1.00  0.00    +0.000 C 
ATOM     23  C18 UNL A   1      41.911  27.143  28.951  1.00  0.00    +0.000 C 
ATOM     35  C25 UNL A   1      42.818  27.171  30.067  1.00  0.00    +0.000 C 
ATOM     36  C26 UNL A   1      44.028  26.516  30.213  1.00  0.00    +0.000 C 
ATOM     37  C27 UNL A   1      44.538  26.820  31.480  1.00  0.00    +0.000 C 
ATOM     38  C28 UNL A   1      43.665  27.696  32.107  1.00  0.00    +0.000 C 
ATOM     39  N4  UNL A   1      42.613  27.899  31.230  1.00  0.00    +0.000 N 
ATOM     40  C29 UNL A   1      43.785  28.303  33.407  1.00  0.00    +0.000 C 
ATOM     52  C36 UNL A   1      42.884  29.152  33.959  1.00  0.00    +0.000 C 
ATOM     53  N5  UNL A   1      41.698  29.634  33.421  1.00  0.00    +0.000 N 
ATOM     54  C37 UNL A   1      41.186  30.429  34.329  1.00  0.00    +0.000 C 
ATOM     55  C38 UNL A   1      39.920  31.237  34.270  1.00  0.00    +0.000 C 
ATOM     67  C45 UNL A   1      39.197  31.254  33.134  1.00  0.00    +0.000 C 
ATOM     68  C46 UNL A   1      37.941  31.973  32.940  1.00  0.00    +0.000 C 
ATOM     69  C47 UNL A   1      37.444  31.668  31.730  1.00  0.00    +0.000 C 
ATOM     70  C48 UNL A   1      38.370  30.764  31.049  1.00  0.00    +0.000 C 
ATOM     71  N6  UNL A   1      39.410  30.618  31.935  1.00  0.00    +0.000 N 
ATOM     72  C49 UNL A   1      41.977  30.517  35.564  1.00  0.00    +0.000 C 
ATOM     73  C50 UNL A   1      43.014  29.741  35.277  1.00  0.00    +0.000 C 
ATOM     74  C51 UNL A   1      39.885  27.894  27.736  1.00  0.00    +0.000 C 
ATOM     75  C52 UNL A   1      38.921  28.787  27.896  1.00  0.00    +0.000 C 
ATOM    112  H21 UNL A   1      44.478  25.910  29.509  1.00  0.00    +0.000 H 
ATOM    113  H22 UNL A   1      45.415  26.452  31.882  1.00  0.00    +0.000 H 
ATOM    114  H23 UNL A   1      41.833  28.475  31.406  1.00  0.00    +0.000 H 
ATOM    115  H24 UNL A   1      37.505  32.613  33.622  1.00  0.00    +0.000 H 
ATOM    116  H25 UNL A   1      36.553  32.016  31.343  1.00  0.00    +0.000 H 
ATOM    117  H26 UNL A   1      40.226  30.106  31.732  1.00  0.00    +0.000 H 
ATOM    118  H27 UNL A   1      41.778  31.044  36.429  1.00  0.00    +0.000 H 
ATOM    119  H28 UNL A   1      43.812  29.578  35.910  1.00  0.00    +0.000 H 
ATOM    120  H29 UNL A   1      39.985  27.285  26.908  1.00  0.00    +0.000 H 
ATOM    121  H30 UNL A   1      38.182  29.074  27.235  1.00  0.00    +0.000 H 
ENDROOT
BRANCH   19   18
ATOM     76  C53 UNL A   1      36.601  31.715  28.640  1.00  0.00    +0.000 C 
ATOM     77  C54 UNL A   1      35.402  31.969  27.984  1.00  0.00    +0.000 C 
ATOM    110  H19 UNL A   1      34.096  28.876  28.075  1.00  0.00    +0.000 H 
ATOM     15  C11 UNL A   1      34.520  30.917  27.725  1.00  0.00    +0.000 C 
ATOM     16  C12 UNL A   1      34.775  29.639  28.229  1.00  0.00    +0.000 C 
ATOM     17  C13 UNL A   1      35.952  29.398  28.942  1.00  0.00    +0.000 C 
ATOM    111  H20 UNL A   1      36.133  28.461  29.334  1.00  0.00    +0.000 H 
ATOM     18  C14 UNL A   1      36.886  30.428  29.125  1.00  0.00    +0.000 C 
ATOM    122  H31 UNL A   1      37.285  32.477  28.773  1.00  0.00    +0.000 H 
ATOM    123  H32 UNL A   1      35.166  32.930  27.689  1.00  0.00    +0.000 H 
BRANCH   15   13
ATOM     13  C10 UNL A   1      33.319  31.141  26.895  1.00  0.00    +0.000 C 
ATOM     14  O2  UNL A   1      32.621  32.133  27.081  1.00  0.00    +0.000 O 
BRANCH   13   12
ATOM     12  N2  UNL A   1      32.988  30.218  25.933  1.00  0.00    +0.000 N 
ATOM    109  H18 UNL A   1      33.645  30.097  25.210  1.00  0.00    +0.000 H 
BRANCH   12   11
ATOM     11  C9  UNL A   1      31.790  29.397  25.844  1.00  0.00    +0.000 C 
ATOM    108  H17 UNL A   1      31.832  28.860  24.919  1.00  0.00    +0.000 H 
ATOM    107  H16 UNL A   1      30.932  30.034  25.887  1.00  0.00    +0.000 H 
BRANCH   11   10
ATOM    105  H14 UNL A   1      32.191  28.784  27.831  1.00  0.00    +0.000 H 
ATOM     10  C8  UNL A   1      31.701  28.375  26.972  1.00  0.00    +0.000 C 
ATOM    106  H15 UNL A   1      30.659  28.190  27.130  1.00  0.00    +0.000 H 
BRANCH   10    9
ATOM      9  C7  UNL A   1      32.339  27.022  26.658  1.00  0.00    +0.000 C 
ATOM    103  H12 UNL A   1      32.482  26.500  27.581  1.00  0.00    +0.000 H 
ATOM    104  H13 UNL A   1      31.670  26.524  25.988  1.00  0.00    +0.000 H 
BRANCH    9    8
ATOM    101  H10 UNL A   1      33.937  28.125  25.803  1.00  0.00    +0.000 H 
ATOM    102  H11 UNL A   1      34.381  26.561  26.555  1.00  0.00    +0.000 H 
ATOM      8  C6  UNL A   1      33.689  27.093  25.937  1.00  0.00    +0.000 C 
BRANCH    8    7
ATOM     99  H8  UNL A   1      34.686  25.924  24.464  1.00  0.00    +0.000 H 
ATOM    100  H9  UNL A   1      32.913  25.728  24.530  1.00  0.00    +0.000 H 
ATOM      7  C5  UNL A   1      33.738  26.410  24.562  1.00  0.00    +0.000 C 
BRANCH    7    6
ATOM     97  H6  UNL A   1      33.751  28.366  23.699  1.00  0.00    +0.000 H 
ATOM     98  H7  UNL A   1      34.255  27.088  22.605  1.00  0.00    +0.000 H 
ATOM      6  C4  UNL A   1      33.563  27.364  23.374  1.00  0.00    +0.000 C 
BRANCH    6    5
ATOM      5  N1  UNL A   1      32.217  27.278  22.845  1.00  0.00    +0.000 N 
ATOM     96  H5  UNL A   1      31.747  28.136  22.734  1.00  0.00    +0.000 H 
BRANCH    5    3
ATOM      3  C3  UNL A   1      31.514  26.164  22.482  1.00  0.00    +0.000 C 
ATOM      4  O1  UNL A   1      31.854  25.614  21.432  1.00  0.00    +0.000 O 
BRANCH    3    2
ATOM      2  C2  UNL A   1      30.314  25.695  23.334  1.00  0.00    +0.000 C 
ATOM     95  H4  UNL A   1      29.579  25.246  22.699  1.00  0.00    +0.000 H 
BRANCH    2    1
ATOM      1  C1  UNL A   1      29.651  26.902  24.007  1.00  0.00    +0.000 C 
ATOM     92  H1  UNL A   1      28.776  26.580  24.533  1.00  0.00    +0.000 H 
ATOM     93  H2  UNL A   1      29.375  27.618  23.261  1.00  0.00    +0.000 H 
ATOM     94  H3  UNL A   1      30.337  27.349  24.695  1.00  0.00    +0.000 H 
ENDBRANCH    2    1
BRANCH    2   78
ATOM    132  H41 UNL A   1      31.735  23.445  22.854  1.00  0.00    +0.000 H 
ATOM     78  C55 UNL A   1      30.721  24.586  24.319  1.00  0.00    +0.000 C 
ATOM     79  C56 UNL A   1      30.339  24.584  25.670  1.00  0.00    +0.000 C 
ATOM     80  C57 UNL A   1      30.792  23.592  26.544  1.00  0.00    +0.000 C 
ATOM     81  C58 UNL A   1      31.649  22.594  26.087  1.00  0.00    +0.000 C 
ATOM     82  C59 UNL A   1      32.033  22.558  24.744  1.00  0.00    +0.000 C 
ATOM     91  C67 UNL A   1      31.521  23.520  23.861  1.00  0.00    +0.000 C 
ATOM    124  H33 UNL A   1      29.716  25.326  26.023  1.00  0.00    +0.000 H 
ATOM    125  H34 UNL A   1      30.491  23.600  27.530  1.00  0.00    +0.000 H 
ATOM    126  H35 UNL A   1      32.001  21.879  26.742  1.00  0.00    +0.000 H 
BRANCH   82   83
ATOM     83  C60 UNL A   1      32.958  21.475  24.304  1.00  0.00    +0.000 C 
ATOM     84  O3  UNL A   1      32.496  20.408  23.904  1.00  0.00    +0.000 O 
BRANCH   83   85
ATOM    129  H38 UNL A   1      38.245  21.927  24.325  1.00  0.00    +0.000 H 
ATOM    130  H39 UNL A   1      36.920  23.543  23.093  1.00  0.00    +0.000 H 
ATOM    131  H40 UNL A   1      34.495  23.382  23.090  1.00  0.00    +0.000 H 
ATOM     85  C61 UNL A   1      34.431  21.645  24.297  1.00  0.00    +0.000 C 
ATOM     86  C62 UNL A   1      35.198  20.737  25.036  1.00  0.00    +0.000 C 
ATOM     87  C63 UNL A   1      36.588  20.840  25.046  1.00  0.00    +0.000 C 
ATOM     88  C64 UNL A   1      37.215  21.859  24.328  1.00  0.00    +0.000 C 
ATOM     89  C65 UNL A   1      36.453  22.785  23.615  1.00  0.00    +0.000 C 
ATOM     90  C66 UNL A   1      35.059  22.688  23.605  1.00  0.00    +0.000 C 
ATOM    127  H36 UNL A   1      34.733  19.990  25.576  1.00  0.00    +0.000 H 
ATOM    128  H37 UNL A   1      37.153  20.164  25.582  1.00  0.00    +0.000 H 
ENDBRANCH   83   85
ENDBRANCH   82   83
ENDBRANCH    2   78
ENDBRANCH    3    2
ENDBRANCH    5    3
ENDBRANCH    6    5
ENDBRANCH    7    6
ENDBRANCH    8    7
ENDBRANCH    9    8
ENDBRANCH   10    9
ENDBRANCH   11   10
ENDBRANCH   12   11
ENDBRANCH   13   12
ENDBRANCH   15   13
ENDBRANCH   19   18
BRANCH   23   24
ATOM     33  C24 UNL A   1      43.126  26.632  26.804  1.00  0.00    +0.000 C 
ATOM     34  F5  UNL A   1      43.721  27.831  26.873  1.00  0.00    +0.000 F 
ATOM     24  C19 UNL A   1      42.219  26.233  27.799  1.00  0.00    +0.000 C 
ATOM     25  C20 UNL A   1      41.621  24.970  27.673  1.00  0.00    +0.000 C 
ATOM     26  F1  UNL A   1      40.758  24.537  28.604  1.00  0.00    +0.000 F 
ATOM     27  C21 UNL A   1      41.950  24.124  26.617  1.00  0.00    +0.000 C 
ATOM     28  F2  UNL A   1      41.413  22.897  26.553  1.00  0.00    +0.000 F 
ATOM     29  C22 UNL A   1      42.850  24.539  25.647  1.00  0.00    +0.000 C 
ATOM     30  F3  UNL A   1      43.168  23.722  24.633  1.00  0.00    +0.000 F 
ATOM     31  C23 UNL A   1      43.429  25.795  25.733  1.00  0.00    +0.000 C 
ATOM     32  F4  UNL A   1      44.290  26.202  24.790  1.00  0.00    +0.000 F 
ENDBRANCH   23   24
BRANCH   40   41
ATOM     41  C30 UNL A   1      45.016  27.987  34.202  1.00  0.00    +0.000 C 
ATOM     42  C31 UNL A   1      45.079  26.871  35.046  1.00  0.00    +0.000 C 
ATOM     43  F6  UNL A   1      43.994  26.105  35.234  1.00  0.00    +0.000 F 
ATOM     44  C32 UNL A   1      46.257  26.549  35.716  1.00  0.00    +0.000 C 
ATOM     45  F7  UNL A   1      46.291  25.490  36.537  1.00  0.00    +0.000 F 
ATOM     46  C33 UNL A   1      47.395  27.321  35.534  1.00  0.00    +0.000 C 
ATOM     47  F8  UNL A   1      48.532  26.999  36.166  1.00  0.00    +0.000 F 
ATOM     48  C34 UNL A   1      47.355  28.428  34.701  1.00  0.00    +0.000 C 
ATOM     49  F9  UNL A   1      48.456  29.170  34.517  1.00  0.00    +0.000 F 
ATOM     50  C35 UNL A   1      46.173  28.767  34.049  1.00  0.00    +0.000 C 
ATOM     51  F10 UNL A   1      46.162  29.842  33.247  1.00  0.00    +0.000 F 
ENDBRANCH   40   41
BRANCH   55   56
ATOM     65  C44 UNL A   1      38.590  31.503  36.391  1.00  0.00    +0.000 C 
ATOM     66  F15 UNL A   1      38.174  30.232  36.286  1.00  0.00    +0.000 F 
ATOM     56  C39 UNL A   1      39.464  32.038  35.434  1.00  0.00    +0.000 C 
ATOM     57  C40 UNL A   1      39.861  33.373  35.584  1.00  0.00    +0.000 C 
ATOM     58  F11 UNL A   1      40.710  33.920  34.701  1.00  0.00    +0.000 F 
ATOM     59  C41 UNL A   1      39.405  34.143  36.651  1.00  0.00    +0.000 C 
ATOM     60  F12 UNL A   1      39.818  35.411  36.784  1.00  0.00    +0.000 F 
ATOM     61  C42 UNL A   1      38.527  33.600  37.577  1.00  0.00    +0.000 C 
ATOM     62  F13 UNL A   1      38.076  34.346  38.594  1.00  0.00    +0.000 F 
ATOM     63  C43 UNL A   1      38.117  32.281  37.446  1.00  0.00    +0.000 C 
ATOM     64  F14 UNL A   1      37.256  31.757  38.329  1.00  0.00    +0.000 F 
ENDBRANCH   55   56
TORSDOF 19
ENDMDL
MODEL 5
REMARK VINA RESULT:     -11.2      1.188      2.058
ROOT
ATOM     19  C15 UNL A   1      41.523  26.195  27.830  1.00  0.00    +0.000 C 
ATOM     20  C16 UNL A   1      40.841  27.290  28.597  1.00  0.00    +0.000 C 
ATOM     21  N3  UNL A   1      41.274  28.488  28.897  1.00  0.00    +0.000 N 
ATOM     22  C17 UNL A   1      40.216  29.118  29.539  1.00  0.00    +0.000 C 
ATOM     23  C18 UNL A   1      40.177  30.360  30.078  1.00  0.00    +0.000 C 
ATOM     35  C25 UNL A   1      41.293  31.266  30.099  1.00  0.00    +0.000 C 
ATOM     36  C26 UNL A   1      41.380  32.517  30.683  1.00  0.00    +0.000 C 
ATOM     37  C27 UNL A   1      42.651  33.036  30.415  1.00  0.00    +0.000 C 
ATOM     38  C28 UNL A   1      43.370  32.091  29.700  1.00  0.00    +0.000 C 
ATOM     39  N4  UNL A   1      42.524  31.013  29.509  1.00  0.00    +0.000 N 
ATOM     40  C29 UNL A   1      44.729  32.168  29.227  1.00  0.00    +0.000 C 
ATOM     52  C36 UNL A   1      45.368  31.201  28.526  1.00  0.00    +0.000 C 
ATOM     53  N5  UNL A   1      44.896  29.956  28.131  1.00  0.00    +0.000 N 
ATOM     54  C37 UNL A   1      45.885  29.382  27.488  1.00  0.00    +0.000 C 
ATOM     55  C38 UNL A   1      45.937  28.016  26.862  1.00  0.00    +0.000 C 
ATOM     67  C45 UNL A   1      44.890  27.182  27.003  1.00  0.00    +0.000 C 
ATOM     68  C46 UNL A   1      44.794  25.841  26.435  1.00  0.00    +0.000 C 
ATOM     69  C47 UNL A   1      43.567  25.349  26.678  1.00  0.00    +0.000 C 
ATOM     70  C48 UNL A   1      42.808  26.328  27.456  1.00  0.00    +0.000 C 
ATOM     71  N6  UNL A   1      43.692  27.361  27.651  1.00  0.00    +0.000 N 
ATOM     72  C49 UNL A   1      47.089  30.216  27.373  1.00  0.00    +0.000 C 
ATOM     73  C50 UNL A   1      46.731  31.303  28.045  1.00  0.00    +0.000 C 
ATOM     74  C51 UNL A   1      39.111  28.183  29.553  1.00  0.00    +0.000 C 
ATOM     75  C52 UNL A   1      39.470  27.012  29.050  1.00  0.00    +0.000 C 
ATOM    112  H21 UNL A   1      40.636  32.985  31.223  1.00  0.00    +0.000 H 
ATOM    113  H22 UNL A   1      42.995  33.966  30.701  1.00  0.00    +0.000 H 
ATOM    114  H23 UNL A   1      42.759  30.187  29.025  1.00  0.00    +0.000 H 
ATOM    115  H24 UNL A   1      45.546  25.348  25.929  1.00  0.00    +0.000 H 
ATOM    116  H25 UNL A   1      43.218  24.430  26.367  1.00  0.00    +0.000 H 
ATOM    117  H26 UNL A   1      43.486  28.153  28.199  1.00  0.00    +0.000 H 
ATOM    118  H27 UNL A   1      47.981  30.010  26.896  1.00  0.00    +0.000 H 
ATOM    119  H28 UNL A   1      47.344  32.116  28.205  1.00  0.00    +0.000 H 
ATOM    120  H29 UNL A   1      38.166  28.402  29.909  1.00  0.00    +0.000 H 
ATOM    121  H30 UNL A   1      38.929  26.135  28.991  1.00  0.00    +0.000 H 
ENDROOT
BRANCH   19   18
ATOM     76  C53 UNL A   1      39.688  25.226  26.466  1.00  0.00    +0.000 C 
ATOM     77  C54 UNL A   1      38.910  24.157  26.038  1.00  0.00    +0.000 C 
ATOM    110  H19 UNL A   1      40.442  21.690  27.727  1.00  0.00    +0.000 H 
ATOM     15  C11 UNL A   1      39.228  22.861  26.452  1.00  0.00    +0.000 C 
ATOM     16  C12 UNL A   1      40.243  22.645  27.388  1.00  0.00    +0.000 C 
ATOM     17  C13 UNL A   1      40.985  23.728  27.865  1.00  0.00    +0.000 C 
ATOM    111  H20 UNL A   1      41.721  23.576  28.572  1.00  0.00    +0.000 H 
ATOM     18  C14 UNL A   1      40.733  25.021  27.382  1.00  0.00    +0.000 C 
ATOM    122  H31 UNL A   1      39.498  26.176  26.109  1.00  0.00    +0.000 H 
ATOM    123  H32 UNL A   1      38.100  24.320  25.418  1.00  0.00    +0.000 H 
BRANCH   15   13
ATOM     13  C10 UNL A   1      38.509  21.702  25.885  1.00  0.00    +0.000 C 
ATOM     14  O2  UNL A   1      39.049  20.600  25.858  1.00  0.00    +0.000 O 
BRANCH   13   12
ATOM     12  N2  UNL A   1      37.248  21.879  25.374  1.00  0.00    +0.000 N 
ATOM    109  H18 UNL A   1      37.193  22.385  24.530  1.00  0.00    +0.000 H 
BRANCH   12   11
ATOM     11  C9  UNL A   1      35.979  21.418  25.918  1.00  0.00    +0.000 C 
ATOM    108  H17 UNL A   1      36.165  21.037  26.901  1.00  0.00    +0.000 H 
ATOM    107  H16 UNL A   1      35.583  20.662  25.273  1.00  0.00    +0.000 H 
BRANCH   11   10
ATOM    105  H14 UNL A   1      34.226  22.414  25.270  1.00  0.00    +0.000 H 
ATOM     10  C8  UNL A   1      34.957  22.543  26.041  1.00  0.00    +0.000 C 
ATOM    106  H15 UNL A   1      34.546  22.471  27.026  1.00  0.00    +0.000 H 
BRANCH   10    9
ATOM      9  C7  UNL A   1      35.541  23.951  25.915  1.00  0.00    +0.000 C 
ATOM    103  H12 UNL A   1      35.511  24.409  26.881  1.00  0.00    +0.000 H 
ATOM    104  H13 UNL A   1      36.532  23.829  25.532  1.00  0.00    +0.000 H 
BRANCH    9    8
ATOM    101  H10 UNL A   1      35.547  25.319  24.295  1.00  0.00    +0.000 H 
ATOM    102  H11 UNL A   1      34.115  24.248  24.408  1.00  0.00    +0.000 H 
ATOM      8  C6  UNL A   1      34.813  24.869  24.929  1.00  0.00    +0.000 C 
BRANCH    8    7
ATOM     99  H8  UNL A   1      33.042  25.584  25.870  1.00  0.00    +0.000 H 
ATOM    100  H9  UNL A   1      34.559  26.370  26.387  1.00  0.00    +0.000 H 
ATOM      7  C5  UNL A   1      33.983  25.994  25.567  1.00  0.00    +0.000 C 
BRANCH    7    6
ATOM     97  H6  UNL A   1      34.176  28.058  25.046  1.00  0.00    +0.000 H 
ATOM     98  H7  UNL A   1      34.113  26.967  23.672  1.00  0.00    +0.000 H 
ATOM      6  C4  UNL A   1      33.711  27.184  24.640  1.00  0.00    +0.000 C 
BRANCH    6    5
ATOM      5  N1  UNL A   1      32.287  27.417  24.513  1.00  0.00    +0.000 N 
ATOM     96  H5  UNL A   1      31.845  27.799  25.305  1.00  0.00    +0.000 H 
BRANCH    5    3
ATOM      3  C3  UNL A   1      31.476  27.176  23.440  1.00  0.00    +0.000 C 
ATOM      4  O1  UNL A   1      31.380  28.079  22.605  1.00  0.00    +0.000 O 
BRANCH    3    2
ATOM      2  C2  UNL A   1      30.681  25.854  23.353  1.00  0.00    +0.000 C 
ATOM     95  H4  UNL A   1      30.023  25.889  22.509  1.00  0.00    +0.000 H 
BRANCH    2    1
ATOM      1  C1  UNL A   1      29.805  25.692  24.600  1.00  0.00    +0.000 C 
ATOM     92  H1  UNL A   1      29.568  24.657  24.736  1.00  0.00    +0.000 H 
ATOM     93  H2  UNL A   1      28.901  26.252  24.476  1.00  0.00    +0.000 H 
ATOM     94  H3  UNL A   1      30.334  26.052  25.457  1.00  0.00    +0.000 H 
ENDBRANCH    2    1
BRANCH    2   78
ATOM    132  H41 UNL A   1      30.939  23.572  24.778  1.00  0.00    +0.000 H 
ATOM     78  C55 UNL A   1      31.606  24.655  23.088  1.00  0.00    +0.000 C 
ATOM     79  C56 UNL A   1      32.525  24.616  22.027  1.00  0.00    +0.000 C 
ATOM     80  C57 UNL A   1      33.294  23.476  21.784  1.00  0.00    +0.000 C 
ATOM     81  C58 UNL A   1      33.147  22.347  22.586  1.00  0.00    +0.000 C 
ATOM     82  C59 UNL A   1      32.254  22.360  23.661  1.00  0.00    +0.000 C 
ATOM     91  C67 UNL A   1      31.534  23.531  23.936  1.00  0.00    +0.000 C 
ATOM    124  H33 UNL A   1      32.632  25.441  21.418  1.00  0.00    +0.000 H 
ATOM    125  H34 UNL A   1      33.973  23.470  21.007  1.00  0.00    +0.000 H 
ATOM    126  H35 UNL A   1      33.698  21.498  22.386  1.00  0.00    +0.000 H 
BRANCH   82   83
ATOM     83  C60 UNL A   1      32.125  21.125  24.485  1.00  0.00    +0.000 C 
ATOM     84  O3  UNL A   1      31.522  21.170  25.556  1.00  0.00    +0.000 O 
BRANCH   83   85
ATOM    129  H38 UNL A   1      34.004  16.469  22.767  1.00  0.00    +0.000 H 
ATOM    130  H39 UNL A   1      35.017  17.515  24.706  1.00  0.00    +0.000 H 
ATOM    131  H40 UNL A   1      34.159  19.632  25.537  1.00  0.00    +0.000 H 
ATOM     85  C61 UNL A   1      32.670  19.817  24.045  1.00  0.00    +0.000 C 
ATOM     86  C62 UNL A   1      32.064  19.192  22.949  1.00  0.00    +0.000 C 
ATOM     87  C63 UNL A   1      32.552  17.971  22.484  1.00  0.00    +0.000 C 
ATOM     88  C64 UNL A   1      33.635  17.366  23.120  1.00  0.00    +0.000 C 
ATOM     89  C65 UNL A   1      34.222  17.971  24.233  1.00  0.00    +0.000 C 
ATOM     90  C66 UNL A   1      33.735  19.192  24.705  1.00  0.00    +0.000 C 
ATOM    127  H36 UNL A   1      31.256  19.635  22.485  1.00  0.00    +0.000 H 
ATOM    128  H37 UNL A   1      32.112  17.516  21.668  1.00  0.00    +0.000 H 
ENDBRANCH   83   85
ENDBRANCH   82   83
ENDBRANCH    2   78
ENDBRANCH    3    2
ENDBRANCH    5    3
ENDBRANCH    6    5
ENDBRANCH    7    6
ENDBRANCH    8    7
ENDBRANCH    9    8
ENDBRANCH   10    9
ENDBRANCH   11   10
ENDBRANCH   12   11
ENDBRANCH   13   12
ENDBRANCH   15   13
ENDBRANCH   19   18
BRANCH   23   24
ATOM     33  C24 UNL A   1      38.655  30.694  32.057  1.00  0.00    +0.000 C 
ATOM     34  F5  UNL A   1      39.602  30.178  32.853  1.00  0.00    +0.000 F 
ATOM     24  C19 UNL A   1      38.876  30.809  30.675  1.00  0.00    +0.000 C 
ATOM     25  C20 UNL A   1      37.849  31.352  29.889  1.00  0.00    +0.000 C 
ATOM     26  F1  UNL A   1      38.016  31.495  28.566  1.00  0.00    +0.000 F 
ATOM     27  C21 UNL A   1      36.664  31.800  30.468  1.00  0.00    +0.000 C 
ATOM     28  F2  UNL A   1      35.723  32.373  29.705  1.00  0.00    +0.000 F 
ATOM     29  C22 UNL A   1      36.468  31.678  31.836  1.00  0.00    +0.000 C 
ATOM     30  F3  UNL A   1      35.329  32.114  32.392  1.00  0.00    +0.000 F 
ATOM     31  C23 UNL A   1      37.456  31.116  32.628  1.00  0.00    +0.000 C 
ATOM     32  F4  UNL A   1      37.264  30.987  33.948  1.00  0.00    +0.000 F 
ENDBRANCH   23   24
BRANCH   40   41
ATOM     41  C30 UNL A   1      45.502  33.408  29.560  1.00  0.00    +0.000 C 
ATOM     42  C31 UNL A   1      45.478  34.535  28.727  1.00  0.00    +0.000 C 
ATOM     43  F6  UNL A   1      44.828  34.493  27.554  1.00  0.00    +0.000 F 
ATOM     44  C32 UNL A   1      46.139  35.705  29.091  1.00  0.00    +0.000 C 
ATOM     45  F7  UNL A   1      46.123  36.764  28.271  1.00  0.00    +0.000 F 
ATOM     46  C33 UNL A   1      46.813  35.777  30.302  1.00  0.00    +0.000 C 
ATOM     47  F8  UNL A   1      47.434  36.910  30.658  1.00  0.00    +0.000 F 
ATOM     48  C34 UNL A   1      46.847  34.674  31.142  1.00  0.00    +0.000 C 
ATOM     49  F9  UNL A   1      47.489  34.745  32.316  1.00  0.00    +0.000 F 
ATOM     50  C35 UNL A   1      46.207  33.495  30.771  1.00  0.00    +0.000 C 
ATOM     51  F10 UNL A   1      46.254  32.444  31.603  1.00  0.00    +0.000 F 
ENDBRANCH   40   41
BRANCH   55   56
ATOM     65  C44 UNL A   1      48.242  27.007  26.772  1.00  0.00    +0.000 C 
ATOM     66  F15 UNL A   1      48.221  26.848  28.103  1.00  0.00    +0.000 F 
ATOM     56  C39 UNL A   1      47.135  27.561  26.112  1.00  0.00    +0.000 C 
ATOM     57  C40 UNL A   1      47.211  27.716  24.722  1.00  0.00    +0.000 C 
ATOM     58  F11 UNL A   1      46.169  28.225  24.049  1.00  0.00    +0.000 F 
ATOM     59  C41 UNL A   1      48.348  27.329  24.017  1.00  0.00    +0.000 C 
ATOM     60  F12 UNL A   1      48.386  27.466  22.684  1.00  0.00    +0.000 F 
ATOM     61  C42 UNL A   1      49.439  26.799  24.691  1.00  0.00    +0.000 C 
ATOM     62  F13 UNL A   1      50.538  26.442  24.013  1.00  0.00    +0.000 F 
ATOM     63  C43 UNL A   1      49.387  26.641  26.068  1.00  0.00    +0.000 C 
ATOM     64  F14 UNL A   1      50.445  26.145  26.724  1.00  0.00    +0.000 F 
ENDBRANCH   55   56
TORSDOF 19
ENDMDL
MODEL 6
REMARK VINA RESULT:     -11.1      1.637      4.222
ROOT
ATOM     19  C15 UNL A   1      41.565  26.177  27.888  1.00  0.00    +0.000 C 
ATOM     20  C16 UNL A   1      40.836  27.268  28.615  1.00  0.00    +0.000 C 
ATOM     21  N3  UNL A   1      41.229  28.483  28.902  1.00  0.00    +0.000 N 
ATOM     22  C17 UNL A   1      40.140  29.097  29.505  1.00  0.00    +0.000 C 
ATOM     23  C18 UNL A   1      40.054  30.347  30.017  1.00  0.00    +0.000 C 
ATOM     35  C25 UNL A   1      41.146  31.282  30.047  1.00  0.00    +0.000 C 
ATOM     36  C26 UNL A   1      41.184  32.547  30.609  1.00  0.00    +0.000 C 
ATOM     37  C27 UNL A   1      42.448  33.095  30.362  1.00  0.00    +0.000 C 
ATOM     38  C28 UNL A   1      43.210  32.156  29.684  1.00  0.00    +0.000 C 
ATOM     39  N4  UNL A   1      42.397  31.051  29.493  1.00  0.00    +0.000 N 
ATOM     40  C29 UNL A   1      44.577  32.259  29.243  1.00  0.00    +0.000 C 
ATOM     52  C36 UNL A   1      45.259  31.296  28.577  1.00  0.00    +0.000 C 
ATOM     53  N5  UNL A   1      44.830  30.031  28.196  1.00  0.00    +0.000 N 
ATOM     54  C37 UNL A   1      45.850  29.472  27.590  1.00  0.00    +0.000 C 
ATOM     55  C38 UNL A   1      45.954  28.096  26.992  1.00  0.00    +0.000 C 
ATOM     67  C45 UNL A   1      44.926  27.237  27.124  1.00  0.00    +0.000 C 
ATOM     68  C46 UNL A   1      44.879  25.883  26.581  1.00  0.00    +0.000 C 
ATOM     69  C47 UNL A   1      43.660  25.364  26.803  1.00  0.00    +0.000 C 
ATOM     70  C48 UNL A   1      42.856  26.336  27.542  1.00  0.00    +0.000 C 
ATOM     71  N6  UNL A   1      43.707  27.397  27.739  1.00  0.00    +0.000 N 
ATOM     72  C49 UNL A   1      47.034  30.336  27.488  1.00  0.00    +0.000 C 
ATOM     73  C50 UNL A   1      46.630  31.425  28.128  1.00  0.00    +0.000 C 
ATOM     74  C51 UNL A   1      39.059  28.133  29.510  1.00  0.00    +0.000 C 
ATOM     75  C52 UNL A   1      39.461  26.962  29.040  1.00  0.00    +0.000 C 
ATOM    112  H21 UNL A   1      40.416  33.005  31.121  1.00  0.00    +0.000 H 
ATOM    113  H22 UNL A   1      42.761  34.039  30.637  1.00  0.00    +0.000 H 
ATOM    114  H23 UNL A   1      42.666  30.223  29.032  1.00  0.00    +0.000 H 
ATOM    115  H24 UNL A   1      45.656  25.401  26.103  1.00  0.00    +0.000 H 
ATOM    116  H25 UNL A   1      43.343  24.429  26.502  1.00  0.00    +0.000 H 
ATOM    117  H26 UNL A   1      43.467  28.193  28.266  1.00  0.00    +0.000 H 
ATOM    118  H27 UNL A   1      47.943  30.144  27.037  1.00  0.00    +0.000 H 
ATOM    119  H28 UNL A   1      47.218  32.257  28.287  1.00  0.00    +0.000 H 
ATOM    120  H29 UNL A   1      38.101  28.333  29.838  1.00  0.00    +0.000 H 
ATOM    121  H30 UNL A   1      38.945  26.070  28.985  1.00  0.00    +0.000 H 
ENDROOT
BRANCH   19   18
ATOM     76  C53 UNL A   1      39.711  25.147  26.597  1.00  0.00    +0.000 C 
ATOM     77  C54 UNL A   1      38.970  24.049  26.177  1.00  0.00    +0.000 C 
ATOM    110  H19 UNL A   1      40.738  21.622  27.683  1.00  0.00    +0.000 H 
ATOM     15  C11 UNL A   1      39.385  22.761  26.524  1.00  0.00    +0.000 C 
ATOM     16  C12 UNL A   1      40.465  22.574  27.392  1.00  0.00    +0.000 C 
ATOM     17  C13 UNL A   1      41.172  23.683  27.864  1.00  0.00    +0.000 C 
ATOM    111  H20 UNL A   1      41.956  23.551  28.522  1.00  0.00    +0.000 H 
ATOM     18  C14 UNL A   1      40.818  24.974  27.444  1.00  0.00    +0.000 C 
ATOM    122  H31 UNL A   1      39.446  26.095  26.286  1.00  0.00    +0.000 H 
ATOM    123  H32 UNL A   1      38.117  24.184  25.610  1.00  0.00    +0.000 H 
BRANCH   15   13
ATOM     13  C10 UNL A   1      38.701  21.580  25.958  1.00  0.00    +0.000 C 
ATOM     14  O2  UNL A   1      39.289  20.505  25.891  1.00  0.00    +0.000 O 
BRANCH   13   12
ATOM     12  N2  UNL A   1      37.416  21.709  25.493  1.00  0.00    +0.000 N 
ATOM    109  H18 UNL A   1      36.705  21.632  26.170  1.00  0.00    +0.000 H 
BRANCH   12   11
ATOM     11  C9  UNL A   1      36.967  21.943  24.129  1.00  0.00    +0.000 C 
ATOM    108  H17 UNL A   1      36.846  20.990  23.658  1.00  0.00    +0.000 H 
ATOM    107  H16 UNL A   1      37.699  22.538  23.624  1.00  0.00    +0.000 H 
BRANCH   11   10
ATOM    105  H14 UNL A   1      35.396  22.865  23.048  1.00  0.00    +0.000 H 
ATOM     10  C8  UNL A   1      35.626  22.664  24.074  1.00  0.00    +0.000 C 
ATOM    106  H15 UNL A   1      34.915  22.017  24.545  1.00  0.00    +0.000 H 
BRANCH   10    9
ATOM      9  C7  UNL A   1      35.582  23.987  24.841  1.00  0.00    +0.000 C 
ATOM    103  H12 UNL A   1      36.533  24.130  25.309  1.00  0.00    +0.000 H 
ATOM    104  H13 UNL A   1      35.344  24.741  24.120  1.00  0.00    +0.000 H 
BRANCH    9    8
ATOM    101  H10 UNL A   1      34.651  24.984  26.464  1.00  0.00    +0.000 H 
ATOM    102  H11 UNL A   1      33.565  24.030  25.407  1.00  0.00    +0.000 H 
ATOM      8  C6  UNL A   1      34.501  24.075  25.922  1.00  0.00    +0.000 C 
BRANCH    8    7
ATOM     99  H8  UNL A   1      34.900  22.053  26.457  1.00  0.00    +0.000 H 
ATOM    100  H9  UNL A   1      35.052  23.243  27.779  1.00  0.00    +0.000 H 
ATOM      7  C5  UNL A   1      34.484  22.917  26.932  1.00  0.00    +0.000 C 
BRANCH    7    6
ATOM     97  H6  UNL A   1      32.952  21.494  27.376  1.00  0.00    +0.000 H 
ATOM     98  H7  UNL A   1      33.012  22.861  28.476  1.00  0.00    +0.000 H 
ATOM      6  C4  UNL A   1      33.089  22.552  27.454  1.00  0.00    +0.000 C 
BRANCH    6    5
ATOM      5  N1  UNL A   1      32.064  23.225  26.683  1.00  0.00    +0.000 N 
ATOM     96  H5  UNL A   1      32.103  24.208  26.687  1.00  0.00    +0.000 H 
BRANCH    5    3
ATOM      3  C3  UNL A   1      31.048  22.674  25.954  1.00  0.00    +0.000 C 
ATOM      4  O1  UNL A   1      30.018  22.386  26.569  1.00  0.00    +0.000 O 
BRANCH    3    2
ATOM      2  C2  UNL A   1      31.247  22.377  24.451  1.00  0.00    +0.000 C 
ATOM     95  H4  UNL A   1      30.325  22.033  24.030  1.00  0.00    +0.000 H 
BRANCH    2    1
ATOM      1  C1  UNL A   1      32.270  21.249  24.276  1.00  0.00    +0.000 C 
ATOM     92  H1  UNL A   1      31.820  20.440  23.739  1.00  0.00    +0.000 H 
ATOM     93  H2  UNL A   1      32.589  20.904  25.238  1.00  0.00    +0.000 H 
ATOM     94  H3  UNL A   1      33.114  21.614  23.730  1.00  0.00    +0.000 H 
ENDBRANCH    2    1
BRANCH    2   78
ATOM    132  H41 UNL A   1      30.191  24.854  24.696  1.00  0.00    +0.000 H 
ATOM     78  C55 UNL A   1      31.594  23.652  23.664  1.00  0.00    +0.000 C 
ATOM     79  C56 UNL A   1      32.533  23.677  22.621  1.00  0.00    +0.000 C 
ATOM     80  C57 UNL A   1      32.866  24.873  21.982  1.00  0.00    +0.000 C 
ATOM     81  C58 UNL A   1      32.281  26.071  22.387  1.00  0.00    +0.000 C 
ATOM     82  C59 UNL A   1      31.330  26.077  23.411  1.00  0.00    +0.000 C 
ATOM     91  C67 UNL A   1      30.953  24.862  24.001  1.00  0.00    +0.000 C 
ATOM    124  H33 UNL A   1      32.983  22.798  22.322  1.00  0.00    +0.000 H 
ATOM    125  H34 UNL A   1      33.549  24.870  21.209  1.00  0.00    +0.000 H 
ATOM    126  H35 UNL A   1      32.550  26.956  21.930  1.00  0.00    +0.000 H 
BRANCH   82   83
ATOM     83  C60 UNL A   1      30.738  27.384  23.815  1.00  0.00    +0.000 C 
ATOM     84  O3  UNL A   1      29.820  27.865  23.151  1.00  0.00    +0.000 O 
BRANCH   83   85
ATOM    129  H38 UNL A   1      32.318  30.165  28.048  1.00  0.00    +0.000 H 
ATOM    130  H39 UNL A   1      31.871  27.793  28.285  1.00  0.00    +0.000 H 
ATOM    131  H40 UNL A   1      31.177  26.485  26.358  1.00  0.00    +0.000 H 
ATOM     85  C61 UNL A   1      31.191  28.122  25.018  1.00  0.00    +0.000 C 
ATOM     86  C62 UNL A   1      31.486  29.484  24.878  1.00  0.00    +0.000 C 
ATOM     87  C63 UNL A   1      31.896  30.227  25.983  1.00  0.00    +0.000 C 
ATOM     88  C64 UNL A   1      32.027  29.611  27.228  1.00  0.00    +0.000 C 
ATOM     89  C65 UNL A   1      31.764  28.248  27.365  1.00  0.00    +0.000 C 
ATOM     90  C66 UNL A   1      31.356  27.497  26.260  1.00  0.00    +0.000 C 
ATOM    127  H36 UNL A   1      31.399  29.937  23.955  1.00  0.00    +0.000 H 
ATOM    128  H37 UNL A   1      32.102  31.233  25.881  1.00  0.00    +0.000 H 
ENDBRANCH   83   85
ENDBRANCH   82   83
ENDBRANCH    2   78
ENDBRANCH    3    2
ENDBRANCH    5    3
ENDBRANCH    6    5
ENDBRANCH    7    6
ENDBRANCH    8    7
ENDBRANCH    9    8
ENDBRANCH   10    9
ENDBRANCH   11   10
ENDBRANCH   12   11
ENDBRANCH   13   12
ENDBRANCH   15   13
ENDBRANCH   19   18
BRANCH   23   24
ATOM     33  C24 UNL A   1      38.489  30.719  31.956  1.00  0.00    +0.000 C 
ATOM     34  F5  UNL A   1      39.443  30.281  32.790  1.00  0.00    +0.000 F 
ATOM     24  C19 UNL A   1      38.728  30.773  30.573  1.00  0.00    +0.000 C 
ATOM     25  C20 UNL A   1      37.692  31.233  29.746  1.00  0.00    +0.000 C 
ATOM     26  F1  UNL A   1      37.874  31.317  28.421  1.00  0.00    +0.000 F 
ATOM     27  C21 UNL A   1      36.482  31.662  30.286  1.00  0.00    +0.000 C 
ATOM     28  F2  UNL A   1      35.531  32.158  29.481  1.00  0.00    +0.000 F 
ATOM     29  C22 UNL A   1      36.269  31.601  31.655  1.00  0.00    +0.000 C 
ATOM     30  F3  UNL A   1      35.105  32.018  32.173  1.00  0.00    +0.000 F 
ATOM     31  C23 UNL A   1      37.266  31.119  32.489  1.00  0.00    +0.000 C 
ATOM     32  F4  UNL A   1      37.058  31.049  33.810  1.00  0.00    +0.000 F 
ENDBRANCH   23   24
BRANCH   40   41
ATOM     41  C30 UNL A   1      45.309  33.526  29.570  1.00  0.00    +0.000 C 
ATOM     42  C31 UNL A   1      46.075  33.651  30.737  1.00  0.00    +0.000 C 
ATOM     43  F6  UNL A   1      46.094  32.660  31.641  1.00  0.00    +0.000 F 
ATOM     44  C32 UNL A   1      46.812  34.806  30.986  1.00  0.00    +0.000 C 
ATOM     45  F7  UNL A   1      47.520  34.916  32.118  1.00  0.00    +0.000 F 
ATOM     46  C33 UNL A   1      46.814  35.843  30.065  1.00  0.00    +0.000 C 
ATOM     47  F8  UNL A   1      47.537  36.948  30.298  1.00  0.00    +0.000 F 
ATOM     48  C34 UNL A   1      46.064  35.738  28.903  1.00  0.00    +0.000 C 
ATOM     49  F9  UNL A   1      46.073  36.735  28.007  1.00  0.00    +0.000 F 
ATOM     50  C35 UNL A   1      45.309  34.595  28.661  1.00  0.00    +0.000 C 
ATOM     51  F10 UNL A   1      44.595  34.519  27.528  1.00  0.00    +0.000 F 
ENDBRANCH   40   41
BRANCH   55   56
ATOM     65  C44 UNL A   1      47.279  27.725  24.884  1.00  0.00    +0.000 C 
ATOM     66  F15 UNL A   1      46.264  28.224  24.163  1.00  0.00    +0.000 F 
ATOM     56  C39 UNL A   1      47.182  27.658  26.282  1.00  0.00    +0.000 C 
ATOM     57  C40 UNL A   1      48.264  27.119  26.988  1.00  0.00    +0.000 C 
ATOM     58  F11 UNL A   1      48.221  27.053  28.327  1.00  0.00    +0.000 F 
ATOM     59  C41 UNL A   1      49.402  26.668  26.325  1.00  0.00    +0.000 C 
ATOM     60  F12 UNL A   1      50.434  26.178  27.026  1.00  0.00    +0.000 F 
ATOM     61  C42 UNL A   1      49.471  26.727  24.941  1.00  0.00    +0.000 C 
ATOM     62  F13 UNL A   1      50.560  26.277  24.303  1.00  0.00    +0.000 F 
ATOM     63  C43 UNL A   1      48.408  27.253  24.220  1.00  0.00    +0.000 C 
ATOM     64  F14 UNL A   1      48.465  27.297  22.882  1.00  0.00    +0.000 F 
ENDBRANCH   55   56
TORSDOF 19
ENDMDL
MODEL 7
REMARK VINA RESULT:     -11.1      1.688      3.782
ROOT
ATOM     19  C15 UNL A   1      41.529  25.982  27.758  1.00  0.00    +0.000 C 
ATOM     20  C16 UNL A   1      40.800  27.079  28.478  1.00  0.00    +0.000 C 
ATOM     21  N3  UNL A   1      41.189  28.299  28.746  1.00  0.00    +0.000 N 
ATOM     22  C17 UNL A   1      40.101  28.914  29.351  1.00  0.00    +0.000 C 
ATOM     23  C18 UNL A   1      40.013  30.170  29.848  1.00  0.00    +0.000 C 
ATOM     35  C25 UNL A   1      41.099  31.112  29.857  1.00  0.00    +0.000 C 
ATOM     36  C26 UNL A   1      41.135  32.384  30.402  1.00  0.00    +0.000 C 
ATOM     37  C27 UNL A   1      42.393  32.936  30.137  1.00  0.00    +0.000 C 
ATOM     38  C28 UNL A   1      43.154  31.993  29.464  1.00  0.00    +0.000 C 
ATOM     39  N4  UNL A   1      42.346  30.881  29.295  1.00  0.00    +0.000 N 
ATOM     40  C29 UNL A   1      44.517  32.099  29.010  1.00  0.00    +0.000 C 
ATOM     52  C36 UNL A   1      45.199  31.131  28.351  1.00  0.00    +0.000 C 
ATOM     53  N5  UNL A   1      44.774  29.859  27.989  1.00  0.00    +0.000 N 
ATOM     54  C37 UNL A   1      45.791  29.299  27.381  1.00  0.00    +0.000 C 
ATOM     55  C38 UNL A   1      45.898  27.916  26.800  1.00  0.00    +0.000 C 
ATOM     67  C45 UNL A   1      44.877  27.053  26.952  1.00  0.00    +0.000 C 
ATOM     68  C46 UNL A   1      44.833  25.691  26.426  1.00  0.00    +0.000 C 
ATOM     69  C47 UNL A   1      43.619  25.168  26.666  1.00  0.00    +0.000 C 
ATOM     70  C48 UNL A   1      42.816  26.145  27.400  1.00  0.00    +0.000 C 
ATOM     71  N6  UNL A   1      43.663  27.213  27.575  1.00  0.00    +0.000 N 
ATOM     72  C49 UNL A   1      46.970  30.168  27.258  1.00  0.00    +0.000 C 
ATOM     73  C50 UNL A   1      46.565  31.262  27.888  1.00  0.00    +0.000 C 
ATOM     74  C51 UNL A   1      39.026  27.944  29.378  1.00  0.00    +0.000 C 
ATOM     75  C52 UNL A   1      39.431  26.770  28.919  1.00  0.00    +0.000 C 
ATOM    112  H21 UNL A   1      40.368  32.844  30.915  1.00  0.00    +0.000 H 
ATOM    113  H22 UNL A   1      42.702  33.885  30.398  1.00  0.00    +0.000 H 
ATOM    114  H23 UNL A   1      42.616  30.049  28.842  1.00  0.00    +0.000 H 
ATOM    115  H24 UNL A   1      45.609  25.208  25.948  1.00  0.00    +0.000 H 
ATOM    116  H25 UNL A   1      43.305  24.228  26.380  1.00  0.00    +0.000 H 
ATOM    117  H26 UNL A   1      43.422  28.014  28.094  1.00  0.00    +0.000 H 
ATOM    118  H27 UNL A   1      47.876  29.975  26.801  1.00  0.00    +0.000 H 
ATOM    119  H28 UNL A   1      47.150  32.100  28.031  1.00  0.00    +0.000 H 
ATOM    120  H29 UNL A   1      38.069  28.143  29.712  1.00  0.00    +0.000 H 
ATOM    121  H30 UNL A   1      38.920  25.874  28.880  1.00  0.00    +0.000 H 
ENDROOT
BRANCH   19   18
ATOM     76  C53 UNL A   1      39.693  24.921  26.467  1.00  0.00    +0.000 C 
ATOM     77  C54 UNL A   1      38.955  23.814  26.066  1.00  0.00    +0.000 C 
ATOM    110  H19 UNL A   1      40.690  21.426  27.669  1.00  0.00    +0.000 H 
ATOM     15  C11 UNL A   1      39.360  22.536  26.456  1.00  0.00    +0.000 C 
ATOM     16  C12 UNL A   1      40.425  22.370  27.346  1.00  0.00    +0.000 C 
ATOM     17  C13 UNL A   1      41.128  23.490  27.798  1.00  0.00    +0.000 C 
ATOM    111  H20 UNL A   1      41.901  23.374  28.472  1.00  0.00    +0.000 H 
ATOM     18  C14 UNL A   1      40.786  24.769  27.336  1.00  0.00    +0.000 C 
ATOM    122  H31 UNL A   1      39.436  25.861  26.125  1.00  0.00    +0.000 H 
ATOM    123  H32 UNL A   1      38.112  23.936  25.482  1.00  0.00    +0.000 H 
BRANCH   15   13
ATOM     13  C10 UNL A   1      38.682  21.341  25.912  1.00  0.00    +0.000 C 
ATOM     14  O2  UNL A   1      39.269  20.264  25.881  1.00  0.00    +0.000 O 
BRANCH   13   12
ATOM     12  N2  UNL A   1      37.403  21.460  25.428  1.00  0.00    +0.000 N 
ATOM    109  H18 UNL A   1      36.683  21.209  26.052  1.00  0.00    +0.000 H 
BRANCH   12   11
ATOM     11  C9  UNL A   1      36.972  21.907  24.112  1.00  0.00    +0.000 C 
ATOM    108  H17 UNL A   1      36.954  21.053  23.467  1.00  0.00    +0.000 H 
ATOM    107  H16 UNL A   1      37.658  22.649  23.760  1.00  0.00    +0.000 H 
BRANCH   11   10
ATOM    105  H14 UNL A   1      35.191  22.500  23.131  1.00  0.00    +0.000 H 
ATOM     10  C8  UNL A   1      35.570  22.504  24.132  1.00  0.00    +0.000 C 
ATOM    106  H15 UNL A   1      34.994  21.901  24.802  1.00  0.00    +0.000 H 
BRANCH   10    9
ATOM      9  C7  UNL A   1      35.495  23.936  24.663  1.00  0.00    +0.000 C 
ATOM    103  H12 UNL A   1      36.490  24.255  24.897  1.00  0.00    +0.000 H 
ATOM    104  H13 UNL A   1      35.033  24.517  23.892  1.00  0.00    +0.000 H 
BRANCH    9    8
ATOM    101  H10 UNL A   1      35.034  24.936  26.476  1.00  0.00    +0.000 H 
ATOM    102  H11 UNL A   1      33.635  24.293  25.560  1.00  0.00    +0.000 H 
ATOM      8  C6  UNL A   1      34.630  24.121  25.913  1.00  0.00    +0.000 C 
BRANCH    8    7
ATOM     99  H8  UNL A   1      34.816  22.032  26.277  1.00  0.00    +0.000 H 
ATOM    100  H9  UNL A   1      35.206  23.091  27.659  1.00  0.00    +0.000 H 
ATOM      7  C5  UNL A   1      34.544  22.900  26.841  1.00  0.00    +0.000 C 
BRANCH    7    6
ATOM     97  H6  UNL A   1      32.927  21.617  27.398  1.00  0.00    +0.000 H 
ATOM     98  H7  UNL A   1      33.162  22.991  28.465  1.00  0.00    +0.000 H 
ATOM      6  C4  UNL A   1      33.156  22.661  27.447  1.00  0.00    +0.000 C 
BRANCH    6    5
ATOM      5  N1  UNL A   1      32.147  23.405  26.721  1.00  0.00    +0.000 N 
ATOM     96  H5  UNL A   1      32.243  24.384  26.739  1.00  0.00    +0.000 H 
BRANCH    5    3
ATOM      3  C3  UNL A   1      31.079  22.926  26.015  1.00  0.00    +0.000 C 
ATOM      4  O1  UNL A   1      30.061  22.665  26.662  1.00  0.00    +0.000 O 
BRANCH    3    2
ATOM      2  C2  UNL A   1      31.206  22.672  24.497  1.00  0.00    +0.000 C 
ATOM     95  H4  UNL A   1      30.241  22.447  24.091  1.00  0.00    +0.000 H 
BRANCH    2    1
ATOM      1  C1  UNL A   1      32.094  21.448  24.248  1.00  0.00    +0.000 C 
ATOM     92  H1  UNL A   1      31.613  20.795  23.550  1.00  0.00    +0.000 H 
ATOM     93  H2  UNL A   1      32.252  20.929  25.171  1.00  0.00    +0.000 H 
ATOM     94  H3  UNL A   1      33.035  21.764  23.850  1.00  0.00    +0.000 H 
ENDBRANCH    2    1
BRANCH    2   78
ATOM    132  H41 UNL A   1      30.570  25.254  24.983  1.00  0.00    +0.000 H 
ATOM     78  C55 UNL A   1      31.669  23.933  23.750  1.00  0.00    +0.000 C 
ATOM     79  C56 UNL A   1      32.500  23.891  22.619  1.00  0.00    +0.000 C 
ATOM     80  C57 UNL A   1      32.953  25.067  22.015  1.00  0.00    +0.000 C 
ATOM     81  C58 UNL A   1      32.599  26.306  22.543  1.00  0.00    +0.000 C 
ATOM     82  C59 UNL A   1      31.759  26.382  23.657  1.00  0.00    +0.000 C 
ATOM     91  C67 UNL A   1      31.257  25.198  24.215  1.00  0.00    +0.000 C 
ATOM    124  H33 UNL A   1      32.780  22.978  22.228  1.00  0.00    +0.000 H 
ATOM    125  H34 UNL A   1      33.553  25.016  21.178  1.00  0.00    +0.000 H 
ATOM    126  H35 UNL A   1      32.958  27.171  22.109  1.00  0.00    +0.000 H 
BRANCH   82   83
ATOM     83  C60 UNL A   1      31.415  27.731  24.189  1.00  0.00    +0.000 C 
ATOM     84  O3  UNL A   1      30.401  28.301  23.789  1.00  0.00    +0.000 O 
BRANCH   83   85
ATOM    129  H38 UNL A   1      34.477  30.061  27.843  1.00  0.00    +0.000 H 
ATOM    130  H39 UNL A   1      32.489  31.205  27.056  1.00  0.00    +0.000 H 
ATOM    131  H40 UNL A   1      31.049  30.151  25.406  1.00  0.00    +0.000 H 
ATOM     85  C61 UNL A   1      32.236  28.410  25.221  1.00  0.00    +0.000 C 
ATOM     86  C62 UNL A   1      33.365  27.737  25.705  1.00  0.00    +0.000 C 
ATOM     87  C63 UNL A   1      34.181  28.340  26.661  1.00  0.00    +0.000 C 
ATOM     88  C64 UNL A   1      33.866  29.609  27.146  1.00  0.00    +0.000 C 
ATOM     89  C65 UNL A   1      32.724  30.270  26.689  1.00  0.00    +0.000 C 
ATOM     90  C66 UNL A   1      31.901  29.669  25.733  1.00  0.00    +0.000 C 
ATOM    127  H36 UNL A   1      33.592  26.794  25.354  1.00  0.00    +0.000 H 
ATOM    128  H37 UNL A   1      35.019  27.848  27.009  1.00  0.00    +0.000 H 
ENDBRANCH   83   85
ENDBRANCH   82   83
ENDBRANCH    2   78
ENDBRANCH    3    2
ENDBRANCH    5    3
ENDBRANCH    6    5
ENDBRANCH    7    6
ENDBRANCH    8    7
ENDBRANCH    9    8
ENDBRANCH   10    9
ENDBRANCH   11   10
ENDBRANCH   12   11
ENDBRANCH   13   12
ENDBRANCH   15   13
ENDBRANCH   19   18
BRANCH   23   24
ATOM     33  C24 UNL A   1      37.652  30.999  29.554  1.00  0.00    +0.000 C 
ATOM     34  F5  UNL A   1      37.838  31.012  28.226  1.00  0.00    +0.000 F 
ATOM     24  C19 UNL A   1      38.688  30.595  30.411  1.00  0.00    +0.000 C 
ATOM     25  C20 UNL A   1      38.440  30.607  31.792  1.00  0.00    +0.000 C 
ATOM     26  F1  UNL A   1      39.393  30.217  32.651  1.00  0.00    +0.000 F 
ATOM     27  C21 UNL A   1      37.192  30.967  32.292  1.00  0.00    +0.000 C 
ATOM     28  F2  UNL A   1      36.959  30.909  33.611  1.00  0.00    +0.000 F 
ATOM     29  C22 UNL A   1      36.182  31.360  31.427  1.00  0.00    +0.000 C 
ATOM     30  F3  UNL A   1      34.980  31.703  31.910  1.00  0.00    +0.000 F 
ATOM     31  C23 UNL A   1      36.414  31.388  30.060  1.00  0.00    +0.000 C 
ATOM     32  F4  UNL A   1      35.443  31.779  29.224  1.00  0.00    +0.000 F 
ENDBRANCH   23   24
BRANCH   40   41
ATOM     41  C30 UNL A   1      45.245  33.374  29.315  1.00  0.00    +0.000 C 
ATOM     42  C31 UNL A   1      45.189  34.475  28.451  1.00  0.00    +0.000 C 
ATOM     43  F6  UNL A   1      44.552  34.379  27.274  1.00  0.00    +0.000 F 
ATOM     44  C32 UNL A   1      45.806  35.678  28.788  1.00  0.00    +0.000 C 
ATOM     45  F7  UNL A   1      45.761  36.713  27.938  1.00  0.00    +0.000 F 
ATOM     46  C33 UNL A   1      46.466  35.806  30.001  1.00  0.00    +0.000 C 
ATOM     47  F8  UNL A   1      47.045  36.969  30.331  1.00  0.00    +0.000 F 
ATOM     48  C34 UNL A   1      46.531  34.728  30.872  1.00  0.00    +0.000 C 
ATOM     49  F9  UNL A   1      47.160  34.853  32.048  1.00  0.00    +0.000 F 
ATOM     50  C35 UNL A   1      45.936  33.519  30.528  1.00  0.00    +0.000 C 
ATOM     51  F10 UNL A   1      46.011  32.493  31.390  1.00  0.00    +0.000 F 
ENDBRANCH   40   41
BRANCH   55   56
ATOM     65  C44 UNL A   1      48.232  26.972  26.778  1.00  0.00    +0.000 C 
ATOM     66  F15 UNL A   1      48.190  26.845  28.112  1.00  0.00    +0.000 F 
ATOM     56  C39 UNL A   1      47.123  27.476  26.084  1.00  0.00    +0.000 C 
ATOM     57  C40 UNL A   1      47.221  27.598  24.692  1.00  0.00    +0.000 C 
ATOM     58  F11 UNL A   1      46.177  28.059  23.987  1.00  0.00    +0.000 F 
ATOM     59  C41 UNL A   1      48.381  27.226  24.018  1.00  0.00    +0.000 C 
ATOM     60  F12 UNL A   1      48.441  27.331  22.683  1.00  0.00    +0.000 F 
ATOM     61  C42 UNL A   1      49.474  26.746  24.725  1.00  0.00    +0.000 C 
ATOM     62  F13 UNL A   1      50.595  26.404  24.077  1.00  0.00    +0.000 F 
ATOM     63  C43 UNL A   1      49.400  26.621  26.105  1.00  0.00    +0.000 C 
ATOM     64  F14 UNL A   1      50.459  26.172  26.792  1.00  0.00    +0.000 F 
ENDBRANCH   55   56
TORSDOF 19
ENDMDL
MODEL 8
REMARK VINA RESULT:     -11.1      2.627      8.747
ROOT
ATOM     19  C15 UNL A   1      45.022  25.080  25.840  1.00  0.00    +0.000 C 
ATOM     20  C16 UNL A   1      46.379  25.721  25.790  1.00  0.00    +0.000 C 
ATOM     21  N3  UNL A   1      46.769  26.878  26.259  1.00  0.00    +0.000 N 
ATOM     22  C17 UNL A   1      48.135  26.938  26.017  1.00  0.00    +0.000 C 
ATOM     23  C18 UNL A   1      48.994  27.950  26.283  1.00  0.00    +0.000 C 
ATOM     35  C25 UNL A   1      48.604  29.207  26.864  1.00  0.00    +0.000 C 
ATOM     36  C26 UNL A   1      49.384  30.325  27.106  1.00  0.00    +0.000 C 
ATOM     37  C27 UNL A   1      48.578  31.294  27.714  1.00  0.00    +0.000 C 
ATOM     38  C28 UNL A   1      47.288  30.795  27.811  1.00  0.00    +0.000 C 
ATOM     39  N4  UNL A   1      47.320  29.513  27.290  1.00  0.00    +0.000 N 
ATOM     40  C29 UNL A   1      46.114  31.442  28.339  1.00  0.00    +0.000 C 
ATOM     52  C36 UNL A   1      44.880  30.887  28.407  1.00  0.00    +0.000 C 
ATOM     53  N5  UNL A   1      44.465  29.631  27.985  1.00  0.00    +0.000 N 
ATOM     54  C37 UNL A   1      43.184  29.563  28.254  1.00  0.00    +0.000 C 
ATOM     55  C38 UNL A   1      42.222  28.439  27.990  1.00  0.00    +0.000 C 
ATOM     67  C45 UNL A   1      42.644  27.348  27.323  1.00  0.00    +0.000 C 
ATOM     68  C46 UNL A   1      41.830  26.176  27.015  1.00  0.00    +0.000 C 
ATOM     69  C47 UNL A   1      42.608  25.240  26.447  1.00  0.00    +0.000 C 
ATOM     70  C48 UNL A   1      43.966  25.765  26.315  1.00  0.00    +0.000 C 
ATOM     71  N6  UNL A   1      43.881  27.044  26.809  1.00  0.00    +0.000 N 
ATOM     72  C49 UNL A   1      42.645  30.763  28.911  1.00  0.00    +0.000 C 
ATOM     73  C50 UNL A   1      43.713  31.548  28.956  1.00  0.00    +0.000 C 
ATOM     74  C51 UNL A   1      48.511  25.687  25.393  1.00  0.00    +0.000 C 
ATOM     75  C52 UNL A   1      47.449  24.931  25.161  1.00  0.00    +0.000 C 
ATOM    112  H21 UNL A   1      50.384  30.426  26.878  1.00  0.00    +0.000 H 
ATOM    113  H22 UNL A   1      48.890  32.223  28.036  1.00  0.00    +0.000 H 
ATOM    114  H23 UNL A   1      46.546  28.906  27.232  1.00  0.00    +0.000 H 
ATOM    115  H24 UNL A   1      40.820  26.081  27.202  1.00  0.00    +0.000 H 
ATOM    116  H25 UNL A   1      42.297  24.301  26.151  1.00  0.00    +0.000 H 
ATOM    117  H26 UNL A   1      44.633  27.679  26.798  1.00  0.00    +0.000 H 
ATOM    118  H27 UNL A   1      41.687  30.945  29.248  1.00  0.00    +0.000 H 
ATOM    119  H28 UNL A   1      43.714  32.508  29.334  1.00  0.00    +0.000 H 
ATOM    120  H29 UNL A   1      49.481  25.420  25.158  1.00  0.00    +0.000 H 
ATOM    121  H30 UNL A   1      47.388  24.025  24.670  1.00  0.00    +0.000 H 
ENDROOT
BRANCH   19   18
ATOM     76  C53 UNL A   1      45.305  22.679  26.403  1.00  0.00    +0.000 C 
ATOM     77  C54 UNL A   1      45.212  21.326  26.096  1.00  0.00    +0.000 C 
ATOM    110  H19 UNL A   1      43.809  21.582  23.054  1.00  0.00    +0.000 H 
ATOM     15  C11 UNL A   1      44.608  20.930  24.900  1.00  0.00    +0.000 C 
ATOM     16  C12 UNL A   1      44.211  21.882  23.957  1.00  0.00    +0.000 C 
ATOM     17  C13 UNL A   1      44.362  23.242  24.241  1.00  0.00    +0.000 C 
ATOM    111  H20 UNL A   1      44.090  23.947  23.539  1.00  0.00    +0.000 H 
ATOM     18  C14 UNL A   1      44.881  23.648  25.479  1.00  0.00    +0.000 C 
ATOM    122  H31 UNL A   1      45.689  22.972  27.316  1.00  0.00    +0.000 H 
ATOM    123  H32 UNL A   1      45.586  20.619  26.748  1.00  0.00    +0.000 H 
BRANCH   15   13
ATOM     13  C10 UNL A   1      44.360  19.499  24.630  1.00  0.00    +0.000 C 
ATOM     14  O2  UNL A   1      44.924  18.946  23.690  1.00  0.00    +0.000 O 
BRANCH   13   12
ATOM     12  N2  UNL A   1      43.482  18.808  25.428  1.00  0.00    +0.000 N 
ATOM    109  H18 UNL A   1      43.803  17.942  25.770  1.00  0.00    +0.000 H 
BRANCH   12   11
ATOM     11  C9  UNL A   1      42.137  19.189  25.833  1.00  0.00    +0.000 C 
ATOM    108  H17 UNL A   1      41.516  18.322  25.756  1.00  0.00    +0.000 H 
ATOM    107  H16 UNL A   1      41.795  19.974  25.191  1.00  0.00    +0.000 H 
BRANCH   11   10
ATOM    105  H14 UNL A   1      41.275  19.171  27.767  1.00  0.00    +0.000 H 
ATOM     10  C8  UNL A   1      42.081  19.675  27.276  1.00  0.00    +0.000 C 
ATOM    106  H15 UNL A   1      43.037  19.457  27.706  1.00  0.00    +0.000 H 
BRANCH   10    9
ATOM      9  C7  UNL A   1      41.868  21.181  27.434  1.00  0.00    +0.000 C 
ATOM    103  H12 UNL A   1      41.258  21.341  28.299  1.00  0.00    +0.000 H 
ATOM    104  H13 UNL A   1      42.843  21.614  27.515  1.00  0.00    +0.000 H 
BRANCH    9    8
ATOM    101  H10 UNL A   1      41.592  22.859  26.165  1.00  0.00    +0.000 H 
ATOM    102  H11 UNL A   1      41.400  21.254  25.392  1.00  0.00    +0.000 H 
ATOM      8  C6  UNL A   1      41.194  21.869  26.243  1.00  0.00    +0.000 C 
BRANCH    8    7
ATOM     99  H8  UNL A   1      39.257  21.699  25.375  1.00  0.00    +0.000 H 
ATOM    100  H9  UNL A   1      39.354  21.332  27.120  1.00  0.00    +0.000 H 
ATOM      7  C5  UNL A   1      39.664  21.979  26.325  1.00  0.00    +0.000 C 
BRANCH    7    6
ATOM     97  H6  UNL A   1      39.038  23.459  27.735  1.00  0.00    +0.000 H 
ATOM     98  H7  UNL A   1      39.849  24.105  26.318  1.00  0.00    +0.000 H 
ATOM      6  C4  UNL A   1      39.147  23.379  26.674  1.00  0.00    +0.000 C 
BRANCH    6    5
ATOM      5  N1  UNL A   1      37.865  23.621  26.044  1.00  0.00    +0.000 N 
ATOM     96  H5  UNL A   1      37.471  24.509  26.204  1.00  0.00    +0.000 H 
BRANCH    5    3
ATOM      3  C3  UNL A   1      37.129  22.779  25.258  1.00  0.00    +0.000 C 
ATOM      4  O1  UNL A   1      37.217  22.943  24.039  1.00  0.00    +0.000 O 
BRANCH    3    2
ATOM      2  C2  UNL A   1      36.191  21.737  25.907  1.00  0.00    +0.000 C 
ATOM     95  H4  UNL A   1      36.659  21.331  26.780  1.00  0.00    +0.000 H 
BRANCH    2    1
ATOM      1  C1  UNL A   1      35.960  20.572  24.939  1.00  0.00    +0.000 C 
ATOM     92  H1  UNL A   1      36.709  20.590  24.174  1.00  0.00    +0.000 H 
ATOM     93  H2  UNL A   1      34.992  20.668  24.491  1.00  0.00    +0.000 H 
ATOM     94  H3  UNL A   1      36.017  19.647  25.472  1.00  0.00    +0.000 H 
ENDBRANCH    2    1
BRANCH    2   78
ATOM    132  H41 UNL A   1      35.056  24.069  25.145  1.00  0.00    +0.000 H 
ATOM     78  C55 UNL A   1      34.893  22.385  26.415  1.00  0.00    +0.000 C 
ATOM     79  C56 UNL A   1      34.109  21.829  27.438  1.00  0.00    +0.000 C 
ATOM     80  C57 UNL A   1      32.900  22.417  27.818  1.00  0.00    +0.000 C 
ATOM     81  C58 UNL A   1      32.443  23.561  27.169  1.00  0.00    +0.000 C 
ATOM     82  C59 UNL A   1      33.208  24.149  26.159  1.00  0.00    +0.000 C 
ATOM     91  C67 UNL A   1      34.451  23.589  25.830  1.00  0.00    +0.000 C 
ATOM    124  H33 UNL A   1      34.431  20.974  27.917  1.00  0.00    +0.000 H 
ATOM    125  H34 UNL A   1      32.343  22.001  28.580  1.00  0.00    +0.000 H 
ATOM    126  H35 UNL A   1      31.536  23.976  27.435  1.00  0.00    +0.000 H 
BRANCH   82   83
ATOM     83  C60 UNL A   1      32.673  25.368  25.488  1.00  0.00    +0.000 C 
ATOM     84  O3  UNL A   1      32.174  25.274  24.367  1.00  0.00    +0.000 O 
BRANCH   83   85
ATOM    129  H38 UNL A   1      32.845  30.178  27.720  1.00  0.00    +0.000 H 
ATOM    130  H39 UNL A   1      30.809  28.870  27.875  1.00  0.00    +0.000 H 
ATOM    131  H40 UNL A   1      30.708  26.650  26.890  1.00  0.00    +0.000 H 
ATOM     85  C61 UNL A   1      32.685  26.701  26.137  1.00  0.00    +0.000 C 
ATOM     86  C62 UNL A   1      33.870  27.445  26.083  1.00  0.00    +0.000 C 
ATOM     87  C63 UNL A   1      33.927  28.712  26.660  1.00  0.00    +0.000 C 
ATOM     88  C64 UNL A   1      32.806  29.235  27.305  1.00  0.00    +0.000 C 
ATOM     89  C65 UNL A   1      31.633  28.484  27.389  1.00  0.00    +0.000 C 
ATOM     90  C66 UNL A   1      31.571  27.212  26.815  1.00  0.00    +0.000 C 
ATOM    127  H36 UNL A   1      34.702  27.053  25.615  1.00  0.00    +0.000 H 
ATOM    128  H37 UNL A   1      34.797  29.264  26.609  1.00  0.00    +0.000 H 
ENDBRANCH   83   85
ENDBRANCH   82   83
ENDBRANCH    2   78
ENDBRANCH    3    2
ENDBRANCH    5    3
ENDBRANCH    6    5
ENDBRANCH    7    6
ENDBRANCH    8    7
ENDBRANCH    9    8
ENDBRANCH   10    9
ENDBRANCH   11   10
ENDBRANCH   12   11
ENDBRANCH   13   12
ENDBRANCH   15   13
ENDBRANCH   19   18
BRANCH   23   24
ATOM     33  C24 UNL A   1      51.347  27.365  26.967  1.00  0.00    +0.000 C 
ATOM     34  F5  UNL A   1      50.927  27.218  28.231  1.00  0.00    +0.000 F 
ATOM     24  C19 UNL A   1      50.441  27.728  25.957  1.00  0.00    +0.000 C 
ATOM     25  C20 UNL A   1      50.937  27.873  24.652  1.00  0.00    +0.000 C 
ATOM     26  F1  UNL A   1      50.110  28.205  23.650  1.00  0.00    +0.000 F 
ATOM     27  C21 UNL A   1      52.276  27.623  24.363  1.00  0.00    +0.000 C 
ATOM     28  F2  UNL A   1      52.712  27.707  23.098  1.00  0.00    +0.000 F 
ATOM     29  C22 UNL A   1      53.152  27.264  25.376  1.00  0.00    +0.000 C 
ATOM     30  F3  UNL A   1      54.440  27.020  25.095  1.00  0.00    +0.000 F 
ATOM     31  C23 UNL A   1      52.692  27.146  26.678  1.00  0.00    +0.000 C 
ATOM     32  F4  UNL A   1      53.540  26.810  27.660  1.00  0.00    +0.000 F 
ENDBRANCH   23   24
BRANCH   40   41
ATOM     41  C30 UNL A   1      46.269  32.850  28.831  1.00  0.00    +0.000 C 
ATOM     42  C31 UNL A   1      46.048  33.949  27.990  1.00  0.00    +0.000 C 
ATOM     43  F6  UNL A   1      45.780  33.761  26.690  1.00  0.00    +0.000 F 
ATOM     44  C32 UNL A   1      46.119  35.249  28.484  1.00  0.00    +0.000 C 
ATOM     45  F7  UNL A   1      45.927  36.288  27.660  1.00  0.00    +0.000 F 
ATOM     46  C33 UNL A   1      46.389  35.471  29.827  1.00  0.00    +0.000 C 
ATOM     47  F8  UNL A   1      46.440  36.723  30.304  1.00  0.00    +0.000 F 
ATOM     48  C34 UNL A   1      46.608  34.396  30.675  1.00  0.00    +0.000 C 
ATOM     49  F9  UNL A   1      46.859  34.608  31.975  1.00  0.00    +0.000 F 
ATOM     50  C35 UNL A   1      46.560  33.097  30.181  1.00  0.00    +0.000 C 
ATOM     51  F10 UNL A   1      46.774  32.076  31.024  1.00  0.00    +0.000 F 
ENDBRANCH   40   41
BRANCH   55   56
ATOM     65  C44 UNL A   1      39.806  29.018  27.582  1.00  0.00    +0.000 C 
ATOM     66  F15 UNL A   1      40.112  29.401  26.334  1.00  0.00    +0.000 F 
ATOM     56  C39 UNL A   1      40.806  28.520  28.430  1.00  0.00    +0.000 C 
ATOM     57  C40 UNL A   1      40.436  28.143  29.727  1.00  0.00    +0.000 C 
ATOM     58  F11 UNL A   1      41.357  27.645  30.566  1.00  0.00    +0.000 F 
ATOM     59  C41 UNL A   1      39.117  28.256  30.160  1.00  0.00    +0.000 C 
ATOM     60  F12 UNL A   1      38.785  27.867  31.399  1.00  0.00    +0.000 F 
ATOM     61  C42 UNL A   1      38.147  28.768  29.311  1.00  0.00    +0.000 C 
ATOM     62  F13 UNL A   1      36.882  28.891  29.734  1.00  0.00    +0.000 F 
ATOM     63  C43 UNL A   1      38.492  29.151  28.023  1.00  0.00    +0.000 C 
ATOM     64  F14 UNL A   1      37.560  29.661  27.206  1.00  0.00    +0.000 F 
ENDBRANCH   55   56
TORSDOF 19
ENDMDL
MODEL 9
REMARK VINA RESULT:     -11.0      4.399      9.722
ROOT
ATOM     19  C15 UNL A   1      38.257  30.243  29.768  1.00  0.00    +0.000 C 
ATOM     20  C16 UNL A   1      39.281  29.299  29.207  1.00  0.00    +0.000 C 
ATOM     21  N3  UNL A   1      40.339  28.785  29.781  1.00  0.00    +0.000 N 
ATOM     22  C17 UNL A   1      40.886  27.916  28.846  1.00  0.00    +0.000 C 
ATOM     23  C18 UNL A   1      42.011  27.170  28.947  1.00  0.00    +0.000 C 
ATOM     35  C25 UNL A   1      42.886  27.180  30.088  1.00  0.00    +0.000 C 
ATOM     36  C26 UNL A   1      44.088  26.517  30.260  1.00  0.00    +0.000 C 
ATOM     37  C27 UNL A   1      44.563  26.802  31.545  1.00  0.00    +0.000 C 
ATOM     38  C28 UNL A   1      43.677  27.675  32.157  1.00  0.00    +0.000 C 
ATOM     39  N4  UNL A   1      42.651  27.894  31.254  1.00  0.00    +0.000 N 
ATOM     40  C29 UNL A   1      43.762  28.265  33.469  1.00  0.00    +0.000 C 
ATOM     52  C36 UNL A   1      42.850  29.111  34.006  1.00  0.00    +0.000 C 
ATOM     53  N5  UNL A   1      41.682  29.605  33.440  1.00  0.00    +0.000 N 
ATOM     54  C37 UNL A   1      41.148  30.392  34.343  1.00  0.00    +0.000 C 
ATOM     55  C38 UNL A   1      39.887  31.206  34.258  1.00  0.00    +0.000 C 
ATOM     67  C45 UNL A   1      39.197  31.241  33.103  1.00  0.00    +0.000 C 
ATOM     68  C46 UNL A   1      37.950  31.969  32.882  1.00  0.00    +0.000 C 
ATOM     69  C47 UNL A   1      37.487  31.682  31.655  1.00  0.00    +0.000 C 
ATOM     70  C48 UNL A   1      38.428  30.782  30.989  1.00  0.00    +0.000 C 
ATOM     71  N6  UNL A   1      39.441  30.619  31.902  1.00  0.00    +0.000 N 
ATOM     72  C49 UNL A   1      41.903  30.459  35.601  1.00  0.00    +0.000 C 
ATOM     73  C50 UNL A   1      42.945  29.682  35.333  1.00  0.00    +0.000 C 
ATOM     74  C51 UNL A   1      40.023  27.946  27.684  1.00  0.00    +0.000 C 
ATOM     75  C52 UNL A   1      39.060  28.842  27.827  1.00  0.00    +0.000 C 
ATOM    112  H21 UNL A   1      44.555  25.918  29.562  1.00  0.00    +0.000 H 
ATOM    113  H22 UNL A   1      45.426  26.425  31.967  1.00  0.00    +0.000 H 
ATOM    114  H23 UNL A   1      41.869  28.471  31.415  1.00  0.00    +0.000 H 
ATOM    115  H24 UNL A   1      37.498  32.602  33.560  1.00  0.00    +0.000 H 
ATOM    116  H25 UNL A   1      36.609  32.039  31.247  1.00  0.00    +0.000 H 
ATOM    117  H26 UNL A   1      40.261  30.106  31.716  1.00  0.00    +0.000 H 
ATOM    118  H27 UNL A   1      41.682  30.977  36.466  1.00  0.00    +0.000 H 
ATOM    119  H28 UNL A   1      43.723  29.508  35.987  1.00  0.00    +0.000 H 
ATOM    120  H29 UNL A   1      40.145  27.347  26.851  1.00  0.00    +0.000 H 
ATOM    121  H30 UNL A   1      38.341  29.141  27.149  1.00  0.00    +0.000 H 
ENDROOT
BRANCH   19   18
ATOM     76  C53 UNL A   1      36.104  29.407  28.858  1.00  0.00    +0.000 C 
ATOM     77  C54 UNL A   1      34.924  29.578  28.143  1.00  0.00    +0.000 C 
ATOM    110  H19 UNL A   1      35.244  32.835  27.387  1.00  0.00    +0.000 H 
ATOM     15  C11 UNL A   1      34.585  30.845  27.663  1.00  0.00    +0.000 C 
ATOM     16  C12 UNL A   1      35.479  31.913  27.786  1.00  0.00    +0.000 C 
ATOM     17  C13 UNL A   1      36.693  31.724  28.451  1.00  0.00    +0.000 C 
ATOM    111  H20 UNL A   1      37.365  32.503  28.526  1.00  0.00    +0.000 H 
ATOM     18  C14 UNL A   1      36.998  30.478  29.019  1.00  0.00    +0.000 C 
ATOM    122  H31 UNL A   1      36.324  28.487  29.272  1.00  0.00    +0.000 H 
ATOM    123  H32 UNL A   1      34.301  28.773  27.969  1.00  0.00    +0.000 H 
BRANCH   15   13
ATOM     13  C10 UNL A   1      33.266  31.076  27.039  1.00  0.00    +0.000 C 
ATOM     14  O2  UNL A   1      32.737  32.181  27.117  1.00  0.00    +0.000 O 
BRANCH   13   12
ATOM     12  N2  UNL A   1      32.638  30.039  26.395  1.00  0.00    +0.000 N 
ATOM    109  H18 UNL A   1      32.158  29.402  26.973  1.00  0.00    +0.000 H 
BRANCH   12   11
ATOM     11  C9  UNL A   1      32.590  29.758  24.968  1.00  0.00    +0.000 C 
ATOM    108  H17 UNL A   1      33.091  30.556  24.461  1.00  0.00    +0.000 H 
ATOM    107  H16 UNL A   1      31.566  29.686  24.667  1.00  0.00    +0.000 H 
BRANCH   11   10
ATOM    105  H14 UNL A   1      32.639  27.873  24.005  1.00  0.00    +0.000 H 
ATOM     10  C8  UNL A   1      33.301  28.459  24.608  1.00  0.00    +0.000 C 
ATOM    106  H15 UNL A   1      34.199  28.737  24.098  1.00  0.00    +0.000 H 
BRANCH   10    9
ATOM      9  C7  UNL A   1      33.727  27.612  25.808  1.00  0.00    +0.000 C 
ATOM    103  H12 UNL A   1      34.784  27.455  25.744  1.00  0.00    +0.000 H 
ATOM    104  H13 UNL A   1      33.431  28.159  26.679  1.00  0.00    +0.000 H 
BRANCH    9    8
ATOM    101  H10 UNL A   1      32.549  26.195  26.857  1.00  0.00    +0.000 H 
ATOM    102  H11 UNL A   1      32.388  26.179  25.073  1.00  0.00    +0.000 H 
ATOM      8  C6  UNL A   1      33.047  26.244  25.912  1.00  0.00    +0.000 C 
BRANCH    8    7
ATOM     99  H8  UNL A   1      34.204  24.867  24.773  1.00  0.00    +0.000 H 
ATOM    100  H9  UNL A   1      34.855  25.269  26.385  1.00  0.00    +0.000 H 
ATOM      7  C5  UNL A   1      33.986  25.033  25.807  1.00  0.00    +0.000 C 
BRANCH    7    6
ATOM     97  H6  UNL A   1      33.747  23.627  27.401  1.00  0.00    +0.000 H 
ATOM     98  H7  UNL A   1      32.344  23.784  26.356  1.00  0.00    +0.000 H 
ATOM      6  C4  UNL A   1      33.413  23.735  26.390  1.00  0.00    +0.000 C 
BRANCH    6    5
ATOM      5  N1  UNL A   1      33.853  22.591  25.617  1.00  0.00    +0.000 N 
ATOM     96  H5  UNL A   1      34.272  21.864  26.132  1.00  0.00    +0.000 H 
BRANCH    5    3
ATOM      3  C3  UNL A   1      33.766  22.389  24.268  1.00  0.00    +0.000 C 
ATOM      4  O1  UNL A   1      34.830  22.246  23.661  1.00  0.00    +0.000 O 
BRANCH    3    2
ATOM      2  C2  UNL A   1      32.389  22.420  23.569  1.00  0.00    +0.000 C 
ATOM     95  H4  UNL A   1      31.619  22.243  24.291  1.00  0.00    +0.000 H 
BRANCH    2    1
ATOM      1  C1  UNL A   1      32.306  21.291  22.536  1.00  0.00    +0.000 C 
ATOM     92  H1  UNL A   1      32.774  20.413  22.929  1.00  0.00    +0.000 H 
ATOM     93  H2  UNL A   1      32.808  21.591  21.639  1.00  0.00    +0.000 H 
ATOM     94  H3  UNL A   1      31.280  21.081  22.318  1.00  0.00    +0.000 H 
ENDBRANCH    2    1
BRANCH    2   78
ATOM    132  H41 UNL A   1      30.411  24.134  24.249  1.00  0.00    +0.000 H 
ATOM     78  C55 UNL A   1      32.081  23.811  22.990  1.00  0.00    +0.000 C 
ATOM     79  C56 UNL A   1      32.810  24.380  21.934  1.00  0.00    +0.000 C 
ATOM     80  C57 UNL A   1      32.538  25.675  21.489  1.00  0.00    +0.000 C 
ATOM     81  C58 UNL A   1      31.544  26.433  22.102  1.00  0.00    +0.000 C 
ATOM     82  C59 UNL A   1      30.788  25.889  23.144  1.00  0.00    +0.000 C 
ATOM     91  C67 UNL A   1      31.024  24.565  23.540  1.00  0.00    +0.000 C 
ATOM    124  H33 UNL A   1      33.558  23.833  21.481  1.00  0.00    +0.000 H 
ATOM    125  H34 UNL A   1      33.076  26.072  20.703  1.00  0.00    +0.000 H 
ATOM    126  H35 UNL A   1      31.365  27.399  21.787  1.00  0.00    +0.000 H 
BRANCH   82   83
ATOM     83  C60 UNL A   1      29.741  26.742  23.774  1.00  0.00    +0.000 C 
ATOM     84  O3  UNL A   1      29.254  26.407  24.853  1.00  0.00    +0.000 O 
BRANCH   83   85
ATOM    129  H38 UNL A   1      27.957  31.282  21.686  1.00  0.00    +0.000 H 
ATOM    130  H39 UNL A   1      30.318  30.751  21.530  1.00  0.00    +0.000 H 
ATOM    131  H40 UNL A   1      31.161  28.665  22.449  1.00  0.00    +0.000 H 
ATOM     85  C61 UNL A   1      29.280  28.014  23.166  1.00  0.00    +0.000 C 
ATOM     86  C62 UNL A   1      27.912  28.307  23.220  1.00  0.00    +0.000 C 
ATOM     87  C63 UNL A   1      27.431  29.499  22.681  1.00  0.00    +0.000 C 
ATOM     88  C64 UNL A   1      28.311  30.394  22.073  1.00  0.00    +0.000 C 
ATOM     89  C65 UNL A   1      29.671  30.091  21.989  1.00  0.00    +0.000 C 
ATOM     90  C66 UNL A   1      30.158  28.896  22.525  1.00  0.00    +0.000 C 
ATOM    127  H36 UNL A   1      27.260  27.640  23.661  1.00  0.00    +0.000 H 
ATOM    128  H37 UNL A   1      26.424  29.720  22.732  1.00  0.00    +0.000 H 
ENDBRANCH   83   85
ENDBRANCH   82   83
ENDBRANCH    2   78
ENDBRANCH    3    2
ENDBRANCH    5    3
ENDBRANCH    6    5
ENDBRANCH    7    6
ENDBRANCH    8    7
ENDBRANCH    9    8
ENDBRANCH   10    9
ENDBRANCH   11   10
ENDBRANCH   12   11
ENDBRANCH   13   12
ENDBRANCH   15   13
ENDBRANCH   19   18
BRANCH   23   24
ATOM     33  C24 UNL A   1      41.715  25.027  27.656  1.00  0.00    +0.000 C 
ATOM     34  F5  UNL A   1      40.809  24.626  28.559  1.00  0.00    +0.000 F 
ATOM     24  C19 UNL A   1      42.347  26.273  27.792  1.00  0.00    +0.000 C 
ATOM     25  C20 UNL A   1      43.291  26.640  26.821  1.00  0.00    +0.000 C 
ATOM     26  F1  UNL A   1      43.913  27.825  26.898  1.00  0.00    +0.000 F 
ATOM     27  C21 UNL A   1      43.560  25.811  25.734  1.00  0.00    +0.000 C 
ATOM     28  F2  UNL A   1      44.419  26.211  24.786  1.00  0.00    +0.000 F 
ATOM     29  C22 UNL A   1      42.922  24.585  25.620  1.00  0.00    +0.000 C 
ATOM     30  F3  UNL A   1      43.180  23.790  24.572  1.00  0.00    +0.000 F 
ATOM     31  C23 UNL A   1      42.010  24.187  26.584  1.00  0.00    +0.000 C 
ATOM     32  F4  UNL A   1      41.401  22.998  26.481  1.00  0.00    +0.000 F 
ENDBRANCH   23   24
BRANCH   40   41
ATOM     41  C30 UNL A   1      44.969  27.933  34.294  1.00  0.00    +0.000 C 
ATOM     42  C31 UNL A   1      45.007  26.798  35.115  1.00  0.00    +0.000 C 
ATOM     43  F6  UNL A   1      43.918  26.027  35.252  1.00  0.00    +0.000 F 
ATOM     44  C32 UNL A   1      46.164  26.462  35.813  1.00  0.00    +0.000 C 
ATOM     45  F7  UNL A   1      46.174  25.386  36.612  1.00  0.00    +0.000 F 
ATOM     46  C33 UNL A   1      47.306  27.239  35.684  1.00  0.00    +0.000 C 
ATOM     47  F8  UNL A   1      48.424  26.905  36.344  1.00  0.00    +0.000 F 
ATOM     48  C34 UNL A   1      47.290  28.365  34.874  1.00  0.00    +0.000 C 
ATOM     49  F9  UNL A   1      48.395  29.111  34.741  1.00  0.00    +0.000 F 
ATOM     50  C35 UNL A   1      46.129  28.717  34.194  1.00  0.00    +0.000 C 
ATOM     51  F10 UNL A   1      46.141  29.809  33.415  1.00  0.00    +0.000 F 
ENDBRANCH   40   41
BRANCH   55   56
ATOM     65  C44 UNL A   1      38.534  31.437  36.368  1.00  0.00    +0.000 C 
ATOM     66  F15 UNL A   1      38.150  30.157  36.259  1.00  0.00    +0.000 F 
ATOM     56  C39 UNL A   1      39.402  31.995  35.419  1.00  0.00    +0.000 C 
ATOM     57  C40 UNL A   1      39.765  33.339  35.573  1.00  0.00    +0.000 C 
ATOM     58  F11 UNL A   1      40.607  33.908  34.698  1.00  0.00    +0.000 F 
ATOM     59  C41 UNL A   1      39.281  34.097  36.636  1.00  0.00    +0.000 C 
ATOM     60  F12 UNL A   1      39.661  35.375  36.774  1.00  0.00    +0.000 F 
ATOM     61  C42 UNL A   1      38.409  33.531  37.555  1.00  0.00    +0.000 C 
ATOM     62  F13 UNL A   1      37.931  34.265  38.568  1.00  0.00    +0.000 F 
ATOM     63  C43 UNL A   1      38.033  32.202  37.419  1.00  0.00    +0.000 C 
ATOM     64  F14 UNL A   1      37.178  31.657  38.295  1.00  0.00    +0.000 F 
ENDBRANCH   55   56
TORSDOF 19
ENDMDL
MODEL 10
REMARK VINA RESULT:     -11.0      5.754      9.614
ROOT
ATOM     19  C15 UNL A   1      39.895  28.903  29.179  1.00  0.00    +0.000 C 
ATOM     20  C16 UNL A   1      40.752  29.888  29.920  1.00  0.00    +0.000 C 
ATOM     21  N3  UNL A   1      42.031  29.839  30.189  1.00  0.00    +0.000 N 
ATOM     22  C17 UNL A   1      42.328  31.040  30.819  1.00  0.00    +0.000 C 
ATOM     23  C18 UNL A   1      43.512  31.456  31.325  1.00  0.00    +0.000 C 
ATOM     35  C25 UNL A   1      44.714  30.666  31.320  1.00  0.00    +0.000 C 
ATOM     36  C26 UNL A   1      45.947  30.965  31.872  1.00  0.00    +0.000 C 
ATOM     37  C27 UNL A   1      46.820  29.909  31.587  1.00  0.00    +0.000 C 
ATOM     38  C28 UNL A   1      46.119  28.935  30.893  1.00  0.00    +0.000 C 
ATOM     39  N4  UNL A   1      44.830  29.414  30.732  1.00  0.00    +0.000 N 
ATOM     40  C29 UNL A   1      46.591  27.661  30.414  1.00  0.00    +0.000 C 
ATOM     52  C36 UNL A   1      45.846  26.756  29.734  1.00  0.00    +0.000 C 
ATOM     53  N5  UNL A   1      44.507  26.827  29.373  1.00  0.00    +0.000 N 
ATOM     54  C37 UNL A   1      44.243  25.709  28.741  1.00  0.00    +0.000 C 
ATOM     55  C38 UNL A   1      42.942  25.243  28.150  1.00  0.00    +0.000 C 
ATOM     67  C45 UNL A   1      41.834  25.989  28.316  1.00  0.00    +0.000 C 
ATOM     68  C46 UNL A   1      40.512  25.672  27.782  1.00  0.00    +0.000 C 
ATOM     69  C47 UNL A   1      39.679  26.694  28.042  1.00  0.00    +0.000 C 
ATOM     70  C48 UNL A   1      40.401  27.717  28.797  1.00  0.00    +0.000 C 
ATOM     71  N6  UNL A   1      41.658  27.188  28.963  1.00  0.00    +0.000 N 
ATOM     72  C49 UNL A   1      45.400  24.812  28.601  1.00  0.00    +0.000 C 
ATOM     73  C50 UNL A   1      46.343  25.486  29.246  1.00  0.00    +0.000 C 
ATOM     74  C51 UNL A   1      41.103  31.811  30.860  1.00  0.00    +0.000 C 
ATOM     75  C52 UNL A   1      40.083  31.112  30.385  1.00  0.00    +0.000 C 
ATOM    112  H21 UNL A   1      46.182  31.817  32.403  1.00  0.00    +0.000 H 
ATOM    113  H22 UNL A   1      47.817  29.864  31.847  1.00  0.00    +0.000 H 
ATOM    114  H23 UNL A   1      44.103  28.938  30.268  1.00  0.00    +0.000 H 
ATOM    115  H24 UNL A   1      40.258  24.804  27.285  1.00  0.00    +0.000 H 
ATOM    116  H25 UNL A   1      38.689  26.747  27.755  1.00  0.00    +0.000 H 
ATOM    117  H26 UNL A   1      42.364  27.626  29.492  1.00  0.00    +0.000 H 
ATOM    118  H27 UNL A   1      45.461  23.898  28.126  1.00  0.00    +0.000 H 
ATOM    119  H28 UNL A   1      47.308  25.148  29.384  1.00  0.00    +0.000 H 
ATOM    120  H29 UNL A   1      41.034  32.779  31.213  1.00  0.00    +0.000 H 
ATOM    121  H30 UNL A   1      39.082  31.362  30.350  1.00  0.00    +0.000 H 
ENDROOT
BRANCH   19   18
ATOM     76  C53 UNL A   1      37.475  29.140  29.682  1.00  0.00    +0.000 C 
ATOM     77  C54 UNL A   1      36.174  29.477  29.325  1.00  0.00    +0.000 C 
ATOM    110  H19 UNL A   1      36.762  30.585  26.209  1.00  0.00    +0.000 H 
ATOM     15  C11 UNL A   1      35.929  30.062  28.080  1.00  0.00    +0.000 C 
ATOM     16  C12 UNL A   1      36.959  30.196  27.144  1.00  0.00    +0.000 C 
ATOM     17  C13 UNL A   1      38.255  29.800  27.482  1.00  0.00    +0.000 C 
ATOM    111  H20 UNL A   1      39.014  29.877  26.787  1.00  0.00    +0.000 H 
ATOM     18  C14 UNL A   1      38.526  29.299  28.764  1.00  0.00    +0.000 C 
ATOM    122  H31 UNL A   1      37.669  28.771  30.626  1.00  0.00    +0.000 H 
ATOM    123  H32 UNL A   1      35.394  29.296  29.977  1.00  0.00    +0.000 H 
BRANCH   15   13
ATOM     13  C10 UNL A   1      34.581  30.567  27.748  1.00  0.00    +0.000 C 
ATOM     14  O2  UNL A   1      33.876  29.955  26.952  1.00  0.00    +0.000 O 
BRANCH   13   12
ATOM     12  N2  UNL A   1      34.142  31.733  28.325  1.00  0.00    +0.000 N 
ATOM    109  H18 UNL A   1      33.305  31.668  28.841  1.00  0.00    +0.000 H 
BRANCH   12   11
ATOM     11  C9  UNL A   1      34.751  33.053  28.272  1.00  0.00    +0.000 C 
ATOM    108  H17 UNL A   1      34.030  33.729  27.863  1.00  0.00    +0.000 H 
ATOM    107  H16 UNL A   1      35.629  33.002  27.663  1.00  0.00    +0.000 H 
BRANCH   11   10
ATOM    105  H14 UNL A   1      36.210  33.583  29.714  1.00  0.00    +0.000 H 
ATOM     10  C8  UNL A   1      35.142  33.568  29.653  1.00  0.00    +0.000 C 
ATOM    106  H15 UNL A   1      34.702  34.539  29.749  1.00  0.00    +0.000 H 
BRANCH   10    9
ATOM      9  C7  UNL A   1      34.609  32.733  30.818  1.00  0.00    +0.000 C 
ATOM    103  H12 UNL A   1      34.001  33.367  31.430  1.00  0.00    +0.000 H 
ATOM    104  H13 UNL A   1      34.069  31.920  30.380  1.00  0.00    +0.000 H 
BRANCH    9    8
ATOM    101  H10 UNL A   1      35.419  32.288  32.728  1.00  0.00    +0.000 H 
ATOM    102  H11 UNL A   1      35.706  31.064  31.452  1.00  0.00    +0.000 H 
ATOM      8  C6  UNL A   1      35.684  32.102  31.708  1.00  0.00    +0.000 C 
BRANCH    8    7
ATOM     99  H8  UNL A   1      37.777  31.784  31.486  1.00  0.00    +0.000 H 
ATOM    100  H9  UNL A   1      37.103  33.150  30.555  1.00  0.00    +0.000 H 
ATOM      7  C5  UNL A   1      37.112  32.622  31.487  1.00  0.00    +0.000 C 
BRANCH    7    6
ATOM     97  H6  UNL A   1      37.700  34.584  32.102  1.00  0.00    +0.000 H 
ATOM     98  H7  UNL A   1      36.878  33.651  33.342  1.00  0.00    +0.000 H 
ATOM      6  C4  UNL A   1      37.596  33.617  32.549  1.00  0.00    +0.000 C 
BRANCH    6    5
ATOM      5  N1  UNL A   1      38.873  33.201  33.092  1.00  0.00    +0.000 N 
ATOM     96  H5  UNL A   1      39.644  33.296  32.489  1.00  0.00    +0.000 H 
BRANCH    5    3
ATOM      3  C3  UNL A   1      39.147  32.694  34.331  1.00  0.00    +0.000 C 
ATOM      4  O1  UNL A   1      39.946  33.330  35.024  1.00  0.00    +0.000 O 
BRANCH    3    2
ATOM      2  C2  UNL A   1      38.524  31.352  34.773  1.00  0.00    +0.000 C 
ATOM     95  H4  UNL A   1      37.489  31.333  34.502  1.00  0.00    +0.000 H 
BRANCH    2    1
ATOM      1  C1  UNL A   1      38.591  31.226  36.299  1.00  0.00    +0.000 C 
ATOM     92  H1  UNL A   1      38.295  32.153  36.746  1.00  0.00    +0.000 H 
ATOM     93  H2  UNL A   1      39.593  30.992  36.594  1.00  0.00    +0.000 H 
ATOM     94  H3  UNL A   1      37.932  30.448  36.623  1.00  0.00    +0.000 H 
ENDBRANCH    2    1
BRANCH    2   78
ATOM    132  H41 UNL A   1      41.113  30.574  34.715  1.00  0.00    +0.000 H 
ATOM     78  C55 UNL A   1      39.153  30.164  34.028  1.00  0.00    +0.000 C 
ATOM     79  C56 UNL A   1      38.419  29.306  33.194  1.00  0.00    +0.000 C 
ATOM     80  C57 UNL A   1      39.020  28.198  32.593  1.00  0.00    +0.000 C 
ATOM     81  C58 UNL A   1      40.364  27.915  32.831  1.00  0.00    +0.000 C 
ATOM     82  C59 UNL A   1      41.127  28.759  33.641  1.00  0.00    +0.000 C 
ATOM     91  C67 UNL A   1      40.531  29.905  34.187  1.00  0.00    +0.000 C 
ATOM    124  H33 UNL A   1      37.420  29.498  33.022  1.00  0.00    +0.000 H 
ATOM    125  H34 UNL A   1      38.468  27.586  31.974  1.00  0.00    +0.000 H 
ATOM    126  H35 UNL A   1      40.796  27.080  32.406  1.00  0.00    +0.000 H 
BRANCH   82   83
ATOM     83  C60 UNL A   1      42.557  28.410  33.872  1.00  0.00    +0.000 C 
ATOM     84  O3  UNL A   1      43.366  29.302  34.125  1.00  0.00    +0.000 O 
BRANCH   83   85
ATOM    129  H38 UNL A   1      44.187  23.361  33.872  1.00  0.00    +0.000 H 
ATOM    130  H39 UNL A   1      44.944  24.852  32.116  1.00  0.00    +0.000 H 
ATOM    131  H40 UNL A   1      44.241  27.179  32.105  1.00  0.00    +0.000 H 
ATOM     85  C61 UNL A   1      43.047  27.011  33.844  1.00  0.00    +0.000 C 
ATOM     86  C62 UNL A   1      42.643  26.155  34.877  1.00  0.00    +0.000 C 
ATOM     87  C63 UNL A   1      43.059  24.825  34.886  1.00  0.00    +0.000 C 
ATOM     88  C64 UNL A   1      43.890  24.349  33.872  1.00  0.00    +0.000 C 
ATOM     89  C65 UNL A   1      44.321  25.206  32.859  1.00  0.00    +0.000 C 
ATOM     90  C66 UNL A   1      43.910  26.541  32.846  1.00  0.00    +0.000 C 
ATOM    127  H36 UNL A   1      42.036  26.511  35.632  1.00  0.00    +0.000 H 
ATOM    128  H37 UNL A   1      42.751  24.193  35.641  1.00  0.00    +0.000 H 
ENDBRANCH   83   85
ENDBRANCH   82   83
ENDBRANCH    2   78
ENDBRANCH    3    2
ENDBRANCH    5    3
ENDBRANCH    6    5
ENDBRANCH    7    6
ENDBRANCH    8    7
ENDBRANCH    9    8
ENDBRANCH   10    9
ENDBRANCH   11   10
ENDBRANCH   12   11
ENDBRANCH   13   12
ENDBRANCH   15   13
ENDBRANCH   19   18
BRANCH   23   24
ATOM     33  C24 UNL A   1      43.941  33.930  31.125  1.00  0.00    +0.000 C 
ATOM     34  F5  UNL A   1      44.267  33.755  29.837  1.00  0.00    +0.000 F 
ATOM     24  C19 UNL A   1      43.562  32.834  31.916  1.00  0.00    +0.000 C 
ATOM     25  C20 UNL A   1      43.238  33.075  33.260  1.00  0.00    +0.000 C 
ATOM     26  F1  UNL A   1      42.856  32.064  34.054  1.00  0.00    +0.000 F 
ATOM     27  C21 UNL A   1      43.251  34.368  33.779  1.00  0.00    +0.000 C 
ATOM     28  F2  UNL A   1      42.876  34.581  35.048  1.00  0.00    +0.000 F 
ATOM     29  C22 UNL A   1      43.628  35.435  32.978  1.00  0.00    +0.000 C 
ATOM     30  F3  UNL A   1      43.637  36.679  33.479  1.00  0.00    +0.000 F 
ATOM     31  C23 UNL A   1      43.984  35.217  31.657  1.00  0.00    +0.000 C 
ATOM     32  F4  UNL A   1      44.359  36.247  30.885  1.00  0.00    +0.000 F 
ENDBRANCH   23   24
BRANCH   40   41
ATOM     41  C30 UNL A   1      48.015  27.300  30.713  1.00  0.00    +0.000 C 
ATOM     42  C31 UNL A   1      49.054  27.610  29.824  1.00  0.00    +0.000 C 
ATOM     43  F6  UNL A   1      48.779  28.160  28.631  1.00  0.00    +0.000 F 
ATOM     44  C32 UNL A   1      50.379  27.339  30.153  1.00  0.00    +0.000 C 
ATOM     45  F7  UNL A   1      51.356  27.621  29.281  1.00  0.00    +0.000 F 
ATOM     46  C33 UNL A   1      50.690  26.776  31.382  1.00  0.00    +0.000 C 
ATOM     47  F8  UNL A   1      51.968  26.531  31.705  1.00  0.00    +0.000 F 
ATOM     48  C34 UNL A   1      49.678  26.464  32.277  1.00  0.00    +0.000 C 
ATOM     49  F9  UNL A   1      49.977  25.930  33.470  1.00  0.00    +0.000 F 
ATOM     50  C35 UNL A   1      48.351  26.713  31.942  1.00  0.00    +0.000 C 
ATOM     51  F10 UNL A   1      47.391  26.404  32.827  1.00  0.00    +0.000 F 
ENDBRANCH   40   41
BRANCH   55   56
ATOM     65  C44 UNL A   1      42.492  22.768  28.052  1.00  0.00    +0.000 C 
ATOM     66  F15 UNL A   1      42.187  22.775  29.358  1.00  0.00    +0.000 F 
ATOM     56  C39 UNL A   1      42.851  23.960  27.407  1.00  0.00    +0.000 C 
ATOM     57  C40 UNL A   1      43.171  23.897  26.045  1.00  0.00    +0.000 C 
ATOM     58  F11 UNL A   1      43.503  25.016  25.385  1.00  0.00    +0.000 F 
ATOM     59  C41 UNL A   1      43.128  22.690  25.352  1.00  0.00    +0.000 C 
ATOM     60  F12 UNL A   1      43.415  22.661  24.043  1.00  0.00    +0.000 F 
ATOM     61  C42 UNL A   1      42.787  21.519  26.012  1.00  0.00    +0.000 C 
ATOM     62  F13 UNL A   1      42.762  20.356  25.348  1.00  0.00    +0.000 F 
ATOM     63  C43 UNL A   1      42.471  21.557  27.363  1.00  0.00    +0.000 C 
ATOM     64  F14 UNL A   1      42.156  20.426  28.008  1.00  0.00    +0.000 F 
ENDBRANCH   55   56
TORSDOF 19
ENDMDL
