MODEL 1
REMARK VINA RESULT:     -10.6      0.000      0.000
ROOT
ATOM     19  C15 UNL A   1      40.664  27.950  28.492  1.00  0.00    +0.000 C 
ATOM     20  C16 UNL A   1      42.115  28.173  28.819  1.00  0.00    +0.000 C 
ATOM     21  N3  UNL A   1      42.692  29.214  29.364  1.00  0.00    +0.000 N 
ATOM     22  C17 UNL A   1      44.034  28.881  29.487  1.00  0.00    +0.000 C 
ATOM     23  C18 UNL A   1      45.058  29.645  29.937  1.00  0.00    +0.000 C 
ATOM     35  C25 UNL A   1      44.916  31.007  30.383  1.00  0.00    +0.000 C 
ATOM     36  C26 UNL A   1      45.899  31.889  30.793  1.00  0.00    +0.000 C 
ATOM     37  C27 UNL A   1      45.283  33.086  31.173  1.00  0.00    +0.000 C 
ATOM     38  C28 UNL A   1      43.920  32.966  30.957  1.00  0.00    +0.000 C 
ATOM     39  N4  UNL A   1      43.708  31.683  30.476  1.00  0.00    +0.000 N 
ATOM     40  C29 UNL A   1      42.886  33.946  31.173  1.00  0.00    +0.000 C 
ATOM     52  C36 UNL A   1      41.567  33.751  30.931  1.00  0.00    +0.000 C 
ATOM     53  N5  UNL A   1      40.928  32.623  30.433  1.00  0.00    +0.000 N 
ATOM     54  C37 UNL A   1      39.652  32.922  30.389  1.00  0.00    +0.000 C 
ATOM     55  C38 UNL A   1      38.497  32.091  29.900  1.00  0.00    +0.000 C 
ATOM     67  C45 UNL A   1      38.731  30.853  29.427  1.00  0.00    +0.000 C 
ATOM     68  C46 UNL A   1      37.720  29.937  28.907  1.00  0.00    +0.000 C 
ATOM     69  C47 UNL A   1      38.315  28.790  28.539  1.00  0.00    +0.000 C 
ATOM     70  C48 UNL A   1      39.756  28.904  28.769  1.00  0.00    +0.000 C 
ATOM     71  N6  UNL A   1      39.909  30.156  29.309  1.00  0.00    +0.000 N 
ATOM     72  C49 UNL A   1      39.334  34.267  30.888  1.00  0.00    +0.000 C 
ATOM     73  C50 UNL A   1      40.539  34.743  31.165  1.00  0.00    +0.000 C 
ATOM     74  C51 UNL A   1      44.179  27.524  29.006  1.00  0.00    +0.000 C 
ATOM     75  C52 UNL A   1      43.037  27.066  28.516  1.00  0.00    +0.000 C 
ATOM    112  H21 UNL A   1      46.914  31.697  30.814  1.00  0.00    +0.000 H 
ATOM    113  H22 UNL A   1      45.763  33.918  31.552  1.00  0.00    +0.000 H 
ATOM    114  H23 UNL A   1      42.831  31.308  30.236  1.00  0.00    +0.000 H 
ATOM    115  H24 UNL A   1      36.711  30.139  28.834  1.00  0.00    +0.000 H 
ATOM    116  H25 UNL A   1      37.833  27.962  28.156  1.00  0.00    +0.000 H 
ATOM    117  H26 UNL A   1      40.781  30.520  29.587  1.00  0.00    +0.000 H 
ATOM    118  H27 UNL A   1      38.413  34.721  30.994  1.00  0.00    +0.000 H 
ATOM    119  H28 UNL A   1      40.721  35.701  31.505  1.00  0.00    +0.000 H 
ATOM    120  H29 UNL A   1      45.058  26.983  29.042  1.00  0.00    +0.000 H 
ATOM    121  H30 UNL A   1      42.844  26.169  28.045  1.00  0.00    +0.000 H 
ENDROOT
BRANCH   19   18
ATOM     76  C53 UNL A   1      40.551  26.336  26.592  1.00  0.00    +0.000 C 
ATOM     77  C54 UNL A   1      40.104  25.146  26.024  1.00  0.00    +0.000 C 
ATOM    110  H19 UNL A   1      38.529  23.856  28.693  1.00  0.00    +0.000 H 
ATOM     15  C11 UNL A   1      39.410  24.216  26.807  1.00  0.00    +0.000 C 
ATOM     16  C12 UNL A   1      39.068  24.528  28.126  1.00  0.00    +0.000 C 
ATOM     17  C13 UNL A   1      39.458  25.751  28.673  1.00  0.00    +0.000 C 
ATOM    111  H20 UNL A   1      39.182  25.993  29.638  1.00  0.00    +0.000 H 
ATOM     18  C14 UNL A   1      40.221  26.656  27.917  1.00  0.00    +0.000 C 
ATOM    122  H31 UNL A   1      41.127  26.985  26.035  1.00  0.00    +0.000 H 
ATOM    123  H32 UNL A   1      40.283  24.950  25.027  1.00  0.00    +0.000 H 
BRANCH   15   13
ATOM     13  C10 UNL A   1      38.998  22.908  26.255  1.00  0.00    +0.000 C 
ATOM     14  O2  UNL A   1      39.683  21.913  26.468  1.00  0.00    +0.000 O 
BRANCH   13   12
ATOM     12  N2  UNL A   1      37.860  22.809  25.495  1.00  0.00    +0.000 N 
ATOM    109  H18 UNL A   1      38.002  22.581  24.548  1.00  0.00    +0.000 H 
BRANCH   12   11
ATOM     11  C9  UNL A   1      36.474  22.995  25.890  1.00  0.00    +0.000 C 
ATOM    108  H17 UNL A   1      36.466  23.415  26.875  1.00  0.00    +0.000 H 
ATOM    107  H16 UNL A   1      35.978  22.047  25.868  1.00  0.00    +0.000 H 
BRANCH   11   10
ATOM    105  H14 UNL A   1      36.431  24.699  24.630  1.00  0.00    +0.000 H 
ATOM     10  C8  UNL A   1      35.736  23.957  24.965  1.00  0.00    +0.000 C 
ATOM    106  H15 UNL A   1      35.337  23.365  24.168  1.00  0.00    +0.000 H 
BRANCH   10    9
ATOM      9  C7  UNL A   1      34.548  24.674  25.610  1.00  0.00    +0.000 C 
ATOM    103  H12 UNL A   1      33.710  24.009  25.594  1.00  0.00    +0.000 H 
ATOM    104  H13 UNL A   1      34.858  24.939  26.599  1.00  0.00    +0.000 H 
BRANCH    9    8
ATOM    101  H10 UNL A   1      34.971  26.347  24.374  1.00  0.00    +0.000 H 
ATOM    102  H11 UNL A   1      33.289  25.741  24.313  1.00  0.00    +0.000 H 
ATOM      8  C6  UNL A   1      34.132  25.981  24.926  1.00  0.00    +0.000 C 
BRANCH    8    7
ATOM     99  H8  UNL A   1      32.684  26.850  26.224  1.00  0.00    +0.000 H 
ATOM    100  H9  UNL A   1      34.382  27.142  26.671  1.00  0.00    +0.000 H 
ATOM      7  C5  UNL A   1      33.666  27.093  25.878  1.00  0.00    +0.000 C 
BRANCH    7    6
ATOM     97  H6  UNL A   1      33.269  29.190  25.955  1.00  0.00    +0.000 H 
ATOM     98  H7  UNL A   1      34.605  28.742  24.908  1.00  0.00    +0.000 H 
ATOM      6  C4  UNL A   1      33.620  28.481  25.234  1.00  0.00    +0.000 C 
BRANCH    6    5
ATOM      5  N1  UNL A   1      32.734  28.486  24.091  1.00  0.00    +0.000 N 
ATOM     96  H5  UNL A   1      33.167  28.309  23.224  1.00  0.00    +0.000 H 
BRANCH    5    3
ATOM      3  C3  UNL A   1      31.386  28.698  24.035  1.00  0.00    +0.000 C 
ATOM      4  O1  UNL A   1      30.944  29.637  24.698  1.00  0.00    +0.000 O 
BRANCH    3    2
ATOM      2  C2  UNL A   1      30.499  27.734  23.237  1.00  0.00    +0.000 C 
ATOM     95  H4  UNL A   1      30.840  27.786  22.224  1.00  0.00    +0.000 H 
BRANCH    2    1
ATOM      1  C1  UNL A   1      29.023  28.149  23.204  1.00  0.00    +0.000 C 
ATOM     92  H1  UNL A   1      28.686  28.182  22.189  1.00  0.00    +0.000 H 
ATOM     93  H2  UNL A   1      28.915  29.116  23.648  1.00  0.00    +0.000 H 
ATOM     94  H3  UNL A   1      28.440  27.438  23.751  1.00  0.00    +0.000 H 
ENDBRANCH    2    1
BRANCH    2   78
ATOM    137  H46 UNL A   1      31.791  23.286  22.767  1.00  0.00    +0.000 H 
ATOM     78  C55 UNL A   1      30.663  26.302  23.725  1.00  0.00    +0.000 C 
ATOM     79  C56 UNL A   1      30.259  25.956  25.022  1.00  0.00    +0.000 C 
ATOM     80  C57 UNL A   1      30.462  24.661  25.506  1.00  0.00    +0.000 C 
ATOM     81  C58 UNL A   1      31.094  23.692  24.718  1.00  0.00    +0.000 C 
ATOM     89  C65 UNL A   1      31.402  24.010  23.390  1.00  0.00    +0.000 C 
ATOM     90  C66 UNL A   1      31.186  25.296  22.908  1.00  0.00    +0.000 C 
ATOM     91  F16 UNL A   1      31.535  25.560  21.641  1.00  0.00    +0.000 F 
ATOM    124  H33 UNL A   1      29.808  26.662  25.623  1.00  0.00    +0.000 H 
ATOM    125  H34 UNL A   1      30.143  24.416  26.456  1.00  0.00    +0.000 H 
BRANCH   81   82
ATOM     82  C59 UNL A   1      31.463  22.343  25.278  1.00  0.00    +0.000 C 
ATOM    126  H35 UNL A   1      30.625  21.695  25.132  1.00  0.00    +0.000 H 
ATOM    127  H36 UNL A   1      31.724  22.533  26.298  1.00  0.00    +0.000 H 
BRANCH   82   83
ATOM    129  H38 UNL A   1      33.167  20.832  22.740  1.00  0.00    +0.000 H 
ATOM    130  H39 UNL A   1      31.469  20.942  23.049  1.00  0.00    +0.000 H 
ATOM    131  H40 UNL A   1      33.098  18.674  23.446  1.00  0.00    +0.000 H 
ATOM    132  H41 UNL A   1      31.461  18.834  23.974  1.00  0.00    +0.000 H 
ATOM    133  H42 UNL A   1      33.654  18.596  25.660  1.00  0.00    +0.000 H 
ATOM    134  H43 UNL A   1      32.129  19.192  26.172  1.00  0.00    +0.000 H 
ATOM    135  H44 UNL A   1      34.564  20.741  25.315  1.00  0.00    +0.000 H 
ATOM     83  C60 UNL A   1      32.704  21.637  24.680  1.00  0.00    +0.000 C 
ATOM     84  C61 UNL A   1      32.414  20.711  23.491  1.00  0.00    +0.000 C 
ATOM     85  C62 UNL A   1      32.433  19.277  24.028  1.00  0.00    +0.000 C 
ATOM     86  C63 UNL A   1      32.921  19.352  25.471  1.00  0.00    +0.000 C 
ATOM     87  C64 UNL A   1      33.535  20.741  25.604  1.00  0.00    +0.000 C 
ATOM    128  H37 UNL A   1      33.245  22.523  24.419  1.00  0.00    +0.000 H 
BRANCH   87   88
ATOM    136  H45 UNL A   1      32.766  21.626  27.178  1.00  0.00    +0.000 H 
ATOM     88  O3  UNL A   1      33.605  21.202  26.938  1.00  0.00    +0.000 O 
ENDBRANCH   87   88
ENDBRANCH   82   83
ENDBRANCH   81   82
ENDBRANCH    2   78
ENDBRANCH    3    2
ENDBRANCH    5    3
ENDBRANCH    6    5
ENDBRANCH    7    6
ENDBRANCH    8    7
ENDBRANCH    9    8
ENDBRANCH   10    9
ENDBRANCH   11   10
ENDBRANCH   12   11
ENDBRANCH   13   12
ENDBRANCH   15   13
ENDBRANCH   19   18
BRANCH   23   24
ATOM     33  C24 UNL A   1      46.884  28.375  31.126  1.00  0.00    +0.000 C 
ATOM     34  F5  UNL A   1      46.100  28.289  32.211  1.00  0.00    +0.000 F 
ATOM     24  C19 UNL A   1      46.424  29.024  29.970  1.00  0.00    +0.000 C 
ATOM     25  C20 UNL A   1      47.288  29.087  28.866  1.00  0.00    +0.000 C 
ATOM     26  F1  UNL A   1      46.893  29.685  27.732  1.00  0.00    +0.000 F 
ATOM     27  C21 UNL A   1      48.548  28.494  28.907  1.00  0.00    +0.000 C 
ATOM     28  F2  UNL A   1      49.334  28.521  27.821  1.00  0.00    +0.000 F 
ATOM     29  C22 UNL A   1      48.982  27.862  30.061  1.00  0.00    +0.000 C 
ATOM     30  F3  UNL A   1      50.196  27.294  30.100  1.00  0.00    +0.000 F 
ATOM     31  C23 UNL A   1      48.155  27.809  31.173  1.00  0.00    +0.000 C 
ATOM     32  F4  UNL A   1      48.579  27.209  32.294  1.00  0.00    +0.000 F 
ENDBRANCH   23   24
BRANCH   40   41
ATOM     41  C30 UNL A   1      43.298  35.297  31.678  1.00  0.00    +0.000 C 
ATOM     42  C31 UNL A   1      43.709  36.315  30.806  1.00  0.00    +0.000 C 
ATOM     43  F6  UNL A   1      43.784  36.084  29.487  1.00  0.00    +0.000 F 
ATOM     44  C32 UNL A   1      44.084  37.565  31.293  1.00  0.00    +0.000 C 
ATOM     45  F7  UNL A   1      44.520  38.508  30.446  1.00  0.00    +0.000 F 
ATOM     46  C33 UNL A   1      44.024  37.830  32.653  1.00  0.00    +0.000 C 
ATOM     47  F8  UNL A   1      44.381  39.034  33.119  1.00  0.00    +0.000 F 
ATOM     48  C34 UNL A   1      43.601  36.843  33.531  1.00  0.00    +0.000 C 
ATOM     49  F9  UNL A   1      43.530  37.101  34.845  1.00  0.00    +0.000 F 
ATOM     50  C35 UNL A   1      43.253  35.584  33.051  1.00  0.00    +0.000 C 
ATOM     51  F10 UNL A   1      42.862  34.646  33.926  1.00  0.00    +0.000 F 
ENDBRANCH   40   41
BRANCH   55   56
ATOM     65  C44 UNL A   1      36.617  33.354  28.796  1.00  0.00    +0.000 C 
ATOM     66  F15 UNL A   1      37.392  33.566  27.723  1.00  0.00    +0.000 F 
ATOM     56  C39 UNL A   1      37.116  32.638  29.893  1.00  0.00    +0.000 C 
ATOM     57  C40 UNL A   1      36.267  32.448  30.992  1.00  0.00    +0.000 C 
ATOM     58  F11 UNL A   1      36.693  31.751  32.056  1.00  0.00    +0.000 F 
ATOM     59  C41 UNL A   1      34.963  32.938  30.987  1.00  0.00    +0.000 C 
ATOM     60  F12 UNL A   1      34.157  32.705  32.032  1.00  0.00    +0.000 F 
ATOM     61  C42 UNL A   1      34.492  33.651  29.894  1.00  0.00    +0.000 C 
ATOM     62  F13 UNL A   1      33.239  34.125  29.889  1.00  0.00    +0.000 F 
ATOM     63  C43 UNL A   1      35.321  33.865  28.802  1.00  0.00    +0.000 C 
ATOM     64  F14 UNL A   1      34.875  34.565  27.750  1.00  0.00    +0.000 F 
ENDBRANCH   55   56
TORSDOF 20
ENDMDL
MODEL 2
REMARK VINA RESULT:     -10.6     20.778     24.791
ROOT
ATOM     19  C15 UNL A   1      53.446  19.656  11.672  1.00  0.00    +0.000 C 
ATOM     20  C16 UNL A   1      54.817  19.051  11.549  1.00  0.00    +0.000 C 
ATOM     21  N3  UNL A   1      55.805  19.053  12.409  1.00  0.00    +0.000 N 
ATOM     22  C17 UNL A   1      56.821  18.314  11.818  1.00  0.00    +0.000 C 
ATOM     23  C18 UNL A   1      58.071  18.076  12.280  1.00  0.00    +0.000 C 
ATOM     35  C25 UNL A   1      58.584  18.582  13.527  1.00  0.00    +0.000 C 
ATOM     36  C26 UNL A   1      59.857  18.455  14.054  1.00  0.00    +0.000 C 
ATOM     37  C27 UNL A   1      59.876  19.075  15.308  1.00  0.00    +0.000 C 
ATOM     38  C28 UNL A   1      58.627  19.628  15.543  1.00  0.00    +0.000 C 
ATOM     39  N4  UNL A   1      57.843  19.314  14.444  1.00  0.00    +0.000 N 
ATOM     40  C29 UNL A   1      58.180  20.385  16.684  1.00  0.00    +0.000 C 
ATOM     52  C36 UNL A   1      56.936  20.898  16.838  1.00  0.00    +0.000 C 
ATOM     53  N5  UNL A   1      55.851  20.832  15.974  1.00  0.00    +0.000 N 
ATOM     54  C37 UNL A   1      54.874  21.470  16.572  1.00  0.00    +0.000 C 
ATOM     55  C38 UNL A   1      53.477  21.743  16.084  1.00  0.00    +0.000 C 
ATOM     67  C45 UNL A   1      53.106  21.298  14.870  1.00  0.00    +0.000 C 
ATOM     68  C46 UNL A   1      51.796  21.497  14.257  1.00  0.00    +0.000 C 
ATOM     69  C47 UNL A   1      51.782  20.904  13.051  1.00  0.00    +0.000 C 
ATOM     70  C48 UNL A   1      53.095  20.311  12.795  1.00  0.00    +0.000 C 
ATOM     71  N6  UNL A   1      53.811  20.583  13.933  1.00  0.00    +0.000 N 
ATOM     72  C49 UNL A   1      55.222  21.987  17.903  1.00  0.00    +0.000 C 
ATOM     73  C50 UNL A   1      56.499  21.648  17.998  1.00  0.00    +0.000 C 
ATOM     74  C51 UNL A   1      56.314  17.836  10.550  1.00  0.00    +0.000 C 
ATOM     75  C52 UNL A   1      55.107  18.322  10.304  1.00  0.00    +0.000 C 
ATOM    112  H21 UNL A   1      60.655  17.984  13.600  1.00  0.00    +0.000 H 
ATOM    113  H22 UNL A   1      60.683  19.112  15.950  1.00  0.00    +0.000 H 
ATOM    114  H23 UNL A   1      56.900  19.572  14.331  1.00  0.00    +0.000 H 
ATOM    115  H24 UNL A   1      51.008  22.010  14.681  1.00  0.00    +0.000 H 
ATOM    116  H25 UNL A   1      50.975  20.873  12.409  1.00  0.00    +0.000 H 
ATOM    117  H26 UNL A   1      54.743  20.292  14.066  1.00  0.00    +0.000 H 
ATOM    118  H27 UNL A   1      54.627  22.482  18.585  1.00  0.00    +0.000 H 
ATOM    119  H28 UNL A   1      57.107  21.889  18.797  1.00  0.00    +0.000 H 
ATOM    120  H29 UNL A   1      56.827  17.199   9.920  1.00  0.00    +0.000 H 
ATOM    121  H30 UNL A   1      54.523  18.218   9.460  1.00  0.00    +0.000 H 
ENDROOT
BRANCH   19   18
ATOM     76  C53 UNL A   1      51.693  18.309  10.513  1.00  0.00    +0.000 C 
ATOM     77  C54 UNL A   1      50.793  18.112   9.469  1.00  0.00    +0.000 C 
ATOM    110  H19 UNL A   1      51.190  21.045   7.884  1.00  0.00    +0.000 H 
ATOM     15  C11 UNL A   1      50.570  19.133   8.539  1.00  0.00    +0.000 C 
ATOM     16  C12 UNL A   1      51.331  20.305   8.589  1.00  0.00    +0.000 C 
ATOM     17  C13 UNL A   1      52.283  20.472   9.597  1.00  0.00    +0.000 C 
ATOM    111  H20 UNL A   1      52.863  21.325   9.619  1.00  0.00    +0.000 H 
ATOM     18  C14 UNL A   1      52.456  19.484  10.581  1.00  0.00    +0.000 C 
ATOM    122  H31 UNL A   1      51.799  17.585  11.242  1.00  0.00    +0.000 H 
ATOM    123  H32 UNL A   1      50.291  17.215   9.382  1.00  0.00    +0.000 H 
BRANCH   15   13
ATOM     13  C10 UNL A   1      49.559  18.987   7.470  1.00  0.00    +0.000 C 
ATOM     14  O2  UNL A   1      49.769  18.223   6.533  1.00  0.00    +0.000 O 
BRANCH   13   12
ATOM     12  N2  UNL A   1      48.396  19.713   7.519  1.00  0.00    +0.000 N 
ATOM    109  H18 UNL A   1      47.693  19.346   8.101  1.00  0.00    +0.000 H 
BRANCH   12   11
ATOM     11  C9  UNL A   1      48.056  20.948   6.832  1.00  0.00    +0.000 C 
ATOM    108  H17 UNL A   1      48.871  21.630   6.958  1.00  0.00    +0.000 H 
ATOM    107  H16 UNL A   1      47.153  21.339   7.251  1.00  0.00    +0.000 H 
BRANCH   11   10
ATOM    105  H14 UNL A   1      47.598  21.676   4.895  1.00  0.00    +0.000 H 
ATOM     10  C8  UNL A   1      47.852  20.735   5.336  1.00  0.00    +0.000 C 
ATOM    106  H15 UNL A   1      48.767  20.329   4.959  1.00  0.00    +0.000 H 
BRANCH   10    9
ATOM      9  C7  UNL A   1      46.754  19.730   4.980  1.00  0.00    +0.000 C 
ATOM    103  H12 UNL A   1      46.290  19.409   5.889  1.00  0.00    +0.000 H 
ATOM    104  H13 UNL A   1      46.083  20.241   4.321  1.00  0.00    +0.000 H 
BRANCH    9    8
ATOM    101  H10 UNL A   1      48.074  18.767   3.626  1.00  0.00    +0.000 H 
ATOM    102  H11 UNL A   1      47.465  17.756   4.971  1.00  0.00    +0.000 H 
ATOM      8  C6  UNL A   1      47.234  18.487   4.225  1.00  0.00    +0.000 C 
BRANCH    8    7
ATOM     99  H8  UNL A   1      46.427  18.096   2.293  1.00  0.00    +0.000 H 
ATOM    100  H9  UNL A   1      46.227  16.786   3.482  1.00  0.00    +0.000 H 
ATOM      7  C5  UNL A   1      46.188  17.841   3.304  1.00  0.00    +0.000 C 
BRANCH    7    6
ATOM     97  H6  UNL A   1      44.310  17.615   4.296  1.00  0.00    +0.000 H 
ATOM     98  H7  UNL A   1      44.771  19.280   3.982  1.00  0.00    +0.000 H 
ATOM      6  C4  UNL A   1      44.751  18.286   3.588  1.00  0.00    +0.000 C 
BRANCH    6    5
ATOM      5  N1  UNL A   1      43.965  18.281   2.373  1.00  0.00    +0.000 N 
ATOM     96  H5  UNL A   1      44.335  17.743   1.636  1.00  0.00    +0.000 H 
BRANCH    5    3
ATOM      3  C3  UNL A   1      42.785  18.911   2.098  1.00  0.00    +0.000 C 
ATOM      4  O1  UNL A   1      41.772  18.446   2.623  1.00  0.00    +0.000 O 
BRANCH    3    2
ATOM      2  C2  UNL A   1      42.763  20.085   1.112  1.00  0.00    +0.000 C 
ATOM     95  H4  UNL A   1      43.310  19.760   0.251  1.00  0.00    +0.000 H 
BRANCH    2    1
ATOM      1  C1  UNL A   1      43.496  21.330   1.628  1.00  0.00    +0.000 C 
ATOM     92  H1  UNL A   1      44.527  21.277   1.347  1.00  0.00    +0.000 H 
ATOM     93  H2  UNL A   1      43.419  21.372   2.694  1.00  0.00    +0.000 H 
ATOM     94  H3  UNL A   1      43.054  22.206   1.203  1.00  0.00    +0.000 H 
ENDBRANCH    2    1
BRANCH    2   78
ATOM    137  H46 UNL A   1      39.079  19.768  -1.717  1.00  0.00    +0.000 H 
ATOM     78  C55 UNL A   1      41.342  20.416   0.680  1.00  0.00    +0.000 C 
ATOM     79  C56 UNL A   1      40.558  21.274   1.463  1.00  0.00    +0.000 C 
ATOM     80  C57 UNL A   1      39.230  21.537   1.114  1.00  0.00    +0.000 C 
ATOM     81  C58 UNL A   1      38.651  20.929  -0.007  1.00  0.00    +0.000 C 
ATOM     89  C65 UNL A   1      39.464  20.156  -0.842  1.00  0.00    +0.000 C 
ATOM     90  C66 UNL A   1      40.789  19.909  -0.499  1.00  0.00    +0.000 C 
ATOM     91  F16 UNL A   1      41.515  19.129  -1.312  1.00  0.00    +0.000 F 
ATOM    124  H33 UNL A   1      40.963  21.716   2.302  1.00  0.00    +0.000 H 
ATOM    125  H34 UNL A   1      38.670  22.185   1.689  1.00  0.00    +0.000 H 
BRANCH   81   82
ATOM     82  C59 UNL A   1      37.181  21.074  -0.306  1.00  0.00    +0.000 C 
ATOM    126  H35 UNL A   1      36.645  20.816   0.584  1.00  0.00    +0.000 H 
ATOM    127  H36 UNL A   1      37.009  20.435  -1.146  1.00  0.00    +0.000 H 
BRANCH   82   83
ATOM    129  H38 UNL A   1      35.303  23.896   0.068  1.00  0.00    +0.000 H 
ATOM    130  H39 UNL A   1      35.039  22.283   0.634  1.00  0.00    +0.000 H 
ATOM    131  H40 UNL A   1      33.724  23.535  -1.523  1.00  0.00    +0.000 H 
ATOM    132  H41 UNL A   1      33.613  21.858  -1.121  1.00  0.00    +0.000 H 
ATOM    133  H42 UNL A   1      34.748  22.858  -3.450  1.00  0.00    +0.000 H 
ATOM    134  H43 UNL A   1      35.037  21.272  -2.863  1.00  0.00    +0.000 H 
ATOM    135  H44 UNL A   1      36.709  23.748  -2.499  1.00  0.00    +0.000 H 
ATOM     83  C60 UNL A   1      36.679  22.466  -0.761  1.00  0.00    +0.000 C 
ATOM     84  C61 UNL A   1      35.299  22.866  -0.223  1.00  0.00    +0.000 C 
ATOM     85  C62 UNL A   1      34.295  22.645  -1.360  1.00  0.00    +0.000 C 
ATOM     86  C63 UNL A   1      35.107  22.308  -2.606  1.00  0.00    +0.000 C 
ATOM     87  C64 UNL A   1      36.535  22.720  -2.266  1.00  0.00    +0.000 C 
ATOM    128  H37 UNL A   1      37.487  23.036  -0.353  1.00  0.00    +0.000 H 
BRANCH   87   88
ATOM    136  H45 UNL A   1      37.296  21.127  -3.124  1.00  0.00    +0.000 H 
ATOM     88  O3  UNL A   1      37.513  22.070  -3.053  1.00  0.00    +0.000 O 
ENDBRANCH   87   88
ENDBRANCH   82   83
ENDBRANCH   81   82
ENDBRANCH    2   78
ENDBRANCH    3    2
ENDBRANCH    5    3
ENDBRANCH    6    5
ENDBRANCH    7    6
ENDBRANCH    8    7
ENDBRANCH    9    8
ENDBRANCH   10    9
ENDBRANCH   11   10
ENDBRANCH   12   11
ENDBRANCH   13   12
ENDBRANCH   15   13
ENDBRANCH   19   18
BRANCH   23   24
ATOM     33  C24 UNL A   1      59.044  15.842  11.630  1.00  0.00    +0.000 C 
ATOM     34  F5  UNL A   1      58.292  15.255  12.573  1.00  0.00    +0.000 F 
ATOM     24  C19 UNL A   1      58.974  17.229  11.431  1.00  0.00    +0.000 C 
ATOM     25  C20 UNL A   1      59.786  17.790  10.433  1.00  0.00    +0.000 C 
ATOM     26  F1  UNL A   1      59.748  19.109  10.194  1.00  0.00    +0.000 F 
ATOM     27  C21 UNL A   1      60.608  16.990   9.644  1.00  0.00    +0.000 C 
ATOM     28  F2  UNL A   1      61.334  17.542   8.661  1.00  0.00    +0.000 F 
ATOM     29  C22 UNL A   1      60.664  15.622   9.861  1.00  0.00    +0.000 C 
ATOM     30  F3  UNL A   1      61.458  14.852   9.103  1.00  0.00    +0.000 F 
ATOM     31  C23 UNL A   1      59.890  15.048  10.859  1.00  0.00    +0.000 C 
ATOM     32  F4  UNL A   1      59.952  13.728  11.078  1.00  0.00    +0.000 F 
ENDBRANCH   23   24
BRANCH   40   41
ATOM     41  C30 UNL A   1      59.172  20.652  17.777  1.00  0.00    +0.000 C 
ATOM     42  C31 UNL A   1      59.908  21.845  17.829  1.00  0.00    +0.000 C 
ATOM     43  F6  UNL A   1      59.769  22.765  16.862  1.00  0.00    +0.000 F 
ATOM     44  C32 UNL A   1      60.822  22.078  18.853  1.00  0.00    +0.000 C 
ATOM     45  F7  UNL A   1      61.550  23.203  18.856  1.00  0.00    +0.000 F 
ATOM     46  C33 UNL A   1      60.992  21.141  19.862  1.00  0.00    +0.000 C 
ATOM     47  F8  UNL A   1      61.869  21.369  20.848  1.00  0.00    +0.000 F 
ATOM     48  C34 UNL A   1      60.260  19.963  19.841  1.00  0.00    +0.000 C 
ATOM     49  F9  UNL A   1      60.414  19.062  20.821  1.00  0.00    +0.000 F 
ATOM     50  C35 UNL A   1      59.367  19.714  18.803  1.00  0.00    +0.000 C 
ATOM     51  F10 UNL A   1      58.683  18.561  18.803  1.00  0.00    +0.000 F 
ENDBRANCH   40   41
BRANCH   55   56
ATOM     65  C44 UNL A   1      51.737  21.931  17.897  1.00  0.00    +0.000 C 
ATOM     66  F15 UNL A   1      51.824  20.610  18.114  1.00  0.00    +0.000 F 
ATOM     56  C39 UNL A   1      52.526  22.533  16.907  1.00  0.00    +0.000 C 
ATOM     57  C40 UNL A   1      52.394  23.916  16.716  1.00  0.00    +0.000 C 
ATOM     58  F11 UNL A   1      53.143  24.540  15.796  1.00  0.00    +0.000 F 
ATOM     59  C41 UNL A   1      51.521  24.669  17.498  1.00  0.00    +0.000 C 
ATOM     60  F12 UNL A   1      51.445  25.996  17.325  1.00  0.00    +0.000 F 
ATOM     61  C42 UNL A   1      50.743  24.051  18.465  1.00  0.00    +0.000 C 
ATOM     62  F13 UNL A   1      49.901  24.775  19.215  1.00  0.00    +0.000 F 
ATOM     63  C43 UNL A   1      50.845  22.681  18.660  1.00  0.00    +0.000 C 
ATOM     64  F14 UNL A   1      50.086  22.078  19.584  1.00  0.00    +0.000 F 
ENDBRANCH   55   56
TORSDOF 20
ENDMDL
MODEL 3
REMARK VINA RESULT:     -10.4      3.853      8.328
ROOT
ATOM     19  C15 UNL A   1      38.280  29.886  29.988  1.00  0.00    +0.000 C 
ATOM     20  C16 UNL A   1      38.547  30.370  31.386  1.00  0.00    +0.000 C 
ATOM     21  N3  UNL A   1      39.571  30.128  32.165  1.00  0.00    +0.000 N 
ATOM     22  C17 UNL A   1      39.343  30.856  33.325  1.00  0.00    +0.000 C 
ATOM     23  C18 UNL A   1      40.082  30.893  34.460  1.00  0.00    +0.000 C 
ATOM     35  C25 UNL A   1      41.290  30.137  34.664  1.00  0.00    +0.000 C 
ATOM     36  C26 UNL A   1      42.075  30.050  35.800  1.00  0.00    +0.000 C 
ATOM     37  C27 UNL A   1      43.170  29.228  35.515  1.00  0.00    +0.000 C 
ATOM     38  C28 UNL A   1      43.044  28.765  34.215  1.00  0.00    +0.000 C 
ATOM     39  N4  UNL A   1      41.888  29.334  33.704  1.00  0.00    +0.000 N 
ATOM     40  C29 UNL A   1      43.912  27.871  33.492  1.00  0.00    +0.000 C 
ATOM     52  C36 UNL A   1      43.716  27.460  32.216  1.00  0.00    +0.000 C 
ATOM     53  N5  UNL A   1      42.681  27.774  31.346  1.00  0.00    +0.000 N 
ATOM     54  C37 UNL A   1      42.942  27.140  30.229  1.00  0.00    +0.000 C 
ATOM     55  C38 UNL A   1      42.143  27.088  28.955  1.00  0.00    +0.000 C 
ATOM     67  C45 UNL A   1      40.983  27.765  28.879  1.00  0.00    +0.000 C 
ATOM     68  C46 UNL A   1      40.095  27.799  27.720  1.00  0.00    +0.000 C 
ATOM     69  C47 UNL A   1      39.042  28.586  27.999  1.00  0.00    +0.000 C 
ATOM     70  C48 UNL A   1      39.168  29.087  29.368  1.00  0.00    +0.000 C 
ATOM     71  N6  UNL A   1      40.355  28.559  29.807  1.00  0.00    +0.000 N 
ATOM     72  C49 UNL A   1      44.197  26.374  30.254  1.00  0.00    +0.000 C 
ATOM     73  C50 UNL A   1      44.606  26.569  31.499  1.00  0.00    +0.000 C 
ATOM     74  C51 UNL A   1      38.111  31.588  33.130  1.00  0.00    +0.000 C 
ATOM     75  C52 UNL A   1      37.543  31.268  31.977  1.00  0.00    +0.000 C 
ATOM    112  H21 UNL A   1      41.885  30.514  36.703  1.00  0.00    +0.000 H 
ATOM    113  H22 UNL A   1      43.942  29.006  36.163  1.00  0.00    +0.000 H 
ATOM    114  H23 UNL A   1      41.544  29.189  32.793  1.00  0.00    +0.000 H 
ATOM    115  H24 UNL A   1      40.250  27.299  26.832  1.00  0.00    +0.000 H 
ATOM    116  H25 UNL A   1      38.269  28.803  27.350  1.00  0.00    +0.000 H 
ATOM    117  H26 UNL A   1      40.724  28.733  30.705  1.00  0.00    +0.000 H 
ATOM    118  H27 UNL A   1      44.642  25.829  29.499  1.00  0.00    +0.000 H 
ATOM    119  H28 UNL A   1      45.451  26.140  31.907  1.00  0.00    +0.000 H 
ATOM    120  H29 UNL A   1      37.725  32.271  33.801  1.00  0.00    +0.000 H 
ATOM    121  H30 UNL A   1      36.634  31.569  31.594  1.00  0.00    +0.000 H 
ENDROOT
BRANCH   19   18
ATOM     76  C53 UNL A   1      36.057  29.407  28.957  1.00  0.00    +0.000 C 
ATOM     77  C54 UNL A   1      34.931  29.803  28.240  1.00  0.00    +0.000 C 
ATOM    110  H19 UNL A   1      35.631  33.072  27.938  1.00  0.00    +0.000 H 
ATOM     15  C11 UNL A   1      34.750  31.151  27.914  1.00  0.00    +0.000 C 
ATOM     16  C12 UNL A   1      35.750  32.083  28.207  1.00  0.00    +0.000 C 
ATOM     17  C13 UNL A   1      36.910  31.672  28.866  1.00  0.00    +0.000 C 
ATOM    111  H20 UNL A   1      37.661  32.354  29.059  1.00  0.00    +0.000 H 
ATOM     18  C14 UNL A   1      37.064  30.334  29.266  1.00  0.00    +0.000 C 
ATOM    122  H31 UNL A   1      36.152  28.426  29.263  1.00  0.00    +0.000 H 
ATOM    123  H32 UNL A   1      34.231  29.103  27.949  1.00  0.00    +0.000 H 
BRANCH   15   13
ATOM     13  C10 UNL A   1      33.525  31.615  27.228  1.00  0.00    +0.000 C 
ATOM     14  O2  UNL A   1      33.124  32.761  27.405  1.00  0.00    +0.000 O 
BRANCH   13   12
ATOM     12  N2  UNL A   1      32.831  30.762  26.408  1.00  0.00    +0.000 N 
ATOM    109  H18 UNL A   1      33.255  30.571  25.540  1.00  0.00    +0.000 H 
BRANCH   12   11
ATOM     11  C9  UNL A   1      31.558  30.100  26.639  1.00  0.00    +0.000 C 
ATOM    108  H17 UNL A   1      31.130  29.867  25.686  1.00  0.00    +0.000 H 
ATOM    107  H16 UNL A   1      30.924  30.756  27.199  1.00  0.00    +0.000 H 
BRANCH   11   10
ATOM    105  H14 UNL A   1      32.549  28.903  28.079  1.00  0.00    +0.000 H 
ATOM     10  C8  UNL A   1      31.719  28.796  27.411  1.00  0.00    +0.000 C 
ATOM    106  H15 UNL A   1      30.792  28.627  27.918  1.00  0.00    +0.000 H 
BRANCH   10    9
ATOM      9  C7  UNL A   1      31.966  27.565  26.537  1.00  0.00    +0.000 C 
ATOM    103  H12 UNL A   1      31.518  26.720  27.017  1.00  0.00    +0.000 H 
ATOM    104  H13 UNL A   1      31.536  27.785  25.582  1.00  0.00    +0.000 H 
BRANCH    9    8
ATOM    101  H10 UNL A   1      34.028  28.058  26.636  1.00  0.00    +0.000 H 
ATOM    102  H11 UNL A   1      33.636  26.319  26.788  1.00  0.00    +0.000 H 
ATOM      8  C6  UNL A   1      33.441  27.239  26.279  1.00  0.00    +0.000 C 
BRANCH    8    7
ATOM     99  H8  UNL A   1      34.809  26.627  24.765  1.00  0.00    +0.000 H 
ATOM    100  H9  UNL A   1      33.093  26.299  24.421  1.00  0.00    +0.000 H 
ATOM      7  C5  UNL A   1      33.806  26.998  24.807  1.00  0.00    +0.000 C 
BRANCH    7    6
ATOM     97  H6  UNL A   1      33.520  29.099  24.553  1.00  0.00    +0.000 H 
ATOM     98  H7  UNL A   1      34.648  28.377  23.418  1.00  0.00    +0.000 H 
ATOM      6  C4  UNL A   1      33.718  28.251  23.932  1.00  0.00    +0.000 C 
BRANCH    6    5
ATOM      5  N1  UNL A   1      32.660  28.119  22.954  1.00  0.00    +0.000 N 
ATOM     96  H5  UNL A   1      32.933  27.736  22.090  1.00  0.00    +0.000 H 
BRANCH    5    3
ATOM      3  C3  UNL A   1      31.338  28.446  23.054  1.00  0.00    +0.000 C 
ATOM      4  O1  UNL A   1      31.076  29.589  23.433  1.00  0.00    +0.000 O 
BRANCH    3    2
ATOM      2  C2  UNL A   1      30.270  27.381  22.776  1.00  0.00    +0.000 C 
ATOM     95  H4  UNL A   1      30.185  27.317  21.711  1.00  0.00    +0.000 H 
BRANCH    2    1
ATOM      1  C1  UNL A   1      28.875  27.768  23.284  1.00  0.00    +0.000 C 
ATOM     92  H1  UNL A   1      28.742  28.825  23.187  1.00  0.00    +0.000 H 
ATOM     93  H2  UNL A   1      28.781  27.490  24.313  1.00  0.00    +0.000 H 
ATOM     94  H3  UNL A   1      28.132  27.260  22.708  1.00  0.00    +0.000 H 
ENDBRANCH    2    1
BRANCH    2   78
ATOM    137  H46 UNL A   1      32.571  23.341  22.534  1.00  0.00    +0.000 H 
ATOM     78  C55 UNL A   1      30.697  26.021  23.306  1.00  0.00    +0.000 C 
ATOM     79  C56 UNL A   1      30.242  25.586  24.559  1.00  0.00    +0.000 C 
ATOM     80  C57 UNL A   1      30.677  24.368  25.087  1.00  0.00    +0.000 C 
ATOM     81  C58 UNL A   1      31.592  23.570  24.390  1.00  0.00    +0.000 C 
ATOM     89  C65 UNL A   1      31.964  23.956  23.097  1.00  0.00    +0.000 C 
ATOM     90  C66 UNL A   1      31.518  25.163  22.569  1.00  0.00    +0.000 C 
ATOM     91  F16 UNL A   1      31.934  25.505  21.342  1.00  0.00    +0.000 F 
ATOM    124  H33 UNL A   1      29.582  26.169  25.094  1.00  0.00    +0.000 H 
ATOM    125  H34 UNL A   1      30.319  24.052  26.002  1.00  0.00    +0.000 H 
BRANCH   81   82
ATOM     82  C59 UNL A   1      32.192  22.336  25.013  1.00  0.00    +0.000 C 
ATOM    126  H35 UNL A   1      31.384  21.733  25.373  1.00  0.00    +0.000 H 
ATOM    127  H36 UNL A   1      32.858  22.705  25.764  1.00  0.00    +0.000 H 
BRANCH   82   83
ATOM    129  H38 UNL A   1      32.717  20.351  22.290  1.00  0.00    +0.000 H 
ATOM    130  H39 UNL A   1      31.275  20.671  23.191  1.00  0.00    +0.000 H 
ATOM    131  H40 UNL A   1      32.827  18.318  23.297  1.00  0.00    +0.000 H 
ATOM    132  H41 UNL A   1      31.528  18.709  24.368  1.00  0.00    +0.000 H 
ATOM    133  H42 UNL A   1      34.188  18.465  25.126  1.00  0.00    +0.000 H 
ATOM    134  H43 UNL A   1      33.006  19.272  26.072  1.00  0.00    +0.000 H 
ATOM    135  H44 UNL A   1      34.991  20.445  24.136  1.00  0.00    +0.000 H 
ATOM     83  C60 UNL A   1      33.073  21.438  24.112  1.00  0.00    +0.000 C 
ATOM     84  C61 UNL A   1      32.306  20.403  23.278  1.00  0.00    +0.000 C 
ATOM     85  C62 UNL A   1      32.465  19.053  23.984  1.00  0.00    +0.000 C 
ATOM     86  C63 UNL A   1      33.474  19.261  25.109  1.00  0.00    +0.000 C 
ATOM     87  C64 UNL A   1      34.154  20.586  24.786  1.00  0.00    +0.000 C 
ATOM    128  H37 UNL A   1      33.512  22.224  23.533  1.00  0.00    +0.000 H 
BRANCH   87   88
ATOM    136  H45 UNL A   1      34.883  20.543  26.607  1.00  0.00    +0.000 H 
ATOM     88  O3  UNL A   1      34.753  21.202  25.907  1.00  0.00    +0.000 O 
ENDBRANCH   87   88
ENDBRANCH   82   83
ENDBRANCH   81   82
ENDBRANCH    2   78
ENDBRANCH    3    2
ENDBRANCH    5    3
ENDBRANCH    6    5
ENDBRANCH    7    6
ENDBRANCH    8    7
ENDBRANCH    9    8
ENDBRANCH   10    9
ENDBRANCH   11   10
ENDBRANCH   12   11
ENDBRANCH   13   12
ENDBRANCH   15   13
ENDBRANCH   19   18
BRANCH   23   24
ATOM     33  C24 UNL A   1      40.154  33.059  35.748  1.00  0.00    +0.000 C 
ATOM     34  F5  UNL A   1      41.107  33.507  34.917  1.00  0.00    +0.000 F 
ATOM     24  C19 UNL A   1      39.602  31.782  35.570  1.00  0.00    +0.000 C 
ATOM     25  C20 UNL A   1      38.612  31.364  36.472  1.00  0.00    +0.000 C 
ATOM     26  F1  UNL A   1      38.043  30.156  36.339  1.00  0.00    +0.000 F 
ATOM     27  C21 UNL A   1      38.168  32.205  37.489  1.00  0.00    +0.000 C 
ATOM     28  F2  UNL A   1      37.182  31.804  38.305  1.00  0.00    +0.000 F 
ATOM     29  C22 UNL A   1      38.730  33.462  37.649  1.00  0.00    +0.000 C 
ATOM     30  F3  UNL A   1      38.304  34.270  38.630  1.00  0.00    +0.000 F 
ATOM     31  C23 UNL A   1      39.729  33.887  36.785  1.00  0.00    +0.000 C 
ATOM     32  F4  UNL A   1      40.282  35.096  36.945  1.00  0.00    +0.000 F 
ENDBRANCH   23   24
BRANCH   40   41
ATOM     41  C30 UNL A   1      45.112  27.329  34.211  1.00  0.00    +0.000 C 
ATOM     42  C31 UNL A   1      46.345  27.997  34.194  1.00  0.00    +0.000 C 
ATOM     43  F6  UNL A   1      46.489  29.129  33.488  1.00  0.00    +0.000 F 
ATOM     44  C32 UNL A   1      47.447  27.482  34.870  1.00  0.00    +0.000 C 
ATOM     45  F7  UNL A   1      48.628  28.111  34.800  1.00  0.00    +0.000 F 
ATOM     46  C33 UNL A   1      47.330  26.309  35.602  1.00  0.00    +0.000 C 
ATOM     47  F8  UNL A   1      48.391  25.817  36.255  1.00  0.00    +0.000 F 
ATOM     48  C34 UNL A   1      46.115  25.642  35.649  1.00  0.00    +0.000 C 
ATOM     49  F9  UNL A   1      45.996  24.516  36.365  1.00  0.00    +0.000 F 
ATOM     50  C35 UNL A   1      45.019  26.140  34.950  1.00  0.00    +0.000 C 
ATOM     51  F10 UNL A   1      43.861  25.466  35.002  1.00  0.00    +0.000 F 
ENDBRANCH   40   41
BRANCH   55   56
ATOM     65  C44 UNL A   1      42.173  24.938  27.641  1.00  0.00    +0.000 C 
ATOM     66  F15 UNL A   1      41.343  24.382  28.535  1.00  0.00    +0.000 F 
ATOM     56  C39 UNL A   1      42.598  26.264  27.806  1.00  0.00    +0.000 C 
ATOM     57  C40 UNL A   1      43.469  26.797  26.845  1.00  0.00    +0.000 C 
ATOM     58  F11 UNL A   1      43.886  28.067  26.950  1.00  0.00    +0.000 F 
ATOM     59  C41 UNL A   1      43.884  26.039  25.752  1.00  0.00    +0.000 C 
ATOM     60  F12 UNL A   1      44.682  26.586  24.825  1.00  0.00    +0.000 F 
ATOM     61  C42 UNL A   1      43.458  24.726  25.613  1.00  0.00    +0.000 C 
ATOM     62  F13 UNL A   1      43.859  23.997  24.564  1.00  0.00    +0.000 F 
ATOM     63  C43 UNL A   1      42.609  24.174  26.561  1.00  0.00    +0.000 C 
ATOM     64  F14 UNL A   1      42.206  22.902  26.438  1.00  0.00    +0.000 F 
ENDBRANCH   55   56
TORSDOF 20
ENDMDL
MODEL 4
REMARK VINA RESULT:     -10.4     19.585     24.103
ROOT
ATOM     19  C15 UNL A   1      25.870  36.050  45.542  1.00  0.00    +0.000 C 
ATOM     20  C16 UNL A   1      25.771  37.206  46.498  1.00  0.00    +0.000 C 
ATOM     21  N3  UNL A   1      26.668  38.109  46.804  1.00  0.00    +0.000 N 
ATOM     22  C17 UNL A   1      26.047  38.971  47.697  1.00  0.00    +0.000 C 
ATOM     23  C18 UNL A   1      26.573  40.034  48.352  1.00  0.00    +0.000 C 
ATOM     35  C25 UNL A   1      27.941  40.465  48.228  1.00  0.00    +0.000 C 
ATOM     36  C26 UNL A   1      28.591  41.485  48.899  1.00  0.00    +0.000 C 
ATOM     37  C27 UNL A   1      29.903  41.559  48.419  1.00  0.00    +0.000 C 
ATOM     38  C28 UNL A   1      30.085  40.556  47.481  1.00  0.00    +0.000 C 
ATOM     39  N4  UNL A   1      28.872  39.894  47.371  1.00  0.00    +0.000 N 
ATOM     40  C29 UNL A   1      31.275  40.224  46.740  1.00  0.00    +0.000 C 
ATOM     52  C36 UNL A   1      31.373  39.217  45.838  1.00  0.00    +0.000 C 
ATOM     53  N5  UNL A   1      30.407  38.304  45.439  1.00  0.00    +0.000 N 
ATOM     54  C37 UNL A   1      30.981  37.540  44.542  1.00  0.00    +0.000 C 
ATOM     55  C38 UNL A   1      30.418  36.360  43.797  1.00  0.00    +0.000 C 
ATOM     67  C45 UNL A   1      29.149  35.978  44.033  1.00  0.00    +0.000 C 
ATOM     68  C46 UNL A   1      28.471  34.849  43.401  1.00  0.00    +0.000 C 
ATOM     69  C47 UNL A   1      27.213  34.778  43.867  1.00  0.00    +0.000 C 
ATOM     70  C48 UNL A   1      27.008  35.838  44.854  1.00  0.00    +0.000 C 
ATOM     71  N6  UNL A   1      28.205  36.508  44.878  1.00  0.00    +0.000 N 
ATOM     72  C49 UNL A   1      32.374  37.905  44.247  1.00  0.00    +0.000 C 
ATOM     73  C50 UNL A   1      32.575  38.904  45.092  1.00  0.00    +0.000 C 
ATOM     74  C51 UNL A   1      24.682  38.515  47.846  1.00  0.00    +0.000 C 
ATOM     75  C52 UNL A   1      24.480  37.387  47.182  1.00  0.00    +0.000 C 
ATOM    112  H21 UNL A   1      28.178  42.088  49.628  1.00  0.00    +0.000 H 
ATOM    113  H22 UNL A   1      30.614  42.247  48.713  1.00  0.00    +0.000 H 
ATOM    114  H23 UNL A   1      28.697  39.133  46.773  1.00  0.00    +0.000 H 
ATOM    115  H24 UNL A   1      28.891  34.210  42.710  1.00  0.00    +0.000 H 
ATOM    116  H25 UNL A   1      26.506  34.086  43.575  1.00  0.00    +0.000 H 
ATOM    117  H26 UNL A   1      28.372  37.295  45.447  1.00  0.00    +0.000 H 
ATOM    118  H27 UNL A   1      33.023  37.491  43.560  1.00  0.00    +0.000 H 
ATOM    119  H28 UNL A   1      33.474  39.397  45.206  1.00  0.00    +0.000 H 
ATOM    120  H29 UNL A   1      23.960  39.006  48.397  1.00  0.00    +0.000 H 
ATOM    121  H30 UNL A   1      23.639  36.791  47.153  1.00  0.00    +0.000 H 
ENDROOT
BRANCH   19   18
ATOM     76  C53 UNL A   1      23.705  35.568  44.397  1.00  0.00    +0.000 C 
ATOM     77  C54 UNL A   1      22.574  34.778  44.202  1.00  0.00    +0.000 C 
ATOM    110  H19 UNL A   1      23.356  32.236  46.249  1.00  0.00    +0.000 H 
ATOM     15  C11 UNL A   1      22.472  33.537  44.838  1.00  0.00    +0.000 C 
ATOM     16  C12 UNL A   1      23.448  33.137  45.756  1.00  0.00    +0.000 C 
ATOM     17  C13 UNL A   1      24.547  33.962  46.003  1.00  0.00    +0.000 C 
ATOM    111  H20 UNL A   1      25.254  33.680  46.700  1.00  0.00    +0.000 H 
ATOM     18  C14 UNL A   1      24.695  35.174  45.309  1.00  0.00    +0.000 C 
ATOM    122  H31 UNL A   1      23.814  36.447  43.869  1.00  0.00    +0.000 H 
ATOM    123  H32 UNL A   1      21.813  35.109  43.589  1.00  0.00    +0.000 H 
BRANCH   15   13
ATOM     13  C10 UNL A   1      21.325  32.639  44.584  1.00  0.00    +0.000 C 
ATOM     14  O2  UNL A   1      21.257  32.021  43.526  1.00  0.00    +0.000 O 
BRANCH   13   12
ATOM     12  N2  UNL A   1      20.331  32.510  45.521  1.00  0.00    +0.000 N 
ATOM    109  H18 UNL A   1      20.625  32.199  46.408  1.00  0.00    +0.000 H 
BRANCH   12   11
ATOM     11  C9  UNL A   1      18.907  32.765  45.390  1.00  0.00    +0.000 C 
ATOM    108  H17 UNL A   1      18.506  32.909  46.372  1.00  0.00    +0.000 H 
ATOM    107  H16 UNL A   1      18.449  31.930  44.903  1.00  0.00    +0.000 H 
BRANCH   11   10
ATOM    105  H14 UNL A   1      19.398  34.733  44.775  1.00  0.00    +0.000 H 
ATOM     10  C8  UNL A   1      18.621  34.024  44.579  1.00  0.00    +0.000 C 
ATOM    106  H15 UNL A   1      18.579  33.721  43.554  1.00  0.00    +0.000 H 
BRANCH   10    9
ATOM      9  C7  UNL A   1      17.279  34.690  44.890  1.00  0.00    +0.000 C 
ATOM    103  H12 UNL A   1      16.885  34.246  45.780  1.00  0.00    +0.000 H 
ATOM    104  H13 UNL A   1      17.481  35.736  44.993  1.00  0.00    +0.000 H 
BRANCH    9    8
ATOM    101  H10 UNL A   1      15.705  35.497  43.716  1.00  0.00    +0.000 H 
ATOM    102  H11 UNL A   1      16.752  34.300  42.896  1.00  0.00    +0.000 H 
ATOM      8  C6  UNL A   1      16.223  34.564  43.787  1.00  0.00    +0.000 C 
BRANCH    8    7
ATOM     99  H8  UNL A   1      15.496  32.859  44.837  1.00  0.00    +0.000 H 
ATOM    100  H9  UNL A   1      14.244  33.944  44.185  1.00  0.00    +0.000 H 
ATOM      7  C5  UNL A   1      15.181  33.457  44.008  1.00  0.00    +0.000 C 
BRANCH    7    6
ATOM     97  H6  UNL A   1      13.953  32.559  42.509  1.00  0.00    +0.000 H 
ATOM     98  H7  UNL A   1      15.599  32.890  41.998  1.00  0.00    +0.000 H 
ATOM      6  C4  UNL A   1      14.983  32.540  42.799  1.00  0.00    +0.000 C 
BRANCH    6    5
ATOM      5  N1  UNL A   1      15.362  31.182  43.120  1.00  0.00    +0.000 N 
ATOM     96  H5  UNL A   1      14.620  30.588  43.378  1.00  0.00    +0.000 H 
BRANCH    5    3
ATOM      3  C3  UNL A   1      16.597  30.599  43.116  1.00  0.00    +0.000 C 
ATOM      4  O1  UNL A   1      17.476  31.165  42.464  1.00  0.00    +0.000 O 
BRANCH    3    2
ATOM      2  C2  UNL A   1      16.807  29.261  43.837  1.00  0.00    +0.000 C 
ATOM     95  H4  UNL A   1      16.349  29.366  44.798  1.00  0.00    +0.000 H 
BRANCH    2    1
ATOM      1  C1  UNL A   1      18.282  28.939  44.109  1.00  0.00    +0.000 C 
ATOM     92  H1  UNL A   1      18.883  29.790  43.861  1.00  0.00    +0.000 H 
ATOM     93  H2  UNL A   1      18.581  28.105  43.509  1.00  0.00    +0.000 H 
ATOM     94  H3  UNL A   1      18.410  28.700  45.143  1.00  0.00    +0.000 H 
ENDBRANCH    2    1
BRANCH    2   78
ATOM    137  H46 UNL A   1      14.668  25.133  43.595  1.00  0.00    +0.000 H 
ATOM     78  C55 UNL A   1      16.118  28.123  43.099  1.00  0.00    +0.000 C 
ATOM     79  C56 UNL A   1      15.929  28.204  41.712  1.00  0.00    +0.000 C 
ATOM     80  C57 UNL A   1      15.241  27.197  41.030  1.00  0.00    +0.000 C 
ATOM     81  C58 UNL A   1      14.704  26.103  41.720  1.00  0.00    +0.000 C 
ATOM     89  C65 UNL A   1      14.982  25.973  43.085  1.00  0.00    +0.000 C 
ATOM     90  C66 UNL A   1      15.680  26.971  43.757  1.00  0.00    +0.000 C 
ATOM     91  F16 UNL A   1      15.886  26.818  45.073  1.00  0.00    +0.000 F 
ATOM    124  H33 UNL A   1      16.302  29.012  41.191  1.00  0.00    +0.000 H 
ATOM    125  H34 UNL A   1      15.126  27.261  40.007  1.00  0.00    +0.000 H 
BRANCH   81   82
ATOM     82  C59 UNL A   1      13.825  25.094  41.028  1.00  0.00    +0.000 C 
ATOM    126  H35 UNL A   1      13.599  25.478  40.055  1.00  0.00    +0.000 H 
ATOM    127  H36 UNL A   1      12.985  24.972  41.678  1.00  0.00    +0.000 H 
BRANCH   82   83
ATOM    129  H38 UNL A   1      15.712  22.762  39.406  1.00  0.00    +0.000 H 
ATOM    130  H39 UNL A   1      14.932  24.189  38.817  1.00  0.00    +0.000 H 
ATOM    131  H40 UNL A   1      14.071  21.531  38.432  1.00  0.00    +0.000 H 
ATOM    132  H41 UNL A   1      13.160  22.945  38.036  1.00  0.00    +0.000 H 
ATOM    133  H42 UNL A   1      12.448  21.094  39.980  1.00  0.00    +0.000 H 
ATOM    134  H43 UNL A   1      11.801  22.682  39.905  1.00  0.00    +0.000 H 
ATOM    135  H44 UNL A   1      14.084  21.656  41.578  1.00  0.00    +0.000 H 
ATOM     83  C60 UNL A   1      14.389  23.664  40.842  1.00  0.00    +0.000 C 
ATOM     84  C61 UNL A   1      14.791  23.307  39.405  1.00  0.00    +0.000 C 
ATOM     85  C62 UNL A   1      13.668  22.439  38.829  1.00  0.00    +0.000 C 
ATOM     86  C63 UNL A   1      12.715  22.130  39.980  1.00  0.00    +0.000 C 
ATOM     87  C64 UNL A   1      13.497  22.484  41.240  1.00  0.00    +0.000 C 
ATOM    128  H37 UNL A   1      15.216  23.762  41.513  1.00  0.00    +0.000 H 
BRANCH   87   88
ATOM    136  H45 UNL A   1      12.204  21.927  42.608  1.00  0.00    +0.000 H 
ATOM     88  O3  UNL A   1      12.675  22.738  42.361  1.00  0.00    +0.000 O 
ENDBRANCH   87   88
ENDBRANCH   82   83
ENDBRANCH   81   82
ENDBRANCH    2   78
ENDBRANCH    3    2
ENDBRANCH    5    3
ENDBRANCH    6    5
ENDBRANCH    7    6
ENDBRANCH    8    7
ENDBRANCH    9    8
ENDBRANCH   10    9
ENDBRANCH   11   10
ENDBRANCH   12   11
ENDBRANCH   13   12
ENDBRANCH   15   13
ENDBRANCH   19   18
BRANCH   23   24
ATOM     33  C24 UNL A   1      24.949  41.913  48.786  1.00  0.00    +0.000 C 
ATOM     34  F5  UNL A   1      25.058  42.287  47.502  1.00  0.00    +0.000 F 
ATOM     24  C19 UNL A   1      25.664  40.805  49.264  1.00  0.00    +0.000 C 
ATOM     25  C20 UNL A   1      25.515  40.462  50.617  1.00  0.00    +0.000 C 
ATOM     26  F1  UNL A   1      26.167  39.404  51.122  1.00  0.00    +0.000 F 
ATOM     27  C21 UNL A   1      24.657  41.179  51.448  1.00  0.00    +0.000 C 
ATOM     28  F2  UNL A   1      24.489  40.799  52.723  1.00  0.00    +0.000 F 
ATOM     29  C22 UNL A   1      23.964  42.273  50.954  1.00  0.00    +0.000 C 
ATOM     30  F3  UNL A   1      23.140  42.964  51.755  1.00  0.00    +0.000 F 
ATOM     31  C23 UNL A   1      24.115  42.646  49.627  1.00  0.00    +0.000 C 
ATOM     32  F4  UNL A   1      23.454  43.710  49.151  1.00  0.00    +0.000 F 
ENDBRANCH   23   24
BRANCH   40   41
ATOM     41  C30 UNL A   1      32.510  41.033  47.003  1.00  0.00    +0.000 C 
ATOM     42  C31 UNL A   1      32.689  42.307  46.444  1.00  0.00    +0.000 C 
ATOM     43  F6  UNL A   1      31.765  42.815  45.615  1.00  0.00    +0.000 F 
ATOM     44  C32 UNL A   1      33.840  43.045  46.701  1.00  0.00    +0.000 C 
ATOM     45  F7  UNL A   1      34.013  44.239  46.118  1.00  0.00    +0.000 F 
ATOM     46  C33 UNL A   1      34.817  42.541  47.548  1.00  0.00    +0.000 C 
ATOM     47  F8  UNL A   1      35.922  43.256  47.798  1.00  0.00    +0.000 F 
ATOM     48  C34 UNL A   1      34.651  41.293  48.128  1.00  0.00    +0.000 C 
ATOM     49  F9  UNL A   1      35.587  40.808  48.955  1.00  0.00    +0.000 F 
ATOM     50  C35 UNL A   1      33.514  40.539  47.849  1.00  0.00    +0.000 C 
ATOM     51  F10 UNL A   1      33.389  39.329  48.413  1.00  0.00    +0.000 F 
ENDBRANCH   40   41
BRANCH   55   56
ATOM     65  C44 UNL A   1      31.977  34.457  43.249  1.00  0.00    +0.000 C 
ATOM     66  F15 UNL A   1      31.921  34.048  44.525  1.00  0.00    +0.000 F 
ATOM     56  C39 UNL A   1      31.259  35.591  42.844  1.00  0.00    +0.000 C 
ATOM     57  C40 UNL A   1      31.354  35.980  41.500  1.00  0.00    +0.000 C 
ATOM     58  F11 UNL A   1      30.668  37.046  41.061  1.00  0.00    +0.000 F 
ATOM     59  C41 UNL A   1      32.122  35.254  40.594  1.00  0.00    +0.000 C 
ATOM     60  F12 UNL A   1      32.162  35.622  39.306  1.00  0.00    +0.000 F 
ATOM     61  C42 UNL A   1      32.832  34.140  41.019  1.00  0.00    +0.000 C 
ATOM     62  F13 UNL A   1      33.573  33.442  40.148  1.00  0.00    +0.000 F 
ATOM     63  C43 UNL A   1      32.765  33.747  42.348  1.00  0.00    +0.000 C 
ATOM     64  F14 UNL A   1      33.460  32.679  42.765  1.00  0.00    +0.000 F 
ENDBRANCH   55   56
TORSDOF 20
ENDMDL
MODEL 5
REMARK VINA RESULT:     -10.4      1.154      2.110
ROOT
ATOM     19  C15 UNL A   1      40.823  27.875  28.239  1.00  0.00    +0.000 C 
ATOM     20  C16 UNL A   1      42.310  28.094  28.302  1.00  0.00    +0.000 C 
ATOM     21  N3  UNL A   1      42.978  29.122  28.760  1.00  0.00    +0.000 N 
ATOM     22  C17 UNL A   1      44.319  28.790  28.630  1.00  0.00    +0.000 C 
ATOM     23  C18 UNL A   1      45.409  29.546  28.906  1.00  0.00    +0.000 C 
ATOM     35  C25 UNL A   1      45.353  30.896  29.403  1.00  0.00    +0.000 C 
ATOM     36  C26 UNL A   1      46.395  31.771  29.650  1.00  0.00    +0.000 C 
ATOM     37  C27 UNL A   1      45.860  32.956  30.165  1.00  0.00    +0.000 C 
ATOM     38  C28 UNL A   1      44.480  32.837  30.196  1.00  0.00    +0.000 C 
ATOM     39  N4  UNL A   1      44.183  31.566  29.730  1.00  0.00    +0.000 N 
ATOM     40  C29 UNL A   1      43.504  33.809  30.620  1.00  0.00    +0.000 C 
ATOM     52  C36 UNL A   1      42.163  33.616  30.616  1.00  0.00    +0.000 C 
ATOM     53  N5  UNL A   1      41.442  32.500  30.214  1.00  0.00    +0.000 N 
ATOM     54  C37 UNL A   1      40.180  32.796  30.409  1.00  0.00    +0.000 C 
ATOM     55  C38 UNL A   1      38.954  31.974  30.117  1.00  0.00    +0.000 C 
ATOM     67  C45 UNL A   1      39.097  30.749  29.579  1.00  0.00    +0.000 C 
ATOM     68  C46 UNL A   1      38.006  29.843  29.228  1.00  0.00    +0.000 C 
ATOM     69  C47 UNL A   1      38.523  28.707  28.731  1.00  0.00    +0.000 C 
ATOM     70  C48 UNL A   1      39.982  28.819  28.699  1.00  0.00    +0.000 C 
ATOM     71  N6  UNL A   1      40.232  30.058  29.233  1.00  0.00    +0.000 N 
ATOM     72  C49 UNL A   1      39.959  34.128  30.990  1.00  0.00    +0.000 C 
ATOM     73  C50 UNL A   1      41.195  34.600  31.057  1.00  0.00    +0.000 C 
ATOM     74  C51 UNL A   1      44.373  27.446  28.097  1.00  0.00    +0.000 C 
ATOM     75  C52 UNL A   1      43.160  26.997  27.811  1.00  0.00    +0.000 C 
ATOM    112  H21 UNL A   1      47.397  31.581  29.483  1.00  0.00    +0.000 H 
ATOM    113  H22 UNL A   1      46.402  33.779  30.471  1.00  0.00    +0.000 H 
ATOM    114  H23 UNL A   1      43.276  31.195  29.644  1.00  0.00    +0.000 H 
ATOM    115  H24 UNL A   1      37.001  30.044  29.343  1.00  0.00    +0.000 H 
ATOM    116  H25 UNL A   1      37.978  27.888  28.420  1.00  0.00    +0.000 H 
ATOM    117  H26 UNL A   1      41.141  30.418  29.357  1.00  0.00    +0.000 H 
ATOM    118  H27 UNL A   1      39.074  34.576  31.273  1.00  0.00    +0.000 H 
ATOM    119  H28 UNL A   1      41.438  35.549  31.381  1.00  0.00    +0.000 H 
ATOM    120  H29 UNL A   1      45.242  26.907  27.960  1.00  0.00    +0.000 H 
ATOM    121  H30 UNL A   1      42.883  26.112  27.360  1.00  0.00    +0.000 H 
ENDROOT
BRANCH   19   18
ATOM     76  C53 UNL A   1      39.528  25.767  28.567  1.00  0.00    +0.000 C 
ATOM     77  C54 UNL A   1      39.050  24.541  28.110  1.00  0.00    +0.000 C 
ATOM    110  H19 UNL A   1      40.154  24.702  24.944  1.00  0.00    +0.000 H 
ATOM     15  C11 UNL A   1      39.234  24.176  26.772  1.00  0.00    +0.000 C 
ATOM     16  C12 UNL A   1      39.992  24.987  25.922  1.00  0.00    +0.000 C 
ATOM     17  C13 UNL A   1      40.528  26.184  26.401  1.00  0.00    +0.000 C 
ATOM    111  H20 UNL A   1      41.110  26.770  25.782  1.00  0.00    +0.000 H 
ATOM     18  C14 UNL A   1      40.282  26.594  27.722  1.00  0.00    +0.000 C 
ATOM    122  H31 UNL A   1      39.325  26.069  29.533  1.00  0.00    +0.000 H 
ATOM    123  H32 UNL A   1      38.563  23.903  28.757  1.00  0.00    +0.000 H 
BRANCH   15   13
ATOM     13  C10 UNL A   1      38.666  22.921  26.237  1.00  0.00    +0.000 C 
ATOM     14  O2  UNL A   1      39.326  21.887  26.277  1.00  0.00    +0.000 O 
BRANCH   13   12
ATOM     12  N2  UNL A   1      37.410  22.914  25.685  1.00  0.00    +0.000 N 
ATOM    109  H18 UNL A   1      36.710  22.489  26.231  1.00  0.00    +0.000 H 
BRANCH   12   11
ATOM     11  C9  UNL A   1      36.967  23.446  24.407  1.00  0.00    +0.000 C 
ATOM    108  H17 UNL A   1      37.048  22.665  23.679  1.00  0.00    +0.000 H 
ATOM    107  H16 UNL A   1      37.581  24.282  24.149  1.00  0.00    +0.000 H 
BRANCH   11   10
ATOM    105  H14 UNL A   1      35.371  24.640  23.688  1.00  0.00    +0.000 H 
ATOM     10  C8  UNL A   1      35.511  23.899  24.447  1.00  0.00    +0.000 C 
ATOM    106  H15 UNL A   1      34.917  23.023  24.293  1.00  0.00    +0.000 H 
BRANCH   10    9
ATOM      9  C7  UNL A   1      35.066  24.495  25.784  1.00  0.00    +0.000 C 
ATOM    103  H12 UNL A   1      35.081  23.715  26.517  1.00  0.00    +0.000 H 
ATOM    104  H13 UNL A   1      35.750  25.290  26.000  1.00  0.00    +0.000 H 
BRANCH    9    8
ATOM    101  H10 UNL A   1      33.083  24.618  25.039  1.00  0.00    +0.000 H 
ATOM    102  H11 UNL A   1      33.288  25.005  26.775  1.00  0.00    +0.000 H 
ATOM      8  C6  UNL A   1      33.668  25.120  25.781  1.00  0.00    +0.000 C 
BRANCH    8    7
ATOM     99  H8  UNL A   1      34.569  27.050  25.764  1.00  0.00    +0.000 H 
ATOM    100  H9  UNL A   1      33.429  26.727  24.434  1.00  0.00    +0.000 H 
ATOM      7  C5  UNL A   1      33.628  26.625  25.481  1.00  0.00    +0.000 C 
BRANCH    7    6
ATOM     97  H6  UNL A   1      31.894  26.671  26.726  1.00  0.00    +0.000 H 
ATOM     98  H7  UNL A   1      32.966  28.047  26.923  1.00  0.00    +0.000 H 
ATOM      6  C4  UNL A   1      32.518  27.377  26.219  1.00  0.00    +0.000 C 
BRANCH    6    5
ATOM      5  N1  UNL A   1      31.715  28.143  25.292  1.00  0.00    +0.000 N 
ATOM     96  H5  UNL A   1      30.945  28.610  25.690  1.00  0.00    +0.000 H 
BRANCH    5    3
ATOM      3  C3  UNL A   1      31.866  28.315  23.946  1.00  0.00    +0.000 C 
ATOM      4  O1  UNL A   1      32.714  29.133  23.583  1.00  0.00    +0.000 O 
BRANCH    3    2
ATOM      2  C2  UNL A   1      30.945  27.565  22.975  1.00  0.00    +0.000 C 
ATOM     95  H4  UNL A   1      31.090  28.019  22.017  1.00  0.00    +0.000 H 
BRANCH    2    1
ATOM      1  C1  UNL A   1      29.455  27.732  23.296  1.00  0.00    +0.000 C 
ATOM     92  H1  UNL A   1      29.301  28.666  23.794  1.00  0.00    +0.000 H 
ATOM     93  H2  UNL A   1      29.136  26.932  23.932  1.00  0.00    +0.000 H 
ATOM     94  H3  UNL A   1      28.890  27.713  22.388  1.00  0.00    +0.000 H 
ENDBRANCH    2    1
BRANCH    2   78
ATOM    137  H46 UNL A   1      33.632  24.045  21.538  1.00  0.00    +0.000 H 
ATOM     78  C55 UNL A   1      31.331  26.097  22.874  1.00  0.00    +0.000 C 
ATOM     79  C56 UNL A   1      30.559  25.126  23.526  1.00  0.00    +0.000 C 
ATOM     80  C57 UNL A   1      30.937  23.781  23.495  1.00  0.00    +0.000 C 
ATOM     81  C58 UNL A   1      32.105  23.380  22.835  1.00  0.00    +0.000 C 
ATOM     89  C65 UNL A   1      32.816  24.334  22.099  1.00  0.00    +0.000 C 
ATOM     90  C66 UNL A   1      32.429  25.670  22.121  1.00  0.00    +0.000 C 
ATOM     91  F16 UNL A   1      33.167  26.551  21.432  1.00  0.00    +0.000 F 
ATOM    124  H33 UNL A   1      29.705  25.406  24.032  1.00  0.00    +0.000 H 
ATOM    125  H34 UNL A   1      30.349  23.075  23.964  1.00  0.00    +0.000 H 
BRANCH   81   82
ATOM     82  C59 UNL A   1      32.611  21.964  22.926  1.00  0.00    +0.000 C 
ATOM    126  H35 UNL A   1      33.680  22.002  22.889  1.00  0.00    +0.000 H 
ATOM    127  H36 UNL A   1      32.143  21.454  22.110  1.00  0.00    +0.000 H 
BRANCH   82   83
ATOM    129  H38 UNL A   1      32.204  21.567  26.288  1.00  0.00    +0.000 H 
ATOM    130  H39 UNL A   1      33.290  22.574  25.395  1.00  0.00    +0.000 H 
ATOM    131  H40 UNL A   1      33.948  20.183  26.738  1.00  0.00    +0.000 H 
ATOM    132  H41 UNL A   1      34.991  21.048  25.666  1.00  0.00    +0.000 H 
ATOM    133  H42 UNL A   1      33.985  18.503  25.189  1.00  0.00    +0.000 H 
ATOM    134  H43 UNL A   1      34.632  19.510  23.959  1.00  0.00    +0.000 H 
ATOM    135  H44 UNL A   1      31.754  19.113  24.749  1.00  0.00    +0.000 H 
ATOM     83  C60 UNL A   1      32.220  21.144  24.179  1.00  0.00    +0.000 C 
ATOM     84  C61 UNL A   1      32.907  21.580  25.480  1.00  0.00    +0.000 C 
ATOM     85  C62 UNL A   1      34.034  20.579  25.748  1.00  0.00    +0.000 C 
ATOM     86  C63 UNL A   1      33.883  19.460  24.722  1.00  0.00    +0.000 C 
ATOM     87  C64 UNL A   1      32.477  19.634  24.158  1.00  0.00    +0.000 C 
ATOM    128  H37 UNL A   1      31.171  21.354  24.150  1.00  0.00    +0.000 H 
BRANCH   87   88
ATOM    136  H45 UNL A   1      31.383  18.736  22.798  1.00  0.00    +0.000 H 
ATOM     88  O3  UNL A   1      32.301  19.040  22.888  1.00  0.00    +0.000 O 
ENDBRANCH   87   88
ENDBRANCH   82   83
ENDBRANCH   81   82
ENDBRANCH    2   78
ENDBRANCH    3    2
ENDBRANCH    5    3
ENDBRANCH    6    5
ENDBRANCH    7    6
ENDBRANCH    8    7
ENDBRANCH    9    8
ENDBRANCH   10    9
ENDBRANCH   11   10
ENDBRANCH   12   11
ENDBRANCH   13   12
ENDBRANCH   15   13
ENDBRANCH   19   18
BRANCH   23   24
ATOM     33  C24 UNL A   1      47.375  29.015  27.419  1.00  0.00    +0.000 C 
ATOM     34  F5  UNL A   1      46.774  29.667  26.413  1.00  0.00    +0.000 F 
ATOM     24  C19 UNL A   1      46.757  28.928  28.676  1.00  0.00    +0.000 C 
ATOM     25  C20 UNL A   1      47.430  28.229  29.690  1.00  0.00    +0.000 C 
ATOM     26  F1  UNL A   1      46.888  28.126  30.913  1.00  0.00    +0.000 F 
ATOM     27  C21 UNL A   1      48.686  27.672  29.465  1.00  0.00    +0.000 C 
ATOM     28  F2  UNL A   1      49.334  27.057  30.465  1.00  0.00    +0.000 F 
ATOM     29  C22 UNL A   1      49.276  27.768  28.214  1.00  0.00    +0.000 C 
ATOM     30  F3  UNL A   1      50.485  27.230  27.997  1.00  0.00    +0.000 F 
ATOM     31  C23 UNL A   1      48.619  28.431  27.189  1.00  0.00    +0.000 C 
ATOM     32  F4  UNL A   1      49.182  28.515  25.976  1.00  0.00    +0.000 F 
ENDBRANCH   23   24
BRANCH   40   41
ATOM     41  C30 UNL A   1      44.003  35.148  31.075  1.00  0.00    +0.000 C 
ATOM     42  C31 UNL A   1      44.382  35.380  32.406  1.00  0.00    +0.000 C 
ATOM     43  F6  UNL A   1      44.262  34.406  33.320  1.00  0.00    +0.000 F 
ATOM     44  C32 UNL A   1      44.847  36.628  32.810  1.00  0.00    +0.000 C 
ATOM     45  F7  UNL A   1      45.157  36.841  34.096  1.00  0.00    +0.000 F 
ATOM     46  C33 UNL A   1      44.974  37.657  31.888  1.00  0.00    +0.000 C 
ATOM     47  F8  UNL A   1      45.426  38.856  32.278  1.00  0.00    +0.000 F 
ATOM     48  C34 UNL A   1      44.625  37.443  30.563  1.00  0.00    +0.000 C 
ATOM     49  F9  UNL A   1      44.758  38.432  29.667  1.00  0.00    +0.000 F 
ATOM     50  C35 UNL A   1      44.132  36.205  30.161  1.00  0.00    +0.000 C 
ATOM     51  F10 UNL A   1      43.789  36.033  28.876  1.00  0.00    +0.000 F 
ENDBRANCH   40   41
BRANCH   55   56
ATOM     65  C44 UNL A   1      36.931  33.307  29.425  1.00  0.00    +0.000 C 
ATOM     66  F15 UNL A   1      37.523  33.595  28.257  1.00  0.00    +0.000 F 
ATOM     56  C39 UNL A   1      37.596  32.517  30.374  1.00  0.00    +0.000 C 
ATOM     57  C40 UNL A   1      36.935  32.249  31.581  1.00  0.00    +0.000 C 
ATOM     58  F11 UNL A   1      37.522  31.480  32.510  1.00  0.00    +0.000 F 
ATOM     59  C41 UNL A   1      35.652  32.735  31.822  1.00  0.00    +0.000 C 
ATOM     60  F12 UNL A   1      35.026  32.429  32.966  1.00  0.00    +0.000 F 
ATOM     61  C42 UNL A   1      35.017  33.523  30.873  1.00  0.00    +0.000 C 
ATOM     62  F13 UNL A   1      33.784  33.993  31.106  1.00  0.00    +0.000 F 
ATOM     63  C43 UNL A   1      35.659  33.814  29.678  1.00  0.00    +0.000 C 
ATOM     64  F14 UNL A   1      35.053  34.585  28.764  1.00  0.00    +0.000 F 
ENDBRANCH   55   56
TORSDOF 20
ENDMDL
MODEL 6
REMARK VINA RESULT:     -10.3      3.737      9.022
ROOT
ATOM     19  C15 UNL A   1      39.227  29.571  30.027  1.00  0.00    +0.000 C 
ATOM     20  C16 UNL A   1      39.775  30.152  31.301  1.00  0.00    +0.000 C 
ATOM     21  N3  UNL A   1      40.883  29.860  31.936  1.00  0.00    +0.000 N 
ATOM     22  C17 UNL A   1      40.932  30.721  33.024  1.00  0.00    +0.000 C 
ATOM     23  C18 UNL A   1      41.850  30.775  34.019  1.00  0.00    +0.000 C 
ATOM     35  C25 UNL A   1      42.986  29.896  34.121  1.00  0.00    +0.000 C 
ATOM     36  C26 UNL A   1      43.935  29.823  35.124  1.00  0.00    +0.000 C 
ATOM     37  C27 UNL A   1      44.871  28.845  34.771  1.00  0.00    +0.000 C 
ATOM     38  C28 UNL A   1      44.480  28.277  33.570  1.00  0.00    +0.000 C 
ATOM     39  N4  UNL A   1      43.324  28.934  33.180  1.00  0.00    +0.000 N 
ATOM     40  C29 UNL A   1      45.113  27.214  32.831  1.00  0.00    +0.000 C 
ATOM     52  C36 UNL A   1      44.663  26.708  31.657  1.00  0.00    +0.000 C 
ATOM     53  N5  UNL A   1      43.537  27.064  30.927  1.00  0.00    +0.000 N 
ATOM     54  C37 UNL A   1      43.538  26.296  29.865  1.00  0.00    +0.000 C 
ATOM     55  C38 UNL A   1      42.536  26.221  28.745  1.00  0.00    +0.000 C 
ATOM     67  C45 UNL A   1      41.460  27.029  28.769  1.00  0.00    +0.000 C 
ATOM     68  C46 UNL A   1      40.400  27.061  27.766  1.00  0.00    +0.000 C 
ATOM     69  C47 UNL A   1      39.500  27.998  28.110  1.00  0.00    +0.000 C 
ATOM     70  C48 UNL A   1      39.907  28.610  29.375  1.00  0.00    +0.000 C 
ATOM     71  N6  UNL A   1      41.087  27.982  29.685  1.00  0.00    +0.000 N 
ATOM     72  C49 UNL A   1      44.688  25.384  29.785  1.00  0.00    +0.000 C 
ATOM     73  C50 UNL A   1      45.318  25.647  30.921  1.00  0.00    +0.000 C 
ATOM     74  C51 UNL A   1      39.771  31.580  32.937  1.00  0.00    +0.000 C 
ATOM     75  C52 UNL A   1      38.987  31.223  31.931  1.00  0.00    +0.000 C 
ATOM    112  H21 UNL A   1      43.950  30.392  35.986  1.00  0.00    +0.000 H 
ATOM    113  H22 UNL A   1      45.712  28.591  35.314  1.00  0.00    +0.000 H 
ATOM    114  H23 UNL A   1      42.818  28.746  32.357  1.00  0.00    +0.000 H 
ATOM    115  H24 UNL A   1      40.349  26.461  26.929  1.00  0.00    +0.000 H 
ATOM    116  H25 UNL A   1      38.658  28.246  27.568  1.00  0.00    +0.000 H 
ATOM    117  H26 UNL A   1      41.616  28.195  30.488  1.00  0.00    +0.000 H 
ATOM    118  H27 UNL A   1      44.939  24.716  29.040  1.00  0.00    +0.000 H 
ATOM    119  H28 UNL A   1      46.168  25.156  31.241  1.00  0.00    +0.000 H 
ATOM    120  H29 UNL A   1      39.580  32.369  33.575  1.00  0.00    +0.000 H 
ATOM    121  H30 UNL A   1      38.065  31.597  31.661  1.00  0.00    +0.000 H 
ENDROOT
BRANCH   19   18
ATOM     76  C53 UNL A   1      36.803  29.309  29.492  1.00  0.00    +0.000 C 
ATOM     77  C54 UNL A   1      35.621  29.770  28.918  1.00  0.00    +0.000 C 
ATOM    110  H19 UNL A   1      36.673  32.799  27.923  1.00  0.00    +0.000 H 
ATOM     15  C11 UNL A   1      35.559  31.065  28.391  1.00  0.00    +0.000 C 
ATOM     16  C12 UNL A   1      36.711  31.856  28.340  1.00  0.00    +0.000 C 
ATOM     17  C13 UNL A   1      37.912  31.366  28.854  1.00  0.00    +0.000 C 
ATOM    111  H20 UNL A   1      38.769  31.938  28.792  1.00  0.00    +0.000 H 
ATOM     18  C14 UNL A   1      37.963  30.097  29.454  1.00  0.00    +0.000 C 
ATOM    122  H31 UNL A   1      36.825  28.384  29.947  1.00  0.00    +0.000 H 
ATOM    123  H32 UNL A   1      34.792  29.157  28.879  1.00  0.00    +0.000 H 
BRANCH   15   13
ATOM     13  C10 UNL A   1      34.295  31.612  27.853  1.00  0.00    +0.000 C 
ATOM     14  O2  UNL A   1      34.145  32.827  27.767  1.00  0.00    +0.000 O 
BRANCH   13   12
ATOM     12  N2  UNL A   1      33.289  30.765  27.463  1.00  0.00    +0.000 N 
ATOM    109  H18 UNL A   1      33.247  29.908  27.947  1.00  0.00    +0.000 H 
BRANCH   12   11
ATOM     11  C9  UNL A   1      32.277  30.953  26.438  1.00  0.00    +0.000 C 
ATOM    108  H17 UNL A   1      32.768  31.290  25.548  1.00  0.00    +0.000 H 
ATOM    107  H16 UNL A   1      31.564  31.671  26.784  1.00  0.00    +0.000 H 
BRANCH   11   10
ATOM    105  H14 UNL A   1      30.509  29.881  25.971  1.00  0.00    +0.000 H 
ATOM     10  C8  UNL A   1      31.547  29.656  26.106  1.00  0.00    +0.000 C 
ATOM    106  H15 UNL A   1      32.010  29.264  25.225  1.00  0.00    +0.000 H 
BRANCH   10    9
ATOM      9  C7  UNL A   1      31.663  28.569  27.177  1.00  0.00    +0.000 C 
ATOM    103  H12 UNL A   1      32.316  28.927  27.945  1.00  0.00    +0.000 H 
ATOM    104  H13 UNL A   1      30.667  28.381  27.522  1.00  0.00    +0.000 H 
BRANCH    9    8
ATOM    101  H10 UNL A   1      32.479  26.642  27.533  1.00  0.00    +0.000 H 
ATOM    102  H11 UNL A   1      31.422  26.786  26.095  1.00  0.00    +0.000 H 
ATOM      8  C6  UNL A   1      32.204  27.225  26.679  1.00  0.00    +0.000 C 
BRANCH    8    7
ATOM     99  H8  UNL A   1      33.098  27.666  24.797  1.00  0.00    +0.000 H 
ATOM    100  H9  UNL A   1      34.118  27.990  26.220  1.00  0.00    +0.000 H 
ATOM      7  C5  UNL A   1      33.427  27.319  25.754  1.00  0.00    +0.000 C 
BRANCH    7    6
ATOM     97  H6  UNL A   1      34.654  25.997  24.609  1.00  0.00    +0.000 H 
ATOM     98  H7  UNL A   1      34.876  25.874  26.346  1.00  0.00    +0.000 H 
ATOM      6  C4  UNL A   1      34.161  25.990  25.559  1.00  0.00    +0.000 C 
BRANCH    6    5
ATOM      5  N1  UNL A   1      33.233  24.881  25.605  1.00  0.00    +0.000 N 
ATOM     96  H5  UNL A   1      32.916  24.636  26.504  1.00  0.00    +0.000 H 
BRANCH    5    3
ATOM      3  C3  UNL A   1      32.730  24.125  24.586  1.00  0.00    +0.000 C 
ATOM      4  O1  UNL A   1      33.537  23.451  23.943  1.00  0.00    +0.000 O 
BRANCH    3    2
ATOM      2  C2  UNL A   1      31.237  24.208  24.244  1.00  0.00    +0.000 C 
ATOM     95  H4  UNL A   1      30.713  24.065  25.166  1.00  0.00    +0.000 H 
BRANCH    2    1
ATOM      1  C1  UNL A   1      30.760  23.086  23.313  1.00  0.00    +0.000 C 
ATOM     92  H1  UNL A   1      30.549  22.210  23.891  1.00  0.00    +0.000 H 
ATOM     93  H2  UNL A   1      31.526  22.866  22.599  1.00  0.00    +0.000 H 
ATOM     94  H3  UNL A   1      29.875  23.398  22.802  1.00  0.00    +0.000 H 
ENDBRANCH    2    1
BRANCH    2   78
ATOM    137  H46 UNL A   1      28.767  28.153  24.166  1.00  0.00    +0.000 H 
ATOM     78  C55 UNL A   1      30.873  25.578  23.693  1.00  0.00    +0.000 C 
ATOM     79  C56 UNL A   1      31.586  26.107  22.609  1.00  0.00    +0.000 C 
ATOM     80  C57 UNL A   1      31.307  27.390  22.133  1.00  0.00    +0.000 C 
ATOM     81  C58 UNL A   1      30.328  28.183  22.745  1.00  0.00    +0.000 C 
ATOM     89  C65 UNL A   1      29.548  27.616  23.759  1.00  0.00    +0.000 C 
ATOM     90  C66 UNL A   1      29.821  26.333  24.220  1.00  0.00    +0.000 C 
ATOM     91  F16 UNL A   1      29.070  25.850  25.220  1.00  0.00    +0.000 F 
ATOM    124  H33 UNL A   1      32.323  25.543  22.157  1.00  0.00    +0.000 H 
ATOM    125  H34 UNL A   1      31.827  27.759  21.322  1.00  0.00    +0.000 H 
BRANCH   81   82
ATOM     82  C59 UNL A   1      30.124  29.623  22.349  1.00  0.00    +0.000 C 
ATOM    126  H35 UNL A   1      30.440  29.724  21.332  1.00  0.00    +0.000 H 
ATOM    127  H36 UNL A   1      30.690  30.185  23.062  1.00  0.00    +0.000 H 
BRANCH   82   83
ATOM    129  H38 UNL A   1      26.988  30.179  21.131  1.00  0.00    +0.000 H 
ATOM    130  H39 UNL A   1      28.493  29.953  20.309  1.00  0.00    +0.000 H 
ATOM    131  H40 UNL A   1      27.131  32.397  20.665  1.00  0.00    +0.000 H 
ATOM    132  H41 UNL A   1      28.736  32.227  20.046  1.00  0.00    +0.000 H 
ATOM    133  H42 UNL A   1      28.084  33.472  22.441  1.00  0.00    +0.000 H 
ATOM    134  H43 UNL A   1      29.664  32.921  22.062  1.00  0.00    +0.000 H 
ATOM    135  H44 UNL A   1      27.524  31.542  23.669  1.00  0.00    +0.000 H 
ATOM     83  C60 UNL A   1      28.689  30.194  22.447  1.00  0.00    +0.000 C 
ATOM     84  C61 UNL A   1      28.013  30.486  21.101  1.00  0.00    +0.000 C 
ATOM     85  C62 UNL A   1      28.101  31.999  20.876  1.00  0.00    +0.000 C 
ATOM     86  C63 UNL A   1      28.647  32.605  22.165  1.00  0.00    +0.000 C 
ATOM     87  C64 UNL A   1      28.490  31.507  23.211  1.00  0.00    +0.000 C 
ATOM    128  H37 UNL A   1      28.258  29.373  22.981  1.00  0.00    +0.000 H 
BRANCH   87   88
ATOM    136  H45 UNL A   1      29.852  30.841  24.457  1.00  0.00    +0.000 H 
ATOM     88  O3  UNL A   1      29.349  31.660  24.323  1.00  0.00    +0.000 O 
ENDBRANCH   87   88
ENDBRANCH   82   83
ENDBRANCH   81   82
ENDBRANCH    2   78
ENDBRANCH    3    2
ENDBRANCH    5    3
ENDBRANCH    6    5
ENDBRANCH    7    6
ENDBRANCH    8    7
ENDBRANCH    9    8
ENDBRANCH   10    9
ENDBRANCH   11   10
ENDBRANCH   12   11
ENDBRANCH   13   12
ENDBRANCH   15   13
ENDBRANCH   19   18
BRANCH   23   24
ATOM     33  C24 UNL A   1      42.448  32.984  35.079  1.00  0.00    +0.000 C 
ATOM     34  F5  UNL A   1      43.367  33.179  34.122  1.00  0.00    +0.000 F 
ATOM     24  C19 UNL A   1      41.662  31.822  35.078  1.00  0.00    +0.000 C 
ATOM     25  C20 UNL A   1      40.719  31.667  36.107  1.00  0.00    +0.000 C 
ATOM     26  F1  UNL A   1      39.934  30.580  36.145  1.00  0.00    +0.000 F 
ATOM     27  C21 UNL A   1      40.547  32.653  37.075  1.00  0.00    +0.000 C 
ATOM     28  F2  UNL A   1      39.603  32.508  38.015  1.00  0.00    +0.000 F 
ATOM     29  C22 UNL A   1      41.338  33.791  37.058  1.00  0.00    +0.000 C 
ATOM     30  F3  UNL A   1      41.174  34.739  37.992  1.00  0.00    +0.000 F 
ATOM     31  C23 UNL A   1      42.294  33.954  36.066  1.00  0.00    +0.000 C 
ATOM     32  F4  UNL A   1      43.068  35.048  36.055  1.00  0.00    +0.000 F 
ENDBRANCH   23   24
BRANCH   40   41
ATOM     41  C30 UNL A   1      46.350  26.598  33.414  1.00  0.00    +0.000 C 
ATOM     42  C31 UNL A   1      47.627  27.106  33.136  1.00  0.00    +0.000 C 
ATOM     43  F6  UNL A   1      47.773  28.141  32.295  1.00  0.00    +0.000 F 
ATOM     44  C32 UNL A   1      48.765  26.524  33.689  1.00  0.00    +0.000 C 
ATOM     45  F7  UNL A   1      49.978  26.995  33.371  1.00  0.00    +0.000 F 
ATOM     46  C33 UNL A   1      48.645  25.447  34.555  1.00  0.00    +0.000 C 
ATOM     47  F8  UNL A   1      49.740  24.891  35.090  1.00  0.00    +0.000 F 
ATOM     48  C34 UNL A   1      47.390  24.942  34.860  1.00  0.00    +0.000 C 
ATOM     49  F9  UNL A   1      47.271  23.909  35.706  1.00  0.00    +0.000 F 
ATOM     50  C35 UNL A   1      46.253  25.503  34.286  1.00  0.00    +0.000 C 
ATOM     51  F10 UNL A   1      45.055  24.983  34.589  1.00  0.00    +0.000 F 
ENDBRANCH   40   41
BRANCH   55   56
ATOM     65  C44 UNL A   1      42.014  24.015  27.644  1.00  0.00    +0.000 C 
ATOM     66  F15 UNL A   1      41.194  23.706  28.658  1.00  0.00    +0.000 F 
ATOM     56  C39 UNL A   1      42.700  25.238  27.643  1.00  0.00    +0.000 C 
ATOM     57  C40 UNL A   1      43.550  25.512  26.562  1.00  0.00    +0.000 C 
ATOM     58  F11 UNL A   1      44.210  26.677  26.507  1.00  0.00    +0.000 F 
ATOM     59  C41 UNL A   1      43.694  24.606  25.513  1.00  0.00    +0.000 C 
ATOM     60  F12 UNL A   1      44.479  24.910  24.471  1.00  0.00    +0.000 F 
ATOM     61  C42 UNL A   1      43.012  23.398  25.539  1.00  0.00    +0.000 C 
ATOM     62  F13 UNL A   1      43.152  22.525  24.532  1.00  0.00    +0.000 F 
ATOM     63  C43 UNL A   1      42.179  23.099  26.607  1.00  0.00    +0.000 C 
ATOM     64  F14 UNL A   1      41.529  21.928  26.642  1.00  0.00    +0.000 F 
ENDBRANCH   55   56
TORSDOF 20
ENDMDL
MODEL 7
REMARK VINA RESULT:     -10.3      2.697      4.185
ROOT
ATOM     19  C15 UNL A   1      41.775  26.186  27.576  1.00  0.00    +0.000 C 
ATOM     20  C16 UNL A   1      43.146  26.563  27.087  1.00  0.00    +0.000 C 
ATOM     21  N3  UNL A   1      43.821  27.668  27.281  1.00  0.00    +0.000 N 
ATOM     22  C17 UNL A   1      45.046  27.476  26.657  1.00  0.00    +0.000 C 
ATOM     23  C18 UNL A   1      46.072  28.350  26.521  1.00  0.00    +0.000 C 
ATOM     35  C25 UNL A   1      46.059  29.699  27.024  1.00  0.00    +0.000 C 
ATOM     36  C26 UNL A   1      47.018  30.686  26.880  1.00  0.00    +0.000 C 
ATOM     37  C27 UNL A   1      46.586  31.821  27.575  1.00  0.00    +0.000 C 
ATOM     38  C28 UNL A   1      45.338  31.557  28.113  1.00  0.00    +0.000 C 
ATOM     39  N4  UNL A   1      45.028  30.250  27.772  1.00  0.00    +0.000 N 
ATOM     40  C29 UNL A   1      44.489  32.431  28.884  1.00  0.00    +0.000 C 
ATOM     52  C36 UNL A   1      43.271  32.097  29.375  1.00  0.00    +0.000 C 
ATOM     53  N5  UNL A   1      42.578  30.900  29.252  1.00  0.00    +0.000 N 
ATOM     54  C37 UNL A   1      41.454  31.066  29.906  1.00  0.00    +0.000 C 
ATOM     55  C38 UNL A   1      40.303  30.111  30.077  1.00  0.00    +0.000 C 
ATOM     67  C45 UNL A   1      40.368  28.895  29.506  1.00  0.00    +0.000 C 
ATOM     68  C46 UNL A   1      39.330  27.870  29.570  1.00  0.00    +0.000 C 
ATOM     69  C47 UNL A   1      39.745  26.783  28.899  1.00  0.00    +0.000 C 
ATOM     70  C48 UNL A   1      41.067  27.048  28.330  1.00  0.00    +0.000 C 
ATOM     71  N6  UNL A   1      41.362  28.319  28.752  1.00  0.00    +0.000 N 
ATOM     72  C49 UNL A   1      41.322  32.382  30.548  1.00  0.00    +0.000 C 
ATOM     73  C50 UNL A   1      42.435  32.984  30.158  1.00  0.00    +0.000 C 
ATOM     74  C51 UNL A   1      45.043  26.132  26.122  1.00  0.00    +0.000 C 
ATOM     75  C52 UNL A   1      43.867  25.550  26.299  1.00  0.00    +0.000 C 
ATOM    112  H21 UNL A   1      47.900  30.599  26.351  1.00  0.00    +0.000 H 
ATOM    113  H22 UNL A   1      47.111  32.705  27.670  1.00  0.00    +0.000 H 
ATOM    114  H23 UNL A   1      44.199  29.783  28.022  1.00  0.00    +0.000 H 
ATOM    115  H24 UNL A   1      38.424  27.966  30.053  1.00  0.00    +0.000 H 
ATOM    116  H25 UNL A   1      39.216  25.902  28.801  1.00  0.00    +0.000 H 
ATOM    117  H26 UNL A   1      42.208  28.777  28.536  1.00  0.00    +0.000 H 
ATOM    118  H27 UNL A   1      40.561  32.741  31.145  1.00  0.00    +0.000 H 
ATOM    119  H28 UNL A   1      42.677  33.961  30.384  1.00  0.00    +0.000 H 
ATOM    120  H29 UNL A   1      45.853  25.685  25.664  1.00  0.00    +0.000 H 
ATOM    121  H30 UNL A   1      43.540  24.629  25.970  1.00  0.00    +0.000 H 
ENDROOT
BRANCH   19   18
ATOM     76  C53 UNL A   1      40.207  24.706  26.320  1.00  0.00    +0.000 C 
ATOM     77  C54 UNL A   1      39.646  23.458  26.061  1.00  0.00    +0.000 C 
ATOM    110  H19 UNL A   1      41.532  21.603  28.127  1.00  0.00    +0.000 H 
ATOM     15  C11 UNL A   1      40.165  22.318  26.682  1.00  0.00    +0.000 C 
ATOM     16  C12 UNL A   1      41.171  22.441  27.646  1.00  0.00    +0.000 C 
ATOM     17  C13 UNL A   1      41.685  23.702  27.954  1.00  0.00    +0.000 C 
ATOM    111  H20 UNL A   1      42.408  23.797  28.684  1.00  0.00    +0.000 H 
ATOM     18  C14 UNL A   1      41.222  24.843  27.278  1.00  0.00    +0.000 C 
ATOM    122  H31 UNL A   1      39.873  25.535  25.804  1.00  0.00    +0.000 H 
ATOM    123  H32 UNL A   1      38.847  23.375  25.413  1.00  0.00    +0.000 H 
BRANCH   15   13
ATOM     13  C10 UNL A   1      39.647  20.970  26.364  1.00  0.00    +0.000 C 
ATOM     14  O2  UNL A   1      40.179  19.980  26.857  1.00  0.00    +0.000 O 
BRANCH   13   12
ATOM     12  N2  UNL A   1      38.584  20.826  25.508  1.00  0.00    +0.000 N 
ATOM    109  H18 UNL A   1      38.730  20.210  24.754  1.00  0.00    +0.000 H 
BRANCH   12   11
ATOM     11  C9  UNL A   1      37.275  21.453  25.558  1.00  0.00    +0.000 C 
ATOM    108  H17 UNL A   1      37.376  22.387  26.071  1.00  0.00    +0.000 H 
ATOM    107  H16 UNL A   1      36.598  20.801  26.069  1.00  0.00    +0.000 H 
BRANCH   11   10
ATOM    105  H14 UNL A   1      37.378  21.298  23.447  1.00  0.00    +0.000 H 
ATOM     10  C8  UNL A   1      36.723  21.742  24.166  1.00  0.00    +0.000 C 
ATOM    106  H15 UNL A   1      35.734  21.334  24.141  1.00  0.00    +0.000 H 
BRANCH   10    9
ATOM      9  C7  UNL A   1      36.585  23.229  23.832  1.00  0.00    +0.000 C 
ATOM    103  H12 UNL A   1      37.209  23.780  24.505  1.00  0.00    +0.000 H 
ATOM    104  H13 UNL A   1      36.873  23.334  22.807  1.00  0.00    +0.000 H 
BRANCH    9    8
ATOM    101  H10 UNL A   1      34.949  24.323  23.036  1.00  0.00    +0.000 H 
ATOM    102  H11 UNL A   1      34.523  22.945  24.096  1.00  0.00    +0.000 H 
ATOM      8  C6  UNL A   1      35.163  23.788  23.937  1.00  0.00    +0.000 C 
BRANCH    8    7
ATOM     99  H8  UNL A   1      34.430  24.187  25.897  1.00  0.00    +0.000 H 
ATOM    100  H9  UNL A   1      35.879  25.106  25.422  1.00  0.00    +0.000 H 
ATOM      7  C5  UNL A   1      34.921  24.736  25.121  1.00  0.00    +0.000 C 
BRANCH    7    6
ATOM     97  H6  UNL A   1      34.182  26.696  25.538  1.00  0.00    +0.000 H 
ATOM     98  H7  UNL A   1      34.381  26.343  23.830  1.00  0.00    +0.000 H 
ATOM      6  C4  UNL A   1      34.063  25.955  24.775  1.00  0.00    +0.000 C 
BRANCH    6    5
ATOM      5  N1  UNL A   1      32.667  25.588  24.682  1.00  0.00    +0.000 N 
ATOM     96  H5  UNL A   1      32.296  25.575  23.770  1.00  0.00    +0.000 H 
BRANCH    5    3
ATOM      3  C3  UNL A   1      31.787  25.255  25.672  1.00  0.00    +0.000 C 
ATOM      4  O1  UNL A   1      31.785  25.968  26.676  1.00  0.00    +0.000 O 
BRANCH    3    2
ATOM      2  C2  UNL A   1      30.924  23.995  25.527  1.00  0.00    +0.000 C 
ATOM     95  H4  UNL A   1      30.273  24.175  24.697  1.00  0.00    +0.000 H 
BRANCH    2    1
ATOM      1  C1  UNL A   1      30.008  23.741  26.731  1.00  0.00    +0.000 C 
ATOM     92  H1  UNL A   1      29.991  24.611  27.354  1.00  0.00    +0.000 H 
ATOM     93  H2  UNL A   1      30.377  22.908  27.291  1.00  0.00    +0.000 H 
ATOM     94  H3  UNL A   1      29.018  23.529  26.387  1.00  0.00    +0.000 H 
ENDBRANCH    2    1
BRANCH    2   78
ATOM    137  H46 UNL A   1      33.939  20.617  26.610  1.00  0.00    +0.000 H 
ATOM     78  C55 UNL A   1      31.777  22.775  25.212  1.00  0.00    +0.000 C 
ATOM     79  C56 UNL A   1      31.755  22.222  23.924  1.00  0.00    +0.000 C 
ATOM     80  C57 UNL A   1      32.483  21.065  23.637  1.00  0.00    +0.000 C 
ATOM     81  C58 UNL A   1      33.227  20.421  24.633  1.00  0.00    +0.000 C 
ATOM     89  C65 UNL A   1      33.330  21.030  25.888  1.00  0.00    +0.000 C 
ATOM     90  C66 UNL A   1      32.615  22.190  26.166  1.00  0.00    +0.000 C 
ATOM     91  F16 UNL A   1      32.716  22.713  27.396  1.00  0.00    +0.000 F 
ATOM    124  H33 UNL A   1      31.198  22.674  23.183  1.00  0.00    +0.000 H 
ATOM    125  H34 UNL A   1      32.472  20.680  22.680  1.00  0.00    +0.000 H 
BRANCH   81   82
ATOM     82  C59 UNL A   1      33.886  19.089  24.383  1.00  0.00    +0.000 C 
ATOM    126  H35 UNL A   1      34.544  18.897  25.205  1.00  0.00    +0.000 H 
ATOM    127  H36 UNL A   1      34.362  19.194  23.431  1.00  0.00    +0.000 H 
BRANCH   82   83
ATOM    129  H38 UNL A   1      31.349  17.048  25.396  1.00  0.00    +0.000 H 
ATOM    130  H39 UNL A   1      32.417  18.058  26.309  1.00  0.00    +0.000 H 
ATOM    131  H40 UNL A   1      32.543  15.249  26.097  1.00  0.00    +0.000 H 
ATOM    132  H41 UNL A   1      33.749  16.253  26.822  1.00  0.00    +0.000 H 
ATOM    133  H42 UNL A   1      34.118  14.740  24.522  1.00  0.00    +0.000 H 
ATOM    134  H43 UNL A   1      35.138  16.045  24.969  1.00  0.00    +0.000 H 
ATOM    135  H44 UNL A   1      32.808  16.043  23.062  1.00  0.00    +0.000 H 
ATOM     83  C60 UNL A   1      32.966  17.854  24.229  1.00  0.00    +0.000 C 
ATOM     84  C61 UNL A   1      32.375  17.317  25.540  1.00  0.00    +0.000 C 
ATOM     85  C62 UNL A   1      33.193  16.081  25.925  1.00  0.00    +0.000 C 
ATOM     86  C63 UNL A   1      34.123  15.785  24.753  1.00  0.00    +0.000 C 
ATOM     87  C64 UNL A   1      33.558  16.593  23.590  1.00  0.00    +0.000 C 
ATOM    128  H37 UNL A   1      32.246  18.308  23.581  1.00  0.00    +0.000 H 
BRANCH   87   88
ATOM    136  H45 UNL A   1      35.355  16.459  22.813  1.00  0.00    +0.000 H 
ATOM     88  O3  UNL A   1      34.502  16.855  22.573  1.00  0.00    +0.000 O 
ENDBRANCH   87   88
ENDBRANCH   82   83
ENDBRANCH   81   82
ENDBRANCH    2   78
ENDBRANCH    3    2
ENDBRANCH    5    3
ENDBRANCH    6    5
ENDBRANCH    7    6
ENDBRANCH    8    7
ENDBRANCH    9    8
ENDBRANCH   10    9
ENDBRANCH   11   10
ENDBRANCH   12   11
ENDBRANCH   13   12
ENDBRANCH   15   13
ENDBRANCH   19   18
BRANCH   23   24
ATOM     33  C24 UNL A   1      47.322  27.820  24.395  1.00  0.00    +0.000 C 
ATOM     34  F5  UNL A   1      46.253  28.212  23.685  1.00  0.00    +0.000 F 
ATOM     24  C19 UNL A   1      47.298  27.873  25.797  1.00  0.00    +0.000 C 
ATOM     25  C20 UNL A   1      48.442  27.446  26.489  1.00  0.00    +0.000 C 
ATOM     26  F1  UNL A   1      48.475  27.487  27.829  1.00  0.00    +0.000 F 
ATOM     27  C21 UNL A   1      49.576  27.018  25.803  1.00  0.00    +0.000 C 
ATOM     28  F2  UNL A   1      50.676  26.667  26.485  1.00  0.00    +0.000 F 
ATOM     29  C22 UNL A   1      49.575  26.971  24.418  1.00  0.00    +0.000 C 
ATOM     30  F3  UNL A   1      50.666  26.556  23.759  1.00  0.00    +0.000 F 
ATOM     31  C23 UNL A   1      48.447  27.363  23.714  1.00  0.00    +0.000 C 
ATOM     32  F4  UNL A   1      48.440  27.307  22.375  1.00  0.00    +0.000 F 
ENDBRANCH   23   24
BRANCH   40   41
ATOM     41  C30 UNL A   1      44.974  33.827  29.142  1.00  0.00    +0.000 C 
ATOM     42  C31 UNL A   1      45.786  34.132  30.243  1.00  0.00    +0.000 C 
ATOM     43  F6  UNL A   1      46.115  33.176  31.125  1.00  0.00    +0.000 F 
ATOM     44  C32 UNL A   1      46.230  35.433  30.465  1.00  0.00    +0.000 C 
ATOM     45  F7  UNL A   1      46.965  35.712  31.551  1.00  0.00    +0.000 F 
ATOM     46  C33 UNL A   1      45.900  36.444  29.574  1.00  0.00    +0.000 C 
ATOM     47  F8  UNL A   1      46.331  37.694  29.788  1.00  0.00    +0.000 F 
ATOM     48  C34 UNL A   1      45.114  36.160  28.468  1.00  0.00    +0.000 C 
ATOM     49  F9  UNL A   1      44.803  37.132  27.599  1.00  0.00    +0.000 F 
ATOM     50  C35 UNL A   1      44.644  34.866  28.259  1.00  0.00    +0.000 C 
ATOM     51  F10 UNL A   1      43.875  34.625  27.187  1.00  0.00    +0.000 F 
ENDBRANCH   40   41
BRANCH   55   56
ATOM     65  C44 UNL A   1      38.987  30.334  32.214  1.00  0.00    +0.000 C 
ATOM     66  F15 UNL A   1      40.001  29.779  32.893  1.00  0.00    +0.000 F 
ATOM     56  C39 UNL A   1      39.086  30.514  30.827  1.00  0.00    +0.000 C 
ATOM     57  C40 UNL A   1      37.997  31.095  30.162  1.00  0.00    +0.000 C 
ATOM     58  F11 UNL A   1      38.054  31.307  28.839  1.00  0.00    +0.000 F 
ATOM     59  C41 UNL A   1      36.860  31.497  30.860  1.00  0.00    +0.000 C 
ATOM     60  F12 UNL A   1      35.850  32.088  30.208  1.00  0.00    +0.000 F 
ATOM     61  C42 UNL A   1      36.779  31.300  32.231  1.00  0.00    +0.000 C 
ATOM     62  F13 UNL A   1      35.685  31.684  32.902  1.00  0.00    +0.000 F 
ATOM     63  C43 UNL A   1      37.839  30.713  32.906  1.00  0.00    +0.000 C 
ATOM     64  F14 UNL A   1      37.760  30.509  34.228  1.00  0.00    +0.000 F 
ENDBRANCH   55   56
TORSDOF 20
ENDMDL
MODEL 8
REMARK VINA RESULT:     -10.3      2.595      4.812
ROOT
ATOM     19  C15 UNL A   1      41.557  26.556  27.628  1.00  0.00    +0.000 C 
ATOM     20  C16 UNL A   1      42.954  26.846  27.151  1.00  0.00    +0.000 C 
ATOM     21  N3  UNL A   1      43.707  27.893  27.377  1.00  0.00    +0.000 N 
ATOM     22  C17 UNL A   1      44.916  27.631  26.749  1.00  0.00    +0.000 C 
ATOM     23  C18 UNL A   1      46.003  28.432  26.640  1.00  0.00    +0.000 C 
ATOM     35  C25 UNL A   1      46.087  29.763  27.182  1.00  0.00    +0.000 C 
ATOM     36  C26 UNL A   1      47.115  30.681  27.068  1.00  0.00    +0.000 C 
ATOM     37  C27 UNL A   1      46.766  31.823  27.796  1.00  0.00    +0.000 C 
ATOM     38  C28 UNL A   1      45.500  31.636  28.326  1.00  0.00    +0.000 C 
ATOM     39  N4  UNL A   1      45.097  30.365  27.945  1.00  0.00    +0.000 N 
ATOM     40  C29 UNL A   1      44.715  32.545  29.121  1.00  0.00    +0.000 C 
ATOM     52  C36 UNL A   1      43.474  32.287  29.601  1.00  0.00    +0.000 C 
ATOM     53  N5  UNL A   1      42.696  31.148  29.442  1.00  0.00    +0.000 N 
ATOM     54  C37 UNL A   1      41.586  31.375  30.100  1.00  0.00    +0.000 C 
ATOM     55  C38 UNL A   1      40.368  30.503  30.242  1.00  0.00    +0.000 C 
ATOM     67  C45 UNL A   1      40.346  29.302  29.635  1.00  0.00    +0.000 C 
ATOM     68  C46 UNL A   1      39.235  28.354  29.669  1.00  0.00    +0.000 C 
ATOM     69  C47 UNL A   1      39.573  27.260  28.966  1.00  0.00    +0.000 C 
ATOM     70  C48 UNL A   1      40.912  27.444  28.406  1.00  0.00    +0.000 C 
ATOM     71  N6  UNL A   1      41.297  28.678  28.866  1.00  0.00    +0.000 N 
ATOM     72  C49 UNL A   1      41.547  32.678  30.780  1.00  0.00    +0.000 C 
ATOM     73  C50 UNL A   1      42.703  33.209  30.409  1.00  0.00    +0.000 C 
ATOM     74  C51 UNL A   1      44.817  26.307  26.175  1.00  0.00    +0.000 C 
ATOM     75  C52 UNL A   1      43.601  25.807  26.334  1.00  0.00    +0.000 C 
ATOM    112  H21 UNL A   1      47.990  30.545  26.537  1.00  0.00    +0.000 H 
ATOM    113  H22 UNL A   1      47.353  32.663  27.917  1.00  0.00    +0.000 H 
ATOM    114  H23 UNL A   1      44.235  29.952  28.181  1.00  0.00    +0.000 H 
ATOM    115  H24 UNL A   1      38.337  28.501  30.154  1.00  0.00    +0.000 H 
ATOM    116  H25 UNL A   1      38.981  26.423  28.842  1.00  0.00    +0.000 H 
ATOM    117  H26 UNL A   1      42.175  29.079  28.664  1.00  0.00    +0.000 H 
ATOM    118  H27 UNL A   1      40.813  33.074  31.388  1.00  0.00    +0.000 H 
ATOM    119  H28 UNL A   1      43.015  34.159  30.664  1.00  0.00    +0.000 H 
ATOM    120  H29 UNL A   1      45.593  25.815  25.704  1.00  0.00    +0.000 H 
ATOM    121  H30 UNL A   1      43.209  24.922  25.977  1.00  0.00    +0.000 H 
ENDROOT
BRANCH   19   18
ATOM     76  C53 UNL A   1      39.851  25.240  26.369  1.00  0.00    +0.000 C 
ATOM     77  C54 UNL A   1      39.202  24.043  26.075  1.00  0.00    +0.000 C 
ATOM    110  H19 UNL A   1      41.044  21.975  27.972  1.00  0.00    +0.000 H 
ATOM     15  C11 UNL A   1      39.671  22.843  26.620  1.00  0.00    +0.000 C 
ATOM     16  C12 UNL A   1      40.719  22.857  27.546  1.00  0.00    +0.000 C 
ATOM     17  C13 UNL A   1      41.324  24.066  27.892  1.00  0.00    +0.000 C 
ATOM    111  H20 UNL A   1      42.079  24.080  28.595  1.00  0.00    +0.000 H 
ATOM     18  C14 UNL A   1      40.909  25.266  27.289  1.00  0.00    +0.000 C 
ATOM    122  H31 UNL A   1      39.552  26.113  25.907  1.00  0.00    +0.000 H 
ATOM    123  H32 UNL A   1      38.376  24.042  25.457  1.00  0.00    +0.000 H 
BRANCH   15   13
ATOM     13  C10 UNL A   1      39.057  21.548  26.260  1.00  0.00    +0.000 C 
ATOM     14  O2  UNL A   1      39.741  20.529  26.256  1.00  0.00    +0.000 O 
BRANCH   13   12
ATOM     12  N2  UNL A   1      37.730  21.487  25.917  1.00  0.00    +0.000 N 
ATOM    109  H18 UNL A   1      37.096  21.675  26.646  1.00  0.00    +0.000 H 
BRANCH   12   11
ATOM     11  C9  UNL A   1      37.128  21.184  24.629  1.00  0.00    +0.000 C 
ATOM    108  H17 UNL A   1      36.209  20.666  24.809  1.00  0.00    +0.000 H 
ATOM    107  H16 UNL A   1      37.808  20.583  24.063  1.00  0.00    +0.000 H 
BRANCH   11   10
ATOM    105  H14 UNL A   1      37.539  23.187  24.073  1.00  0.00    +0.000 H 
ATOM     10  C8  UNL A   1      36.807  22.444  23.834  1.00  0.00    +0.000 C 
ATOM    106  H15 UNL A   1      36.816  22.163  22.802  1.00  0.00    +0.000 H 
BRANCH   10    9
ATOM      9  C7  UNL A   1      35.422  23.035  24.110  1.00  0.00    +0.000 C 
ATOM    103  H12 UNL A   1      35.262  23.841  23.424  1.00  0.00    +0.000 H 
ATOM    104  H13 UNL A   1      34.725  22.232  23.988  1.00  0.00    +0.000 H 
BRANCH    9    8
ATOM    101  H10 UNL A   1      36.136  23.451  26.065  1.00  0.00    +0.000 H 
ATOM    102  H11 UNL A   1      34.915  24.591  25.424  1.00  0.00    +0.000 H 
ATOM      8  C6  UNL A   1      35.218  23.571  25.530  1.00  0.00    +0.000 C 
BRANCH    8    7
ATOM     99  H8  UNL A   1      34.488  22.649  27.306  1.00  0.00    +0.000 H 
ATOM    100  H9  UNL A   1      33.278  23.555  26.364  1.00  0.00    +0.000 H 
ATOM      7  C5  UNL A   1      34.107  22.878  26.333  1.00  0.00    +0.000 C 
BRANCH    7    6
ATOM     97  H6  UNL A   1      34.358  21.181  25.060  1.00  0.00    +0.000 H 
ATOM     98  H7  UNL A   1      33.362  20.886  26.476  1.00  0.00    +0.000 H 
ATOM      6  C4  UNL A   1      33.597  21.582  25.698  1.00  0.00    +0.000 C 
BRANCH    6    5
ATOM      5  N1  UNL A   1      32.405  21.829  24.917  1.00  0.00    +0.000 N 
ATOM     96  H5  UNL A   1      32.344  21.327  24.073  1.00  0.00    +0.000 H 
BRANCH    5    3
ATOM      3  C3  UNL A   1      31.349  22.654  25.180  1.00  0.00    +0.000 C 
ATOM      4  O1  UNL A   1      30.589  22.312  26.088  1.00  0.00    +0.000 O 
BRANCH    3    2
ATOM      2  C2  UNL A   1      31.117  23.892  24.304  1.00  0.00    +0.000 C 
ATOM     95  H4  UNL A   1      30.066  23.922  24.105  1.00  0.00    +0.000 H 
BRANCH    2    1
ATOM      1  C1  UNL A   1      31.799  23.806  22.933  1.00  0.00    +0.000 C 
ATOM     92  H1  UNL A   1      31.397  24.559  22.288  1.00  0.00    +0.000 H 
ATOM     93  H2  UNL A   1      31.623  22.840  22.507  1.00  0.00    +0.000 H 
ATOM     94  H3  UNL A   1      32.851  23.959  23.048  1.00  0.00    +0.000 H 
ENDBRANCH    2    1
BRANCH    2   78
ATOM    137  H46 UNL A   1      30.414  27.310  27.385  1.00  0.00    +0.000 H 
ATOM     78  C55 UNL A   1      31.503  25.167  25.038  1.00  0.00    +0.000 C 
ATOM     79  C56 UNL A   1      32.728  25.788  24.760  1.00  0.00    +0.000 C 
ATOM     80  C57 UNL A   1      33.125  26.924  25.471  1.00  0.00    +0.000 C 
ATOM     81  C58 UNL A   1      32.322  27.447  26.491  1.00  0.00    +0.000 C 
ATOM     89  C65 UNL A   1      31.055  26.888  26.696  1.00  0.00    +0.000 C 
ATOM     90  C66 UNL A   1      30.658  25.766  25.976  1.00  0.00    +0.000 C 
ATOM     91  F16 UNL A   1      29.452  25.245  26.238  1.00  0.00    +0.000 F 
ATOM    124  H33 UNL A   1      33.341  25.406  24.024  1.00  0.00    +0.000 H 
ATOM    125  H34 UNL A   1      34.021  27.381  25.243  1.00  0.00    +0.000 H 
BRANCH   81   82
ATOM     82  C59 UNL A   1      32.804  28.569  27.373  1.00  0.00    +0.000 C 
ATOM    126  H35 UNL A   1      33.217  28.129  28.256  1.00  0.00    +0.000 H 
ATOM    127  H36 UNL A   1      31.943  29.185  27.528  1.00  0.00    +0.000 H 
BRANCH   82   83
ATOM    129  H38 UNL A   1      35.993  29.371  26.468  1.00  0.00    +0.000 H 
ATOM    130  H39 UNL A   1      35.404  28.294  27.687  1.00  0.00    +0.000 H 
ATOM    131  H40 UNL A   1      36.509  30.854  28.109  1.00  0.00    +0.000 H 
ATOM    132  H41 UNL A   1      35.720  29.895  29.310  1.00  0.00    +0.000 H 
ATOM    133  H42 UNL A   1      34.780  32.327  28.355  1.00  0.00    +0.000 H 
ATOM    134  H43 UNL A   1      33.796  31.195  29.188  1.00  0.00    +0.000 H 
ATOM    135  H44 UNL A   1      34.103  31.598  26.221  1.00  0.00    +0.000 H 
ATOM     83  C60 UNL A   1      33.872  29.527  26.791  1.00  0.00    +0.000 C 
ATOM     84  C61 UNL A   1      35.304  29.279  27.283  1.00  0.00    +0.000 C 
ATOM     85  C62 UNL A   1      35.601  30.340  28.346  1.00  0.00    +0.000 C 
ATOM     86  C63 UNL A   1      34.429  31.316  28.334  1.00  0.00    +0.000 C 
ATOM     87  C64 UNL A   1      33.694  31.030  27.030  1.00  0.00    +0.000 C 
ATOM    128  H37 UNL A   1      33.717  29.283  25.761  1.00  0.00    +0.000 H 
BRANCH   87   88
ATOM    136  H45 UNL A   1      31.809  30.817  27.533  1.00  0.00    +0.000 H 
ATOM     88  O3  UNL A   1      32.347  31.454  27.036  1.00  0.00    +0.000 O 
ENDBRANCH   87   88
ENDBRANCH   82   83
ENDBRANCH   81   82
ENDBRANCH    2   78
ENDBRANCH    3    2
ENDBRANCH    5    3
ENDBRANCH    6    5
ENDBRANCH    7    6
ENDBRANCH    8    7
ENDBRANCH    9    8
ENDBRANCH   10    9
ENDBRANCH   11   10
ENDBRANCH   12   11
ENDBRANCH   13   12
ENDBRANCH   15   13
ENDBRANCH   19   18
BRANCH   23   24
ATOM     33  C24 UNL A   1      47.213  27.867  24.500  1.00  0.00    +0.000 C 
ATOM     34  F5  UNL A   1      46.175  28.348  23.801  1.00  0.00    +0.000 F 
ATOM     24  C19 UNL A   1      47.193  27.888  25.903  1.00  0.00    +0.000 C 
ATOM     25  C20 UNL A   1      48.305  27.366  26.583  1.00  0.00    +0.000 C 
ATOM     26  F1  UNL A   1      48.341  27.373  27.923  1.00  0.00    +0.000 F 
ATOM     27  C21 UNL A   1      49.406  26.877  25.885  1.00  0.00    +0.000 C 
ATOM     28  F2  UNL A   1      50.479  26.435  26.556  1.00  0.00    +0.000 F 
ATOM     29  C22 UNL A   1      49.403  26.863  24.499  1.00  0.00    +0.000 C 
ATOM     30  F3  UNL A   1      50.462  26.390  23.828  1.00  0.00    +0.000 F 
ATOM     31  C23 UNL A   1      48.304  27.349  23.806  1.00  0.00    +0.000 C 
ATOM     32  F4  UNL A   1      48.294  27.326  22.466  1.00  0.00    +0.000 F 
ENDBRANCH   23   24
BRANCH   40   41
ATOM     41  C30 UNL A   1      45.299  33.894  29.421  1.00  0.00    +0.000 C 
ATOM     42  C31 UNL A   1      46.100  34.116  30.550  1.00  0.00    +0.000 C 
ATOM     43  F6  UNL A   1      46.326  33.121  31.422  1.00  0.00    +0.000 F 
ATOM     44  C32 UNL A   1      46.637  35.373  30.811  1.00  0.00    +0.000 C 
ATOM     45  F7  UNL A   1      47.359  35.574  31.922  1.00  0.00    +0.000 F 
ATOM     46  C33 UNL A   1      46.413  36.423  29.931  1.00  0.00    +0.000 C 
ATOM     47  F8  UNL A   1      46.934  37.631  30.181  1.00  0.00    +0.000 F 
ATOM     48  C34 UNL A   1      45.641  36.220  28.797  1.00  0.00    +0.000 C 
ATOM     49  F9  UNL A   1      45.433  37.229  27.939  1.00  0.00    +0.000 F 
ATOM     50  C35 UNL A   1      45.078  34.971  28.549  1.00  0.00    +0.000 C 
ATOM     51  F10 UNL A   1      44.325  34.810  27.451  1.00  0.00    +0.000 F 
ENDBRANCH   40   41
BRANCH   55   56
ATOM     65  C44 UNL A   1      38.197  31.771  30.407  1.00  0.00    +0.000 C 
ATOM     66  F15 UNL A   1      38.317  32.139  29.123  1.00  0.00    +0.000 F 
ATOM     56  C39 UNL A   1      39.182  30.971  31.003  1.00  0.00    +0.000 C 
ATOM     57  C40 UNL A   1      39.011  30.617  32.349  1.00  0.00    +0.000 C 
ATOM     58  F11 UNL A   1      39.916  29.836  32.957  1.00  0.00    +0.000 F 
ATOM     59  C41 UNL A   1      37.891  31.033  33.066  1.00  0.00    +0.000 C 
ATOM     60  F12 UNL A   1      37.731  30.646  34.339  1.00  0.00    +0.000 F 
ATOM     61  C42 UNL A   1      36.934  31.833  32.458  1.00  0.00    +0.000 C 
ATOM     62  F13 UNL A   1      35.858  32.235  33.148  1.00  0.00    +0.000 F 
ATOM     63  C43 UNL A   1      37.091  32.208  31.132  1.00  0.00    +0.000 C 
ATOM     64  F14 UNL A   1      36.175  32.991  30.545  1.00  0.00    +0.000 F 
ENDBRANCH   55   56
TORSDOF 20
ENDMDL
MODEL 9
REMARK VINA RESULT:     -10.3      1.161      1.793
ROOT
ATOM     19  C15 UNL A   1      40.485  28.052  29.165  1.00  0.00    +0.000 C 
ATOM     20  C16 UNL A   1      41.878  28.162  29.721  1.00  0.00    +0.000 C 
ATOM     21  N3  UNL A   1      42.412  29.117  30.441  1.00  0.00    +0.000 N 
ATOM     22  C17 UNL A   1      43.703  28.697  30.727  1.00  0.00    +0.000 C 
ATOM     23  C18 UNL A   1      44.680  29.359  31.393  1.00  0.00    +0.000 C 
ATOM     35  C25 UNL A   1      44.533  30.684  31.938  1.00  0.00    +0.000 C 
ATOM     36  C26 UNL A   1      45.481  31.469  32.569  1.00  0.00    +0.000 C 
ATOM     37  C27 UNL A   1      44.868  32.663  32.965  1.00  0.00    +0.000 C 
ATOM     38  C28 UNL A   1      43.549  32.641  32.540  1.00  0.00    +0.000 C 
ATOM     39  N4  UNL A   1      43.356  31.419  31.915  1.00  0.00    +0.000 N 
ATOM     40  C29 UNL A   1      42.539  33.657  32.692  1.00  0.00    +0.000 C 
ATOM     52  C36 UNL A   1      41.265  33.560  32.242  1.00  0.00    +0.000 C 
ATOM     53  N5  UNL A   1      40.659  32.519  31.552  1.00  0.00    +0.000 N 
ATOM     54  C37 UNL A   1      39.419  32.893  31.349  1.00  0.00    +0.000 C 
ATOM     55  C38 UNL A   1      38.316  32.176  30.620  1.00  0.00    +0.000 C 
ATOM     67  C45 UNL A   1      38.564  30.971  30.073  1.00  0.00    +0.000 C 
ATOM     68  C46 UNL A   1      37.603  30.164  29.326  1.00  0.00    +0.000 C 
ATOM     69  C47 UNL A   1      38.196  29.020  28.944  1.00  0.00    +0.000 C 
ATOM     70  C48 UNL A   1      39.589  29.030  29.393  1.00  0.00    +0.000 C 
ATOM     71  N6  UNL A   1      39.714  30.220  30.065  1.00  0.00    +0.000 N 
ATOM     72  C49 UNL A   1      39.089  34.207  31.919  1.00  0.00    +0.000 C 
ATOM     73  C50 UNL A   1      40.258  34.587  32.414  1.00  0.00    +0.000 C 
ATOM     74  C51 UNL A   1      43.859  27.380  30.148  1.00  0.00    +0.000 C 
ATOM     75  C52 UNL A   1      42.785  27.033  29.455  1.00  0.00    +0.000 C 
ATOM    112  H21 UNL A   1      46.470  31.217  32.722  1.00  0.00    +0.000 H 
ATOM    113  H22 UNL A   1      45.321  33.430  33.486  1.00  0.00    +0.000 H 
ATOM    114  H23 UNL A   1      42.509  31.117  31.515  1.00  0.00    +0.000 H 
ATOM    115  H24 UNL A   1      36.628  30.429  29.124  1.00  0.00    +0.000 H 
ATOM    116  H25 UNL A   1      37.741  28.258  28.418  1.00  0.00    +0.000 H 
ATOM    117  H26 UNL A   1      40.549  30.508  30.501  1.00  0.00    +0.000 H 
ATOM    118  H27 UNL A   1      38.184  34.703  31.931  1.00  0.00    +0.000 H 
ATOM    119  H28 UNL A   1      40.429  35.499  32.865  1.00  0.00    +0.000 H 
ATOM    120  H29 UNL A   1      44.697  26.788  30.262  1.00  0.00    +0.000 H 
ATOM    121  H30 UNL A   1      42.626  26.193  28.879  1.00  0.00    +0.000 H 
ENDROOT
BRANCH   19   18
ATOM     76  C53 UNL A   1      40.478  26.684  27.078  1.00  0.00    +0.000 C 
ATOM     77  C54 UNL A   1      40.065  25.575  26.344  1.00  0.00    +0.000 C 
ATOM    110  H19 UNL A   1      38.356  23.971  28.748  1.00  0.00    +0.000 H 
ATOM     15  C11 UNL A   1      39.335  24.558  26.969  1.00  0.00    +0.000 C 
ATOM     16  C12 UNL A   1      38.922  24.706  28.296  1.00  0.00    +0.000 C 
ATOM     17  C13 UNL A   1      39.278  25.852  29.010  1.00  0.00    +0.000 C 
ATOM    111  H20 UNL A   1      38.952  25.974  29.981  1.00  0.00    +0.000 H 
ATOM     18  C14 UNL A   1      40.078  26.840  28.413  1.00  0.00    +0.000 C 
ATOM    122  H31 UNL A   1      41.081  27.396  26.636  1.00  0.00    +0.000 H 
ATOM    123  H32 UNL A   1      40.297  25.502  25.342  1.00  0.00    +0.000 H 
BRANCH   15   13
ATOM     13  C10 UNL A   1      38.956  23.329  26.239  1.00  0.00    +0.000 C 
ATOM     14  O2  UNL A   1      39.679  22.339  26.296  1.00  0.00    +0.000 O 
BRANCH   13   12
ATOM     12  N2  UNL A   1      37.808  23.300  25.489  1.00  0.00    +0.000 N 
ATOM    109  H18 UNL A   1      37.852  23.780  24.631  1.00  0.00    +0.000 H 
BRANCH   12   11
ATOM     11  C9  UNL A   1      36.536  22.661  25.783  1.00  0.00    +0.000 C 
ATOM    108  H17 UNL A   1      36.673  22.034  26.640  1.00  0.00    +0.000 H 
ATOM    107  H16 UNL A   1      36.230  22.092  24.930  1.00  0.00    +0.000 H 
BRANCH   11   10
ATOM    105  H14 UNL A   1      34.636  23.155  26.579  1.00  0.00    +0.000 H 
ATOM     10  C8  UNL A   1      35.447  23.675  26.114  1.00  0.00    +0.000 C 
ATOM    106  H15 UNL A   1      35.897  24.407  26.751  1.00  0.00    +0.000 H 
BRANCH   10    9
ATOM      9  C7  UNL A   1      34.895  24.434  24.904  1.00  0.00    +0.000 C 
ATOM    103  H12 UNL A   1      35.717  24.687  24.267  1.00  0.00    +0.000 H 
ATOM    104  H13 UNL A   1      34.185  23.781  24.440  1.00  0.00    +0.000 H 
BRANCH    9    8
ATOM    101  H10 UNL A   1      33.172  25.452  25.613  1.00  0.00    +0.000 H 
ATOM    102  H11 UNL A   1      34.740  26.246  25.951  1.00  0.00    +0.000 H 
ATOM      8  C6  UNL A   1      34.137  25.722  25.239  1.00  0.00    +0.000 C 
BRANCH    8    7
ATOM     99  H8  UNL A   1      34.898  26.925  23.654  1.00  0.00    +0.000 H 
ATOM    100  H9  UNL A   1      33.307  26.184  23.354  1.00  0.00    +0.000 H 
ATOM      7  C5  UNL A   1      33.938  26.685  24.059  1.00  0.00    +0.000 C 
BRANCH    7    6
ATOM     97  H6  UNL A   1      32.803  27.889  25.411  1.00  0.00    +0.000 H 
ATOM     98  H7  UNL A   1      33.951  28.783  24.428  1.00  0.00    +0.000 H 
ATOM      6  C4  UNL A   1      33.233  27.991  24.436  1.00  0.00    +0.000 C 
BRANCH    6    5
ATOM      5  N1  UNL A   1      32.188  28.300  23.485  1.00  0.00    +0.000 N 
ATOM     96  H5  UNL A   1      32.494  28.470  22.565  1.00  0.00    +0.000 H 
BRANCH    5    3
ATOM      3  C3  UNL A   1      30.838  28.390  23.674  1.00  0.00    +0.000 C 
ATOM      4  O1  UNL A   1      30.425  29.393  24.258  1.00  0.00    +0.000 O 
BRANCH    3    2
ATOM      2  C2  UNL A   1      29.932  27.232  23.236  1.00  0.00    +0.000 C 
ATOM     95  H4  UNL A   1      29.987  27.199  22.168  1.00  0.00    +0.000 H 
BRANCH    2    1
ATOM      1  C1  UNL A   1      28.452  27.455  23.572  1.00  0.00    +0.000 C 
ATOM     92  H1  UNL A   1      28.071  28.261  22.981  1.00  0.00    +0.000 H 
ATOM     93  H2  UNL A   1      28.354  27.696  24.610  1.00  0.00    +0.000 H 
ATOM     94  H3  UNL A   1      27.900  26.564  23.359  1.00  0.00    +0.000 H 
ENDBRANCH    2    1
BRANCH    2   78
ATOM    137  H46 UNL A   1      30.814  24.189  26.648  1.00  0.00    +0.000 H 
ATOM     78  C55 UNL A   1      30.432  25.903  23.783  1.00  0.00    +0.000 C 
ATOM     79  C56 UNL A   1      30.932  24.931  22.906  1.00  0.00    +0.000 C 
ATOM     80  C57 UNL A   1      31.335  23.682  23.387  1.00  0.00    +0.000 C 
ATOM     81  C58 UNL A   1      31.224  23.368  24.746  1.00  0.00    +0.000 C 
ATOM     89  C65 UNL A   1      30.822  24.373  25.633  1.00  0.00    +0.000 C 
ATOM     90  C66 UNL A   1      30.435  25.620  25.152  1.00  0.00    +0.000 C 
ATOM     91  F16 UNL A   1      30.021  26.536  26.038  1.00  0.00    +0.000 F 
ATOM    124  H33 UNL A   1      31.004  25.139  21.899  1.00  0.00    +0.000 H 
ATOM    125  H34 UNL A   1      31.718  22.984  22.731  1.00  0.00    +0.000 H 
BRANCH   81   82
ATOM     82  C59 UNL A   1      31.502  21.978  25.256  1.00  0.00    +0.000 C 
ATOM    126  H35 UNL A   1      30.640  21.379  25.043  1.00  0.00    +0.000 H 
ATOM    127  H36 UNL A   1      31.724  22.107  26.294  1.00  0.00    +0.000 H 
BRANCH   82   83
ATOM    129  H38 UNL A   1      33.185  20.372  22.763  1.00  0.00    +0.000 H 
ATOM    130  H39 UNL A   1      31.488  20.514  23.068  1.00  0.00    +0.000 H 
ATOM    131  H40 UNL A   1      33.088  18.237  23.530  1.00  0.00    +0.000 H 
ATOM    132  H41 UNL A   1      31.452  18.434  24.052  1.00  0.00    +0.000 H 
ATOM    133  H42 UNL A   1      33.642  18.214  25.746  1.00  0.00    +0.000 H 
ATOM    134  H43 UNL A   1      32.125  18.845  26.240  1.00  0.00    +0.000 H 
ATOM    135  H44 UNL A   1      34.581  20.335  25.340  1.00  0.00    +0.000 H 
ATOM     83  C60 UNL A   1      32.733  21.239  24.679  1.00  0.00    +0.000 C 
ATOM     84  C61 UNL A   1      32.431  20.283  23.517  1.00  0.00    +0.000 C 
ATOM     85  C62 UNL A   1      32.430  18.864  24.094  1.00  0.00    +0.000 C 
ATOM     86  C63 UNL A   1      32.919  18.974  25.534  1.00  0.00    +0.000 C 
ATOM     87  C64 UNL A   1      33.551  20.358  25.629  1.00  0.00    +0.000 C 
ATOM    128  H37 UNL A   1      33.286  22.109  24.393  1.00  0.00    +0.000 H 
BRANCH   87   88
ATOM    136  H45 UNL A   1      32.731  20.995  27.294  1.00  0.00    +0.000 H 
ATOM     88  O3  UNL A   1      33.627  20.855  26.949  1.00  0.00    +0.000 O 
ENDBRANCH   87   88
ENDBRANCH   82   83
ENDBRANCH   81   82
ENDBRANCH    2   78
ENDBRANCH    3    2
ENDBRANCH    5    3
ENDBRANCH    6    5
ENDBRANCH    7    6
ENDBRANCH    8    7
ENDBRANCH    9    8
ENDBRANCH   10    9
ENDBRANCH   11   10
ENDBRANCH   12   11
ENDBRANCH   13   12
ENDBRANCH   15   13
ENDBRANCH   19   18
BRANCH   23   24
ATOM     33  C24 UNL A   1      46.995  28.766  30.589  1.00  0.00    +0.000 C 
ATOM     34  F5  UNL A   1      46.790  29.509  29.491  1.00  0.00    +0.000 F 
ATOM     24  C19 UNL A   1      45.996  28.659  31.568  1.00  0.00    +0.000 C 
ATOM     25  C20 UNL A   1      46.263  27.864  32.694  1.00  0.00    +0.000 C 
ATOM     26  F1  UNL A   1      45.347  27.738  33.664  1.00  0.00    +0.000 F 
ATOM     27  C21 UNL A   1      47.494  27.231  32.848  1.00  0.00    +0.000 C 
ATOM     28  F2  UNL A   1      47.746  26.522  33.957  1.00  0.00    +0.000 F 
ATOM     29  C22 UNL A   1      48.465  27.348  31.866  1.00  0.00    +0.000 C 
ATOM     30  F3  UNL A   1      49.649  26.737  32.014  1.00  0.00    +0.000 F 
ATOM     31  C23 UNL A   1      48.214  28.108  30.732  1.00  0.00    +0.000 C 
ATOM     32  F4  UNL A   1      49.147  28.212  29.776  1.00  0.00    +0.000 F 
ENDBRANCH   23   24
BRANCH   40   41
ATOM     41  C30 UNL A   1      42.930  34.933  33.377  1.00  0.00    +0.000 C 
ATOM     42  C31 UNL A   1      43.409  36.038  32.658  1.00  0.00    +0.000 C 
ATOM     43  F6  UNL A   1      43.572  35.958  31.329  1.00  0.00    +0.000 F 
ATOM     44  C32 UNL A   1      43.763  37.216  33.310  1.00  0.00    +0.000 C 
ATOM     45  F7  UNL A   1      44.265  38.242  32.609  1.00  0.00    +0.000 F 
ATOM     46  C33 UNL A   1      43.612  37.324  34.685  1.00  0.00    +0.000 C 
ATOM     47  F8  UNL A   1      43.950  38.460  35.309  1.00  0.00    +0.000 F 
ATOM     48  C34 UNL A   1      43.121  36.251  35.412  1.00  0.00    +0.000 C 
ATOM     49  F9  UNL A   1      42.963  36.357  36.739  1.00  0.00    +0.000 F 
ATOM     50  C35 UNL A   1      42.794  35.062  34.768  1.00  0.00    +0.000 C 
ATOM     51  F10 UNL A   1      42.334  34.037  35.500  1.00  0.00    +0.000 F 
ENDBRANCH   40   41
BRANCH   55   56
ATOM     65  C44 UNL A   1      36.621  33.481  29.288  1.00  0.00    +0.000 C 
ATOM     66  F15 UNL A   1      37.499  33.588  28.280  1.00  0.00    +0.000 F 
ATOM     56  C39 UNL A   1      36.978  32.801  30.461  1.00  0.00    +0.000 C 
ATOM     57  C40 UNL A   1      36.026  32.721  31.487  1.00  0.00    +0.000 C 
ATOM     58  F11 UNL A   1      36.314  32.062  32.619  1.00  0.00    +0.000 F 
ATOM     59  C41 UNL A   1      34.761  33.285  31.339  1.00  0.00    +0.000 C 
ATOM     60  F12 UNL A   1      33.855  33.159  32.319  1.00  0.00    +0.000 F 
ATOM     61  C42 UNL A   1      34.433  33.962  30.174  1.00  0.00    +0.000 C 
ATOM     62  F13 UNL A   1      33.217  34.507  30.033  1.00  0.00    +0.000 F 
ATOM     63  C43 UNL A   1      35.365  34.067  29.152  1.00  0.00    +0.000 C 
ATOM     64  F14 UNL A   1      35.056  34.731  28.030  1.00  0.00    +0.000 F 
ENDBRANCH   55   56
TORSDOF 20
ENDMDL
MODEL 10
REMARK VINA RESULT:     -10.3      3.236      8.761
ROOT
ATOM     19  C15 UNL A   1      40.105  28.967  29.299  1.00  0.00    +0.000 C 
ATOM     20  C16 UNL A   1      40.990  29.850  30.136  1.00  0.00    +0.000 C 
ATOM     21  N3  UNL A   1      42.238  29.675  30.491  1.00  0.00    +0.000 N 
ATOM     22  C17 UNL A   1      42.586  30.807  31.215  1.00  0.00    +0.000 C 
ATOM     23  C18 UNL A   1      43.751  31.080  31.850  1.00  0.00    +0.000 C 
ATOM     35  C25 UNL A   1      44.882  30.189  31.886  1.00  0.00    +0.000 C 
ATOM     36  C26 UNL A   1      46.082  30.341  32.557  1.00  0.00    +0.000 C 
ATOM     37  C27 UNL A   1      46.891  29.238  32.262  1.00  0.00    +0.000 C 
ATOM     38  C28 UNL A   1      46.178  28.378  31.443  1.00  0.00    +0.000 C 
ATOM     39  N4  UNL A   1      44.949  28.975  31.217  1.00  0.00    +0.000 N 
ATOM     40  C29 UNL A   1      46.587  27.104  30.906  1.00  0.00    +0.000 C 
ATOM     52  C36 UNL A   1      45.825  26.315  30.111  1.00  0.00    +0.000 C 
ATOM     53  N5  UNL A   1      44.531  26.525  29.655  1.00  0.00    +0.000 N 
ATOM     54  C37 UNL A   1      44.237  25.486  28.912  1.00  0.00    +0.000 C 
ATOM     55  C38 UNL A   1      42.955  25.162  28.193  1.00  0.00    +0.000 C 
ATOM     67  C45 UNL A   1      41.920  26.017  28.278  1.00  0.00    +0.000 C 
ATOM     68  C46 UNL A   1      40.614  25.835  27.650  1.00  0.00    +0.000 C 
ATOM     69  C47 UNL A   1      39.838  26.893  27.939  1.00  0.00    +0.000 C 
ATOM     70  C48 UNL A   1      40.583  27.813  28.799  1.00  0.00    +0.000 C 
ATOM     71  N6  UNL A   1      41.812  27.218  28.936  1.00  0.00    +0.000 N 
ATOM     72  C49 UNL A   1      45.329  24.510  28.788  1.00  0.00    +0.000 C 
ATOM     73  C50 UNL A   1      46.256  25.043  29.570  1.00  0.00    +0.000 C 
ATOM     74  C51 UNL A   1      41.436  31.686  31.207  1.00  0.00    +0.000 C 
ATOM     75  C52 UNL A   1      40.400  31.110  30.615  1.00  0.00    +0.000 C 
ATOM    112  H21 UNL A   1      46.336  31.132  33.170  1.00  0.00    +0.000 H 
ATOM    113  H22 UNL A   1      47.856  29.093  32.597  1.00  0.00    +0.000 H 
ATOM    114  H23 UNL A   1      44.230  28.594  30.663  1.00  0.00    +0.000 H 
ATOM    115  H24 UNL A   1      40.333  25.024  27.079  1.00  0.00    +0.000 H 
ATOM    116  H25 UNL A   1      38.871  27.033  27.607  1.00  0.00    +0.000 H 
ATOM    117  H26 UNL A   1      42.548  27.615  29.458  1.00  0.00    +0.000 H 
ATOM    118  H27 UNL A   1      45.364  23.639  28.235  1.00  0.00    +0.000 H 
ATOM    119  H28 UNL A   1      47.170  24.606  29.769  1.00  0.00    +0.000 H 
ATOM    120  H29 UNL A   1      41.425  32.636  31.610  1.00  0.00    +0.000 H 
ATOM    121  H30 UNL A   1      39.434  31.456  30.516  1.00  0.00    +0.000 H 
ENDROOT
BRANCH   19   18
ATOM     76  C53 UNL A   1      37.714  29.279  29.944  1.00  0.00    +0.000 C 
ATOM     77  C54 UNL A   1      36.402  29.633  29.640  1.00  0.00    +0.000 C 
ATOM    110  H19 UNL A   1      36.868  30.703  26.492  1.00  0.00    +0.000 H 
ATOM     15  C11 UNL A   1      36.103  30.202  28.397  1.00  0.00    +0.000 C 
ATOM     16  C12 UNL A   1      37.096  30.313  27.420  1.00  0.00    +0.000 C 
ATOM     17  C13 UNL A   1      38.398  29.894  27.703  1.00  0.00    +0.000 C 
ATOM    111  H20 UNL A   1      39.125  29.951  26.973  1.00  0.00    +0.000 H 
ATOM     18  C14 UNL A   1      38.722  29.394  28.975  1.00  0.00    +0.000 C 
ATOM    122  H31 UNL A   1      37.946  28.931  30.887  1.00  0.00    +0.000 H 
ATOM    123  H32 UNL A   1      35.651  29.475  30.330  1.00  0.00    +0.000 H 
BRANCH   15   13
ATOM     13  C10 UNL A   1      34.736  30.666  28.078  1.00  0.00    +0.000 C 
ATOM     14  O2  UNL A   1      34.226  31.563  28.741  1.00  0.00    +0.000 O 
BRANCH   13   12
ATOM     12  N2  UNL A   1      34.034  30.084  27.052  1.00  0.00    +0.000 N 
ATOM    109  H18 UNL A   1      34.395  29.229  26.725  1.00  0.00    +0.000 H 
BRANCH   12   11
ATOM     11  C9  UNL A   1      32.833  30.553  26.381  1.00  0.00    +0.000 C 
ATOM    108  H17 UNL A   1      33.121  30.943  25.426  1.00  0.00    +0.000 H 
ATOM    107  H16 UNL A   1      32.372  31.306  26.984  1.00  0.00    +0.000 H 
BRANCH   11   10
ATOM    105  H14 UNL A   1      30.852  29.858  26.093  1.00  0.00    +0.000 H 
ATOM     10  C8  UNL A   1      31.831  29.429  26.145  1.00  0.00    +0.000 C 
ATOM    106  H15 UNL A   1      32.125  28.945  25.237  1.00  0.00    +0.000 H 
BRANCH   10    9
ATOM      9  C7  UNL A   1      31.820  28.348  27.228  1.00  0.00    +0.000 C 
ATOM    103  H12 UNL A   1      32.498  28.645  28.001  1.00  0.00    +0.000 H 
ATOM    104  H13 UNL A   1      30.807  28.268  27.562  1.00  0.00    +0.000 H 
BRANCH    9    8
ATOM    101  H10 UNL A   1      32.536  26.385  27.605  1.00  0.00    +0.000 H 
ATOM    102  H11 UNL A   1      31.368  26.542  26.259  1.00  0.00    +0.000 H 
ATOM      8  C6  UNL A   1      32.226  26.949  26.751  1.00  0.00    +0.000 C 
BRANCH    8    7
ATOM     99  H8  UNL A   1      32.942  27.067  24.749  1.00  0.00    +0.000 H 
ATOM    100  H9  UNL A   1      34.051  27.692  25.994  1.00  0.00    +0.000 H 
ATOM      7  C5  UNL A   1      33.364  26.918  25.721  1.00  0.00    +0.000 C 
BRANCH    7    6
ATOM     97  H6  UNL A   1      34.843  25.620  24.889  1.00  0.00    +0.000 H 
ATOM     98  H7  UNL A   1      34.681  25.514  26.634  1.00  0.00    +0.000 H 
ATOM      6  C4  UNL A   1      34.154  25.607  25.708  1.00  0.00    +0.000 C 
BRANCH    6    5
ATOM      5  N1  UNL A   1      33.264  24.475  25.563  1.00  0.00    +0.000 N 
ATOM     96  H5  UNL A   1      32.994  24.043  26.405  1.00  0.00    +0.000 H 
BRANCH    5    3
ATOM      3  C3  UNL A   1      32.742  23.919  24.430  1.00  0.00    +0.000 C 
ATOM      4  O1  UNL A   1      33.540  23.394  23.651  1.00  0.00    +0.000 O 
BRANCH    3    2
ATOM      2  C2  UNL A   1      31.239  24.039  24.149  1.00  0.00    +0.000 C 
ATOM     95  H4  UNL A   1      30.748  23.880  25.086  1.00  0.00    +0.000 H 
BRANCH    2    1
ATOM      1  C1  UNL A   1      30.706  22.952  23.207  1.00  0.00    +0.000 C 
ATOM     92  H1  UNL A   1      31.503  22.292  22.938  1.00  0.00    +0.000 H 
ATOM     93  H2  UNL A   1      30.307  23.409  22.325  1.00  0.00    +0.000 H 
ATOM     94  H3  UNL A   1      29.935  22.399  23.701  1.00  0.00    +0.000 H 
ENDBRANCH    2    1
BRANCH    2   78
ATOM    137  H46 UNL A   1      28.907  28.064  24.322  1.00  0.00    +0.000 H 
ATOM     78  C55 UNL A   1      30.882  25.431  23.650  1.00  0.00    +0.000 C 
ATOM     79  C56 UNL A   1      31.530  25.956  22.523  1.00  0.00    +0.000 C 
ATOM     80  C57 UNL A   1      31.259  27.257  22.091  1.00  0.00    +0.000 C 
ATOM     81  C58 UNL A   1      30.357  28.070  22.787  1.00  0.00    +0.000 C 
ATOM     89  C65 UNL A   1      29.636  27.510  23.848  1.00  0.00    +0.000 C 
ATOM     90  C66 UNL A   1      29.899  26.210  24.266  1.00  0.00    +0.000 C 
ATOM     91  F16 UNL A   1      29.210  25.733  25.313  1.00  0.00    +0.000 F 
ATOM    124  H33 UNL A   1      32.211  25.377  22.008  1.00  0.00    +0.000 H 
ATOM    125  H34 UNL A   1      31.729  27.623  21.249  1.00  0.00    +0.000 H 
BRANCH   81   82
ATOM     82  C59 UNL A   1      30.173  29.522  22.432  1.00  0.00    +0.000 C 
ATOM    126  H35 UNL A   1      30.477  29.644  21.413  1.00  0.00    +0.000 H 
ATOM    127  H36 UNL A   1      30.758  30.056  23.151  1.00  0.00    +0.000 H 
BRANCH   82   83
ATOM    129  H38 UNL A   1      27.015  30.121  21.291  1.00  0.00    +0.000 H 
ATOM    130  H39 UNL A   1      28.496  29.870  20.432  1.00  0.00    +0.000 H 
ATOM    131  H40 UNL A   1      27.180  32.336  20.814  1.00  0.00    +0.000 H 
ATOM    132  H41 UNL A   1      28.765  32.139  20.155  1.00  0.00    +0.000 H 
ATOM    133  H42 UNL A   1      28.193  33.402  22.562  1.00  0.00    +0.000 H 
ATOM    134  H43 UNL A   1      29.755  32.826  22.145  1.00  0.00    +0.000 H 
ATOM    135  H44 UNL A   1      27.636  31.485  23.811  1.00  0.00    +0.000 H 
ATOM     83  C60 UNL A   1      28.749  30.115  22.564  1.00  0.00    +0.000 C 
ATOM     84  C61 UNL A   1      28.044  30.413  21.235  1.00  0.00    +0.000 C 
ATOM     85  C62 UNL A   1      28.149  31.924  21.002  1.00  0.00    +0.000 C 
ATOM     86  C63 UNL A   1      28.736  32.526  22.275  1.00  0.00    +0.000 C 
ATOM     87  C64 UNL A   1      28.589  31.434  23.328  1.00  0.00    +0.000 C 
ATOM    128  H37 UNL A   1      28.320  29.302  23.112  1.00  0.00    +0.000 H 
BRANCH   87   88
ATOM    136  H45 UNL A   1      28.970  31.710  25.233  1.00  0.00    +0.000 H 
ATOM     88  O3  UNL A   1      29.478  31.577  24.417  1.00  0.00    +0.000 O 
ENDBRANCH   87   88
ENDBRANCH   82   83
ENDBRANCH   81   82
ENDBRANCH    2   78
ENDBRANCH    3    2
ENDBRANCH    5    3
ENDBRANCH    6    5
ENDBRANCH    7    6
ENDBRANCH    8    7
ENDBRANCH    9    8
ENDBRANCH   10    9
ENDBRANCH   11   10
ENDBRANCH   12   11
ENDBRANCH   13   12
ENDBRANCH   15   13
ENDBRANCH   19   18
BRANCH   23   24
ATOM     33  C24 UNL A   1      43.444  32.526  33.893  1.00  0.00    +0.000 C 
ATOM     34  F5  UNL A   1      42.957  31.465  34.555  1.00  0.00    +0.000 F 
ATOM     24  C19 UNL A   1      43.861  32.398  32.560  1.00  0.00    +0.000 C 
ATOM     25  C20 UNL A   1      44.358  33.542  31.916  1.00  0.00    +0.000 C 
ATOM     26  F1  UNL A   1      44.781  33.472  30.645  1.00  0.00    +0.000 F 
ATOM     27  C21 UNL A   1      44.466  34.755  32.592  1.00  0.00    +0.000 C 
ATOM     28  F2  UNL A   1      44.995  35.820  31.972  1.00  0.00    +0.000 F 
ATOM     29  C22 UNL A   1      44.045  34.858  33.908  1.00  0.00    +0.000 C 
ATOM     30  F3  UNL A   1      44.146  36.027  34.557  1.00  0.00    +0.000 F 
ATOM     31  C23 UNL A   1      43.526  33.748  34.557  1.00  0.00    +0.000 C 
ATOM     32  F4  UNL A   1      43.107  33.849  35.826  1.00  0.00    +0.000 F 
ENDBRANCH   23   24
BRANCH   40   41
ATOM     41  C30 UNL A   1      47.950  26.596  31.274  1.00  0.00    +0.000 C 
ATOM     42  C31 UNL A   1      49.086  26.924  30.521  1.00  0.00    +0.000 C 
ATOM     43  F6  UNL A   1      48.970  27.675  29.416  1.00  0.00    +0.000 F 
ATOM     44  C32 UNL A   1      50.344  26.446  30.880  1.00  0.00    +0.000 C 
ATOM     45  F7  UNL A   1      51.409  26.732  30.119  1.00  0.00    +0.000 F 
ATOM     46  C33 UNL A   1      50.494  25.661  32.014  1.00  0.00    +0.000 C 
ATOM     47  F8  UNL A   1      51.705  25.206  32.359  1.00  0.00    +0.000 F 
ATOM     48  C34 UNL A   1      49.386  25.341  32.784  1.00  0.00    +0.000 C 
ATOM     49  F9  UNL A   1      49.530  24.593  33.887  1.00  0.00    +0.000 F 
ATOM     50  C35 UNL A   1      48.123  25.793  32.412  1.00  0.00    +0.000 C 
ATOM     51  F10 UNL A   1      47.069  25.456  33.169  1.00  0.00    +0.000 F 
ENDBRANCH   40   41
BRANCH   55   56
ATOM     65  C44 UNL A   1      43.144  23.811  26.075  1.00  0.00    +0.000 C 
ATOM     66  F15 UNL A   1      43.601  24.894  25.428  1.00  0.00    +0.000 F 
ATOM     56  C39 UNL A   1      42.809  23.894  27.434  1.00  0.00    +0.000 C 
ATOM     57  C40 UNL A   1      42.332  22.735  28.062  1.00  0.00    +0.000 C 
ATOM     58  F11 UNL A   1      42.019  22.761  29.366  1.00  0.00    +0.000 F 
ATOM     59  C41 UNL A   1      42.213  21.536  27.364  1.00  0.00    +0.000 C 
ATOM     60  F12 UNL A   1      41.795  20.432  27.999  1.00  0.00    +0.000 F 
ATOM     61  C42 UNL A   1      42.541  21.479  26.017  1.00  0.00    +0.000 C 
ATOM     62  F13 UNL A   1      42.424  20.326  25.345  1.00  0.00    +0.000 F 
ATOM     63  C43 UNL A   1      43.000  22.618  25.371  1.00  0.00    +0.000 C 
ATOM     64  F14 UNL A   1      43.306  22.570  24.068  1.00  0.00    +0.000 F 
ENDBRANCH   55   56
TORSDOF 20
ENDMDL
