MODEL 1
REMARK VINA RESULT:     -11.4      0.000      0.000
ROOT
ATOM      2  C2  UNL A   1      30.163  29.705  23.361  1.00  0.00    +0.000 C 
ATOM      3  C3  UNL A   1      29.680  31.030  24.036  1.00  0.00    +0.000 C 
ATOM      5  C5  UNL A   1      30.601  31.553  25.150  1.00  0.00    +0.000 C 
ATOM      6  C6  UNL A   1      31.173  30.518  26.094  1.00  0.00    +0.000 C 
ATOM      7  C7  UNL A   1      31.476  29.118  25.528  1.00  0.00    +0.000 C 
ATOM    146  H41 UNL A   1      30.288  28.372  27.168  1.00  0.00    +0.000 H 
ATOM    147  H42 UNL A   1      32.080  28.342  27.409  1.00  0.00    +0.000 H 
ATOM    148  H43 UNL A   1      30.796  26.152  27.296  1.00  0.00    +0.000 H 
ATOM    149  H44 UNL A   1      32.344  26.410  26.404  1.00  0.00    +0.000 H 
ATOM    153  H48 UNL A   1      31.755  27.702  22.264  1.00  0.00    +0.000 H 
ATOM    154  H49 UNL A   1      33.635  26.147  22.618  1.00  0.00    +0.000 H 
ATOM    155  H50 UNL A   1      32.245  25.159  22.154  1.00  0.00    +0.000 H 
ATOM    156  H51 UNL A   1      33.215  25.619  24.981  1.00  0.00    +0.000 H 
ATOM    160  H55 UNL A   1      35.197  25.208  25.313  1.00  0.00    +0.000 H 
ATOM    161  H56 UNL A   1      35.480  25.070  23.558  1.00  0.00    +0.000 H 
ATOM    162  H57 UNL A   1      37.292  24.140  24.937  1.00  0.00    +0.000 H 
ATOM    163  H58 UNL A   1      36.523  22.997  23.813  1.00  0.00    +0.000 H 
ATOM    164  H59 UNL A   1      36.105  23.172  26.749  1.00  0.00    +0.000 H 
ATOM    172  H67 UNL A   1      33.836  23.603  26.383  1.00  0.00    +0.000 H 
ATOM    173  H68 UNL A   1      32.133  21.787  26.471  1.00  0.00    +0.000 H 
ATOM    174  H69 UNL A   1      31.935  21.975  24.749  1.00  0.00    +0.000 H 
ATOM    175  H70 UNL A   1      31.633  24.179  26.778  1.00  0.00    +0.000 H 
ATOM    176  H71 UNL A   1      30.308  23.301  25.985  1.00  0.00    +0.000 H 
ATOM    180  H75 UNL A   1      29.452  28.543  24.789  1.00  0.00    +0.000 H 
ATOM     83  C60 UNL A   1      31.252  28.152  26.758  1.00  0.00    +0.000 C 
ATOM     84  C61 UNL A   1      31.303  26.640  26.490  1.00  0.00    +0.000 C 
ATOM     85  C62 UNL A   1      30.666  26.129  25.152  1.00  0.00    +0.000 C 
ATOM     87  C64 UNL A   1      30.923  27.218  24.070  1.00  0.00    +0.000 C 
ATOM     88  C65 UNL A   1      31.747  27.004  23.024  1.00  0.00    +0.000 C 
ATOM     89  C66 UNL A   1      32.658  25.809  22.897  1.00  0.00    +0.000 C 
ATOM     90  C67 UNL A   1      32.765  25.012  24.224  1.00  0.00    +0.000 C 
ATOM     91  C68 UNL A   1      33.867  23.870  24.271  1.00  0.00    +0.000 C 
ATOM     93  C70 UNL A   1      35.261  24.553  24.469  1.00  0.00    +0.000 C 
ATOM     94  C71 UNL A   1      36.411  23.576  24.706  1.00  0.00    +0.000 C 
ATOM     95  C72 UNL A   1      36.153  22.594  25.851  1.00  0.00    +0.000 C 
ATOM     97  C73 UNL A   1      34.773  21.868  25.796  1.00  0.00    +0.000 C 
ATOM    100  C76 UNL A   1      33.667  22.963  25.542  1.00  0.00    +0.000 C 
ATOM    101  C77 UNL A   1      32.219  22.472  25.653  1.00  0.00    +0.000 C 
ATOM    102  C78 UNL A   1      31.306  23.676  25.892  1.00  0.00    +0.000 C 
ATOM    103  C79 UNL A   1      31.306  24.694  24.721  1.00  0.00    +0.000 C 
ATOM    105  C81 UNL A   1      30.461  28.639  24.450  1.00  0.00    +0.000 C 
ATOM    109  H4  UNL A   1      31.063  29.903  22.815  1.00  0.00    +0.000 H 
ATOM    110  H5  UNL A   1      28.744  30.719  24.450  1.00  0.00    +0.000 H 
ATOM    114  H9  UNL A   1      30.040  32.253  25.735  1.00  0.00    +0.000 H 
ATOM    115  H10 UNL A   1      31.446  31.974  24.645  1.00  0.00    +0.000 H 
ATOM    116  H11 UNL A   1      30.472  30.394  26.893  1.00  0.00    +0.000 H 
ATOM    117  H12 UNL A   1      32.129  30.908  26.374  1.00  0.00    +0.000 H 
ENDROOT
BRANCH    2    1
ATOM      1  C1  UNL A   1      29.117  29.188  22.359  1.00  0.00    +0.000 C 
ATOM    106  H1  UNL A   1      28.895  28.164  22.571  1.00  0.00    +0.000 H 
ATOM    107  H2  UNL A   1      29.505  29.271  21.365  1.00  0.00    +0.000 H 
ATOM    108  H3  UNL A   1      28.224  29.772  22.442  1.00  0.00    +0.000 H 
ENDBRANCH    2    1
BRANCH    3    4
ATOM    113  H8  UNL A   1      28.751  31.924  22.324  1.00  0.00    +0.000 H 
ATOM      4  C4  UNL A   1      29.471  32.200  23.066  1.00  0.00    +0.000 C 
ATOM    111  H6  UNL A   1      30.399  32.439  22.589  1.00  0.00    +0.000 H 
ATOM    112  H7  UNL A   1      29.118  33.053  23.606  1.00  0.00    +0.000 H 
ENDBRANCH    3    4
BRANCH    7    8
ATOM      9  O1  UNL A   1      33.337  29.407  23.953  1.00  0.00    +0.000 O 
ATOM      8  C8  UNL A   1      32.981  29.001  25.068  1.00  0.00    +0.000 C 
BRANCH    8   10
ATOM     10  N1  UNL A   1      34.008  28.519  25.842  1.00  0.00    +0.000 N 
ATOM    118  H13 UNL A   1      34.292  27.594  25.663  1.00  0.00    +0.000 H 
BRANCH   10   11
ATOM     11  C9  UNL A   1      34.724  29.217  26.894  1.00  0.00    +0.000 C 
ATOM    119  H14 UNL A   1      35.743  29.329  26.586  1.00  0.00    +0.000 H 
ATOM    120  H15 UNL A   1      34.616  28.624  27.778  1.00  0.00    +0.000 H 
BRANCH   11   12
ATOM    121  H16 UNL A   1      33.156  30.475  27.544  1.00  0.00    +0.000 H 
ATOM    122  H17 UNL A   1      34.317  31.173  26.336  1.00  0.00    +0.000 H 
ATOM     12  C10 UNL A   1      34.171  30.606  27.231  1.00  0.00    +0.000 C 
BRANCH   12   13
ATOM    123  H18 UNL A   1      35.901  31.110  28.336  1.00  0.00    +0.000 H 
ATOM    124  H19 UNL A   1      34.299  31.235  29.198  1.00  0.00    +0.000 H 
ATOM     13  C11 UNL A   1      34.879  31.427  28.320  1.00  0.00    +0.000 C 
BRANCH   13   14
ATOM    126  H21 UNL A   1      35.323  33.277  29.143  1.00  0.00    +0.000 H 
ATOM    125  H20 UNL A   1      35.427  33.212  27.333  1.00  0.00    +0.000 H 
ATOM     14  C12 UNL A   1      34.887  32.955  28.220  1.00  0.00    +0.000 C 
BRANCH   14   15
ATOM    127  H22 UNL A   1      32.878  33.171  28.819  1.00  0.00    +0.000 H 
ATOM     15  C13 UNL A   1      33.548  33.685  28.161  1.00  0.00    +0.000 C 
ATOM    128  H23 UNL A   1      33.286  33.672  27.123  1.00  0.00    +0.000 H 
BRANCH   15   16
ATOM    129  H24 UNL A   1      33.135  35.709  27.704  1.00  0.00    +0.000 H 
ATOM    130  H25 UNL A   1      34.511  35.428  28.805  1.00  0.00    +0.000 H 
ATOM     16  C14 UNL A   1      33.511  35.158  28.539  1.00  0.00    +0.000 C 
BRANCH   16   17
ATOM     17  N2  UNL A   1      32.686  35.463  29.689  1.00  0.00    +0.000 N 
ATOM    131  H26 UNL A   1      31.774  35.771  29.482  1.00  0.00    +0.000 H 
BRANCH   17   18
ATOM     18  C15 UNL A   1      32.990  35.385  31.032  1.00  0.00    +0.000 C 
ATOM     19  O2  UNL A   1      32.232  35.876  31.854  1.00  0.00    +0.000 O 
BRANCH   18   20
ATOM    132  H27 UNL A   1      33.096  32.989  32.157  1.00  0.00    +0.000 H 
ATOM    133  H28 UNL A   1      35.028  31.728  32.905  1.00  0.00    +0.000 H 
ATOM    144  H39 UNL A   1      37.548  34.849  31.626  1.00  0.00    +0.000 H 
ATOM     81  C58 UNL A   1      36.602  34.460  31.765  1.00  0.00    +0.000 C 
ATOM     82  C59 UNL A   1      35.484  35.220  31.420  1.00  0.00    +0.000 C 
ATOM    145  H40 UNL A   1      35.601  36.197  31.106  1.00  0.00    +0.000 H 
ATOM     20  C16 UNL A   1      34.205  34.663  31.497  1.00  0.00    +0.000 C 
ATOM     21  C17 UNL A   1      34.042  33.389  32.054  1.00  0.00    +0.000 C 
ATOM     22  C18 UNL A   1      35.159  32.655  32.469  1.00  0.00    +0.000 C 
ATOM     23  C19 UNL A   1      36.452  33.171  32.299  1.00  0.00    +0.000 C 
BRANCH   23   24
ATOM    134  H29 UNL A   1      42.836  31.621  38.269  1.00  0.00    +0.000 H 
ATOM    135  H30 UNL A   1      44.260  29.713  37.204  1.00  0.00    +0.000 H 
ATOM    136  H31 UNL A   1      41.228  30.706  34.563  1.00  0.00    +0.000 H 
ATOM    137  H32 UNL A   1      38.084  29.627  29.116  1.00  0.00    +0.000 H 
ATOM    138  H33 UNL A   1      36.731  31.520  30.133  1.00  0.00    +0.000 H 
ATOM    139  H34 UNL A   1      39.807  30.596  32.772  1.00  0.00    +0.000 H 
ATOM    140  H35 UNL A   1      42.481  26.952  30.559  1.00  0.00    +0.000 H 
ATOM    141  H36 UNL A   1      43.909  26.884  32.681  1.00  0.00    +0.000 H 
ATOM    142  H37 UNL A   1      38.664  34.524  36.555  1.00  0.00    +0.000 H 
ATOM    143  H38 UNL A   1      36.927  34.278  34.690  1.00  0.00    +0.000 H 
ATOM     24  C20 UNL A   1      37.652  32.382  32.690  1.00  0.00    +0.000 C 
ATOM     25  C21 UNL A   1      38.369  32.679  33.979  1.00  0.00    +0.000 C 
ATOM     26  N3  UNL A   1      39.459  32.141  34.467  1.00  0.00    +0.000 N 
ATOM     27  C22 UNL A   1      39.712  32.809  35.659  1.00  0.00    +0.000 C 
ATOM     28  C23 UNL A   1      40.690  32.580  36.568  1.00  0.00    +0.000 C 
ATOM     40  C30 UNL A   1      41.685  31.546  36.446  1.00  0.00    +0.000 C 
ATOM     41  C31 UNL A   1      42.679  31.194  37.343  1.00  0.00    +0.000 C 
ATOM     42  C32 UNL A   1      43.432  30.160  36.779  1.00  0.00    +0.000 C 
ATOM     43  C33 UNL A   1      42.879  29.835  35.551  1.00  0.00    +0.000 C 
ATOM     44  N4  UNL A   1      41.811  30.697  35.356  1.00  0.00    +0.000 N 
ATOM     45  C34 UNL A   1      43.293  28.815  34.622  1.00  0.00    +0.000 C 
ATOM     57  C41 UNL A   1      42.692  28.555  33.435  1.00  0.00    +0.000 C 
ATOM     58  N5  UNL A   1      41.587  29.172  32.863  1.00  0.00    +0.000 N 
ATOM     59  C42 UNL A   1      41.400  28.579  31.709  1.00  0.00    +0.000 C 
ATOM     60  C43 UNL A   1      40.327  28.820  30.680  1.00  0.00    +0.000 C 
ATOM     72  C50 UNL A   1      39.384  29.752  30.915  1.00  0.00    +0.000 C 
ATOM     73  C51 UNL A   1      38.280  30.084  30.021  1.00  0.00    +0.000 C 
ATOM     74  C52 UNL A   1      37.557  31.077  30.564  1.00  0.00    +0.000 C 
ATOM     75  C53 UNL A   1      38.130  31.431  31.863  1.00  0.00    +0.000 C 
ATOM     76  N6  UNL A   1      39.211  30.594  31.988  1.00  0.00    +0.000 N 
ATOM     77  C54 UNL A   1      42.387  27.534  31.406  1.00  0.00    +0.000 C 
ATOM     78  C55 UNL A   1      43.126  27.532  32.507  1.00  0.00    +0.000 C 
ATOM     79  C56 UNL A   1      38.691  33.825  35.797  1.00  0.00    +0.000 C 
ATOM     80  C57 UNL A   1      37.797  33.740  34.823  1.00  0.00    +0.000 C 
BRANCH   28   29
ATOM     33  F2  UNL A   1      39.041  33.897  40.992  1.00  0.00    +0.000 F 
ATOM     34  C27 UNL A   1      40.850  35.098  40.065  1.00  0.00    +0.000 C 
ATOM     35  F3  UNL A   1      40.899  35.887  41.148  1.00  0.00    +0.000 F 
ATOM     36  C28 UNL A   1      41.731  35.305  39.015  1.00  0.00    +0.000 C 
ATOM     37  F4  UNL A   1      42.646  36.281  39.091  1.00  0.00    +0.000 F 
ATOM     38  C29 UNL A   1      41.664  34.502  37.878  1.00  0.00    +0.000 C 
ATOM     39  F5  UNL A   1      42.520  34.738  36.873  1.00  0.00    +0.000 F 
ATOM     29  C24 UNL A   1      40.728  33.461  37.783  1.00  0.00    +0.000 C 
ATOM     30  C25 UNL A   1      39.863  33.256  38.868  1.00  0.00    +0.000 C 
ATOM     31  F1  UNL A   1      38.943  32.281  38.824  1.00  0.00    +0.000 F 
ATOM     32  C26 UNL A   1      39.912  34.080  39.991  1.00  0.00    +0.000 C 
ENDBRANCH   28   29
BRANCH   45   46
ATOM     46  C35 UNL A   1      44.464  27.958  35.002  1.00  0.00    +0.000 C 
ATOM     47  C36 UNL A   1      45.781  28.340  34.708  1.00  0.00    +0.000 C 
ATOM     48  F6  UNL A   1      46.021  29.468  34.023  1.00  0.00    +0.000 F 
ATOM     49  C37 UNL A   1      46.859  27.541  35.086  1.00  0.00    +0.000 C 
ATOM     50  F7  UNL A   1      48.106  27.903  34.755  1.00  0.00    +0.000 F 
ATOM     51  C38 UNL A   1      46.641  26.367  35.790  1.00  0.00    +0.000 C 
ATOM     52  F8  UNL A   1      47.680  25.604  36.159  1.00  0.00    +0.000 F 
ATOM     53  C39 UNL A   1      45.348  25.979  36.107  1.00  0.00    +0.000 C 
ATOM     54  F9  UNL A   1      45.138  24.851  36.799  1.00  0.00    +0.000 F 
ATOM     55  C40 UNL A   1      44.268  26.760  35.706  1.00  0.00    +0.000 C 
ATOM     56  F10 UNL A   1      43.028  26.354  36.017  1.00  0.00    +0.000 F 
ENDBRANCH   45   46
BRANCH   60   61
ATOM     65  F12 UNL A   1      38.775  24.953  28.144  1.00  0.00    +0.000 F 
ATOM     66  C47 UNL A   1      40.209  26.489  27.067  1.00  0.00    +0.000 C 
ATOM     67  F13 UNL A   1      40.181  25.755  25.947  1.00  0.00    +0.000 F 
ATOM     68  C48 UNL A   1      40.967  27.650  27.120  1.00  0.00    +0.000 C 
ATOM     69  F14 UNL A   1      41.656  28.048  26.042  1.00  0.00    +0.000 F 
ATOM     70  C49 UNL A   1      41.015  28.402  28.292  1.00  0.00    +0.000 C 
ATOM     71  F15 UNL A   1      41.768  29.512  28.319  1.00  0.00    +0.000 F 
ATOM     61  C44 UNL A   1      40.285  28.021  29.427  1.00  0.00    +0.000 C 
ATOM     62  C45 UNL A   1      39.512  26.853  29.345  1.00  0.00    +0.000 C 
ATOM     63  F11 UNL A   1      38.815  26.437  30.411  1.00  0.00    +0.000 F 
ATOM     64  C46 UNL A   1      39.486  26.087  28.181  1.00  0.00    +0.000 C 
ENDBRANCH   60   61
ENDBRANCH   23   24
ENDBRANCH   18   20
ENDBRANCH   17   18
ENDBRANCH   16   17
ENDBRANCH   15   16
ENDBRANCH   14   15
ENDBRANCH   13   14
ENDBRANCH   12   13
ENDBRANCH   11   12
ENDBRANCH   10   11
ENDBRANCH    8   10
ENDBRANCH    7    8
BRANCH   85   86
ATOM    151  H46 UNL A   1      28.636  25.963  24.432  1.00  0.00    +0.000 H 
ATOM     86  C63 UNL A   1      29.138  25.968  25.378  1.00  0.00    +0.000 C 
ATOM    150  H45 UNL A   1      28.948  25.046  25.887  1.00  0.00    +0.000 H 
ATOM    152  H47 UNL A   1      28.777  26.784  25.969  1.00  0.00    +0.000 H 
ENDBRANCH   85   86
BRANCH   91   92
ATOM     92  C69 UNL A   1      33.886  23.100  22.936  1.00  0.00    +0.000 C 
ATOM    157  H52 UNL A   1      34.877  22.748  22.742  1.00  0.00    +0.000 H 
ATOM    158  H53 UNL A   1      33.576  23.751  22.146  1.00  0.00    +0.000 H 
ATOM    159  H54 UNL A   1      33.217  22.266  22.996  1.00  0.00    +0.000 H 
ENDBRANCH   91   92
BRANCH   95   96
ATOM    165  H60 UNL A   1      36.926  20.792  25.601  1.00  0.00    +0.000 H 
ATOM     96  O3  UNL A   1      37.231  21.659  25.911  1.00  0.00    +0.000 O 
ENDBRANCH   95   96
BRANCH   97   98
ATOM     98  C74 UNL A   1      34.766  20.704  24.783  1.00  0.00    +0.000 C 
ATOM    166  H61 UNL A   1      35.765  20.345  24.646  1.00  0.00    +0.000 H 
ATOM    167  H62 UNL A   1      34.380  21.048  23.847  1.00  0.00    +0.000 H 
ATOM    168  H63 UNL A   1      34.150  19.912  25.155  1.00  0.00    +0.000 H 
ENDBRANCH   97   98
BRANCH   97   99
ATOM    169  H64 UNL A   1      34.893  21.861  27.955  1.00  0.00    +0.000 H 
ATOM    170  H65 UNL A   1      35.110  20.287  27.231  1.00  0.00    +0.000 H 
ATOM     99  C75 UNL A   1      34.556  21.201  27.185  1.00  0.00    +0.000 C 
ATOM    171  H66 UNL A   1      33.515  20.994  27.323  1.00  0.00    +0.000 H 
ENDBRANCH   97   99
BRANCH  103  104
ATOM    177  H72 UNL A   1      30.183  24.770  22.868  1.00  0.00    +0.000 H 
ATOM    178  H73 UNL A   1      29.568  23.607  24.017  1.00  0.00    +0.000 H 
ATOM    179  H74 UNL A   1      31.026  23.260  23.119  1.00  0.00    +0.000 H 
ATOM    104  C80 UNL A   1      30.453  24.030  23.593  1.00  0.00    +0.000 C 
ENDBRANCH  103  104
TORSDOF 23
ENDMDL
MODEL 2
REMARK VINA RESULT:     -11.4      2.650      8.821
ROOT
ATOM      2  C2  UNL A   1      33.688  19.340  24.949  1.00  0.00    +0.000 C 
ATOM      3  C3  UNL A   1      34.833  18.312  24.669  1.00  0.00    +0.000 C 
ATOM      5  C5  UNL A   1      36.250  18.845  24.931  1.00  0.00    +0.000 C 
ATOM      6  C6  UNL A   1      36.531  20.263  24.484  1.00  0.00    +0.000 C 
ATOM      7  C7  UNL A   1      35.374  21.278  24.543  1.00  0.00    +0.000 C 
ATOM    146  H41 UNL A   1      35.844  21.691  22.477  1.00  0.00    +0.000 H 
ATOM    147  H42 UNL A   1      36.527  22.843  23.691  1.00  0.00    +0.000 H 
ATOM    148  H43 UNL A   1      34.796  23.666  22.023  1.00  0.00    +0.000 H 
ATOM    149  H44 UNL A   1      34.716  24.078  23.779  1.00  0.00    +0.000 H 
ATOM    153  H48 UNL A   1      32.150  21.371  26.070  1.00  0.00    +0.000 H 
ATOM    154  H49 UNL A   1      32.058  23.735  26.760  1.00  0.00    +0.000 H 
ATOM    155  H50 UNL A   1      30.729  23.493  25.622  1.00  0.00    +0.000 H 
ATOM    156  H51 UNL A   1      33.426  24.685  24.952  1.00  0.00    +0.000 H 
ATOM    160  H55 UNL A   1      34.013  26.259  26.129  1.00  0.00    +0.000 H 
ATOM    161  H56 UNL A   1      32.680  25.928  27.266  1.00  0.00    +0.000 H 
ATOM    162  H57 UNL A   1      33.711  28.142  27.555  1.00  0.00    +0.000 H 
ATOM    163  H58 UNL A   1      31.970  28.151  27.198  1.00  0.00    +0.000 H 
ATOM    164  H59 UNL A   1      34.183  28.778  25.318  1.00  0.00    +0.000 H 
ATOM    172  H67 UNL A   1      33.498  27.009  23.950  1.00  0.00    +0.000 H 
ATOM    173  H68 UNL A   1      32.017  27.380  21.983  1.00  0.00    +0.000 H 
ATOM    174  H69 UNL A   1      30.760  26.539  22.850  1.00  0.00    +0.000 H 
ATOM    175  H70 UNL A   1      33.497  25.432  22.261  1.00  0.00    +0.000 H 
ATOM    176  H71 UNL A   1      31.999  25.033  21.392  1.00  0.00    +0.000 H 
ATOM    180  H75 UNL A   1      33.892  20.266  23.218  1.00  0.00    +0.000 H 
ATOM     83  C60 UNL A   1      35.682  22.277  23.358  1.00  0.00    +0.000 C 
ATOM     84  C61 UNL A   1      34.613  23.329  23.023  1.00  0.00    +0.000 C 
ATOM     85  C62 UNL A   1      33.115  22.876  23.102  1.00  0.00    +0.000 C 
ATOM     87  C64 UNL A   1      33.001  21.857  24.272  1.00  0.00    +0.000 C 
ATOM     88  C65 UNL A   1      32.319  22.139  25.402  1.00  0.00    +0.000 C 
ATOM     89  C66 UNL A   1      31.791  23.508  25.749  1.00  0.00    +0.000 C 
ATOM     90  C67 UNL A   1      32.367  24.610  24.820  1.00  0.00    +0.000 C 
ATOM     91  C68 UNL A   1      32.057  26.111  25.234  1.00  0.00    +0.000 C 
ATOM     93  C70 UNL A   1      33.009  26.491  26.418  1.00  0.00    +0.000 C 
ATOM     94  C71 UNL A   1      32.954  27.964  26.820  1.00  0.00    +0.000 C 
ATOM     95  C72 UNL A   1      33.178  28.925  25.651  1.00  0.00    +0.000 C 
ATOM     97  C73 UNL A   1      32.315  28.634  24.385  1.00  0.00    +0.000 C 
ATOM    100  C76 UNL A   1      32.438  27.095  24.066  1.00  0.00    +0.000 C 
ATOM    101  C77 UNL A   1      31.818  26.648  22.738  1.00  0.00    +0.000 C 
ATOM    102  C78 UNL A   1      32.437  25.309  22.330  1.00  0.00    +0.000 C 
ATOM    103  C79 UNL A   1      32.138  24.160  23.329  1.00  0.00    +0.000 C 
ATOM    105  C81 UNL A   1      33.982  20.670  24.204  1.00  0.00    +0.000 C 
ATOM    109  H4  UNL A   1      33.649  19.534  26.001  1.00  0.00    +0.000 H 
ATOM    110  H5  UNL A   1      34.695  18.134  23.622  1.00  0.00    +0.000 H 
ATOM    114  H9  UNL A   1      36.939  18.201  24.425  1.00  0.00    +0.000 H 
ATOM    115  H10 UNL A   1      36.356  18.857  25.996  1.00  0.00    +0.000 H 
ATOM    116  H11 UNL A   1      36.863  20.217  23.468  1.00  0.00    +0.000 H 
ATOM    117  H12 UNL A   1      37.248  20.630  25.189  1.00  0.00    +0.000 H 
ENDROOT
BRANCH    2    1
ATOM      1  C1  UNL A   1      32.323  18.767  24.532  1.00  0.00    +0.000 C 
ATOM    106  H1  UNL A   1      32.347  17.700  24.605  1.00  0.00    +0.000 H 
ATOM    107  H2  UNL A   1      32.111  19.051  23.522  1.00  0.00    +0.000 H 
ATOM    108  H3  UNL A   1      31.561  19.152  25.177  1.00  0.00    +0.000 H 
ENDBRANCH    2    1
BRANCH    3    4
ATOM    113  H8  UNL A   1      35.421  16.290  25.070  1.00  0.00    +0.000 H 
ATOM      4  C4  UNL A   1      34.715  16.997  25.452  1.00  0.00    +0.000 C 
ATOM    111  H6  UNL A   1      33.725  16.605  25.343  1.00  0.00    +0.000 H 
ATOM    112  H7  UNL A   1      34.916  17.179  26.486  1.00  0.00    +0.000 H 
ENDBRANCH    3    4
BRANCH    7    8
ATOM      9  O1  UNL A   1      35.056  21.550  26.961  1.00  0.00    +0.000 O 
ATOM      8  C8  UNL A   1      35.392  22.087  25.898  1.00  0.00    +0.000 C 
BRANCH    8   10
ATOM     10  N1  UNL A   1      35.819  23.385  26.036  1.00  0.00    +0.000 N 
ATOM    118  H13 UNL A   1      35.142  24.085  25.890  1.00  0.00    +0.000 H 
BRANCH   10   11
ATOM     11  C9  UNL A   1      37.154  23.844  26.373  1.00  0.00    +0.000 C 
ATOM    119  H14 UNL A   1      37.259  23.810  27.437  1.00  0.00    +0.000 H 
ATOM    120  H15 UNL A   1      37.243  24.833  25.974  1.00  0.00    +0.000 H 
BRANCH   11   12
ATOM    121  H16 UNL A   1      38.763  23.640  25.019  1.00  0.00    +0.000 H 
ATOM    122  H17 UNL A   1      37.805  22.141  25.384  1.00  0.00    +0.000 H 
ATOM     12  C10 UNL A   1      38.288  23.022  25.753  1.00  0.00    +0.000 C 
BRANCH   12   13
ATOM    123  H18 UNL A   1      38.910  22.129  27.564  1.00  0.00    +0.000 H 
ATOM    124  H19 UNL A   1      40.051  23.324  26.793  1.00  0.00    +0.000 H 
ATOM     13  C11 UNL A   1      39.393  22.489  26.679  1.00  0.00    +0.000 C 
BRANCH   13   14
ATOM    126  H21 UNL A   1      39.846  20.471  26.536  1.00  0.00    +0.000 H 
ATOM    125  H20 UNL A   1      40.389  21.469  25.121  1.00  0.00    +0.000 H 
ATOM     14  C12 UNL A   1      40.311  21.368  26.184  1.00  0.00    +0.000 C 
BRANCH   14   15
ATOM    127  H22 UNL A   1      41.929  20.273  26.975  1.00  0.00    +0.000 H 
ATOM     15  C13 UNL A   1      41.732  21.298  26.736  1.00  0.00    +0.000 C 
ATOM    128  H23 UNL A   1      41.728  21.978  27.563  1.00  0.00    +0.000 H 
BRANCH   15   16
ATOM    129  H24 UNL A   1      43.011  21.076  25.066  1.00  0.00    +0.000 H 
ATOM    130  H25 UNL A   1      43.730  21.873  26.492  1.00  0.00    +0.000 H 
ATOM     16  C14 UNL A   1      42.874  21.783  25.856  1.00  0.00    +0.000 C 
BRANCH   16   17
ATOM     17  N2  UNL A   1      42.665  23.087  25.263  1.00  0.00    +0.000 N 
ATOM    131  H26 UNL A   1      41.922  23.141  24.619  1.00  0.00    +0.000 H 
BRANCH   17   18
ATOM     18  C15 UNL A   1      43.354  24.263  25.469  1.00  0.00    +0.000 C 
ATOM     19  O2  UNL A   1      44.297  24.547  24.746  1.00  0.00    +0.000 O 
BRANCH   18   20
ATOM    132  H27 UNL A   1      41.554  23.856  27.370  1.00  0.00    +0.000 H 
ATOM    133  H28 UNL A   1      40.837  25.340  29.149  1.00  0.00    +0.000 H 
ATOM    144  H39 UNL A   1      43.540  28.266  27.785  1.00  0.00    +0.000 H 
ATOM     81  C58 UNL A   1      43.096  27.339  27.685  1.00  0.00    +0.000 C 
ATOM     82  C59 UNL A   1      43.439  26.519  26.610  1.00  0.00    +0.000 C 
ATOM    145  H40 UNL A   1      44.072  26.872  25.874  1.00  0.00    +0.000 H 
ATOM     20  C16 UNL A   1      42.931  25.220  26.527  1.00  0.00    +0.000 C 
ATOM     21  C17 UNL A   1      41.969  24.798  27.452  1.00  0.00    +0.000 C 
ATOM     22  C18 UNL A   1      41.568  25.648  28.488  1.00  0.00    +0.000 C 
ATOM     23  C19 UNL A   1      42.152  26.915  28.634  1.00  0.00    +0.000 C 
BRANCH   23   24
ATOM    134  H29 UNL A   1      43.739  29.708  36.909  1.00  0.00    +0.000 H 
ATOM    135  H30 UNL A   1      41.877  31.479  37.356  1.00  0.00    +0.000 H 
ATOM    136  H31 UNL A   1      41.318  29.931  33.555  1.00  0.00    +0.000 H 
ATOM    137  H32 UNL A   1      38.195  29.961  27.991  1.00  0.00    +0.000 H 
ATOM    138  H33 UNL A   1      39.978  28.200  27.579  1.00  0.00    +0.000 H 
ATOM    139  H34 UNL A   1      40.520  29.682  31.424  1.00  0.00    +0.000 H 
ATOM    140  H35 UNL A   1      36.835  33.032  32.149  1.00  0.00    +0.000 H 
ATOM    141  H36 UNL A   1      37.890  33.512  34.430  1.00  0.00    +0.000 H 
ATOM    142  H37 UNL A   1      44.780  26.378  32.835  1.00  0.00    +0.000 H 
ATOM    143  H38 UNL A   1      44.066  26.237  30.380  1.00  0.00    +0.000 H 
ATOM     24  C20 UNL A   1      41.773  27.811  29.760  1.00  0.00    +0.000 C 
ATOM     25  C21 UNL A   1      42.531  27.762  31.059  1.00  0.00    +0.000 C 
ATOM     26  N3  UNL A   1      42.318  28.421  32.170  1.00  0.00    +0.000 N 
ATOM     27  C22 UNL A   1      43.277  27.969  33.069  1.00  0.00    +0.000 C 
ATOM     28  C23 UNL A   1      43.516  28.388  34.336  1.00  0.00    +0.000 C 
ATOM     40  C30 UNL A   1      42.778  29.432  34.997  1.00  0.00    +0.000 C 
ATOM     41  C31 UNL A   1      42.985  29.971  36.256  1.00  0.00    +0.000 C 
ATOM     42  C32 UNL A   1      41.996  30.931  36.488  1.00  0.00    +0.000 C 
ATOM     43  C33 UNL A   1      41.202  31.026  35.358  1.00  0.00    +0.000 C 
ATOM     44  N4  UNL A   1      41.689  30.096  34.452  1.00  0.00    +0.000 N 
ATOM     45  C34 UNL A   1      40.080  31.898  35.119  1.00  0.00    +0.000 C 
ATOM     57  C41 UNL A   1      39.354  31.932  33.974  1.00  0.00    +0.000 C 
ATOM     58  N5  UNL A   1      39.512  31.181  32.818  1.00  0.00    +0.000 N 
ATOM     59  C42 UNL A   1      38.560  31.568  32.003  1.00  0.00    +0.000 C 
ATOM     60  C43 UNL A   1      38.269  31.114  30.598  1.00  0.00    +0.000 C 
ATOM     72  C50 UNL A   1      39.065  30.192  30.024  1.00  0.00    +0.000 C 
ATOM     73  C51 UNL A   1      38.915  29.668  28.670  1.00  0.00    +0.000 C 
ATOM     74  C52 UNL A   1      39.865  28.745  28.448  1.00  0.00    +0.000 C 
ATOM     75  C53 UNL A   1      40.712  28.634  29.635  1.00  0.00    +0.000 C 
ATOM     76  N6  UNL A   1      40.163  29.529  30.520  1.00  0.00    +0.000 N 
ATOM     77  C54 UNL A   1      37.671  32.594  32.566  1.00  0.00    +0.000 C 
ATOM     78  C55 UNL A   1      38.223  32.809  33.753  1.00  0.00    +0.000 C 
ATOM     79  C56 UNL A   1      44.040  26.944  32.390  1.00  0.00    +0.000 C 
ATOM     80  C57 UNL A   1      43.666  26.828  31.125  1.00  0.00    +0.000 C 
BRANCH   28   29
ATOM     33  F2  UNL A   1      45.208  24.895  37.329  1.00  0.00    +0.000 F 
ATOM     34  C27 UNL A   1      46.742  26.460  36.452  1.00  0.00    +0.000 C 
ATOM     35  F3  UNL A   1      47.746  25.867  37.113  1.00  0.00    +0.000 F 
ATOM     36  C28 UNL A   1      46.989  27.580  35.672  1.00  0.00    +0.000 C 
ATOM     37  F4  UNL A   1      48.236  28.058  35.563  1.00  0.00    +0.000 F 
ATOM     38  C29 UNL A   1      45.941  28.212  35.006  1.00  0.00    +0.000 C 
ATOM     39  F5  UNL A   1      46.210  29.303  34.272  1.00  0.00    +0.000 F 
ATOM     29  C24 UNL A   1      44.631  27.720  35.088  1.00  0.00    +0.000 C 
ATOM     30  C25 UNL A   1      44.409  26.571  35.863  1.00  0.00    +0.000 C 
ATOM     31  F1  UNL A   1      43.173  26.066  35.984  1.00  0.00    +0.000 F 
ATOM     32  C26 UNL A   1      45.453  25.959  36.553  1.00  0.00    +0.000 C 
ENDBRANCH   28   29
BRANCH   45   46
ATOM     46  C35 UNL A   1      39.698  32.858  36.206  1.00  0.00    +0.000 C 
ATOM     47  C36 UNL A   1      38.727  32.534  37.165  1.00  0.00    +0.000 C 
ATOM     48  F6  UNL A   1      38.073  31.365  37.095  1.00  0.00    +0.000 F 
ATOM     49  C37 UNL A   1      38.397  33.430  38.180  1.00  0.00    +0.000 C 
ATOM     50  F7  UNL A   1      37.435  33.118  39.058  1.00  0.00    +0.000 F 
ATOM     51  C38 UNL A   1      39.054  34.648  38.273  1.00  0.00    +0.000 C 
ATOM     52  F8  UNL A   1      38.741  35.504  39.256  1.00  0.00    +0.000 F 
ATOM     53  C39 UNL A   1      40.030  34.980  37.346  1.00  0.00    +0.000 C 
ATOM     54  F9  UNL A   1      40.674  36.152  37.444  1.00  0.00    +0.000 F 
ATOM     55  C40 UNL A   1      40.341  34.100  36.314  1.00  0.00    +0.000 C 
ATOM     56  F10 UNL A   1      41.281  34.455  35.426  1.00  0.00    +0.000 F 
ENDBRANCH   45   46
BRANCH   60   61
ATOM     65  F12 UNL A   1      36.152  34.864  28.307  1.00  0.00    +0.000 F 
ATOM     66  C47 UNL A   1      34.987  32.812  28.397  1.00  0.00    +0.000 C 
ATOM     67  F13 UNL A   1      33.960  33.347  27.723  1.00  0.00    +0.000 F 
ATOM     68  C48 UNL A   1      34.932  31.491  28.816  1.00  0.00    +0.000 C 
ATOM     69  F14 UNL A   1      33.859  30.742  28.529  1.00  0.00    +0.000 F 
ATOM     70  C49 UNL A   1      35.989  30.941  29.538  1.00  0.00    +0.000 C 
ATOM     71  F15 UNL A   1      35.902  29.665  29.943  1.00  0.00    +0.000 F 
ATOM     61  C44 UNL A   1      37.135  31.695  29.833  1.00  0.00    +0.000 C 
ATOM     62  C45 UNL A   1      37.175  33.023  29.383  1.00  0.00    +0.000 C 
ATOM     63  F11 UNL A   1      38.239  33.790  29.660  1.00  0.00    +0.000 F 
ATOM     64  C46 UNL A   1      36.105  33.580  28.686  1.00  0.00    +0.000 C 
ENDBRANCH   60   61
ENDBRANCH   23   24
ENDBRANCH   18   20
ENDBRANCH   17   18
ENDBRANCH   16   17
ENDBRANCH   15   16
ENDBRANCH   14   15
ENDBRANCH   13   14
ENDBRANCH   12   13
ENDBRANCH   11   12
ENDBRANCH   10   11
ENDBRANCH    8   10
ENDBRANCH    7    8
BRANCH   85   86
ATOM    151  H46 UNL A   1      33.181  21.198  21.745  1.00  0.00    +0.000 H 
ATOM     86  C63 UNL A   1      32.752  22.179  21.764  1.00  0.00    +0.000 C 
ATOM    150  H45 UNL A   1      31.687  22.102  21.679  1.00  0.00    +0.000 H 
ATOM    152  H47 UNL A   1      33.135  22.752  20.946  1.00  0.00    +0.000 H 
ENDBRANCH   85   86
BRANCH   91   92
ATOM     92  C69 UNL A   1      30.600  26.234  25.720  1.00  0.00    +0.000 C 
ATOM    157  H52 UNL A   1      29.955  26.380  24.880  1.00  0.00    +0.000 H 
ATOM    158  H53 UNL A   1      30.516  27.068  26.385  1.00  0.00    +0.000 H 
ATOM    159  H54 UNL A   1      30.320  25.338  26.234  1.00  0.00    +0.000 H 
ENDBRANCH   91   92
BRANCH   95   96
ATOM    165  H60 UNL A   1      32.940  30.864  25.351  1.00  0.00    +0.000 H 
ATOM     96  O3  UNL A   1      32.992  30.265  26.112  1.00  0.00    +0.000 O 
ENDBRANCH   95   96
BRANCH   97   98
ATOM     98  C74 UNL A   1      30.865  29.142  24.537  1.00  0.00    +0.000 C 
ATOM    166  H61 UNL A   1      30.196  28.459  24.055  1.00  0.00    +0.000 H 
ATOM    167  H62 UNL A   1      30.776  30.107  24.085  1.00  0.00    +0.000 H 
ATOM    168  H63 UNL A   1      30.618  29.209  25.576  1.00  0.00    +0.000 H 
ENDBRANCH   97   98
BRANCH   97   99
ATOM    169  H64 UNL A   1      33.978  29.550  23.350  1.00  0.00    +0.000 H 
ATOM    170  H65 UNL A   1      32.487  30.451  23.225  1.00  0.00    +0.000 H 
ATOM     99  C75 UNL A   1      32.919  29.472  23.221  1.00  0.00    +0.000 C 
ATOM    171  H66 UNL A   1      32.708  28.992  22.288  1.00  0.00    +0.000 H 
ENDBRANCH   97   99
BRANCH  103  104
ATOM    177  H72 UNL A   1      30.555  22.700  23.084  1.00  0.00    +0.000 H 
ATOM    178  H73 UNL A   1      30.333  24.146  22.128  1.00  0.00    +0.000 H 
ATOM    179  H74 UNL A   1      30.034  24.181  23.849  1.00  0.00    +0.000 H 
ATOM    104  C80 UNL A   1      30.647  23.766  23.077  1.00  0.00    +0.000 C 
ENDBRANCH  103  104
TORSDOF 23
ENDMDL
MODEL 3
REMARK VINA RESULT:     -11.3      0.724      6.693
ROOT
ATOM      2  C2  UNL A   1      30.073  29.596  23.155  1.00  0.00    +0.000 C 
ATOM      3  C3  UNL A   1      29.572  30.930  23.800  1.00  0.00    +0.000 C 
ATOM      5  C5  UNL A   1      30.483  31.488  24.905  1.00  0.00    +0.000 C 
ATOM      6  C6  UNL A   1      31.064  30.480  25.873  1.00  0.00    +0.000 C 
ATOM      7  C7  UNL A   1      31.386  29.073  25.338  1.00  0.00    +0.000 C 
ATOM    146  H41 UNL A   1      30.202  28.348  26.991  1.00  0.00    +0.000 H 
ATOM    147  H42 UNL A   1      31.993  28.345  27.238  1.00  0.00    +0.000 H 
ATOM    148  H43 UNL A   1      30.736  26.138  27.168  1.00  0.00    +0.000 H 
ATOM    149  H44 UNL A   1      32.284  26.395  26.276  1.00  0.00    +0.000 H 
ATOM    153  H48 UNL A   1      31.692  27.590  22.107  1.00  0.00    +0.000 H 
ATOM    154  H49 UNL A   1      33.590  26.066  22.500  1.00  0.00    +0.000 H 
ATOM    155  H50 UNL A   1      32.214  25.051  22.054  1.00  0.00    +0.000 H 
ATOM    156  H51 UNL A   1      33.169  25.584  24.873  1.00  0.00    +0.000 H 
ATOM    160  H55 UNL A   1      35.155  25.204  25.220  1.00  0.00    +0.000 H 
ATOM    161  H56 UNL A   1      35.445  25.032  23.468  1.00  0.00    +0.000 H 
ATOM    162  H57 UNL A   1      37.264  24.154  24.872  1.00  0.00    +0.000 H 
ATOM    163  H58 UNL A   1      36.512  22.978  23.772  1.00  0.00    +0.000 H 
ATOM    164  H59 UNL A   1      36.082  23.211  26.702  1.00  0.00    +0.000 H 
ATOM    172  H67 UNL A   1      33.810  23.607  26.320  1.00  0.00    +0.000 H 
ATOM    173  H68 UNL A   1      32.128  21.773  26.442  1.00  0.00    +0.000 H 
ATOM    174  H69 UNL A   1      31.934  21.920  24.716  1.00  0.00    +0.000 H 
ATOM    175  H70 UNL A   1      31.598  24.164  26.696  1.00  0.00    +0.000 H 
ATOM    176  H71 UNL A   1      30.287  23.253  25.918  1.00  0.00    +0.000 H 
ATOM    180  H75 UNL A   1      29.371  28.457  24.606  1.00  0.00    +0.000 H 
ATOM     83  C60 UNL A   1      31.170  28.131  26.589  1.00  0.00    +0.000 C 
ATOM     84  C61 UNL A   1      31.240  26.614  26.353  1.00  0.00    +0.000 C 
ATOM     85  C62 UNL A   1      30.613  26.066  25.025  1.00  0.00    +0.000 C 
ATOM     87  C64 UNL A   1      30.861  27.135  23.921  1.00  0.00    +0.000 C 
ATOM     88  C65 UNL A   1      31.691  26.908  22.881  1.00  0.00    +0.000 C 
ATOM     89  C66 UNL A   1      32.616  25.722  22.783  1.00  0.00    +0.000 C 
ATOM     90  C67 UNL A   1      32.729  24.955  24.128  1.00  0.00    +0.000 C 
ATOM     91  C68 UNL A   1      33.844  23.828  24.203  1.00  0.00    +0.000 C 
ATOM     93  C70 UNL A   1      35.229  24.532  24.390  1.00  0.00    +0.000 C 
ATOM     94  C71 UNL A   1      36.391  23.575  24.652  1.00  0.00    +0.000 C 
ATOM     95  C72 UNL A   1      36.140  22.615  25.817  1.00  0.00    +0.000 C 
ATOM     97  C73 UNL A   1      34.770  21.871  25.774  1.00  0.00    +0.000 C 
ATOM    100  C76 UNL A   1      33.652  22.946  25.493  1.00  0.00    +0.000 C 
ATOM    101  C77 UNL A   1      32.209  22.441  25.610  1.00  0.00    +0.000 C 
ATOM    102  C78 UNL A   1      31.281  23.638  25.820  1.00  0.00    +0.000 C 
ATOM    103  C79 UNL A   1      31.272  24.630  24.627  1.00  0.00    +0.000 C 
ATOM    105  C81 UNL A   1      30.381  28.558  24.268  1.00  0.00    +0.000 C 
ATOM    109  H4  UNL A   1      30.972  29.793  22.608  1.00  0.00    +0.000 H 
ATOM    110  H5  UNL A   1      28.638  30.617  24.218  1.00  0.00    +0.000 H 
ATOM    114  H9  UNL A   1      29.912  32.193  25.473  1.00  0.00    +0.000 H 
ATOM    115  H10 UNL A   1      31.325  31.908  24.394  1.00  0.00    +0.000 H 
ATOM    116  H11 UNL A   1      30.362  30.365  26.672  1.00  0.00    +0.000 H 
ATOM    117  H12 UNL A   1      32.015  30.889  26.148  1.00  0.00    +0.000 H 
ENDROOT
BRANCH    2    1
ATOM      1  C1  UNL A   1      29.037  29.045  22.161  1.00  0.00    +0.000 C 
ATOM    106  H1  UNL A   1      28.128  29.604  22.247  1.00  0.00    +0.000 H 
ATOM    107  H2  UNL A   1      28.845  28.016  22.382  1.00  0.00    +0.000 H 
ATOM    108  H3  UNL A   1      29.416  29.132  21.165  1.00  0.00    +0.000 H 
ENDBRANCH    2    1
BRANCH    3    4
ATOM    113  H8  UNL A   1      28.847  32.883  23.293  1.00  0.00    +0.000 H 
ATOM      4  C4  UNL A   1      29.352  32.076  22.804  1.00  0.00    +0.000 C 
ATOM    111  H6  UNL A   1      28.757  31.728  21.986  1.00  0.00    +0.000 H 
ATOM    112  H7  UNL A   1      30.297  32.417  22.438  1.00  0.00    +0.000 H 
ENDBRANCH    3    4
BRANCH    7    8
ATOM      9  O1  UNL A   1      33.261  29.410  23.790  1.00  0.00    +0.000 O 
ATOM      8  C8  UNL A   1      32.894  28.964  24.885  1.00  0.00    +0.000 C 
BRANCH    8   10
ATOM     10  N1  UNL A   1      33.912  28.447  25.648  1.00  0.00    +0.000 N 
ATOM    118  H13 UNL A   1      34.503  27.797  25.203  1.00  0.00    +0.000 H 
BRANCH   10   11
ATOM     11  C9  UNL A   1      34.217  28.746  27.035  1.00  0.00    +0.000 C 
ATOM    119  H14 UNL A   1      34.376  27.820  27.548  1.00  0.00    +0.000 H 
ATOM    120  H15 UNL A   1      33.384  29.299  27.416  1.00  0.00    +0.000 H 
BRANCH   11   12
ATOM    121  H16 UNL A   1      35.940  29.719  26.292  1.00  0.00    +0.000 H 
ATOM    122  H17 UNL A   1      36.010  29.123  28.006  1.00  0.00    +0.000 H 
ATOM     12  C10 UNL A   1      35.454  29.625  27.242  1.00  0.00    +0.000 C 
BRANCH   12   13
ATOM    123  H18 UNL A   1      35.758  31.713  27.121  1.00  0.00    +0.000 H 
ATOM    124  H19 UNL A   1      35.633  30.987  28.790  1.00  0.00    +0.000 H 
ATOM     13  C11 UNL A   1      35.255  31.047  27.791  1.00  0.00    +0.000 C 
BRANCH   13   14
ATOM    126  H21 UNL A   1      33.207  30.827  27.556  1.00  0.00    +0.000 H 
ATOM    125  H20 UNL A   1      33.701  31.781  29.019  1.00  0.00    +0.000 H 
ATOM     14  C12 UNL A   1      33.834  31.587  27.975  1.00  0.00    +0.000 C 
BRANCH   14   15
ATOM    127  H22 UNL A   1      33.155  32.564  26.235  1.00  0.00    +0.000 H 
ATOM     15  C13 UNL A   1      33.438  32.857  27.225  1.00  0.00    +0.000 C 
ATOM    128  H23 UNL A   1      34.301  33.486  27.299  1.00  0.00    +0.000 H 
BRANCH   15   16
ATOM    129  H24 UNL A   1      31.811  33.138  28.547  1.00  0.00    +0.000 H 
ATOM    130  H25 UNL A   1      31.669  33.944  26.960  1.00  0.00    +0.000 H 
ATOM     16  C14 UNL A   1      32.306  33.703  27.786  1.00  0.00    +0.000 C 
BRANCH   16   17
ATOM     17  N2  UNL A   1      32.726  34.964  28.361  1.00  0.00    +0.000 N 
ATOM    131  H26 UNL A   1      32.651  35.743  27.764  1.00  0.00    +0.000 H 
BRANCH   17   18
ATOM     18  C15 UNL A   1      33.214  35.232  29.622  1.00  0.00    +0.000 C 
ATOM     19  O2  UNL A   1      32.685  36.095  30.306  1.00  0.00    +0.000 O 
BRANCH   18   20
ATOM    132  H27 UNL A   1      35.731  35.231  28.797  1.00  0.00    +0.000 H 
ATOM    133  H28 UNL A   1      37.636  34.017  29.679  1.00  0.00    +0.000 H 
ATOM    144  H39 UNL A   1      35.172  32.322  32.642  1.00  0.00    +0.000 H 
ATOM     81  C58 UNL A   1      35.291  32.919  31.808  1.00  0.00    +0.000 C 
ATOM     82  C59 UNL A   1      34.181  33.548  31.242  1.00  0.00    +0.000 C 
ATOM    145  H40 UNL A   1      33.235  33.349  31.606  1.00  0.00    +0.000 H 
ATOM     20  C16 UNL A   1      34.345  34.446  30.185  1.00  0.00    +0.000 C 
ATOM     21  C17 UNL A   1      35.610  34.605  29.608  1.00  0.00    +0.000 C 
ATOM     22  C18 UNL A   1      36.713  33.917  30.128  1.00  0.00    +0.000 C 
ATOM     23  C19 UNL A   1      36.569  33.092  31.254  1.00  0.00    +0.000 C 
BRANCH   23   24
ATOM    134  H29 UNL A   1      42.887  26.915  30.409  1.00  0.00    +0.000 H 
ATOM    135  H30 UNL A   1      44.190  27.017  32.666  1.00  0.00    +0.000 H 
ATOM    136  H31 UNL A   1      41.096  29.766  32.821  1.00  0.00    +0.000 H 
ATOM    137  H32 UNL A   1      38.035  34.460  35.873  1.00  0.00    +0.000 H 
ATOM    138  H33 UNL A   1      36.737  34.321  33.694  1.00  0.00    +0.000 H 
ATOM    139  H34 UNL A   1      39.788  31.503  33.538  1.00  0.00    +0.000 H 
ATOM    140  H35 UNL A   1      42.163  31.787  37.966  1.00  0.00    +0.000 H 
ATOM    141  H36 UNL A   1      43.796  30.037  37.061  1.00  0.00    +0.000 H 
ATOM    142  H37 UNL A   1      38.492  29.370  28.556  1.00  0.00    +0.000 H 
ATOM    143  H38 UNL A   1      37.163  31.454  29.221  1.00  0.00    +0.000 H 
ATOM     24  C20 UNL A   1      37.741  32.394  31.848  1.00  0.00    +0.000 C 
ATOM     25  C21 UNL A   1      38.425  31.284  31.097  1.00  0.00    +0.000 C 
ATOM     26  N3  UNL A   1      39.422  30.520  31.469  1.00  0.00    +0.000 N 
ATOM     27  C22 UNL A   1      39.632  29.633  30.420  1.00  0.00    +0.000 C 
ATOM     28  C23 UNL A   1      40.591  28.684  30.292  1.00  0.00    +0.000 C 
ATOM     40  C30 UNL A   1      41.611  28.424  31.274  1.00  0.00    +0.000 C 
ATOM     41  C31 UNL A   1      42.664  27.527  31.208  1.00  0.00    +0.000 C 
ATOM     42  C32 UNL A   1      43.371  27.594  32.413  1.00  0.00    +0.000 C 
ATOM     43  C33 UNL A   1      42.789  28.565  33.210  1.00  0.00    +0.000 C 
ATOM     44  N4  UNL A   1      41.706  29.063  32.501  1.00  0.00    +0.000 N 
ATOM     45  C34 UNL A   1      43.188  29.008  34.521  1.00  0.00    +0.000 C 
ATOM     57  C41 UNL A   1      42.564  29.975  35.238  1.00  0.00    +0.000 C 
ATOM     58  N5  UNL A   1      41.453  30.736  34.895  1.00  0.00    +0.000 N 
ATOM     59  C42 UNL A   1      41.225  31.521  35.919  1.00  0.00    +0.000 C 
ATOM     60  C43 UNL A   1      40.164  32.577  36.089  1.00  0.00    +0.000 C 
ATOM     72  C50 UNL A   1      39.300  32.812  35.083  1.00  0.00    +0.000 C 
ATOM     73  C51 UNL A   1      38.234  33.808  35.097  1.00  0.00    +0.000 C 
ATOM     74  C52 UNL A   1      37.555  33.743  33.941  1.00  0.00    +0.000 C 
ATOM     75  C53 UNL A   1      38.159  32.720  33.087  1.00  0.00    +0.000 C 
ATOM     76  N6  UNL A   1      39.188  32.219  33.847  1.00  0.00    +0.000 N 
ATOM     77  C54 UNL A   1      42.152  31.327  37.042  1.00  0.00    +0.000 C 
ATOM     78  C55 UNL A   1      42.972  30.403  36.559  1.00  0.00    +0.000 C 
ATOM     79  C56 UNL A   1      38.627  29.918  29.420  1.00  0.00    +0.000 C 
ATOM     80  C57 UNL A   1      37.902  30.974  29.757  1.00  0.00    +0.000 C 
BRANCH   28   29
ATOM     33  F2  UNL A   1      39.079  24.821  27.681  1.00  0.00    +0.000 F 
ATOM     34  C27 UNL A   1      40.558  26.353  26.664  1.00  0.00    +0.000 C 
ATOM     35  F3  UNL A   1      40.556  25.628  25.536  1.00  0.00    +0.000 F 
ATOM     36  C28 UNL A   1      41.327  27.505  26.747  1.00  0.00    +0.000 C 
ATOM     37  F4  UNL A   1      42.051  27.904  25.693  1.00  0.00    +0.000 F 
ATOM     38  C29 UNL A   1      41.350  28.244  27.928  1.00  0.00    +0.000 C 
ATOM     39  F5  UNL A   1      42.116  29.344  27.982  1.00  0.00    +0.000 F 
ATOM     29  C24 UNL A   1      40.585  27.858  29.038  1.00  0.00    +0.000 C 
ATOM     30  C25 UNL A   1      39.797  26.703  28.921  1.00  0.00    +0.000 C 
ATOM     31  F1  UNL A   1      39.056  26.283  29.957  1.00  0.00    +0.000 F 
ATOM     32  C26 UNL A   1      39.799  25.948  27.750  1.00  0.00    +0.000 C 
ENDBRANCH   28   29
BRANCH   45   46
ATOM     46  C35 UNL A   1      44.399  28.370  35.135  1.00  0.00    +0.000 C 
ATOM     47  C36 UNL A   1      45.681  28.914  34.968  1.00  0.00    +0.000 C 
ATOM     48  F6  UNL A   1      45.859  30.000  34.201  1.00  0.00    +0.000 F 
ATOM     49  C37 UNL A   1      46.793  28.320  35.561  1.00  0.00    +0.000 C 
ATOM     50  F7  UNL A   1      48.013  28.830  35.352  1.00  0.00    +0.000 F 
ATOM     51  C38 UNL A   1      46.639  27.194  36.356  1.00  0.00    +0.000 C 
ATOM     52  F8  UNL A   1      47.709  26.628  36.932  1.00  0.00    +0.000 F 
ATOM     53  C39 UNL A   1      45.378  26.650  36.549  1.00  0.00    +0.000 C 
ATOM     54  F9  UNL A   1      45.227  25.570  37.328  1.00  0.00    +0.000 F 
ATOM     55  C40 UNL A   1      44.269  27.224  35.935  1.00  0.00    +0.000 C 
ATOM     56  F10 UNL A   1      43.064  26.669  36.131  1.00  0.00    +0.000 F 
ENDBRANCH   45   46
BRANCH   60   61
ATOM     65  F12 UNL A   1      38.121  33.517  40.417  1.00  0.00    +0.000 F 
ATOM     66  C47 UNL A   1      39.904  34.890  39.705  1.00  0.00    +0.000 C 
ATOM     67  F13 UNL A   1      39.813  35.618  40.826  1.00  0.00    +0.000 F 
ATOM     68  C48 UNL A   1      40.847  35.214  38.741  1.00  0.00    +0.000 C 
ATOM     69  F14 UNL A   1      41.682  36.242  38.940  1.00  0.00    +0.000 F 
ATOM     70  C49 UNL A   1      40.928  34.472  37.564  1.00  0.00    +0.000 C 
ATOM     71  F15 UNL A   1      41.840  34.816  36.643  1.00  0.00    +0.000 F 
ATOM     61  C44 UNL A   1      40.082  33.375  37.339  1.00  0.00    +0.000 C 
ATOM     62  C45 UNL A   1      39.148  33.057  38.336  1.00  0.00    +0.000 C 
ATOM     63  F11 UNL A   1      38.304  32.032  38.158  1.00  0.00    +0.000 F 
ATOM     64  C46 UNL A   1      39.051  33.816  39.501  1.00  0.00    +0.000 C 
ENDBRANCH   60   61
ENDBRANCH   23   24
ENDBRANCH   18   20
ENDBRANCH   17   18
ENDBRANCH   16   17
ENDBRANCH   15   16
ENDBRANCH   14   15
ENDBRANCH   13   14
ENDBRANCH   12   13
ENDBRANCH   11   12
ENDBRANCH   10   11
ENDBRANCH    8   10
ENDBRANCH    7    8
BRANCH   85   86
ATOM    151  H46 UNL A   1      28.747  26.611  25.966  1.00  0.00    +0.000 H 
ATOM     86  C63 UNL A   1      29.087  25.892  25.250  1.00  0.00    +0.000 C 
ATOM    150  H45 UNL A   1      28.571  26.041  24.324  1.00  0.00    +0.000 H 
ATOM    152  H47 UNL A   1      28.890  24.905  25.614  1.00  0.00    +0.000 H 
ENDBRANCH   85   86
BRANCH   91   92
ATOM     92  C69 UNL A   1      33.877  23.030  22.885  1.00  0.00    +0.000 C 
ATOM    157  H52 UNL A   1      34.832  23.151  22.419  1.00  0.00    +0.000 H 
ATOM    158  H53 UNL A   1      33.111  23.391  22.231  1.00  0.00    +0.000 H 
ATOM    159  H54 UNL A   1      33.710  21.992  23.092  1.00  0.00    +0.000 H 
ENDBRANCH   91   92
BRANCH   95   96
ATOM    165  H60 UNL A   1      37.857  21.996  26.576  1.00  0.00    +0.000 H 
ATOM     96  O3  UNL A   1      37.230  21.694  25.900  1.00  0.00    +0.000 O 
ENDBRANCH   95   96
BRANCH   97   98
ATOM     98  C74 UNL A   1      34.780  20.685  24.786  1.00  0.00    +0.000 C 
ATOM    166  H61 UNL A   1      35.029  19.786  25.311  1.00  0.00    +0.000 H 
ATOM    167  H62 UNL A   1      35.506  20.864  24.021  1.00  0.00    +0.000 H 
ATOM    168  H63 UNL A   1      33.812  20.582  24.343  1.00  0.00    +0.000 H 
ENDBRANCH   97   98
BRANCH   97   99
ATOM    169  H64 UNL A   1      33.613  21.545  27.572  1.00  0.00    +0.000 H 
ATOM    170  H65 UNL A   1      35.340  21.543  27.833  1.00  0.00    +0.000 H 
ATOM     99  C75 UNL A   1      34.556  21.231  27.176  1.00  0.00    +0.000 C 
ATOM    171  H66 UNL A   1      34.568  20.165  27.087  1.00  0.00    +0.000 H 
ENDBRANCH   97   99
BRANCH  103  104
ATOM    177  H72 UNL A   1      30.858  24.150  22.554  1.00  0.00    +0.000 H 
ATOM    178  H73 UNL A   1      29.425  24.293  23.544  1.00  0.00    +0.000 H 
ATOM    179  H74 UNL A   1      30.437  22.874  23.670  1.00  0.00    +0.000 H 
ATOM    104  C80 UNL A   1      30.431  23.932  23.511  1.00  0.00    +0.000 C 
ENDBRANCH  103  104
TORSDOF 23
ENDMDL
MODEL 4
REMARK VINA RESULT:     -11.0      4.740      6.759
ROOT
ATOM      2  C2  UNL A   1      30.167  29.758  23.342  1.00  0.00    +0.000 C 
ATOM      3  C3  UNL A   1      29.689  31.081  24.025  1.00  0.00    +0.000 C 
ATOM      5  C5  UNL A   1      30.597  31.580  25.161  1.00  0.00    +0.000 C 
ATOM      6  C6  UNL A   1      31.141  30.526  26.101  1.00  0.00    +0.000 C 
ATOM      7  C7  UNL A   1      31.437  29.130  25.523  1.00  0.00    +0.000 C 
ATOM    146  H41 UNL A   1      30.213  28.378  27.135  1.00  0.00    +0.000 H 
ATOM    147  H42 UNL A   1      32.000  28.324  27.405  1.00  0.00    +0.000 H 
ATOM    148  H43 UNL A   1      30.692  26.151  27.243  1.00  0.00    +0.000 H 
ATOM    149  H44 UNL A   1      32.259  26.401  26.381  1.00  0.00    +0.000 H 
ATOM    153  H48 UNL A   1      31.754  27.750  22.247  1.00  0.00    +0.000 H 
ATOM    154  H49 UNL A   1      33.609  26.169  22.614  1.00  0.00    +0.000 H 
ATOM    155  H50 UNL A   1      32.216  25.202  22.115  1.00  0.00    +0.000 H 
ATOM    156  H51 UNL A   1      33.144  25.617  24.963  1.00  0.00    +0.000 H 
ATOM    160  H55 UNL A   1      35.115  25.178  25.323  1.00  0.00    +0.000 H 
ATOM    161  H56 UNL A   1      35.426  25.058  23.571  1.00  0.00    +0.000 H 
ATOM    162  H57 UNL A   1      37.203  24.090  24.968  1.00  0.00    +0.000 H 
ATOM    163  H58 UNL A   1      36.440  22.970  23.818  1.00  0.00    +0.000 H 
ATOM    164  H59 UNL A   1      35.974  23.115  26.749  1.00  0.00    +0.000 H 
ATOM    172  H67 UNL A   1      33.717  23.577  26.350  1.00  0.00    +0.000 H 
ATOM    173  H68 UNL A   1      31.992  21.781  26.388  1.00  0.00    +0.000 H 
ATOM    174  H69 UNL A   1      31.825  21.991  24.666  1.00  0.00    +0.000 H 
ATOM    175  H70 UNL A   1      31.515  24.174  26.716  1.00  0.00    +0.000 H 
ATOM    176  H71 UNL A   1      30.193  23.322  25.890  1.00  0.00    +0.000 H 
ATOM    180  H75 UNL A   1      29.419  28.587  24.744  1.00  0.00    +0.000 H 
ATOM     83  C60 UNL A   1      31.181  28.152  26.738  1.00  0.00    +0.000 C 
ATOM     84  C61 UNL A   1      31.219  26.642  26.452  1.00  0.00    +0.000 C 
ATOM     85  C62 UNL A   1      30.598  26.155  25.098  1.00  0.00    +0.000 C 
ATOM     87  C64 UNL A   1      30.886  27.254  24.034  1.00  0.00    +0.000 C 
ATOM     88  C65 UNL A   1      31.725  27.043  22.998  1.00  0.00    +0.000 C 
ATOM     89  C66 UNL A   1      32.624  25.839  22.872  1.00  0.00    +0.000 C 
ATOM     90  C67 UNL A   1      32.699  25.024  24.191  1.00  0.00    +0.000 C 
ATOM     91  C68 UNL A   1      33.787  23.869  24.243  1.00  0.00    +0.000 C 
ATOM     93  C70 UNL A   1      35.185  24.533  24.472  1.00  0.00    +0.000 C 
ATOM     94  C71 UNL A   1      36.320  23.540  24.716  1.00  0.00    +0.000 C 
ATOM     95  C72 UNL A   1      36.031  22.547  25.844  1.00  0.00    +0.000 C 
ATOM     97  C73 UNL A   1      34.644  21.838  25.758  1.00  0.00    +0.000 C 
ATOM    100  C76 UNL A   1      33.555  22.949  25.499  1.00  0.00    +0.000 C 
ATOM    101  C77 UNL A   1      32.100  22.475  25.580  1.00  0.00    +0.000 C 
ATOM    102  C78 UNL A   1      31.197  23.686  25.819  1.00  0.00    +0.000 C 
ATOM    103  C79 UNL A   1      31.229  24.718  24.660  1.00  0.00    +0.000 C 
ATOM    105  C81 UNL A   1      30.435  28.676  24.423  1.00  0.00    +0.000 C 
ATOM    109  H4  UNL A   1      31.078  29.952  22.814  1.00  0.00    +0.000 H 
ATOM    110  H5  UNL A   1      28.742  30.776  24.420  1.00  0.00    +0.000 H 
ATOM    114  H9  UNL A   1      30.035  32.279  25.744  1.00  0.00    +0.000 H 
ATOM    115  H10 UNL A   1      31.455  31.996  24.675  1.00  0.00    +0.000 H 
ATOM    116  H11 UNL A   1      30.425  30.401  26.887  1.00  0.00    +0.000 H 
ATOM    117  H12 UNL A   1      32.097  30.902  26.402  1.00  0.00    +0.000 H 
ENDROOT
BRANCH    2    1
ATOM      1  C1  UNL A   1      29.132  29.266  22.316  1.00  0.00    +0.000 C 
ATOM    106  H1  UNL A   1      29.621  29.053  21.389  1.00  0.00    +0.000 H 
ATOM    107  H2  UNL A   1      28.394  30.026  22.164  1.00  0.00    +0.000 H 
ATOM    108  H3  UNL A   1      28.660  28.379  22.683  1.00  0.00    +0.000 H 
ENDBRANCH    2    1
BRANCH    3    4
ATOM    113  H8  UNL A   1      28.909  33.016  23.534  1.00  0.00    +0.000 H 
ATOM      4  C4  UNL A   1      29.510  32.265  23.066  1.00  0.00    +0.000 C 
ATOM    111  H6  UNL A   1      29.027  31.929  22.171  1.00  0.00    +0.000 H 
ATOM    112  H7  UNL A   1      30.467  32.675  22.822  1.00  0.00    +0.000 H 
ENDBRANCH    3    4
BRANCH    7    8
ATOM      9  O1  UNL A   1      33.326  29.413  23.982  1.00  0.00    +0.000 O 
ATOM      8  C8  UNL A   1      32.948  29.001  25.087  1.00  0.00    +0.000 C 
BRANCH    8   10
ATOM     10  N1  UNL A   1      33.957  28.500  25.873  1.00  0.00    +0.000 N 
ATOM    118  H13 UNL A   1      34.190  27.554  25.734  1.00  0.00    +0.000 H 
BRANCH   10   11
ATOM     11  C9  UNL A   1      34.719  29.205  26.887  1.00  0.00    +0.000 C 
ATOM    119  H14 UNL A   1      35.668  29.469  26.467  1.00  0.00    +0.000 H 
ATOM    120  H15 UNL A   1      34.800  28.541  27.722  1.00  0.00    +0.000 H 
BRANCH   11   12
ATOM    121  H16 UNL A   1      33.338  30.189  28.147  1.00  0.00    +0.000 H 
ATOM    122  H17 UNL A   1      33.665  30.956  26.535  1.00  0.00    +0.000 H 
ATOM     12  C10 UNL A   1      34.057  30.484  27.411  1.00  0.00    +0.000 C 
BRANCH   12   13
ATOM    123  H18 UNL A   1      34.913  32.416  27.415  1.00  0.00    +0.000 H 
ATOM    124  H19 UNL A   1      35.897  31.070  28.153  1.00  0.00    +0.000 H 
ATOM     13  C11 UNL A   1      34.950  31.557  28.053  1.00  0.00    +0.000 C 
BRANCH   13   14
ATOM    126  H21 UNL A   1      33.648  31.685  29.660  1.00  0.00    +0.000 H 
ATOM    125  H20 UNL A   1      35.405  31.654  30.113  1.00  0.00    +0.000 H 
ATOM     14  C12 UNL A   1      34.640  32.040  29.472  1.00  0.00    +0.000 C 
BRANCH   14   15
ATOM    127  H22 UNL A   1      33.658  33.893  29.257  1.00  0.00    +0.000 H 
ATOM     15  C13 UNL A   1      34.556  33.543  29.724  1.00  0.00    +0.000 C 
ATOM    128  H23 UNL A   1      35.471  33.929  29.325  1.00  0.00    +0.000 H 
BRANCH   15   16
ATOM    129  H24 UNL A   1      33.957  33.349  31.743  1.00  0.00    +0.000 H 
ATOM    130  H25 UNL A   1      34.122  35.021  31.142  1.00  0.00    +0.000 H 
ATOM     16  C14 UNL A   1      34.536  34.035  31.163  1.00  0.00    +0.000 C 
BRANCH   16   17
ATOM     17  N2  UNL A   1      35.842  34.153  31.776  1.00  0.00    +0.000 N 
ATOM    131  H26 UNL A   1      36.256  35.045  31.715  1.00  0.00    +0.000 H 
BRANCH   17   18
ATOM     18  C15 UNL A   1      36.592  33.199  32.433  1.00  0.00    +0.000 C 
ATOM     19  O2  UNL A   1      36.271  32.846  33.558  1.00  0.00    +0.000 O 
BRANCH   18   20
ATOM    132  H27 UNL A   1      37.165  33.205  29.847  1.00  0.00    +0.000 H 
ATOM    133  H28 UNL A   1      39.055  32.216  28.691  1.00  0.00    +0.000 H 
ATOM    144  H39 UNL A   1      40.567  30.832  32.368  1.00  0.00    +0.000 H 
ATOM     81  C58 UNL A   1      39.833  31.313  31.824  1.00  0.00    +0.000 C 
ATOM     82  C59 UNL A   1      38.700  31.803  32.474  1.00  0.00    +0.000 C 
ATOM    145  H40 UNL A   1      38.558  31.612  33.479  1.00  0.00    +0.000 H 
ATOM     20  C16 UNL A   1      37.755  32.554  31.769  1.00  0.00    +0.000 C 
ATOM     21  C17 UNL A   1      37.883  32.692  30.381  1.00  0.00    +0.000 C 
ATOM     22  C18 UNL A   1      38.983  32.136  29.718  1.00  0.00    +0.000 C 
ATOM     23  C19 UNL A   1      39.985  31.469  30.438  1.00  0.00    +0.000 C 
BRANCH   23   24
ATOM    134  H29 UNL A   1      48.136  32.862  27.209  1.00  0.00    +0.000 H 
ATOM    135  H30 UNL A   1      48.831  30.558  26.207  1.00  0.00    +0.000 H 
ATOM    136  H31 UNL A   1      44.991  30.215  27.721  1.00  0.00    +0.000 H 
ATOM    137  H32 UNL A   1      39.899  26.620  29.083  1.00  0.00    +0.000 H 
ATOM    138  H33 UNL A   1      39.205  28.880  30.011  1.00  0.00    +0.000 H 
ATOM    139  H34 UNL A   1      43.031  29.273  28.435  1.00  0.00    +0.000 H 
ATOM    140  H35 UNL A   1      44.201  24.776  26.503  1.00  0.00    +0.000 H 
ATOM    141  H36 UNL A   1      46.500  25.752  25.948  1.00  0.00    +0.000 H 
ATOM    142  H37 UNL A   1      43.621  34.725  29.428  1.00  0.00    +0.000 H 
ATOM    143  H38 UNL A   1      41.525  33.659  30.442  1.00  0.00    +0.000 H 
ATOM     24  C20 UNL A   1      41.184  30.915  29.752  1.00  0.00    +0.000 C 
ATOM     25  C21 UNL A   1      42.359  31.803  29.441  1.00  0.00    +0.000 C 
ATOM     26  N3  UNL A   1      43.467  31.522  28.802  1.00  0.00    +0.000 N 
ATOM     27  C22 UNL A   1      44.189  32.708  28.754  1.00  0.00    +0.000 C 
ATOM     28  C23 UNL A   1      45.430  32.925  28.254  1.00  0.00    +0.000 C 
ATOM     40  C30 UNL A   1      46.256  31.906  27.661  1.00  0.00    +0.000 C 
ATOM     41  C31 UNL A   1      47.551  32.013  27.183  1.00  0.00    +0.000 C 
ATOM     42  C32 UNL A   1      47.929  30.773  26.661  1.00  0.00    +0.000 C 
ATOM     43  C33 UNL A   1      46.888  29.879  26.855  1.00  0.00    +0.000 C 
ATOM     44  N4  UNL A   1      45.865  30.589  27.465  1.00  0.00    +0.000 N 
ATOM     45  C34 UNL A   1      46.828  28.482  26.511  1.00  0.00    +0.000 C 
ATOM     57  C41 UNL A   1      45.767  27.670  26.741  1.00  0.00    +0.000 C 
ATOM     58  N5  UNL A   1      44.551  27.973  27.339  1.00  0.00    +0.000 N 
ATOM     59  C42 UNL A   1      43.854  26.863  27.319  1.00  0.00    +0.000 C 
ATOM     60  C43 UNL A   1      42.473  26.597  27.859  1.00  0.00    +0.000 C 
ATOM     72  C50 UNL A   1      41.804  27.590  28.476  1.00  0.00    +0.000 C 
ATOM     73  C51 UNL A   1      40.471  27.479  29.059  1.00  0.00    +0.000 C 
ATOM     74  C52 UNL A   1      40.108  28.670  29.560  1.00  0.00    +0.000 C 
ATOM     75  C53 UNL A   1      41.199  29.625  29.361  1.00  0.00    +0.000 C 
ATOM     76  N6  UNL A   1      42.164  28.897  28.710  1.00  0.00    +0.000 N 
ATOM     77  C54 UNL A   1      44.542  25.734  26.677  1.00  0.00    +0.000 C 
ATOM     78  C55 UNL A   1      45.719  26.269  26.380  1.00  0.00    +0.000 C 
ATOM     79  C56 UNL A   1      43.372  33.724  29.380  1.00  0.00    +0.000 C 
ATOM     80  C57 UNL A   1      42.263  33.203  29.884  1.00  0.00    +0.000 C 
BRANCH   28   29
ATOM     33  F2  UNL A   1      46.121  37.398  26.372  1.00  0.00    +0.000 F 
ATOM     34  C27 UNL A   1      46.967  36.946  28.529  1.00  0.00    +0.000 C 
ATOM     35  F3  UNL A   1      47.451  38.192  28.616  1.00  0.00    +0.000 F 
ATOM     36  C28 UNL A   1      47.158  36.052  29.572  1.00  0.00    +0.000 C 
ATOM     37  F4  UNL A   1      47.809  36.442  30.676  1.00  0.00    +0.000 F 
ATOM     38  C29 UNL A   1      46.677  34.748  29.471  1.00  0.00    +0.000 C 
ATOM     39  F5  UNL A   1      46.892  33.903  30.491  1.00  0.00    +0.000 F 
ATOM     29  C24 UNL A   1      45.975  34.322  28.334  1.00  0.00    +0.000 C 
ATOM     30  C25 UNL A   1      45.773  35.251  27.302  1.00  0.00    +0.000 C 
ATOM     31  F1  UNL A   1      45.118  34.892  26.189  1.00  0.00    +0.000 F 
ATOM     32  C26 UNL A   1      46.282  36.545  27.392  1.00  0.00    +0.000 C 
ENDBRANCH   28   29
BRANCH   45   46
ATOM     46  C35 UNL A   1      48.037  27.869  25.869  1.00  0.00    +0.000 C 
ATOM     47  C36 UNL A   1      49.139  27.447  26.628  1.00  0.00    +0.000 C 
ATOM     48  F6  UNL A   1      49.155  27.636  27.957  1.00  0.00    +0.000 F 
ATOM     49  C37 UNL A   1      50.246  26.861  26.019  1.00  0.00    +0.000 C 
ATOM     50  F7  UNL A   1      51.305  26.507  26.758  1.00  0.00    +0.000 F 
ATOM     51  C38 UNL A   1      50.259  26.658  24.647  1.00  0.00    +0.000 C 
ATOM     52  F8  UNL A   1      51.322  26.088  24.064  1.00  0.00    +0.000 F 
ATOM     53  C39 UNL A   1      49.173  27.052  23.879  1.00  0.00    +0.000 C 
ATOM     54  F9  UNL A   1      49.179  26.843  22.555  1.00  0.00    +0.000 F 
ATOM     55  C40 UNL A   1      48.077  27.663  24.482  1.00  0.00    +0.000 C 
ATOM     56  F10 UNL A   1      47.047  28.043  23.712  1.00  0.00    +0.000 F 
ENDBRANCH   45   46
BRANCH   60   61
ATOM     65  F12 UNL A   1      42.218  21.907  29.172  1.00  0.00    +0.000 F 
ATOM     66  C47 UNL A   1      40.718  22.686  27.523  1.00  0.00    +0.000 C 
ATOM     67  F13 UNL A   1      40.181  21.463  27.411  1.00  0.00    +0.000 F 
ATOM     68  C48 UNL A   1      40.252  23.725  26.732  1.00  0.00    +0.000 C 
ATOM     69  F14 UNL A   1      39.250  23.512  25.868  1.00  0.00    +0.000 F 
ATOM     70  C49 UNL A   1      40.825  24.991  26.831  1.00  0.00    +0.000 C 
ATOM     71  F15 UNL A   1      40.364  25.975  26.044  1.00  0.00    +0.000 F 
ATOM     61  C44 UNL A   1      41.859  25.249  27.743  1.00  0.00    +0.000 C 
ATOM     62  C45 UNL A   1      42.302  24.187  28.545  1.00  0.00    +0.000 C 
ATOM     63  F11 UNL A   1      43.303  24.378  29.415  1.00  0.00    +0.000 F 
ATOM     64  C46 UNL A   1      41.746  22.914  28.425  1.00  0.00    +0.000 C 
ENDBRANCH   60   61
ENDBRANCH   23   24
ENDBRANCH   18   20
ENDBRANCH   17   18
ENDBRANCH   16   17
ENDBRANCH   15   16
ENDBRANCH   14   15
ENDBRANCH   13   14
ENDBRANCH   12   13
ENDBRANCH   11   12
ENDBRANCH   10   11
ENDBRANCH    8   10
ENDBRANCH    7    8
BRANCH   85   86
ATOM    151  H46 UNL A   1      28.618  26.982  25.348  1.00  0.00    +0.000 H 
ATOM     86  C63 UNL A   1      29.065  26.010  25.296  1.00  0.00    +0.000 C 
ATOM    150  H45 UNL A   1      28.648  25.470  24.472  1.00  0.00    +0.000 H 
ATOM    152  H47 UNL A   1      28.872  25.479  26.205  1.00  0.00    +0.000 H 
ENDBRANCH   85   86
BRANCH   91   92
ATOM     92  C69 UNL A   1      33.819  23.115  22.899  1.00  0.00    +0.000 C 
ATOM    157  H52 UNL A   1      34.183  23.767  22.133  1.00  0.00    +0.000 H 
ATOM    158  H53 UNL A   1      32.831  22.788  22.650  1.00  0.00    +0.000 H 
ATOM    159  H54 UNL A   1      34.466  22.266  22.982  1.00  0.00    +0.000 H 
ENDBRANCH   91   92
BRANCH   95   96
ATOM    165  H60 UNL A   1      36.918  20.959  26.618  1.00  0.00    +0.000 H 
ATOM     96  O3  UNL A   1      37.097  21.599  25.911  1.00  0.00    +0.000 O 
ENDBRANCH   95   96
BRANCH   97   98
ATOM     98  C74 UNL A   1      34.640  20.687  24.731  1.00  0.00    +0.000 C 
ATOM    166  H61 UNL A   1      35.189  20.983  23.861  1.00  0.00    +0.000 H 
ATOM    167  H62 UNL A   1      33.632  20.458  24.455  1.00  0.00    +0.000 H 
ATOM    168  H63 UNL A   1      35.098  19.822  25.163  1.00  0.00    +0.000 H 
ENDBRANCH   97   98
BRANCH   97   99
ATOM    169  H64 UNL A   1      33.885  21.838  27.783  1.00  0.00    +0.000 H 
ATOM    170  H65 UNL A   1      35.333  20.884  27.571  1.00  0.00    +0.000 H 
ATOM     99  C75 UNL A   1      34.396  21.157  27.135  1.00  0.00    +0.000 C 
ATOM    171  H66 UNL A   1      33.798  20.280  26.997  1.00  0.00    +0.000 H 
ENDBRANCH   97   99
BRANCH  103  104
ATOM    177  H72 UNL A   1      31.001  23.960  22.642  1.00  0.00    +0.000 H 
ATOM    178  H73 UNL A   1      29.559  24.713  23.277  1.00  0.00    +0.000 H 
ATOM    179  H74 UNL A   1      30.026  23.121  23.823  1.00  0.00    +0.000 H 
ATOM    104  C80 UNL A   1      30.387  24.078  23.510  1.00  0.00    +0.000 C 
ENDBRANCH  103  104
TORSDOF 23
ENDMDL
MODEL 5
REMARK VINA RESULT:     -10.9     23.932     27.792
ROOT
ATOM      2  C2  UNL A   1      46.497  42.316  23.553  1.00  0.00    +0.000 C 
ATOM      3  C3  UNL A   1      45.927  42.454  25.004  1.00  0.00    +0.000 C 
ATOM      5  C5  UNL A   1      45.319  43.829  25.324  1.00  0.00    +0.000 C 
ATOM      6  C6  UNL A   1      46.072  45.036  24.808  1.00  0.00    +0.000 C 
ATOM      7  C7  UNL A   1      46.831  44.895  23.476  1.00  0.00    +0.000 C 
ATOM    146  H41 UNL A   1      48.541  45.650  24.554  1.00  0.00    +0.000 H 
ATOM    147  H42 UNL A   1      47.629  46.859  23.568  1.00  0.00    +0.000 H 
ATOM    148  H43 UNL A   1      50.021  46.280  22.936  1.00  0.00    +0.000 H 
ATOM    149  H44 UNL A   1      48.700  46.394  21.711  1.00  0.00    +0.000 H 
ATOM    153  H48 UNL A   1      46.853  42.531  20.802  1.00  0.00    +0.000 H 
ATOM    154  H49 UNL A   1      47.110  44.049  18.876  1.00  0.00    +0.000 H 
ATOM    155  H50 UNL A   1      48.527  42.993  18.876  1.00  0.00    +0.000 H 
ATOM    156  H51 UNL A   1      48.425  45.805  19.983  1.00  0.00    +0.000 H 
ATOM    160  H55 UNL A   1      47.728  47.238  18.692  1.00  0.00    +0.000 H 
ATOM    161  H56 UNL A   1      47.180  45.974  17.558  1.00  0.00    +0.000 H 
ATOM    162  H57 UNL A   1      47.278  48.225  16.572  1.00  0.00    +0.000 H 
ATOM    163  H58 UNL A   1      48.281  46.995  15.771  1.00  0.00    +0.000 H 
ATOM    164  H59 UNL A   1      49.210  49.146  17.599  1.00  0.00    +0.000 H 
ATOM    172  H67 UNL A   1      50.042  47.520  19.059  1.00  0.00    +0.000 H 
ATOM    173  H68 UNL A   1      52.435  46.829  19.014  1.00  0.00    +0.000 H 
ATOM    174  H69 UNL A   1      51.913  45.287  18.390  1.00  0.00    +0.000 H 
ATOM    175  H70 UNL A   1      50.941  46.541  20.950  1.00  0.00    +0.000 H 
ATOM    176  H71 UNL A   1      52.143  45.239  20.815  1.00  0.00    +0.000 H 
ATOM    180  H75 UNL A   1      48.205  43.211  23.980  1.00  0.00    +0.000 H 
ATOM     83  C60 UNL A   1      48.056  45.880  23.628  1.00  0.00    +0.000 C 
ATOM     84  C61 UNL A   1      49.129  45.853  22.527  1.00  0.00    +0.000 C 
ATOM     85  C62 UNL A   1      49.505  44.453  21.931  1.00  0.00    +0.000 C 
ATOM     87  C64 UNL A   1      48.208  43.594  21.909  1.00  0.00    +0.000 C 
ATOM     88  C65 UNL A   1      47.616  43.225  20.754  1.00  0.00    +0.000 C 
ATOM     89  C66 UNL A   1      47.999  43.763  19.399  1.00  0.00    +0.000 C 
ATOM     90  C67 UNL A   1      48.936  44.996  19.503  1.00  0.00    +0.000 C 
ATOM     91  C68 UNL A   1      49.220  45.780  18.151  1.00  0.00    +0.000 C 
ATOM     93  C70 UNL A   1      47.963  46.653  17.826  1.00  0.00    +0.000 C 
ATOM     94  C71 UNL A   1      48.145  47.601  16.643  1.00  0.00    +0.000 C 
ATOM     95  C72 UNL A   1      49.378  48.499  16.763  1.00  0.00    +0.000 C 
ATOM     97  C73 UNL A   1      50.701  47.756  17.125  1.00  0.00    +0.000 C 
ATOM    100  C76 UNL A   1      50.397  46.806  18.346  1.00  0.00    +0.000 C 
ATOM    101  C77 UNL A   1      51.622  46.134  18.976  1.00  0.00    +0.000 C 
ATOM    102  C78 UNL A   1      51.265  45.686  20.395  1.00  0.00    +0.000 C 
ATOM    103  C79 UNL A   1      50.141  44.616  20.440  1.00  0.00    +0.000 C 
ATOM    105  C81 UNL A   1      47.468  43.491  23.257  1.00  0.00    +0.000 C 
ATOM    109  H4  UNL A   1      45.685  42.355  22.858  1.00  0.00    +0.000 H 
ATOM    110  H5  UNL A   1      46.812  42.299  25.586  1.00  0.00    +0.000 H 
ATOM    114  H9  UNL A   1      45.255  43.916  26.389  1.00  0.00    +0.000 H 
ATOM    115  H10 UNL A   1      44.375  43.846  24.820  1.00  0.00    +0.000 H 
ATOM    116  H11 UNL A   1      46.787  45.309  25.555  1.00  0.00    +0.000 H 
ATOM    117  H12 UNL A   1      45.311  45.762  24.609  1.00  0.00    +0.000 H 
ENDROOT
BRANCH    2    1
ATOM      1  C1  UNL A   1      47.202  40.962  23.369  1.00  0.00    +0.000 C 
ATOM    106  H1  UNL A   1      46.665  40.205  23.901  1.00  0.00    +0.000 H 
ATOM    107  H2  UNL A   1      48.201  41.026  23.750  1.00  0.00    +0.000 H 
ATOM    108  H3  UNL A   1      47.233  40.714  22.329  1.00  0.00    +0.000 H 
ENDBRANCH    2    1
BRANCH    3    4
ATOM    113  H8  UNL A   1      43.967  41.608  24.812  1.00  0.00    +0.000 H 
ATOM      4  C4  UNL A   1      44.859  41.415  25.370  1.00  0.00    +0.000 C 
ATOM    111  H6  UNL A   1      44.645  41.477  26.417  1.00  0.00    +0.000 H 
ATOM    112  H7  UNL A   1      45.220  40.435  25.137  1.00  0.00    +0.000 H 
ENDBRANCH    3    4
BRANCH    7    8
ATOM      9  O1  UNL A   1      46.317  46.316  21.542  1.00  0.00    +0.000 O 
ATOM      8  C8  UNL A   1      45.948  45.378  22.260  1.00  0.00    +0.000 C 
BRANCH    8   10
ATOM     10  N1  UNL A   1      44.770  44.795  21.859  1.00  0.00    +0.000 N 
ATOM    118  H13 UNL A   1      44.142  44.544  22.575  1.00  0.00    +0.000 H 
BRANCH   10   11
ATOM     11  C9  UNL A   1      44.345  44.507  20.503  1.00  0.00    +0.000 C 
ATOM    119  H14 UNL A   1      45.220  44.381  19.899  1.00  0.00    +0.000 H 
ATOM    120  H15 UNL A   1      43.737  45.331  20.194  1.00  0.00    +0.000 H 
BRANCH   11   12
ATOM    121  H16 UNL A   1      43.736  42.594  21.163  1.00  0.00    +0.000 H 
ATOM    122  H17 UNL A   1      43.697  42.892  19.373  1.00  0.00    +0.000 H 
ATOM     12  C10 UNL A   1      43.479  43.251  20.357  1.00  0.00    +0.000 C 
BRANCH   12   13
ATOM    123  H18 UNL A   1      41.745  44.386  20.765  1.00  0.00    +0.000 H 
ATOM    124  H19 UNL A   1      41.615  42.577  20.951  1.00  0.00    +0.000 H 
ATOM     13  C11 UNL A   1      41.951  43.412  20.373  1.00  0.00    +0.000 C 
BRANCH   13   14
ATOM    126  H21 UNL A   1      41.886  42.899  18.365  1.00  0.00    +0.000 H 
ATOM    125  H20 UNL A   1      40.325  42.655  19.258  1.00  0.00    +0.000 H 
ATOM     14  C12 UNL A   1      41.170  43.282  19.062  1.00  0.00    +0.000 C 
BRANCH   14   15
ATOM    127  H22 UNL A   1      40.280  45.189  19.184  1.00  0.00    +0.000 H 
ATOM     15  C13 UNL A   1      40.645  44.555  18.402  1.00  0.00    +0.000 C 
ATOM    128  H23 UNL A   1      39.914  44.207  17.702  1.00  0.00    +0.000 H 
BRANCH   15   16
ATOM    129  H24 UNL A   1      41.503  45.082  16.541  1.00  0.00    +0.000 H 
ATOM    130  H25 UNL A   1      42.586  45.202  17.956  1.00  0.00    +0.000 H 
ATOM     16  C14 UNL A   1      41.607  45.382  17.563  1.00  0.00    +0.000 C 
BRANCH   16   17
ATOM     17  N2  UNL A   1      41.393  46.811  17.636  1.00  0.00    +0.000 N 
ATOM    131  H26 UNL A   1      40.803  47.111  18.366  1.00  0.00    +0.000 H 
BRANCH   17   18
ATOM     18  C15 UNL A   1      41.895  47.815  16.834  1.00  0.00    +0.000 C 
ATOM     19  O2  UNL A   1      41.331  48.092  15.786  1.00  0.00    +0.000 O 
BRANCH   18   20
ATOM    132  H27 UNL A   1      44.316  47.755  15.761  1.00  0.00    +0.000 H 
ATOM    133  H28 UNL A   1      46.291  49.031  16.355  1.00  0.00    +0.000 H 
ATOM    144  H39 UNL A   1      44.109  50.982  19.380  1.00  0.00    +0.000 H 
ATOM     81  C58 UNL A   1      44.165  50.278  18.627  1.00  0.00    +0.000 C 
ATOM     82  C59 UNL A   1      43.058  49.478  18.343  1.00  0.00    +0.000 C 
ATOM    145  H40 UNL A   1      42.216  49.534  18.938  1.00  0.00    +0.000 H 
ATOM     20  C16 UNL A   1      43.084  48.603  17.254  1.00  0.00    +0.000 C 
ATOM     21  C17 UNL A   1      44.275  48.433  16.537  1.00  0.00    +0.000 C 
ATOM     22  C18 UNL A   1      45.409  49.182  16.870  1.00  0.00    +0.000 C 
ATOM     23  C19 UNL A   1      45.355  50.136  17.897  1.00  0.00    +0.000 C 
BRANCH   23   24
ATOM    134  H29 UNL A   1      50.000  57.550  16.397  1.00  0.00    +0.000 H 
ATOM    135  H30 UNL A   1      52.040  57.366  18.011  1.00  0.00    +0.000 H 
ATOM    136  H31 UNL A   1      49.726  53.959  18.443  1.00  0.00    +0.000 H 
ATOM    137  H32 UNL A   1      48.533  48.441  21.416  1.00  0.00    +0.000 H 
ATOM    138  H33 UNL A   1      46.576  48.599  19.806  1.00  0.00    +0.000 H 
ATOM    139  H34 UNL A   1      48.918  51.995  19.297  1.00  0.00    +0.000 H 
ATOM    140  H35 UNL A   1      52.822  51.465  22.428  1.00  0.00    +0.000 H 
ATOM    141  H36 UNL A   1      53.582  53.789  21.673  1.00  0.00    +0.000 H 
ATOM    142  H37 UNL A   1      45.948  54.260  15.162  1.00  0.00    +0.000 H 
ATOM    143  H38 UNL A   1      44.895  52.194  16.247  1.00  0.00    +0.000 H 
ATOM     24  C20 UNL A   1      46.539  50.975  18.230  1.00  0.00    +0.000 C 
ATOM     25  C21 UNL A   1      46.787  52.264  17.495  1.00  0.00    +0.000 C 
ATOM     26  N3  UNL A   1      47.787  53.102  17.601  1.00  0.00    +0.000 N 
ATOM     27  C22 UNL A   1      47.548  54.101  16.665  1.00  0.00    +0.000 C 
ATOM     28  C23 UNL A   1      48.260  55.230  16.428  1.00  0.00    +0.000 C 
ATOM     40  C30 UNL A   1      49.447  55.606  17.150  1.00  0.00    +0.000 C 
ATOM     41  C31 UNL A   1      50.203  56.759  17.027  1.00  0.00    +0.000 C 
ATOM     42  C32 UNL A   1      51.288  56.667  17.904  1.00  0.00    +0.000 C 
ATOM     43  C33 UNL A   1      51.183  55.478  18.608  1.00  0.00    +0.000 C 
ATOM     44  N4  UNL A   1      50.051  54.834  18.132  1.00  0.00    +0.000 N 
ATOM     45  C34 UNL A   1      52.049  54.966  19.639  1.00  0.00    +0.000 C 
ATOM     57  C41 UNL A   1      51.873  53.788  20.287  1.00  0.00    +0.000 C 
ATOM     58  N5  UNL A   1      50.865  52.847  20.126  1.00  0.00    +0.000 N 
ATOM     59  C42 UNL A   1      51.139  51.879  20.967  1.00  0.00    +0.000 C 
ATOM     60  C43 UNL A   1      50.370  50.614  21.243  1.00  0.00    +0.000 C 
ATOM     72  C50 UNL A   1      49.221  50.382  20.580  1.00  0.00    +0.000 C 
ATOM     73  C51 UNL A   1      48.365  49.212  20.751  1.00  0.00    +0.000 C 
ATOM     74  C52 UNL A   1      47.324  49.302  19.908  1.00  0.00    +0.000 C 
ATOM     75  C53 UNL A   1      47.422  50.553  19.157  1.00  0.00    +0.000 C 
ATOM     76  N6  UNL A   1      48.579  51.129  19.621  1.00  0.00    +0.000 N 
ATOM     77  C54 UNL A   1      52.372  52.086  21.738  1.00  0.00    +0.000 C 
ATOM     78  C55 UNL A   1      52.758  53.282  21.315  1.00  0.00    +0.000 C 
ATOM     79  C56 UNL A   1      46.335  53.739  15.964  1.00  0.00    +0.000 C 
ATOM     80  C57 UNL A   1      45.788  52.651  16.486  1.00  0.00    +0.000 C 
BRANCH   28   29
ATOM     33  F2  UNL A   1      45.801  59.194  14.924  1.00  0.00    +0.000 F 
ATOM     34  C27 UNL A   1      46.894  57.870  13.304  1.00  0.00    +0.000 C 
ATOM     35  F3  UNL A   1      46.466  58.685  12.329  1.00  0.00    +0.000 F 
ATOM     36  C28 UNL A   1      47.659  56.757  12.992  1.00  0.00    +0.000 C 
ATOM     37  F4  UNL A   1      47.990  56.506  11.718  1.00  0.00    +0.000 F 
ATOM     38  C29 UNL A   1      48.082  55.895  14.002  1.00  0.00    +0.000 C 
ATOM     39  F5  UNL A   1      48.808  54.818  13.667  1.00  0.00    +0.000 F 
ATOM     29  C24 UNL A   1      47.767  56.146  15.346  1.00  0.00    +0.000 C 
ATOM     30  C25 UNL A   1      47.012  57.292  15.639  1.00  0.00    +0.000 C 
ATOM     31  F1  UNL A   1      46.674  57.572  16.906  1.00  0.00    +0.000 F 
ATOM     32  C26 UNL A   1      46.564  58.135  14.624  1.00  0.00    +0.000 C 
ENDBRANCH   28   29
BRANCH   45   46
ATOM     46  C35 UNL A   1      53.223  55.806  20.045  1.00  0.00    +0.000 C 
ATOM     47  C36 UNL A   1      54.500  55.597  19.504  1.00  0.00    +0.000 C 
ATOM     48  F6  UNL A   1      54.711  54.592  18.640  1.00  0.00    +0.000 F 
ATOM     49  C37 UNL A   1      55.576  56.398  19.878  1.00  0.00    +0.000 C 
ATOM     50  F7  UNL A   1      56.796  56.152  19.382  1.00  0.00    +0.000 F 
ATOM     51  C38 UNL A   1      55.389  57.441  20.772  1.00  0.00    +0.000 C 
ATOM     52  F8  UNL A   1      56.425  58.216  21.125  1.00  0.00    +0.000 F 
ATOM     53  C39 UNL A   1      54.132  57.677  21.307  1.00  0.00    +0.000 C 
ATOM     54  F9  UNL A   1      53.947  58.693  22.161  1.00  0.00    +0.000 F 
ATOM     55  C40 UNL A   1      53.061  56.860  20.957  1.00  0.00    +0.000 C 
ATOM     56  F10 UNL A   1      51.859  57.106  21.499  1.00  0.00    +0.000 F 
ENDBRANCH   45   46
BRANCH   60   61
ATOM     65  F12 UNL A   1      53.343  46.990  22.591  1.00  0.00    +0.000 F 
ATOM     66  C47 UNL A   1      51.763  47.776  24.159  1.00  0.00    +0.000 C 
ATOM     67  F13 UNL A   1      52.190  46.883  25.062  1.00  0.00    +0.000 F 
ATOM     68  C48 UNL A   1      50.722  48.638  24.471  1.00  0.00    +0.000 C 
ATOM     69  F14 UNL A   1      50.155  48.591  25.684  1.00  0.00    +0.000 F 
ATOM     70  C49 UNL A   1      50.262  49.551  23.526  1.00  0.00    +0.000 C 
ATOM     71  F15 UNL A   1      49.244  50.362  23.850  1.00  0.00    +0.000 F 
ATOM     61  C44 UNL A   1      50.852  49.639  22.256  1.00  0.00    +0.000 C 
ATOM     62  C45 UNL A   1      51.915  48.770  21.969  1.00  0.00    +0.000 C 
ATOM     63  F11 UNL A   1      52.496  48.800  20.762  1.00  0.00    +0.000 F 
ATOM     64  C46 UNL A   1      52.356  47.838  22.907  1.00  0.00    +0.000 C 
ENDBRANCH   60   61
ENDBRANCH   23   24
ENDBRANCH   18   20
ENDBRANCH   17   18
ENDBRANCH   16   17
ENDBRANCH   15   16
ENDBRANCH   14   15
ENDBRANCH   13   14
ENDBRANCH   12   13
ENDBRANCH   11   12
ENDBRANCH   10   11
ENDBRANCH    8   10
ENDBRANCH    7    8
BRANCH   85   86
ATOM    151  H46 UNL A   1      51.175  43.136  22.305  1.00  0.00    +0.000 H 
ATOM     86  C63 UNL A   1      50.550  43.795  22.871  1.00  0.00    +0.000 C 
ATOM    150  H45 UNL A   1      51.153  44.556  23.323  1.00  0.00    +0.000 H 
ATOM    152  H47 UNL A   1      50.045  43.240  23.634  1.00  0.00    +0.000 H 
ENDBRANCH   85   86
BRANCH   91   92
ATOM     92  C69 UNL A   1      49.431  44.780  16.997  1.00  0.00    +0.000 C 
ATOM    157  H52 UNL A   1      49.458  43.785  17.389  1.00  0.00    +0.000 H 
ATOM    158  H53 UNL A   1      50.355  44.996  16.504  1.00  0.00    +0.000 H 
ATOM    159  H54 UNL A   1      48.623  44.866  16.299  1.00  0.00    +0.000 H 
ENDBRANCH   91   92
BRANCH   95   96
ATOM    165  H60 UNL A   1      48.983  48.853  14.860  1.00  0.00    +0.000 H 
ATOM     96  O3  UNL A   1      49.518  49.257  15.561  1.00  0.00    +0.000 O 
ENDBRANCH   95   96
BRANCH   97   98
ATOM     98  C74 UNL A   1      51.325  47.047  15.903  1.00  0.00    +0.000 C 
ATOM    166  H61 UNL A   1      52.381  46.953  16.047  1.00  0.00    +0.000 H 
ATOM    167  H62 UNL A   1      51.136  47.623  15.022  1.00  0.00    +0.000 H 
ATOM    168  H63 UNL A   1      50.891  46.075  15.795  1.00  0.00    +0.000 H 
ENDBRANCH   97   98
BRANCH   97   99
ATOM    169  H64 UNL A   1      51.232  49.774  17.688  1.00  0.00    +0.000 H 
ATOM    170  H65 UNL A   1      52.464  48.953  16.761  1.00  0.00    +0.000 H 
ATOM     99  C75 UNL A   1      51.735  48.843  17.536  1.00  0.00    +0.000 C 
ATOM    171  H66 UNL A   1      52.221  48.549  18.444  1.00  0.00    +0.000 H 
ENDBRANCH   97   99
BRANCH  103  104
ATOM    177  H72 UNL A   1      51.131  42.730  20.844  1.00  0.00    +0.000 H 
ATOM    178  H73 UNL A   1      51.666  43.505  19.372  1.00  0.00    +0.000 H 
ATOM    179  H74 UNL A   1      50.115  42.702  19.423  1.00  0.00    +0.000 H 
ATOM    104  C80 UNL A   1      50.817  43.283  19.984  1.00  0.00    +0.000 C 
ENDBRANCH  103  104
TORSDOF 23
ENDMDL
MODEL 6
REMARK VINA RESULT:     -10.8     24.070     27.756
ROOT
ATOM      2  C2  UNL A   1      46.313  42.427  23.401  1.00  0.00    +0.000 C 
ATOM      3  C3  UNL A   1      45.709  42.584  24.836  1.00  0.00    +0.000 C 
ATOM      5  C5  UNL A   1      45.162  43.987  25.150  1.00  0.00    +0.000 C 
ATOM      6  C6  UNL A   1      45.990  45.157  24.665  1.00  0.00    +0.000 C 
ATOM      7  C7  UNL A   1      46.779  44.986  23.354  1.00  0.00    +0.000 C 
ATOM    146  H41 UNL A   1      48.494  45.645  24.487  1.00  0.00    +0.000 H 
ATOM    147  H42 UNL A   1      47.673  46.907  23.485  1.00  0.00    +0.000 H 
ATOM    148  H43 UNL A   1      50.049  46.210  22.917  1.00  0.00    +0.000 H 
ATOM    149  H44 UNL A   1      48.772  46.400  21.656  1.00  0.00    +0.000 H 
ATOM    153  H48 UNL A   1      46.758  42.642  20.663  1.00  0.00    +0.000 H 
ATOM    154  H49 UNL A   1      47.148  44.157  18.757  1.00  0.00    +0.000 H 
ATOM    155  H50 UNL A   1      48.508  43.031  18.789  1.00  0.00    +0.000 H 
ATOM    156  H51 UNL A   1      48.518  45.837  19.916  1.00  0.00    +0.000 H 
ATOM    160  H55 UNL A   1      47.932  47.312  18.617  1.00  0.00    +0.000 H 
ATOM    161  H56 UNL A   1      47.353  46.086  17.458  1.00  0.00    +0.000 H 
ATOM    162  H57 UNL A   1      47.594  48.335  16.493  1.00  0.00    +0.000 H 
ATOM    163  H58 UNL A   1      48.556  47.061  15.711  1.00  0.00    +0.000 H 
ATOM    164  H59 UNL A   1      49.540  49.149  17.582  1.00  0.00    +0.000 H 
ATOM    172  H67 UNL A   1      50.246  47.474  19.052  1.00  0.00    +0.000 H 
ATOM    173  H68 UNL A   1      52.601  46.662  19.070  1.00  0.00    +0.000 H 
ATOM    174  H69 UNL A   1      52.020  45.153  18.419  1.00  0.00    +0.000 H 
ATOM    175  H70 UNL A   1      51.039  46.437  20.960  1.00  0.00    +0.000 H 
ATOM    176  H71 UNL A   1      52.176  45.077  20.848  1.00  0.00    +0.000 H 
ATOM    180  H75 UNL A   1      48.050  43.231  23.883  1.00  0.00    +0.000 H 
ATOM     83  C60 UNL A   1      48.048  45.907  23.550  1.00  0.00    +0.000 C 
ATOM     84  C61 UNL A   1      49.149  45.832  22.480  1.00  0.00    +0.000 C 
ATOM     85  C62 UNL A   1      49.471  44.419  21.883  1.00  0.00    +0.000 C 
ATOM     87  C64 UNL A   1      48.133  43.628  21.816  1.00  0.00    +0.000 C 
ATOM     88  C65 UNL A   1      47.557  43.296  20.642  1.00  0.00    +0.000 C 
ATOM     89  C66 UNL A   1      48.006  43.823  19.303  1.00  0.00    +0.000 C 
ATOM     90  C67 UNL A   1      49.000  45.007  19.444  1.00  0.00    +0.000 C 
ATOM     91  C68 UNL A   1      49.363  45.783  18.107  1.00  0.00    +0.000 C 
ATOM     93  C70 UNL A   1      48.162  46.722  17.754  1.00  0.00    +0.000 C 
ATOM     94  C71 UNL A   1      48.426  47.668  16.583  1.00  0.00    +0.000 C 
ATOM     95  C72 UNL A   1      49.699  48.501  16.747  1.00  0.00    +0.000 C 
ATOM     97  C73 UNL A   1      50.972  47.688  17.139  1.00  0.00    +0.000 C 
ATOM    100  C76 UNL A   1      50.585  46.747  18.344  1.00  0.00    +0.000 C 
ATOM    101  C77 UNL A   1      51.755  46.009  19.004  1.00  0.00    +0.000 C 
ATOM    102  C78 UNL A   1      51.335  45.570  20.408  1.00  0.00    +0.000 C 
ATOM    103  C79 UNL A   1      50.158  44.559  20.412  1.00  0.00    +0.000 C 
ATOM    105  C81 UNL A   1      47.350  43.553  23.142  1.00  0.00    +0.000 C 
ATOM    109  H4  UNL A   1      45.524  42.512  22.683  1.00  0.00    +0.000 H 
ATOM    110  H5  UNL A   1      46.567  42.381  25.442  1.00  0.00    +0.000 H 
ATOM    114  H9  UNL A   1      45.072  44.069  26.213  1.00  0.00    +0.000 H 
ATOM    115  H10 UNL A   1      44.236  44.055  24.619  1.00  0.00    +0.000 H 
ATOM    116  H11 UNL A   1      46.696  45.388  25.435  1.00  0.00    +0.000 H 
ATOM    117  H12 UNL A   1      45.273  45.922  24.451  1.00  0.00    +0.000 H 
ENDROOT
BRANCH    2    1
ATOM      1  C1  UNL A   1      46.953  41.040  23.226  1.00  0.00    +0.000 C 
ATOM    106  H1  UNL A   1      46.644  40.620  22.292  1.00  0.00    +0.000 H 
ATOM    107  H2  UNL A   1      46.641  40.400  24.025  1.00  0.00    +0.000 H 
ATOM    108  H3  UNL A   1      48.019  41.134  23.240  1.00  0.00    +0.000 H 
ENDBRANCH    2    1
BRANCH    3    4
ATOM    113  H8  UNL A   1      43.689  41.893  24.648  1.00  0.00    +0.000 H 
ATOM      4  C4  UNL A   1      44.579  41.599  25.163  1.00  0.00    +0.000 C 
ATOM    111  H6  UNL A   1      44.398  41.601  26.218  1.00  0.00    +0.000 H 
ATOM    112  H7  UNL A   1      44.863  40.615  24.852  1.00  0.00    +0.000 H 
ENDBRANCH    3    4
BRANCH    7    8
ATOM      9  O1  UNL A   1      46.401  46.434  21.409  1.00  0.00    +0.000 O 
ATOM      8  C8  UNL A   1      45.957  45.522  22.118  1.00  0.00    +0.000 C 
BRANCH    8   10
ATOM     10  N1  UNL A   1      44.755  45.013  21.689  1.00  0.00    +0.000 N 
ATOM    118  H13 UNL A   1      44.063  44.890  22.378  1.00  0.00    +0.000 H 
BRANCH   10   11
ATOM     11  C9  UNL A   1      44.388  44.636  20.337  1.00  0.00    +0.000 C 
ATOM    119  H14 UNL A   1      45.288  44.482  19.778  1.00  0.00    +0.000 H 
ATOM    120  H15 UNL A   1      43.787  45.433  19.953  1.00  0.00    +0.000 H 
BRANCH   11   12
ATOM    121  H16 UNL A   1      43.852  42.712  21.026  1.00  0.00    +0.000 H 
ATOM    122  H17 UNL A   1      43.714  43.010  19.241  1.00  0.00    +0.000 H 
ATOM     12  C10 UNL A   1      43.541  43.364  20.235  1.00  0.00    +0.000 C 
BRANCH   12   13
ATOM    123  H18 UNL A   1      41.807  44.486  20.683  1.00  0.00    +0.000 H 
ATOM    124  H19 UNL A   1      41.729  42.686  20.970  1.00  0.00    +0.000 H 
ATOM     13  C11 UNL A   1      42.013  43.496  20.331  1.00  0.00    +0.000 C 
BRANCH   13   14
ATOM    126  H21 UNL A   1      41.831  42.824  18.378  1.00  0.00    +0.000 H 
ATOM    125  H20 UNL A   1      40.313  42.696  19.364  1.00  0.00    +0.000 H 
ATOM     14  C12 UNL A   1      41.162  43.282  19.076  1.00  0.00    +0.000 C 
BRANCH   14   15
ATOM    127  H22 UNL A   1      40.306  45.208  19.083  1.00  0.00    +0.000 H 
ATOM     15  C13 UNL A   1      40.634  44.511  18.340  1.00  0.00    +0.000 C 
ATOM    128  H23 UNL A   1      39.873  44.124  17.693  1.00  0.00    +0.000 H 
BRANCH   15   16
ATOM    129  H24 UNL A   1      41.235  45.118  16.405  1.00  0.00    +0.000 H 
ATOM    130  H25 UNL A   1      42.553  44.850  17.578  1.00  0.00    +0.000 H 
ATOM     16  C14 UNL A   1      41.577  45.255  17.408  1.00  0.00    +0.000 C 
BRANCH   16   17
ATOM     17  N2  UNL A   1      41.675  46.677  17.661  1.00  0.00    +0.000 N 
ATOM    131  H26 UNL A   1      41.389  46.965  18.559  1.00  0.00    +0.000 H 
BRANCH   17   18
ATOM     18  C15 UNL A   1      42.110  47.687  16.829  1.00  0.00    +0.000 C 
ATOM     19  O2  UNL A   1      41.515  47.911  15.786  1.00  0.00    +0.000 O 
BRANCH   18   20
ATOM    132  H27 UNL A   1      44.557  47.624  15.817  1.00  0.00    +0.000 H 
ATOM    133  H28 UNL A   1      46.476  49.008  16.351  1.00  0.00    +0.000 H 
ATOM    144  H39 UNL A   1      44.160  51.118  19.163  1.00  0.00    +0.000 H 
ATOM     81  C58 UNL A   1      44.257  50.359  18.469  1.00  0.00    +0.000 C 
ATOM     82  C59 UNL A   1      43.182  49.503  18.226  1.00  0.00    +0.000 C 
ATOM    145  H40 UNL A   1      42.325  49.576  18.796  1.00  0.00    +0.000 H 
ATOM     20  C16 UNL A   1      43.263  48.546  17.211  1.00  0.00    +0.000 C 
ATOM     21  C17 UNL A   1      44.475  48.360  16.536  1.00  0.00    +0.000 C 
ATOM     22  C18 UNL A   1      45.577  49.170  16.832  1.00  0.00    +0.000 C 
ATOM     23  C19 UNL A   1      45.468  50.200  17.780  1.00  0.00    +0.000 C 
BRANCH   23   24
ATOM    134  H29 UNL A   1      52.868  51.720  22.440  1.00  0.00    +0.000 H 
ATOM    135  H30 UNL A   1      53.681  54.054  21.610  1.00  0.00    +0.000 H 
ATOM    136  H31 UNL A   1      50.157  53.125  19.642  1.00  0.00    +0.000 H 
ATOM    137  H32 UNL A   1      45.759  54.538  15.241  1.00  0.00    +0.000 H 
ATOM    138  H33 UNL A   1      44.943  52.288  16.089  1.00  0.00    +0.000 H 
ATOM    139  H34 UNL A   1      48.438  53.226  18.133  1.00  0.00    +0.000 H 
ATOM    140  H35 UNL A   1      49.842  57.761  16.464  1.00  0.00    +0.000 H 
ATOM    141  H36 UNL A   1      51.912  57.529  17.951  1.00  0.00    +0.000 H 
ATOM    142  H37 UNL A   1      48.523  48.739  21.437  1.00  0.00    +0.000 H 
ATOM    143  H38 UNL A   1      46.728  48.707  19.611  1.00  0.00    +0.000 H 
ATOM     24  C20 UNL A   1      46.616  51.101  18.070  1.00  0.00    +0.000 C 
ATOM     25  C21 UNL A   1      47.624  50.733  19.125  1.00  0.00    +0.000 C 
ATOM     26  N3  UNL A   1      48.657  51.410  19.559  1.00  0.00    +0.000 N 
ATOM     27  C22 UNL A   1      49.222  50.636  20.566  1.00  0.00    +0.000 C 
ATOM     28  C23 UNL A   1      50.347  50.870  21.285  1.00  0.00    +0.000 C 
ATOM     40  C30 UNL A   1      51.194  52.020  21.113  1.00  0.00    +0.000 C 
ATOM     41  C31 UNL A   1      52.389  52.316  21.749  1.00  0.00    +0.000 C 
ATOM     42  C32 UNL A   1      52.832  53.560  21.291  1.00  0.00    +0.000 C 
ATOM     43  C33 UNL A   1      51.939  54.020  20.336  1.00  0.00    +0.000 C 
ATOM     44  N4  UNL A   1      50.936  53.067  20.240  1.00  0.00    +0.000 N 
ATOM     45  C34 UNL A   1      51.995  55.236  19.567  1.00  0.00    +0.000 C 
ATOM     57  C41 UNL A   1      51.079  55.613  18.642  1.00  0.00    +0.000 C 
ATOM     58  N5  UNL A   1      49.931  54.948  18.230  1.00  0.00    +0.000 N 
ATOM     59  C42 UNL A   1      49.372  55.719  17.329  1.00  0.00    +0.000 C 
ATOM     60  C43 UNL A   1      48.121  55.487  16.523  1.00  0.00    +0.000 C 
ATOM     72  C50 UNL A   1      47.434  54.340  16.688  1.00  0.00    +0.000 C 
ATOM     73  C51 UNL A   1      46.217  53.971  15.971  1.00  0.00    +0.000 C 
ATOM     74  C52 UNL A   1      45.793  52.776  16.411  1.00  0.00    +0.000 C 
ATOM     75  C53 UNL A   1      46.726  52.278  17.422  1.00  0.00    +0.000 C 
ATOM     76  N6  UNL A   1      47.668  53.272  17.522  1.00  0.00    +0.000 N 
ATOM     77  C54 UNL A   1      50.091  56.977  17.088  1.00  0.00    +0.000 C 
ATOM     78  C55 UNL A   1      51.144  56.844  17.883  1.00  0.00    +0.000 C 
ATOM     79  C56 UNL A   1      48.388  49.463  20.714  1.00  0.00    +0.000 C 
ATOM     80  C57 UNL A   1      47.429  49.440  19.800  1.00  0.00    +0.000 C 
BRANCH   28   29
ATOM     33  F2  UNL A   1      52.951  46.987  22.757  1.00  0.00    +0.000 F 
ATOM     34  C27 UNL A   1      51.465  47.989  24.293  1.00  0.00    +0.000 C 
ATOM     35  F3  UNL A   1      51.806  47.092  25.229  1.00  0.00    +0.000 F 
ATOM     36  C28 UNL A   1      50.517  48.961  24.575  1.00  0.00    +0.000 C 
ATOM     37  F4  UNL A   1      49.955  49.015  25.791  1.00  0.00    +0.000 F 
ATOM     38  C29 UNL A   1      50.143  49.877  23.594  1.00  0.00    +0.000 C 
ATOM     39  F5  UNL A   1      49.211  50.795  23.893  1.00  0.00    +0.000 F 
ATOM     29  C24 UNL A   1      50.731  49.853  22.321  1.00  0.00    +0.000 C 
ATOM     30  C25 UNL A   1      51.706  48.877  22.067  1.00  0.00    +0.000 C 
ATOM     31  F1  UNL A   1      52.291  48.803  20.863  1.00  0.00    +0.000 F 
ATOM     32  C26 UNL A   1      52.055  47.942  23.040  1.00  0.00    +0.000 C 
ENDBRANCH   28   29
BRANCH   45   46
ATOM     46  C35 UNL A   1      53.166  56.148  19.787  1.00  0.00    +0.000 C 
ATOM     47  C36 UNL A   1      53.119  57.192  20.722  1.00  0.00    +0.000 C 
ATOM     48  F6  UNL A   1      51.993  57.434  21.409  1.00  0.00    +0.000 F 
ATOM     49  C37 UNL A   1      54.222  58.018  20.928  1.00  0.00    +0.000 C 
ATOM     50  F7  UNL A   1      54.141  59.037  21.793  1.00  0.00    +0.000 F 
ATOM     51  C38 UNL A   1      55.399  57.795  20.228  1.00  0.00    +0.000 C 
ATOM     52  F8  UNL A   1      56.461  58.587  20.433  1.00  0.00    +0.000 F 
ATOM     53  C39 UNL A   1      55.472  56.758  19.311  1.00  0.00    +0.000 C 
ATOM     54  F9  UNL A   1      56.613  56.533  18.644  1.00  0.00    +0.000 F 
ATOM     55  C40 UNL A   1      54.363  55.949  19.083  1.00  0.00    +0.000 C 
ATOM     56  F10 UNL A   1      54.461  54.960  18.182  1.00  0.00    +0.000 F 
ENDBRANCH   45   46
BRANCH   60   61
ATOM     65  F12 UNL A   1      45.807  59.640  15.435  1.00  0.00    +0.000 F 
ATOM     66  C47 UNL A   1      46.761  58.400  13.667  1.00  0.00    +0.000 C 
ATOM     67  F13 UNL A   1      46.325  59.302  12.778  1.00  0.00    +0.000 F 
ATOM     68  C48 UNL A   1      47.462  57.283  13.238  1.00  0.00    +0.000 C 
ATOM     69  F14 UNL A   1      47.721  57.115  11.935  1.00  0.00    +0.000 F 
ATOM     70  C49 UNL A   1      47.895  56.332  14.160  1.00  0.00    +0.000 C 
ATOM     71  F15 UNL A   1      48.558  55.254  13.716  1.00  0.00    +0.000 F 
ATOM     61  C44 UNL A   1      47.659  56.493  15.533  1.00  0.00    +0.000 C 
ATOM     62  C45 UNL A   1      46.964  57.640  15.945  1.00  0.00    +0.000 C 
ATOM     63  F11 UNL A   1      46.694  57.828  17.244  1.00  0.00    +0.000 F 
ATOM     64  C46 UNL A   1      46.507  58.576  15.019  1.00  0.00    +0.000 C 
ENDBRANCH   60   61
ENDBRANCH   23   24
ENDBRANCH   18   20
ENDBRANCH   17   18
ENDBRANCH   16   17
ENDBRANCH   15   16
ENDBRANCH   14   15
ENDBRANCH   13   14
ENDBRANCH   12   13
ENDBRANCH   11   12
ENDBRANCH   10   11
ENDBRANCH    8   10
ENDBRANCH    7    8
BRANCH   85   86
ATOM    151  H46 UNL A   1      51.027  42.981  22.302  1.00  0.00    +0.000 H 
ATOM     86  C63 UNL A   1      50.454  43.702  22.847  1.00  0.00    +0.000 C 
ATOM    150  H45 UNL A   1      51.113  44.423  23.285  1.00  0.00    +0.000 H 
ATOM    152  H47 UNL A   1      49.901  43.208  23.619  1.00  0.00    +0.000 H 
ENDBRANCH   85   86
BRANCH   91   92
ATOM     92  C69 UNL A   1      49.556  44.782  16.952  1.00  0.00    +0.000 C 
ATOM    157  H52 UNL A   1      50.583  44.486  16.904  1.00  0.00    +0.000 H 
ATOM    158  H53 UNL A   1      49.274  45.244  16.029  1.00  0.00    +0.000 H 
ATOM    159  H54 UNL A   1      48.944  43.920  17.122  1.00  0.00    +0.000 H 
ENDBRANCH   91   92
BRANCH   95   96
ATOM    165  H60 UNL A   1      49.058  49.547  15.198  1.00  0.00    +0.000 H 
ATOM     96  O3  UNL A   1      49.913  49.258  15.555  1.00  0.00    +0.000 O 
ENDBRANCH   95   96
BRANCH   97   98
ATOM     98  C74 UNL A   1      51.594  46.957  15.930  1.00  0.00    +0.000 C 
ATOM    166  H61 UNL A   1      51.545  45.900  16.090  1.00  0.00    +0.000 H 
ATOM    167  H62 UNL A   1      52.615  47.254  15.821  1.00  0.00    +0.000 H 
ATOM    168  H63 UNL A   1      51.051  47.209  15.044  1.00  0.00    +0.000 H 
ENDBRANCH   97   98
BRANCH   97   99
ATOM    169  H64 UNL A   1      51.566  49.581  17.999  1.00  0.00    +0.000 H 
ATOM    170  H65 UNL A   1      52.640  49.007  16.747  1.00  0.00    +0.000 H 
ATOM     99  C75 UNL A   1      52.047  48.718  17.590  1.00  0.00    +0.000 C 
ATOM    171  H66 UNL A   1      52.677  48.275  18.333  1.00  0.00    +0.000 H 
ENDBRANCH   97   99
BRANCH  103  104
ATOM    177  H72 UNL A   1      50.094  42.404  20.186  1.00  0.00    +0.000 H 
ATOM    178  H73 UNL A   1      51.696  43.033  20.487  1.00  0.00    +0.000 H 
ATOM    179  H74 UNL A   1      50.965  43.219  18.911  1.00  0.00    +0.000 H 
ATOM    104  C80 UNL A   1      50.778  43.197  19.964  1.00  0.00    +0.000 C 
ENDBRANCH  103  104
TORSDOF 23
ENDMDL
MODEL 7
REMARK VINA RESULT:     -10.8      0.914      6.869
ROOT
ATOM      2  C2  UNL A   1      30.312  29.889  23.666  1.00  0.00    +0.000 C 
ATOM      3  C3  UNL A   1      29.842  31.185  24.405  1.00  0.00    +0.000 C 
ATOM      5  C5  UNL A   1      30.773  31.650  25.537  1.00  0.00    +0.000 C 
ATOM      6  C6  UNL A   1      31.341  30.567  26.428  1.00  0.00    +0.000 C 
ATOM      7  C7  UNL A   1      31.632  29.193  25.796  1.00  0.00    +0.000 C 
ATOM    146  H41 UNL A   1      30.447  28.380  27.407  1.00  0.00    +0.000 H 
ATOM    147  H42 UNL A   1      32.240  28.326  27.636  1.00  0.00    +0.000 H 
ATOM    148  H43 UNL A   1      30.939  26.154  27.428  1.00  0.00    +0.000 H 
ATOM    149  H44 UNL A   1      32.485  26.441  26.541  1.00  0.00    +0.000 H 
ATOM    153  H48 UNL A   1      31.883  27.929  22.469  1.00  0.00    +0.000 H 
ATOM    154  H49 UNL A   1      33.753  26.346  22.740  1.00  0.00    +0.000 H 
ATOM    155  H50 UNL A   1      32.355  25.389  22.239  1.00  0.00    +0.000 H 
ATOM    156  H51 UNL A   1      33.342  25.711  25.079  1.00  0.00    +0.000 H 
ATOM    160  H55 UNL A   1      35.323  25.271  25.380  1.00  0.00    +0.000 H 
ATOM    161  H56 UNL A   1      35.596  25.213  23.619  1.00  0.00    +0.000 H 
ATOM    162  H57 UNL A   1      37.408  24.207  24.943  1.00  0.00    +0.000 H 
ATOM    163  H58 UNL A   1      36.625  23.123  23.772  1.00  0.00    +0.000 H 
ATOM    164  H59 UNL A   1      36.223  23.165  26.715  1.00  0.00    +0.000 H 
ATOM    172  H67 UNL A   1      33.956  23.628  26.382  1.00  0.00    +0.000 H 
ATOM    173  H68 UNL A   1      32.240  21.822  26.395  1.00  0.00    +0.000 H 
ATOM    174  H69 UNL A   1      32.034  22.091  24.685  1.00  0.00    +0.000 H 
ATOM    175  H70 UNL A   1      31.759  24.200  26.816  1.00  0.00    +0.000 H 
ATOM    176  H71 UNL A   1      30.423  23.369  25.990  1.00  0.00    +0.000 H 
ATOM    180  H75 UNL A   1      29.599  28.667  25.043  1.00  0.00    +0.000 H 
ATOM     83  C60 UNL A   1      31.407  28.173  26.982  1.00  0.00    +0.000 C 
ATOM     84  C61 UNL A   1      31.446  26.674  26.643  1.00  0.00    +0.000 C 
ATOM     85  C62 UNL A   1      30.798  26.231  25.287  1.00  0.00    +0.000 C 
ATOM     87  C64 UNL A   1      31.057  27.367  24.255  1.00  0.00    +0.000 C 
ATOM     88  C65 UNL A   1      31.874  27.196  23.195  1.00  0.00    +0.000 C 
ATOM     89  C66 UNL A   1      32.776  26.002  23.008  1.00  0.00    +0.000 C 
ATOM     90  C67 UNL A   1      32.884  25.143  24.296  1.00  0.00    +0.000 C 
ATOM     91  C68 UNL A   1      33.978  23.992  24.285  1.00  0.00    +0.000 C 
ATOM     93  C70 UNL A   1      35.378  24.656  24.506  1.00  0.00    +0.000 C 
ATOM     94  C71 UNL A   1      36.522  23.661  24.692  1.00  0.00    +0.000 C 
ATOM     95  C72 UNL A   1      36.262  22.629  25.791  1.00  0.00    +0.000 C 
ATOM     97  C73 UNL A   1      34.877  21.916  25.710  1.00  0.00    +0.000 C 
ATOM    100  C76 UNL A   1      33.778  23.029  25.513  1.00  0.00    +0.000 C 
ATOM    101  C77 UNL A   1      32.327  22.544  25.609  1.00  0.00    +0.000 C 
ATOM    102  C78 UNL A   1      31.424  23.742  25.909  1.00  0.00    +0.000 C 
ATOM    103  C79 UNL A   1      31.425  24.813  24.786  1.00  0.00    +0.000 C 
ATOM    105  C81 UNL A   1      30.608  28.772  24.703  1.00  0.00    +0.000 C 
ATOM    109  H4  UNL A   1      31.210  30.106  23.125  1.00  0.00    +0.000 H 
ATOM    110  H5  UNL A   1      28.905  30.862  24.809  1.00  0.00    +0.000 H 
ATOM    114  H9  UNL A   1      30.219  32.325  26.156  1.00  0.00    +0.000 H 
ATOM    115  H10 UNL A   1      31.618  32.087  25.047  1.00  0.00    +0.000 H 
ATOM    116  H11 UNL A   1      30.644  30.411  27.224  1.00  0.00    +0.000 H 
ATOM    117  H12 UNL A   1      32.302  30.938  26.721  1.00  0.00    +0.000 H 
ENDROOT
BRANCH    2    1
ATOM      1  C1  UNL A   1      29.257  29.427  22.647  1.00  0.00    +0.000 C 
ATOM    106  H1  UNL A   1      29.429  29.913  21.709  1.00  0.00    +0.000 H 
ATOM    107  H2  UNL A   1      28.280  29.680  23.006  1.00  0.00    +0.000 H 
ATOM    108  H3  UNL A   1      29.325  28.367  22.518  1.00  0.00    +0.000 H 
ENDBRANCH    2    1
BRANCH    3    4
ATOM    113  H8  UNL A   1      29.432  33.265  24.087  1.00  0.00    +0.000 H 
ATOM      4  C4  UNL A   1      29.636  32.400  23.490  1.00  0.00    +0.000 C 
ATOM    111  H6  UNL A   1      28.811  32.217  22.834  1.00  0.00    +0.000 H 
ATOM    112  H7  UNL A   1      30.521  32.567  22.913  1.00  0.00    +0.000 H 
ENDBRANCH    3    4
BRANCH    7    8
ATOM      9  O1  UNL A   1      33.471  29.469  24.194  1.00  0.00    +0.000 O 
ATOM      8  C8  UNL A   1      33.133  29.088  25.323  1.00  0.00    +0.000 C 
BRANCH    8   10
ATOM     10  N1  UNL A   1      34.176  28.642  26.098  1.00  0.00    +0.000 N 
ATOM    118  H13 UNL A   1      34.686  27.878  25.745  1.00  0.00    +0.000 H 
BRANCH   10   11
ATOM     11  C9  UNL A   1      34.612  29.167  27.378  1.00  0.00    +0.000 C 
ATOM    119  H14 UNL A   1      35.487  28.629  27.679  1.00  0.00    +0.000 H 
ATOM    120  H15 UNL A   1      33.791  29.042  28.053  1.00  0.00    +0.000 H 
BRANCH   11   12
ATOM    121  H16 UNL A   1      34.783  31.022  26.381  1.00  0.00    +0.000 H 
ATOM    122  H17 UNL A   1      35.957  30.707  27.729  1.00  0.00    +0.000 H 
ATOM     12  C10 UNL A   1      34.948  30.662  27.376  1.00  0.00    +0.000 C 
BRANCH   12   13
ATOM    123  H18 UNL A   1      34.589  31.449  29.303  1.00  0.00    +0.000 H 
ATOM    124  H19 UNL A   1      33.153  31.291  28.191  1.00  0.00    +0.000 H 
ATOM     13  C11 UNL A   1      34.172  31.586  28.327  1.00  0.00    +0.000 C 
BRANCH   13   14
ATOM    126  H21 UNL A   1      35.121  33.303  27.656  1.00  0.00    +0.000 H 
ATOM    125  H20 UNL A   1      33.323  33.288  27.408  1.00  0.00    +0.000 H 
ATOM     14  C12 UNL A   1      34.151  33.093  28.058  1.00  0.00    +0.000 C 
BRANCH   14   15
ATOM    127  H22 UNL A   1      34.936  34.598  29.307  1.00  0.00    +0.000 H 
ATOM     15  C13 UNL A   1      34.024  34.041  29.248  1.00  0.00    +0.000 C 
ATOM    128  H23 UNL A   1      33.815  33.396  30.077  1.00  0.00    +0.000 H 
BRANCH   15   16
ATOM    129  H24 UNL A   1      31.964  34.507  29.132  1.00  0.00    +0.000 H 
ATOM    130  H25 UNL A   1      33.074  35.729  28.454  1.00  0.00    +0.000 H 
ATOM     16  C14 UNL A   1      32.881  35.044  29.253  1.00  0.00    +0.000 C 
BRANCH   16   17
ATOM     17  N2  UNL A   1      32.783  35.838  30.459  1.00  0.00    +0.000 N 
ATOM    131  H26 UNL A   1      32.599  36.795  30.318  1.00  0.00    +0.000 H 
BRANCH   17   18
ATOM     18  C15 UNL A   1      32.910  35.451  31.776  1.00  0.00    +0.000 C 
ATOM     19  O2  UNL A   1      31.959  35.565  32.536  1.00  0.00    +0.000 O 
BRANCH   18   20
ATOM    132  H27 UNL A   1      33.214  33.061  32.877  1.00  0.00    +0.000 H 
ATOM    133  H28 UNL A   1      35.236  31.984  33.676  1.00  0.00    +0.000 H 
ATOM    144  H39 UNL A   1      37.477  35.355  32.519  1.00  0.00    +0.000 H 
ATOM     81  C58 UNL A   1      36.569  34.873  32.621  1.00  0.00    +0.000 C 
ATOM     82  C59 UNL A   1      35.393  35.525  32.247  1.00  0.00    +0.000 C 
ATOM    145  H40 UNL A   1      35.424  36.513  31.948  1.00  0.00    +0.000 H 
ATOM     20  C16 UNL A   1      34.173  34.845  32.275  1.00  0.00    +0.000 C 
ATOM     21  C17 UNL A   1      34.119  33.553  32.810  1.00  0.00    +0.000 C 
ATOM     22  C18 UNL A   1      35.288  32.925  33.255  1.00  0.00    +0.000 C 
ATOM     23  C19 UNL A   1      36.530  33.568  33.135  1.00  0.00    +0.000 C 
BRANCH   23   24
ATOM    134  H29 UNL A   1      42.981  27.773  31.241  1.00  0.00    +0.000 H 
ATOM    135  H30 UNL A   1      44.513  27.807  33.351  1.00  0.00    +0.000 H 
ATOM    136  H31 UNL A   1      41.338  30.385  34.005  1.00  0.00    +0.000 H 
ATOM    137  H32 UNL A   1      38.424  34.734  37.652  1.00  0.00    +0.000 H 
ATOM    138  H33 UNL A   1      36.906  34.659  35.617  1.00  0.00    +0.000 H 
ATOM    139  H34 UNL A   1      40.042  32.009  34.963  1.00  0.00    +0.000 H 
ATOM    140  H35 UNL A   1      42.865  32.151  39.127  1.00  0.00    +0.000 H 
ATOM    141  H36 UNL A   1      44.464  30.540  37.946  1.00  0.00    +0.000 H 
ATOM    142  H37 UNL A   1      38.311  30.110  30.018  1.00  0.00    +0.000 H 
ATOM    143  H38 UNL A   1      36.972  32.083  30.950  1.00  0.00    +0.000 H 
ATOM     24  C20 UNL A   1      37.787  32.895  33.558  1.00  0.00    +0.000 C 
ATOM     25  C21 UNL A   1      38.434  31.867  32.670  1.00  0.00    +0.000 C 
ATOM     26  N3  UNL A   1      39.497  31.133  32.885  1.00  0.00    +0.000 N 
ATOM     27  C22 UNL A   1      39.632  30.320  31.766  1.00  0.00    +0.000 C 
ATOM     28  C23 UNL A   1      40.611  29.429  31.478  1.00  0.00    +0.000 C 
ATOM     40  C30 UNL A   1      41.741  29.163  32.329  1.00  0.00    +0.000 C 
ATOM     41  C31 UNL A   1      42.819  28.325  32.097  1.00  0.00    +0.000 C 
ATOM     42  C32 UNL A   1      43.648  28.356  33.222  1.00  0.00    +0.000 C 
ATOM     43  C33 UNL A   1      43.114  29.249  34.137  1.00  0.00    +0.000 C 
ATOM     44  N4  UNL A   1      41.941  29.733  33.578  1.00  0.00    +0.000 N 
ATOM     45  C34 UNL A   1      43.632  29.633  35.424  1.00  0.00    +0.000 C 
ATOM     57  C41 UNL A   1      43.047  30.524  36.262  1.00  0.00    +0.000 C 
ATOM     58  N5  UNL A   1      41.875  31.247  36.087  1.00  0.00    +0.000 N 
ATOM     59  C42 UNL A   1      41.724  31.960  37.177  1.00  0.00    +0.000 C 
ATOM     60  C43 UNL A   1      40.643  32.949  37.524  1.00  0.00    +0.000 C 
ATOM     72  C50 UNL A   1      39.667  33.200  36.630  1.00  0.00    +0.000 C 
ATOM     73  C51 UNL A   1      38.566  34.139  36.820  1.00  0.00    +0.000 C 
ATOM     74  C52 UNL A   1      37.770  34.108  35.740  1.00  0.00    +0.000 C 
ATOM     75  C53 UNL A   1      38.323  33.168  34.764  1.00  0.00    +0.000 C 
ATOM     76  N6  UNL A   1      39.448  32.676  35.379  1.00  0.00    +0.000 N 
ATOM     77  C54 UNL A   1      42.774  31.746  38.182  1.00  0.00    +0.000 C 
ATOM     78  C55 UNL A   1      43.576  30.894  37.558  1.00  0.00    +0.000 C 
ATOM     79  C56 UNL A   1      38.513  30.613  30.897  1.00  0.00    +0.000 C 
ATOM     80  C57 UNL A   1      37.784  31.610  31.375  1.00  0.00    +0.000 C 
BRANCH   28   29
ATOM     33  F2  UNL A   1      38.983  25.663  28.796  1.00  0.00    +0.000 F 
ATOM     34  C27 UNL A   1      40.289  27.316  27.732  1.00  0.00    +0.000 C 
ATOM     35  F3  UNL A   1      40.197  26.660  26.567  1.00  0.00    +0.000 F 
ATOM     36  C28 UNL A   1      41.018  28.494  27.810  1.00  0.00    +0.000 C 
ATOM     37  F4  UNL A   1      41.613  28.986  26.715  1.00  0.00    +0.000 F 
ATOM     38  C29 UNL A   1      41.136  29.163  29.026  1.00  0.00    +0.000 C 
ATOM     39  F5  UNL A   1      41.862  30.291  29.072  1.00  0.00    +0.000 F 
ATOM     29  C24 UNL A   1      40.507  28.678  30.182  1.00  0.00    +0.000 C 
ATOM     30  C25 UNL A   1      39.755  27.499  30.073  1.00  0.00    +0.000 C 
ATOM     31  F1  UNL A   1      39.142  26.987  31.151  1.00  0.00    +0.000 F 
ATOM     32  C26 UNL A   1      39.664  26.815  28.863  1.00  0.00    +0.000 C 
ENDBRANCH   28   29
BRANCH   45   46
ATOM     46  C35 UNL A   1      44.928  29.021  35.866  1.00  0.00    +0.000 C 
ATOM     47  C36 UNL A   1      44.965  27.819  36.588  1.00  0.00    +0.000 C 
ATOM     48  F6  UNL A   1      43.825  27.213  36.950  1.00  0.00    +0.000 F 
ATOM     49  C37 UNL A   1      46.179  27.254  36.974  1.00  0.00    +0.000 C 
ATOM     50  F7  UNL A   1      46.190  26.129  37.702  1.00  0.00    +0.000 F 
ATOM     51  C38 UNL A   1      47.374  27.861  36.619  1.00  0.00    +0.000 C 
ATOM     52  F8  UNL A   1      48.540  27.311  36.985  1.00  0.00    +0.000 F 
ATOM     53  C39 UNL A   1      47.360  29.041  35.890  1.00  0.00    +0.000 C 
ATOM     54  F9  UNL A   1      48.515  29.621  35.535  1.00  0.00    +0.000 F 
ATOM     55  C40 UNL A   1      46.149  29.623  35.527  1.00  0.00    +0.000 C 
ATOM     56  F10 UNL A   1      46.168  30.770  34.832  1.00  0.00    +0.000 F 
ENDBRANCH   45   46
BRANCH   60   61
ATOM     65  F12 UNL A   1      42.288  36.545  40.379  1.00  0.00    +0.000 F 
ATOM     66  C47 UNL A   1      40.721  35.031  41.286  1.00  0.00    +0.000 C 
ATOM     67  F13 UNL A   1      40.756  35.673  42.462  1.00  0.00    +0.000 F 
ATOM     68  C48 UNL A   1      39.918  33.910  41.130  1.00  0.00    +0.000 C 
ATOM     69  F14 UNL A   1      39.162  33.481  42.149  1.00  0.00    +0.000 F 
ATOM     70  C49 UNL A   1      39.899  33.228  39.915  1.00  0.00    +0.000 C 
ATOM     71  F15 UNL A   1      39.125  32.139  39.797  1.00  0.00    +0.000 F 
ATOM     61  C44 UNL A   1      40.662  33.668  38.824  1.00  0.00    +0.000 C 
ATOM     62  C45 UNL A   1      41.452  34.814  39.001  1.00  0.00    +0.000 C 
ATOM     63  F11 UNL A   1      42.216  35.261  37.994  1.00  0.00    +0.000 F 
ATOM     64  C46 UNL A   1      41.492  35.479  40.225  1.00  0.00    +0.000 C 
ENDBRANCH   60   61
ENDBRANCH   23   24
ENDBRANCH   18   20
ENDBRANCH   17   18
ENDBRANCH   16   17
ENDBRANCH   15   16
ENDBRANCH   14   15
ENDBRANCH   13   14
ENDBRANCH   12   13
ENDBRANCH   11   12
ENDBRANCH   10   11
ENDBRANCH    8   10
ENDBRANCH    7    8
BRANCH   85   86
ATOM    151  H46 UNL A   1      28.764  26.948  25.168  1.00  0.00    +0.000 H 
ATOM     86  C63 UNL A   1      29.270  26.070  25.513  1.00  0.00    +0.000 C 
ATOM    150  H45 UNL A   1      28.916  25.219  24.970  1.00  0.00    +0.000 H 
ATOM    152  H47 UNL A   1      29.077  25.934  26.557  1.00  0.00    +0.000 H 
ENDBRANCH   85   86
BRANCH   91   92
ATOM     92  C69 UNL A   1      33.984  23.285  22.915  1.00  0.00    +0.000 C 
ATOM    157  H52 UNL A   1      33.454  22.359  22.990  1.00  0.00    +0.000 H 
ATOM    158  H53 UNL A   1      34.994  23.097  22.617  1.00  0.00    +0.000 H 
ATOM    159  H54 UNL A   1      33.507  23.911  22.189  1.00  0.00    +0.000 H 
ENDBRANCH   91   92
BRANCH   95   96
ATOM    165  H60 UNL A   1      38.070  22.024  25.268  1.00  0.00    +0.000 H 
ATOM     96  O3  UNL A   1      37.334  21.685  25.802  1.00  0.00    +0.000 O 
ENDBRANCH   95   96
BRANCH   97   98
ATOM     98  C74 UNL A   1      34.856  20.800  24.644  1.00  0.00    +0.000 C 
ATOM    166  H61 UNL A   1      34.208  21.086  23.842  1.00  0.00    +0.000 H 
ATOM    167  H62 UNL A   1      34.500  19.893  25.084  1.00  0.00    +0.000 H 
ATOM    168  H63 UNL A   1      35.846  20.650  24.266  1.00  0.00    +0.000 H 
ENDBRANCH   97   98
BRANCH   97   99
ATOM    169  H64 UNL A   1      34.162  20.257  26.898  1.00  0.00    +0.000 H 
ATOM    170  H65 UNL A   1      34.067  21.799  27.712  1.00  0.00    +0.000 H 
ATOM     99  C75 UNL A   1      34.662  21.186  27.068  1.00  0.00    +0.000 C 
ATOM    171  H66 UNL A   1      35.611  21.001  27.528  1.00  0.00    +0.000 H 
ENDBRANCH   97   99
BRANCH  103  104
ATOM    177  H72 UNL A   1      30.563  24.877  22.798  1.00  0.00    +0.000 H 
ATOM    178  H73 UNL A   1      29.559  24.066  23.976  1.00  0.00    +0.000 H 
ATOM    179  H74 UNL A   1      30.974  23.267  23.335  1.00  0.00    +0.000 H 
ATOM    104  C80 UNL A   1      30.562  24.208  23.633  1.00  0.00    +0.000 C 
ENDBRANCH  103  104
TORSDOF 23
ENDMDL
MODEL 8
REMARK VINA RESULT:     -10.7     26.637     34.076
ROOT
ATOM      2  C2  UNL A   1      27.240  18.946   4.464  1.00  0.00    +0.000 C 
ATOM      3  C3  UNL A   1      28.425  18.426   3.585  1.00  0.00    +0.000 C 
ATOM      5  C5  UNL A   1      28.880  16.993   3.905  1.00  0.00    +0.000 C 
ATOM      6  C6  UNL A   1      28.950  16.620   5.370  1.00  0.00    +0.000 C 
ATOM      7  C7  UNL A   1      27.931  17.266   6.326  1.00  0.00    +0.000 C 
ATOM    146  H41 UNL A   1      29.643  17.834   7.511  1.00  0.00    +0.000 H 
ATOM    147  H42 UNL A   1      28.765  16.349   8.049  1.00  0.00    +0.000 H 
ATOM    148  H43 UNL A   1      28.785  18.402   9.546  1.00  0.00    +0.000 H 
ATOM    149  H44 UNL A   1      27.281  17.457   9.224  1.00  0.00    +0.000 H 
ATOM    153  H48 UNL A   1      24.888  19.090   5.943  1.00  0.00    +0.000 H 
ATOM    154  H49 UNL A   1      23.592  18.186   7.835  1.00  0.00    +0.000 H 
ATOM    155  H50 UNL A   1      23.764  19.920   8.128  1.00  0.00    +0.000 H 
ATOM    156  H51 UNL A   1      25.463  17.747   9.367  1.00  0.00    +0.000 H 
ATOM    160  H55 UNL A   1      24.429  16.249  10.312  1.00  0.00    +0.000 H 
ATOM    161  H56 UNL A   1      22.899  16.840   9.613  1.00  0.00    +0.000 H 
ATOM    162  H57 UNL A   1      22.600  15.265  11.478  1.00  0.00    +0.000 H 
ATOM    163  H58 UNL A   1      21.866  16.868  11.706  1.00  0.00    +0.000 H 
ATOM    164  H59 UNL A   1      24.377  15.861  12.934  1.00  0.00    +0.000 H 
ATOM    172  H67 UNL A   1      25.559  17.589  11.893  1.00  0.00    +0.000 H 
ATOM    173  H68 UNL A   1      26.087  19.711  13.085  1.00  0.00    +0.000 H 
ATOM    174  H69 UNL A   1      24.961  20.515  12.024  1.00  0.00    +0.000 H 
ATOM    175  H70 UNL A   1      27.320  18.874  11.125  1.00  0.00    +0.000 H 
ATOM    176  H71 UNL A   1      27.239  20.648  11.174  1.00  0.00    +0.000 H 
ATOM    180  H75 UNL A   1      28.391  19.424   5.996  1.00  0.00    +0.000 H 
ATOM     83  C60 UNL A   1      28.704  17.359   7.701  1.00  0.00    +0.000 C 
ATOM     84  C61 UNL A   1      28.023  18.126   8.846  1.00  0.00    +0.000 C 
ATOM     85  C62 UNL A   1      27.238  19.428   8.466  1.00  0.00    +0.000 C 
ATOM     87  C64 UNL A   1      26.594  19.190   7.069  1.00  0.00    +0.000 C 
ATOM     88  C65 UNL A   1      25.258  19.092   6.906  1.00  0.00    +0.000 C 
ATOM     89  C66 UNL A   1      24.275  18.984   8.044  1.00  0.00    +0.000 C 
ATOM     90  C67 UNL A   1      24.977  18.700   9.399  1.00  0.00    +0.000 C 
ATOM     91  C68 UNL A   1      24.028  18.344  10.621  1.00  0.00    +0.000 C 
ATOM     93  C70 UNL A   1      23.561  16.859  10.453  1.00  0.00    +0.000 C 
ATOM     94  C71 UNL A   1      22.776  16.309  11.642  1.00  0.00    +0.000 C 
ATOM     95  C72 UNL A   1      23.500  16.472  12.980  1.00  0.00    +0.000 C 
ATOM     97  C73 UNL A   1      24.054  17.904  13.259  1.00  0.00    +0.000 C 
ATOM    100  C76 UNL A   1      24.834  18.373  11.972  1.00  0.00    +0.000 C 
ATOM    101  C77 UNL A   1      25.622  19.679  12.121  1.00  0.00    +0.000 C 
ATOM    102  C78 UNL A   1      26.695  19.737  11.032  1.00  0.00    +0.000 C 
ATOM    103  C79 UNL A   1      26.113  19.771   9.594  1.00  0.00    +0.000 C 
ATOM    105  C81 UNL A   1      27.572  18.737   5.967  1.00  0.00    +0.000 C 
ATOM    109  H4  UNL A   1      26.361  18.386   4.223  1.00  0.00    +0.000 H 
ATOM    110  H5  UNL A   1      29.195  19.123   3.847  1.00  0.00    +0.000 H 
ATOM    114  H9  UNL A   1      29.857  16.861   3.488  1.00  0.00    +0.000 H 
ATOM    115  H10 UNL A   1      28.128  16.357   3.485  1.00  0.00    +0.000 H 
ATOM    116  H11 UNL A   1      29.926  16.882   5.719  1.00  0.00    +0.000 H 
ATOM    117  H12 UNL A   1      28.716  15.576   5.392  1.00  0.00    +0.000 H 
ENDROOT
BRANCH    2    1
ATOM      1  C1  UNL A   1      26.946  20.426   4.167  1.00  0.00    +0.000 C 
ATOM    106  H1  UNL A   1      27.426  20.709   3.254  1.00  0.00    +0.000 H 
ATOM    107  H2  UNL A   1      27.318  21.030   4.968  1.00  0.00    +0.000 H 
ATOM    108  H3  UNL A   1      25.889  20.568   4.074  1.00  0.00    +0.000 H 
ENDBRANCH    2    1
BRANCH    3    4
ATOM    113  H8  UNL A   1      27.830  17.506   1.743  1.00  0.00    +0.000 H 
ATOM      4  C4  UNL A   1      28.163  18.467   2.074  1.00  0.00    +0.000 C 
ATOM    111  H6  UNL A   1      29.066  18.727   1.561  1.00  0.00    +0.000 H 
ATOM    112  H7  UNL A   1      27.410  19.198   1.862  1.00  0.00    +0.000 H 
ENDBRANCH    3    4
BRANCH    7    8
ATOM      9  O1  UNL A   1      25.891  16.119   5.585  1.00  0.00    +0.000 O 
ATOM      8  C8  UNL A   1      26.667  16.343   6.524  1.00  0.00    +0.000 C 
BRANCH    8   10
ATOM     10  N1  UNL A   1      26.349  15.677   7.683  1.00  0.00    +0.000 N 
ATOM    118  H13 UNL A   1      27.106  15.333   8.209  1.00  0.00    +0.000 H 
BRANCH   10   11
ATOM     11  C9  UNL A   1      25.026  15.421   8.221  1.00  0.00    +0.000 C 
ATOM    119  H14 UNL A   1      24.310  15.897   7.583  1.00  0.00    +0.000 H 
ATOM    120  H15 UNL A   1      25.024  15.810   9.218  1.00  0.00    +0.000 H 
BRANCH   11   12
ATOM    121  H16 UNL A   1      25.425  13.462   8.904  1.00  0.00    +0.000 H 
ATOM    122  H17 UNL A   1      24.558  13.615   7.316  1.00  0.00    +0.000 H 
ATOM     12  C10 UNL A   1      24.656  13.939   8.331  1.00  0.00    +0.000 C 
BRANCH   12   13
ATOM    123  H18 UNL A   1      22.783  14.484   9.143  1.00  0.00    +0.000 H 
ATOM    124  H19 UNL A   1      23.596  13.012   9.848  1.00  0.00    +0.000 H 
ATOM     13  C11 UNL A   1      23.313  13.569   8.979  1.00  0.00    +0.000 C 
BRANCH   13   14
ATOM    126  H21 UNL A   1      21.639  12.345   8.982  1.00  0.00    +0.000 H 
ATOM    125  H20 UNL A   1      21.976  13.160   7.396  1.00  0.00    +0.000 H 
ATOM     14  C12 UNL A   1      22.358  12.626   8.241  1.00  0.00    +0.000 C 
BRANCH   14   15
ATOM    127  H22 UNL A   1      22.654  10.550   8.449  1.00  0.00    +0.000 H 
ATOM     15  C13 UNL A   1      22.906  11.297   7.726  1.00  0.00    +0.000 C 
ATOM    128  H23 UNL A   1      23.951  11.480   7.585  1.00  0.00    +0.000 H 
BRANCH   15   16
ATOM    129  H24 UNL A   1      21.487  11.258   6.157  1.00  0.00    +0.000 H 
ATOM    130  H25 UNL A   1      22.361   9.729   6.450  1.00  0.00    +0.000 H 
ATOM     16  C14 UNL A   1      22.426  10.795   6.373  1.00  0.00    +0.000 C 
BRANCH   16   17
ATOM     17  N2  UNL A   1      23.328  11.071   5.275  1.00  0.00    +0.000 N 
ATOM    131  H26 UNL A   1      24.030  10.397   5.127  1.00  0.00    +0.000 H 
BRANCH   17   18
ATOM     18  C15 UNL A   1      23.346  12.141   4.405  1.00  0.00    +0.000 C 
ATOM     19  O2  UNL A   1      24.101  12.127   3.444  1.00  0.00    +0.000 O 
BRANCH   18   20
ATOM    132  H27 UNL A   1      20.920  12.424   3.380  1.00  0.00    +0.000 H 
ATOM    133  H28 UNL A   1      19.336  14.238   3.663  1.00  0.00    +0.000 H 
ATOM    144  H39 UNL A   1      22.063  16.213   6.190  1.00  0.00    +0.000 H 
ATOM     81  C58 UNL A   1      21.825  15.422   5.570  1.00  0.00    +0.000 C 
ATOM     82  C59 UNL A   1      22.768  14.421   5.333  1.00  0.00    +0.000 C 
ATOM    145  H40 UNL A   1      23.725  14.516   5.708  1.00  0.00    +0.000 H 
ATOM     20  C16 UNL A   1      22.421  13.291   4.589  1.00  0.00    +0.000 C 
ATOM     21  C17 UNL A   1      21.167  13.234   3.969  1.00  0.00    +0.000 C 
ATOM     22  C18 UNL A   1      20.247  14.274   4.147  1.00  0.00    +0.000 C 
ATOM     23  C19 UNL A   1      20.555  15.363   4.976  1.00  0.00    +0.000 C 
BRANCH   23   24
ATOM    134  H29 UNL A   1      17.588  23.448   2.828  1.00  0.00    +0.000 H 
ATOM    135  H30 UNL A   1      15.588  23.850   4.453  1.00  0.00    +0.000 H 
ATOM    136  H31 UNL A   1      17.234  20.145   5.303  1.00  0.00    +0.000 H 
ATOM    137  H32 UNL A   1      17.091  14.662   8.562  1.00  0.00    +0.000 H 
ATOM    138  H33 UNL A   1      19.070  14.296   7.013  1.00  0.00    +0.000 H 
ATOM    139  H34 UNL A   1      17.486  18.049   6.187  1.00  0.00    +0.000 H 
ATOM    140  H35 UNL A   1      13.688  18.691   9.426  1.00  0.00    +0.000 H 
ATOM    141  H36 UNL A   1      13.232  20.921   8.256  1.00  0.00    +0.000 H 
ATOM    142  H37 UNL A   1      21.206  19.522   2.309  1.00  0.00    +0.000 H 
ATOM    143  H38 UNL A   1      21.375  17.095   3.106  1.00  0.00    +0.000 H 
ATOM     24  C20 UNL A   1      19.569  16.451   5.214  1.00  0.00    +0.000 C 
ATOM     25  C21 UNL A   1      19.647  17.732   4.429  1.00  0.00    +0.000 C 
ATOM     26  N3  UNL A   1      18.917  18.814   4.530  1.00  0.00    +0.000 N 
ATOM     27  C22 UNL A   1      19.437  19.711   3.605  1.00  0.00    +0.000 C 
ATOM     28  C23 UNL A   1      18.991  20.950   3.281  1.00  0.00    +0.000 C 
ATOM     40  C30 UNL A   1      17.837  21.576   3.870  1.00  0.00    +0.000 C 
ATOM     41  C31 UNL A   1      17.268  22.801   3.564  1.00  0.00    +0.000 C 
ATOM     42  C32 UNL A   1      16.186  23.008   4.425  1.00  0.00    +0.000 C 
ATOM     43  C33 UNL A   1      16.050  21.893   5.236  1.00  0.00    +0.000 C 
ATOM     44  N4  UNL A   1      17.073  21.024   4.888  1.00  0.00    +0.000 N 
ATOM     45  C34 UNL A   1      15.063  21.637   6.253  1.00  0.00    +0.000 C 
ATOM     57  C41 UNL A   1      14.995  20.510   7.003  1.00  0.00    +0.000 C 
ATOM     58  N5  UNL A   1      15.813  19.389   6.969  1.00  0.00    +0.000 N 
ATOM     59  C42 UNL A   1      15.353  18.579   7.892  1.00  0.00    +0.000 C 
ATOM     60  C43 UNL A   1      15.834  17.205   8.276  1.00  0.00    +0.000 C 
ATOM     72  C50 UNL A   1      16.872  16.659   7.612  1.00  0.00    +0.000 C 
ATOM     73  C51 UNL A   1      17.437  15.337   7.862  1.00  0.00    +0.000 C 
ATOM     74  C52 UNL A   1      18.476  15.139   7.035  1.00  0.00    +0.000 C 
ATOM     75  C53 UNL A   1      18.632  16.310   6.172  1.00  0.00    +0.000 C 
ATOM     76  N6  UNL A   1      17.637  17.162   6.586  1.00  0.00    +0.000 N 
ATOM     77  C54 UNL A   1      14.204  19.110   8.636  1.00  0.00    +0.000 C 
ATOM     78  C55 UNL A   1      14.001  20.271   8.028  1.00  0.00    +0.000 C 
ATOM     79  C56 UNL A   1      20.577  19.067   2.989  1.00  0.00    +0.000 C 
ATOM     80  C57 UNL A   1      20.706  17.818   3.411  1.00  0.00    +0.000 C 
BRANCH   28   29
ATOM     33  F2  UNL A   1      22.469  24.130   1.933  1.00  0.00    +0.000 F 
ATOM     34  C27 UNL A   1      21.192  23.083   0.247  1.00  0.00    +0.000 C 
ATOM     35  F3  UNL A   1      21.869  23.749  -0.699  1.00  0.00    +0.000 F 
ATOM     36  C28 UNL A   1      20.172  22.214  -0.111  1.00  0.00    +0.000 C 
ATOM     37  F4  UNL A   1      19.877  22.024  -1.405  1.00  0.00    +0.000 F 
ATOM     38  C29 UNL A   1      19.450  21.541   0.873  1.00  0.00    +0.000 C 
ATOM     39  F5  UNL A   1      18.459  20.720   0.495  1.00  0.00    +0.000 F 
ATOM     29  C24 UNL A   1      19.752  21.708   2.232  1.00  0.00    +0.000 C 
ATOM     30  C25 UNL A   1      20.804  22.574   2.568  1.00  0.00    +0.000 C 
ATOM     31  F1  UNL A   1      21.126  22.778   3.854  1.00  0.00    +0.000 F 
ATOM     32  C26 UNL A   1      21.503  23.269   1.584  1.00  0.00    +0.000 C 
ENDBRANCH   28   29
BRANCH   45   46
ATOM     46  C35 UNL A   1      14.014  22.684   6.486  1.00  0.00    +0.000 C 
ATOM     47  C36 UNL A   1      14.052  23.525   7.608  1.00  0.00    +0.000 C 
ATOM     48  F6  UNL A   1      15.010  23.372   8.535  1.00  0.00    +0.000 F 
ATOM     49  C37 UNL A   1      13.081  24.505   7.800  1.00  0.00    +0.000 C 
ATOM     50  F7  UNL A   1      13.111  25.268   8.902  1.00  0.00    +0.000 F 
ATOM     51  C38 UNL A   1      12.076  24.683   6.861  1.00  0.00    +0.000 C 
ATOM     52  F8  UNL A   1      11.147  25.632   7.045  1.00  0.00    +0.000 F 
ATOM     53  C39 UNL A   1      12.030  23.873   5.736  1.00  0.00    +0.000 C 
ATOM     54  F9  UNL A   1      11.067  24.053   4.822  1.00  0.00    +0.000 F 
ATOM     55  C40 UNL A   1      12.982  22.875   5.556  1.00  0.00    +0.000 C 
ATOM     56  F10 UNL A   1      12.905  22.101   4.463  1.00  0.00    +0.000 F 
ENDBRANCH   45   46
BRANCH   60   61
ATOM     65  F12 UNL A   1      15.102  16.248  13.002  1.00  0.00    +0.000 F 
ATOM     66  C47 UNL A   1      13.900  14.984  11.410  1.00  0.00    +0.000 C 
ATOM     67  F13 UNL A   1      13.309  14.285  12.388  1.00  0.00    +0.000 F 
ATOM     68  C48 UNL A   1      13.617  14.700  10.083  1.00  0.00    +0.000 C 
ATOM     69  F14 UNL A   1      12.735  13.740   9.777  1.00  0.00    +0.000 F 
ATOM     70  C49 UNL A   1      14.249  15.411   9.065  1.00  0.00    +0.000 C 
ATOM     71  F15 UNL A   1      13.967  15.106   7.789  1.00  0.00    +0.000 F 
ATOM     61  C44 UNL A   1      15.159  16.438   9.355  1.00  0.00    +0.000 C 
ATOM     62  C45 UNL A   1      15.417  16.719  10.705  1.00  0.00    +0.000 C 
ATOM     63  F11 UNL A   1      16.295  17.676  11.033  1.00  0.00    +0.000 F 
ATOM     64  C46 UNL A   1      14.804  15.989  11.722  1.00  0.00    +0.000 C 
ENDBRANCH   60   61
ENDBRANCH   23   24
ENDBRANCH   18   20
ENDBRANCH   17   18
ENDBRANCH   16   17
ENDBRANCH   15   16
ENDBRANCH   14   15
ENDBRANCH   13   14
ENDBRANCH   12   13
ENDBRANCH   11   12
ENDBRANCH   10   11
ENDBRANCH    8   10
ENDBRANCH    7    8
BRANCH   85   86
ATOM    151  H46 UNL A   1      28.689  20.621   7.400  1.00  0.00    +0.000 H 
ATOM     86  C63 UNL A   1      28.256  20.596   8.379  1.00  0.00    +0.000 C 
ATOM    150  H45 UNL A   1      27.754  21.523   8.568  1.00  0.00    +0.000 H 
ATOM    152  H47 UNL A   1      29.028  20.453   9.106  1.00  0.00    +0.000 H 
ENDBRANCH   85   86
BRANCH   91   92
ATOM     92  C69 UNL A   1      22.782  19.251  10.603  1.00  0.00    +0.000 C 
ATOM    157  H52 UNL A   1      22.231  19.082   9.703  1.00  0.00    +0.000 H 
ATOM    158  H53 UNL A   1      23.088  20.275  10.649  1.00  0.00    +0.000 H 
ATOM    159  H54 UNL A   1      22.164  19.024  11.448  1.00  0.00    +0.000 H 
ENDBRANCH   91   92
BRANCH   95   96
ATOM    165  H60 UNL A   1      22.291  15.152  13.819  1.00  0.00    +0.000 H 
ATOM     96  O3  UNL A   1      22.636  16.034  14.030  1.00  0.00    +0.000 O 
ENDBRANCH   95   96
BRANCH   97   98
ATOM     98  C74 UNL A   1      22.949  18.875  13.727  1.00  0.00    +0.000 C 
ATOM    166  H61 UNL A   1      22.424  19.254  12.875  1.00  0.00    +0.000 H 
ATOM    167  H62 UNL A   1      23.392  19.688  14.263  1.00  0.00    +0.000 H 
ATOM    168  H63 UNL A   1      22.265  18.356  14.365  1.00  0.00    +0.000 H 
ENDBRANCH   97   98
BRANCH   97   99
ATOM    169  H64 UNL A   1      24.654  17.066  15.160  1.00  0.00    +0.000 H 
ATOM    170  H65 UNL A   1      25.116  18.737  14.947  1.00  0.00    +0.000 H 
ATOM     99  C75 UNL A   1      25.030  17.787  14.464  1.00  0.00    +0.000 C 
ATOM    171  H66 UNL A   1      25.993  17.475  14.116  1.00  0.00    +0.000 H 
ENDBRANCH   97   99
BRANCH  103  104
ATOM    177  H72 UNL A   1      24.636  21.324   9.919  1.00  0.00    +0.000 H 
ATOM    178  H73 UNL A   1      25.416  21.409   8.358  1.00  0.00    +0.000 H 
ATOM    179  H74 UNL A   1      26.272  21.923   9.792  1.00  0.00    +0.000 H 
ATOM    104  C80 UNL A   1      25.566  21.221   9.399  1.00  0.00    +0.000 C 
ENDBRANCH  103  104
TORSDOF 23
ENDMDL
MODEL 9
REMARK VINA RESULT:     -10.7      4.653      8.558
ROOT
ATOM      2  C2  UNL A   1      30.061  29.793  23.303  1.00  0.00    +0.000 C 
ATOM      3  C3  UNL A   1      29.655  31.112  24.039  1.00  0.00    +0.000 C 
ATOM      5  C5  UNL A   1      30.627  31.554  25.144  1.00  0.00    +0.000 C 
ATOM      6  C6  UNL A   1      31.178  30.461  26.034  1.00  0.00    +0.000 C 
ATOM      7  C7  UNL A   1      31.405  29.072  25.410  1.00  0.00    +0.000 C 
ATOM    146  H41 UNL A   1      30.230  28.317  27.055  1.00  0.00    +0.000 H 
ATOM    147  H42 UNL A   1      32.024  28.201  27.244  1.00  0.00    +0.000 H 
ATOM    148  H43 UNL A   1      30.643  26.074  27.088  1.00  0.00    +0.000 H 
ATOM    149  H44 UNL A   1      32.177  26.298  26.163  1.00  0.00    +0.000 H 
ATOM    153  H48 UNL A   1      31.535  27.767  22.090  1.00  0.00    +0.000 H 
ATOM    154  H49 UNL A   1      33.354  26.122  22.336  1.00  0.00    +0.000 H 
ATOM    155  H50 UNL A   1      31.911  25.211  21.876  1.00  0.00    +0.000 H 
ATOM    156  H51 UNL A   1      32.975  25.524  24.689  1.00  0.00    +0.000 H 
ATOM    160  H55 UNL A   1      34.945  25.017  24.950  1.00  0.00    +0.000 H 
ATOM    161  H56 UNL A   1      35.175  24.932  23.183  1.00  0.00    +0.000 H 
ATOM    162  H57 UNL A   1      36.981  23.876  24.477  1.00  0.00    +0.000 H 
ATOM    163  H58 UNL A   1      36.133  22.810  23.335  1.00  0.00    +0.000 H 
ATOM    164  H59 UNL A   1      35.801  22.893  26.286  1.00  0.00    +0.000 H 
ATOM    172  H67 UNL A   1      33.544  23.433  25.999  1.00  0.00    +0.000 H 
ATOM    173  H68 UNL A   1      31.767  21.690  26.071  1.00  0.00    +0.000 H 
ATOM    174  H69 UNL A   1      31.531  21.949  24.363  1.00  0.00    +0.000 H 
ATOM    175  H70 UNL A   1      31.380  24.087  26.477  1.00  0.00    +0.000 H 
ATOM    176  H71 UNL A   1      29.997  23.296  25.690  1.00  0.00    +0.000 H 
ATOM    180  H75 UNL A   1      29.338  28.610  24.708  1.00  0.00    +0.000 H 
ATOM     83  C60 UNL A   1      31.172  28.071  26.610  1.00  0.00    +0.000 C 
ATOM     84  C61 UNL A   1      31.150  26.569  26.286  1.00  0.00    +0.000 C 
ATOM     85  C62 UNL A   1      30.456  26.136  24.950  1.00  0.00    +0.000 C 
ATOM     87  C64 UNL A   1      30.731  27.252  23.901  1.00  0.00    +0.000 C 
ATOM     88  C65 UNL A   1      31.517  27.042  22.825  1.00  0.00    +0.000 C 
ATOM     89  C66 UNL A   1      32.371  25.815  22.630  1.00  0.00    +0.000 C 
ATOM     90  C67 UNL A   1      32.478  24.965  23.924  1.00  0.00    +0.000 C 
ATOM     91  C68 UNL A   1      33.531  23.776  23.899  1.00  0.00    +0.000 C 
ATOM     93  C70 UNL A   1      34.958  24.392  24.081  1.00  0.00    +0.000 C 
ATOM     94  C71 UNL A   1      36.071  23.359  24.251  1.00  0.00    +0.000 C 
ATOM     95  C72 UNL A   1      35.800  22.347  25.367  1.00  0.00    +0.000 C 
ATOM     97  C73 UNL A   1      34.389  21.683  25.325  1.00  0.00    +0.000 C 
ATOM    100  C76 UNL A   1      33.326  22.832  25.142  1.00  0.00    +0.000 C 
ATOM    101  C77 UNL A   1      31.861  22.400  25.275  1.00  0.00    +0.000 C 
ATOM    102  C78 UNL A   1      31.008  23.632  25.584  1.00  0.00    +0.000 C 
ATOM    103  C79 UNL A   1      31.021  24.691  24.450  1.00  0.00    +0.000 C 
ATOM    105  C81 UNL A   1      30.342  28.676  24.344  1.00  0.00    +0.000 C 
ATOM    109  H4  UNL A   1      30.954  29.973  22.740  1.00  0.00    +0.000 H 
ATOM    110  H5  UNL A   1      28.717  30.826  24.468  1.00  0.00    +0.000 H 
ATOM    114  H9  UNL A   1      30.113  32.255  25.769  1.00  0.00    +0.000 H 
ATOM    115  H10 UNL A   1      31.476  31.957  24.631  1.00  0.00    +0.000 H 
ATOM    116  H11 UNL A   1      30.494  30.337  26.847  1.00  0.00    +0.000 H 
ATOM    117  H12 UNL A   1      32.157  30.800  26.301  1.00  0.00    +0.000 H 
ENDROOT
BRANCH    2    1
ATOM      1  C1  UNL A   1      28.967  29.359  22.313  1.00  0.00    +0.000 C 
ATOM    106  H1  UNL A   1      28.991  28.296  22.199  1.00  0.00    +0.000 H 
ATOM    107  H2  UNL A   1      29.141  29.824  21.364  1.00  0.00    +0.000 H 
ATOM    108  H3  UNL A   1      28.010  29.657  22.685  1.00  0.00    +0.000 H 
ENDBRANCH    2    1
BRANCH    3    4
ATOM    113  H8  UNL A   1      29.849  32.094  22.143  1.00  0.00    +0.000 H 
ATOM      4  C4  UNL A   1      29.471  32.325  23.117  1.00  0.00    +0.000 C 
ATOM    111  H6  UNL A   1      30.006  33.161  23.517  1.00  0.00    +0.000 H 
ATOM    112  H7  UNL A   1      28.431  32.567  23.048  1.00  0.00    +0.000 H 
ENDBRANCH    3    4
BRANCH    7    8
ATOM      9  O1  UNL A   1      33.259  29.426  23.841  1.00  0.00    +0.000 O 
ATOM      8  C8  UNL A   1      32.891  28.908  24.903  1.00  0.00    +0.000 C 
BRANCH    8   10
ATOM     10  N1  UNL A   1      33.891  28.260  25.586  1.00  0.00    +0.000 N 
ATOM    118  H13 UNL A   1      34.030  27.312  25.360  1.00  0.00    +0.000 H 
BRANCH   10   11
ATOM     11  C9  UNL A   1      34.766  28.811  26.604  1.00  0.00    +0.000 C 
ATOM    119  H14 UNL A   1      35.658  29.157  26.124  1.00  0.00    +0.000 H 
ATOM    120  H15 UNL A   1      34.945  28.025  27.307  1.00  0.00    +0.000 H 
BRANCH   11   12
ATOM    121  H16 UNL A   1      33.773  29.571  28.307  1.00  0.00    +0.000 H 
ATOM    122  H17 UNL A   1      33.456  30.414  26.731  1.00  0.00    +0.000 H 
ATOM     12  C10 UNL A   1      34.168  29.977  27.399  1.00  0.00    +0.000 C 
BRANCH   12   13
ATOM    123  H18 UNL A   1      34.714  32.015  27.292  1.00  0.00    +0.000 H 
ATOM    124  H19 UNL A   1      36.062  30.804  27.496  1.00  0.00    +0.000 H 
ATOM     13  C11 UNL A   1      35.090  31.143  27.786  1.00  0.00    +0.000 C 
BRANCH   13   14
ATOM    126  H21 UNL A   1      34.776  30.708  29.789  1.00  0.00    +0.000 H 
ATOM    125  H20 UNL A   1      36.309  31.616  29.445  1.00  0.00    +0.000 H 
ATOM     14  C12 UNL A   1      35.260  31.506  29.265  1.00  0.00    +0.000 C 
BRANCH   14   15
ATOM    127  H22 UNL A   1      33.559  32.735  29.455  1.00  0.00    +0.000 H 
ATOM     15  C13 UNL A   1      34.577  32.768  29.785  1.00  0.00    +0.000 C 
ATOM    128  H23 UNL A   1      35.170  33.569  29.394  1.00  0.00    +0.000 H 
BRANCH   15   16
ATOM    129  H24 UNL A   1      34.256  32.106  31.768  1.00  0.00    +0.000 H 
ATOM    130  H25 UNL A   1      33.878  33.821  31.453  1.00  0.00    +0.000 H 
ATOM     16  C14 UNL A   1      34.557  33.011  31.286  1.00  0.00    +0.000 C 
BRANCH   16   17
ATOM     17  N2  UNL A   1      35.827  33.420  31.846  1.00  0.00    +0.000 N 
ATOM    131  H26 UNL A   1      36.060  34.368  31.711  1.00  0.00    +0.000 H 
BRANCH   17   18
ATOM     18  C15 UNL A   1      36.759  32.677  32.540  1.00  0.00    +0.000 C 
ATOM     19  O2  UNL A   1      36.604  32.476  33.735  1.00  0.00    +0.000 O 
BRANCH   18   20
ATOM    132  H27 UNL A   1      37.493  33.055  30.023  1.00  0.00    +0.000 H 
ATOM    133  H28 UNL A   1      39.392  32.141  28.823  1.00  0.00    +0.000 H 
ATOM    144  H39 UNL A   1      40.591  30.094  32.301  1.00  0.00    +0.000 H 
ATOM     81  C58 UNL A   1      39.921  30.703  31.805  1.00  0.00    +0.000 C 
ATOM     82  C59 UNL A   1      38.778  31.157  32.465  1.00  0.00    +0.000 C 
ATOM    145  H40 UNL A   1      38.564  30.819  33.417  1.00  0.00    +0.000 H 
ATOM     20  C16 UNL A   1      37.924  32.071  31.842  1.00  0.00    +0.000 C 
ATOM     21  C17 UNL A   1      38.146  32.418  30.504  1.00  0.00    +0.000 C 
ATOM     22  C18 UNL A   1      39.251  31.903  29.818  1.00  0.00    +0.000 C 
ATOM     23  C19 UNL A   1      40.168  31.066  30.472  1.00  0.00    +0.000 C 
BRANCH   23   24
ATOM    134  H29 UNL A   1      44.059  24.420  26.059  1.00  0.00    +0.000 H 
ATOM    135  H30 UNL A   1      46.456  25.309  25.544  1.00  0.00    +0.000 H 
ATOM    136  H31 UNL A   1      44.426  28.207  27.697  1.00  0.00    +0.000 H 
ATOM    137  H32 UNL A   1      44.202  34.068  30.210  1.00  0.00    +0.000 H 
ATOM    138  H33 UNL A   1      41.887  33.178  30.755  1.00  0.00    +0.000 H 
ATOM    139  H34 UNL A   1      43.923  30.222  28.658  1.00  0.00    +0.000 H 
ATOM    140  H35 UNL A   1      48.526  32.063  27.790  1.00  0.00    +0.000 H 
ATOM    141  H36 UNL A   1      49.000  29.919  26.477  1.00  0.00    +0.000 H 
ATOM    142  H37 UNL A   1      39.912  26.359  28.854  1.00  0.00    +0.000 H 
ATOM    143  H38 UNL A   1      39.236  28.669  29.728  1.00  0.00    +0.000 H 
ATOM     24  C20 UNL A   1      41.374  30.551  29.770  1.00  0.00    +0.000 C 
ATOM     25  C21 UNL A   1      41.387  29.158  29.203  1.00  0.00    +0.000 C 
ATOM     26  N3  UNL A   1      42.358  28.511  28.608  1.00  0.00    +0.000 N 
ATOM     27  C22 UNL A   1      41.854  27.248  28.323  1.00  0.00    +0.000 C 
ATOM     28  C23 UNL A   1      42.449  26.228  27.656  1.00  0.00    +0.000 C 
ATOM     40  C30 UNL A   1      43.774  26.289  27.097  1.00  0.00    +0.000 C 
ATOM     41  C31 UNL A   1      44.441  25.332  26.351  1.00  0.00    +0.000 C 
ATOM     42  C32 UNL A   1      45.720  25.816  26.062  1.00  0.00    +0.000 C 
ATOM     43  C33 UNL A   1      45.835  27.093  26.586  1.00  0.00    +0.000 C 
ATOM     44  N4  UNL A   1      44.636  27.369  27.224  1.00  0.00    +0.000 N 
ATOM     45  C34 UNL A   1      46.955  27.996  26.513  1.00  0.00    +0.000 C 
ATOM     57  C41 UNL A   1      46.986  29.240  27.052  1.00  0.00    +0.000 C 
ATOM     58  N5  UNL A   1      45.996  29.909  27.760  1.00  0.00    +0.000 N 
ATOM     59  C42 UNL A   1      46.507  31.073  28.081  1.00  0.00    +0.000 C 
ATOM     60  C43 UNL A   1      45.872  32.217  28.826  1.00  0.00    +0.000 C 
ATOM     72  C50 UNL A   1      44.595  32.106  29.240  1.00  0.00    +0.000 C 
ATOM     73  C51 UNL A   1      43.845  33.132  29.958  1.00  0.00    +0.000 C 
ATOM     74  C52 UNL A   1      42.617  32.667  30.236  1.00  0.00    +0.000 C 
ATOM     75  C53 UNL A   1      42.481  31.317  29.687  1.00  0.00    +0.000 C 
ATOM     76  N6  UNL A   1      43.704  31.067  29.115  1.00  0.00    +0.000 N 
ATOM     77  C54 UNL A   1      47.894  31.262  27.634  1.00  0.00    +0.000 C 
ATOM     78  C55 UNL A   1      48.123  30.133  26.978  1.00  0.00    +0.000 C 
ATOM     79  C56 UNL A   1      40.510  27.201  28.855  1.00  0.00    +0.000 C 
ATOM     80  C57 UNL A   1      40.148  28.377  29.345  1.00  0.00    +0.000 C 
BRANCH   28   29
ATOM     33  F2  UNL A   1      41.593  21.518  28.710  1.00  0.00    +0.000 F 
ATOM     34  C27 UNL A   1      40.154  22.608  27.190  1.00  0.00    +0.000 C 
ATOM     35  F3  UNL A   1      39.441  21.482  27.037  1.00  0.00    +0.000 F 
ATOM     36  C28 UNL A   1      39.808  23.749  26.482  1.00  0.00    +0.000 C 
ATOM     37  F4  UNL A   1      38.749  23.734  25.661  1.00  0.00    +0.000 F 
ATOM     38  C29 UNL A   1      40.564  24.912  26.621  1.00  0.00    +0.000 C 
ATOM     39  F5  UNL A   1      40.214  25.995  25.910  1.00  0.00    +0.000 F 
ATOM     29  C24 UNL A   1      41.665  24.959  27.488  1.00  0.00    +0.000 C 
ATOM     30  C25 UNL A   1      41.980  23.799  28.212  1.00  0.00    +0.000 C 
ATOM     31  F1  UNL A   1      43.029  23.787  29.047  1.00  0.00    +0.000 F 
ATOM     32  C26 UNL A   1      41.241  22.629  28.048  1.00  0.00    +0.000 C 
ENDBRANCH   28   29
BRANCH   45   46
ATOM     46  C35 UNL A   1      48.172  27.540  25.765  1.00  0.00    +0.000 C 
ATOM     47  C36 UNL A   1      48.245  27.609  24.366  1.00  0.00    +0.000 C 
ATOM     48  F6  UNL A   1      47.192  28.040  23.656  1.00  0.00    +0.000 F 
ATOM     49  C37 UNL A   1      49.391  27.199  23.688  1.00  0.00    +0.000 C 
ATOM     50  F7  UNL A   1      49.421  27.231  22.349  1.00  0.00    +0.000 F 
ATOM     51  C38 UNL A   1      50.493  26.744  24.396  1.00  0.00    +0.000 C 
ATOM     52  F8  UNL A   1      51.597  26.357  23.741  1.00  0.00    +0.000 F 
ATOM     53  C39 UNL A   1      50.449  26.684  25.780  1.00  0.00    +0.000 C 
ATOM     54  F9  UNL A   1      51.519  26.258  26.466  1.00  0.00    +0.000 F 
ATOM     55  C40 UNL A   1      49.296  27.066  26.459  1.00  0.00    +0.000 C 
ATOM     56  F10 UNL A   1      49.280  26.987  27.798  1.00  0.00    +0.000 F 
ENDBRANCH   45   46
BRANCH   60   61
ATOM     65  F12 UNL A   1      47.312  36.672  27.461  1.00  0.00    +0.000 F 
ATOM     66  C47 UNL A   1      48.069  35.844  29.539  1.00  0.00    +0.000 C 
ATOM     67  F13 UNL A   1      48.764  36.970  29.752  1.00  0.00    +0.000 F 
ATOM     68  C48 UNL A   1      48.100  34.819  30.473  1.00  0.00    +0.000 C 
ATOM     69  F14 UNL A   1      48.809  34.963  31.601  1.00  0.00    +0.000 F 
ATOM     70  C49 UNL A   1      47.397  33.639  30.240  1.00  0.00    +0.000 C 
ATOM     71  F15 UNL A   1      47.457  32.659  31.154  1.00  0.00    +0.000 F 
ATOM     61  C44 UNL A   1      46.628  33.470  29.080  1.00  0.00    +0.000 C 
ATOM     62  C45 UNL A   1      46.598  34.527  28.158  1.00  0.00    +0.000 C 
ATOM     63  F11 UNL A   1      45.895  34.405  27.023  1.00  0.00    +0.000 F 
ATOM     64  C46 UNL A   1      47.324  35.696  28.379  1.00  0.00    +0.000 C 
ENDBRANCH   60   61
ENDBRANCH   23   24
ENDBRANCH   18   20
ENDBRANCH   17   18
ENDBRANCH   16   17
ENDBRANCH   15   16
ENDBRANCH   14   15
ENDBRANCH   13   14
ENDBRANCH   12   13
ENDBRANCH   11   12
ENDBRANCH   10   11
ENDBRANCH    8   10
ENDBRANCH    7    8
BRANCH   85   86
ATOM    151  H46 UNL A   1      28.416  26.769  24.631  1.00  0.00    +0.000 H 
ATOM     86  C63 UNL A   1      28.929  26.032  25.213  1.00  0.00    +0.000 C 
ATOM    150  H45 UNL A   1      28.585  25.057  24.935  1.00  0.00    +0.000 H 
ATOM    152  H47 UNL A   1      28.734  26.197  26.252  1.00  0.00    +0.000 H 
ENDBRANCH   85   86
BRANCH   91   92
ATOM     92  C69 UNL A   1      33.481  23.057  22.537  1.00  0.00    +0.000 C 
ATOM    157  H52 UNL A   1      32.464  22.976  22.214  1.00  0.00    +0.000 H 
ATOM    158  H53 UNL A   1      33.904  22.079  22.635  1.00  0.00    +0.000 H 
ATOM    159  H54 UNL A   1      34.040  23.618  21.817  1.00  0.00    +0.000 H 
ENDBRANCH   91   92
BRANCH   95   96
ATOM    165  H60 UNL A   1      36.708  20.761  24.616  1.00  0.00    +0.000 H 
ATOM     96  O3  UNL A   1      36.838  21.366  25.363  1.00  0.00    +0.000 O 
ENDBRANCH   95   96
BRANCH   97   98
ATOM     98  C74 UNL A   1      34.305  20.559  24.271  1.00  0.00    +0.000 C 
ATOM    166  H61 UNL A   1      33.313  20.522  23.868  1.00  0.00    +0.000 H 
ATOM    167  H62 UNL A   1      34.537  19.621  24.730  1.00  0.00    +0.000 H 
ATOM    168  H63 UNL A   1      35.002  20.755  23.484  1.00  0.00    +0.000 H 
ENDBRANCH   97   98
BRANCH   97   99
ATOM    169  H64 UNL A   1      33.417  21.482  27.246  1.00  0.00    +0.000 H 
ATOM    170  H65 UNL A   1      35.095  20.995  27.249  1.00  0.00    +0.000 H 
ATOM     99  C75 UNL A   1      34.180  20.975  26.694  1.00  0.00    +0.000 C 
ATOM    171  H66 UNL A   1      33.886  19.959  26.530  1.00  0.00    +0.000 H 
ENDBRANCH   97   99
BRANCH  103  104
ATOM    177  H72 UNL A   1      29.919  24.863  22.591  1.00  0.00    +0.000 H 
ATOM    178  H73 UNL A   1      29.186  23.777  23.747  1.00  0.00    +0.000 H 
ATOM    179  H74 UNL A   1      30.605  23.280  22.858  1.00  0.00    +0.000 H 
ATOM    104  C80 UNL A   1      30.110  24.107  23.323  1.00  0.00    +0.000 C 
ENDBRANCH  103  104
TORSDOF 23
ENDMDL
MODEL 10
REMARK VINA RESULT:     -10.6     33.137     38.258
ROOT
ATOM      2  C2  UNL A   1      29.423   0.398  11.577  1.00  0.00    +0.000 C 
ATOM      3  C3  UNL A   1      29.656   1.136  12.936  1.00  0.00    +0.000 C 
ATOM      5  C5  UNL A   1      29.827   2.659  12.817  1.00  0.00    +0.000 C 
ATOM      6  C6  UNL A   1      30.668   3.154  11.660  1.00  0.00    +0.000 C 
ATOM      7  C7  UNL A   1      30.640   2.343  10.351  1.00  0.00    +0.000 C 
ATOM    146  H41 UNL A   1      32.794   2.338  10.496  1.00  0.00    +0.000 H 
ATOM    147  H42 UNL A   1      32.076   3.582   9.397  1.00  0.00    +0.000 H 
ATOM    148  H43 UNL A   1      33.517   1.732   8.420  1.00  0.00    +0.000 H 
ATOM    149  H44 UNL A   1      31.946   2.223   7.680  1.00  0.00    +0.000 H 
ATOM    153  H48 UNL A   1      28.574  -0.236   9.003  1.00  0.00    +0.000 H 
ATOM    154  H49 UNL A   1      28.506   0.448   6.636  1.00  0.00    +0.000 H 
ATOM    155  H50 UNL A   1      29.255  -1.152   6.675  1.00  0.00    +0.000 H 
ATOM    156  H51 UNL A   1      30.733   1.481   6.502  1.00  0.00    +0.000 H 
ATOM    160  H55 UNL A   1      30.139   2.729   4.986  1.00  0.00    +0.000 H 
ATOM    161  H56 UNL A   1      28.711   1.705   4.679  1.00  0.00    +0.000 H 
ATOM    162  H57 UNL A   1      29.210   3.292   2.867  1.00  0.00    +0.000 H 
ATOM    163  H58 UNL A   1      29.201   1.577   2.401  1.00  0.00    +0.000 H 
ATOM    164  H59 UNL A   1      31.583   3.299   2.837  1.00  0.00    +0.000 H 
ATOM    172  H67 UNL A   1      32.288   1.861   4.541  1.00  0.00    +0.000 H 
ATOM    173  H68 UNL A   1      33.948   0.052   4.117  1.00  0.00    +0.000 H 
ATOM    174  H69 UNL A   1      32.662  -1.099   4.359  1.00  0.00    +0.000 H 
ATOM    175  H70 UNL A   1      33.483   1.022   6.332  1.00  0.00    +0.000 H 
ATOM    176  H71 UNL A   1      33.904  -0.702   6.416  1.00  0.00    +0.000 H 
ATOM    180  H75 UNL A   1      31.339   0.361  11.099  1.00  0.00    +0.000 H 
ATOM     83  C60 UNL A   1      32.077   2.566   9.734  1.00  0.00    +0.000 C 
ATOM     84  C61 UNL A   1      32.450   1.742   8.491  1.00  0.00    +0.000 C 
ATOM     85  C62 UNL A   1      31.959   0.254   8.446  1.00  0.00    +0.000 C 
ATOM     87  C64 UNL A   1      30.569   0.203   9.144  1.00  0.00    +0.000 C 
ATOM     88  C65 UNL A   1      29.436  -0.064   8.462  1.00  0.00    +0.000 C 
ATOM     89  C66 UNL A   1      29.352  -0.124   6.958  1.00  0.00    +0.000 C 
ATOM     90  C67 UNL A   1      30.627   0.441   6.277  1.00  0.00    +0.000 C 
ATOM     91  C68 UNL A   1      30.557   0.634   4.702  1.00  0.00    +0.000 C 
ATOM     93  C70 UNL A   1      29.724   1.927   4.412  1.00  0.00    +0.000 C 
ATOM     94  C71 UNL A   1      29.708   2.348   2.943  1.00  0.00    +0.000 C 
ATOM     95  C72 UNL A   1      31.104   2.486   2.333  1.00  0.00    +0.000 C 
ATOM     97  C73 UNL A   1      32.055   1.275   2.582  1.00  0.00    +0.000 C 
ATOM    100  C76 UNL A   1      31.989   0.925   4.118  1.00  0.00    +0.000 C 
ATOM    101  C77 UNL A   1      33.007  -0.115   4.599  1.00  0.00    +0.000 C 
ATOM    102  C78 UNL A   1      33.175   0.021   6.114  1.00  0.00    +0.000 C 
ATOM    103  C79 UNL A   1      31.876  -0.278   6.908  1.00  0.00    +0.000 C 
ATOM    105  C81 UNL A   1      30.527   0.806  10.563  1.00  0.00    +0.000 C 
ATOM    109  H4  UNL A   1      28.470   0.688  11.185  1.00  0.00    +0.000 H 
ATOM    110  H5  UNL A   1      30.573   0.688  13.257  1.00  0.00    +0.000 H 
ATOM    114  H9  UNL A   1      30.280   3.007  13.722  1.00  0.00    +0.000 H 
ATOM    115  H10 UNL A   1      28.844   3.041  12.636  1.00  0.00    +0.000 H 
ATOM    116  H11 UNL A   1      31.684   3.184  11.995  1.00  0.00    +0.000 H 
ATOM    117  H12 UNL A   1      30.238   4.099  11.401  1.00  0.00    +0.000 H 
ENDROOT
BRANCH    2    1
ATOM      1  C1  UNL A   1      29.399  -1.126  11.778  1.00  0.00    +0.000 C 
ATOM    106  H1  UNL A   1      28.725  -1.569  11.075  1.00  0.00    +0.000 H 
ATOM    107  H2  UNL A   1      29.073  -1.348  12.773  1.00  0.00    +0.000 H 
ATOM    108  H3  UNL A   1      30.382  -1.522  11.629  1.00  0.00    +0.000 H 
ENDBRANCH    2    1
BRANCH    3    4
ATOM    113  H8  UNL A   1      27.603   0.876  13.496  1.00  0.00    +0.000 H 
ATOM      4  C4  UNL A   1      28.556   0.907  13.981  1.00  0.00    +0.000 C 
ATOM    111  H6  UNL A   1      28.567   1.707  14.692  1.00  0.00    +0.000 H 
ATOM    112  H7  UNL A   1      28.730  -0.021  14.485  1.00  0.00    +0.000 H 
ENDBRANCH    3    4
BRANCH    7    8
ATOM      9  O1  UNL A   1      28.357   2.782   9.563  1.00  0.00    +0.000 O 
ATOM      8  C8  UNL A   1      29.568   2.918   9.346  1.00  0.00    +0.000 C 
BRANCH    8   10
ATOM     10  N1  UNL A   1      29.856   3.646   8.216  1.00  0.00    +0.000 N 
ATOM    118  H13 UNL A   1      29.712   3.190   7.356  1.00  0.00    +0.000 H 
BRANCH   10   11
ATOM     11  C9  UNL A   1      30.349   5.008   8.145  1.00  0.00    +0.000 C 
ATOM    119  H14 UNL A   1      30.741   5.271   9.106  1.00  0.00    +0.000 H 
ATOM    120  H15 UNL A   1      29.519   5.616   7.850  1.00  0.00    +0.000 H 
BRANCH   11   12
ATOM    121  H16 UNL A   1      32.377   5.303   7.629  1.00  0.00    +0.000 H 
ATOM    122  H17 UNL A   1      31.139   6.122   6.584  1.00  0.00    +0.000 H 
ATOM     12  C10 UNL A   1      31.447   5.238   7.102  1.00  0.00    +0.000 C 
BRANCH   12   13
ATOM    123  H18 UNL A   1      30.755   4.238   5.374  1.00  0.00    +0.000 H 
ATOM    124  H19 UNL A   1      31.794   3.281   6.527  1.00  0.00    +0.000 H 
ATOM     13  C11 UNL A   1      31.628   4.191   5.991  1.00  0.00    +0.000 C 
BRANCH   13   14
ATOM    126  H21 UNL A   1      33.683   4.230   5.717  1.00  0.00    +0.000 H 
ATOM    125  H20 UNL A   1      32.751   3.500   4.341  1.00  0.00    +0.000 H 
ATOM     14  C12 UNL A   1      32.840   4.288   5.060  1.00  0.00    +0.000 C 
BRANCH   14   15
ATOM    127  H22 UNL A   1      34.062   5.901   4.470  1.00  0.00    +0.000 H 
ATOM     15  C13 UNL A   1      33.056   5.585   4.284  1.00  0.00    +0.000 C 
ATOM    128  H23 UNL A   1      32.287   6.238   4.642  1.00  0.00    +0.000 H 
BRANCH   15   16
ATOM    129  H24 UNL A   1      32.569   4.578   2.489  1.00  0.00    +0.000 H 
ATOM    130  H25 UNL A   1      33.793   5.869   2.346  1.00  0.00    +0.000 H 
ATOM     16  C14 UNL A   1      32.861   5.566   2.776  1.00  0.00    +0.000 C 
BRANCH   16   17
ATOM     17  N2  UNL A   1      31.863   6.492   2.286  1.00  0.00    +0.000 N 
ATOM    131  H26 UNL A   1      32.134   7.438   2.282  1.00  0.00    +0.000 H 
BRANCH   17   18
ATOM     18  C15 UNL A   1      30.588   6.242   1.824  1.00  0.00    +0.000 C 
ATOM     19  O2  UNL A   1      30.401   6.052   0.632  1.00  0.00    +0.000 O 
BRANCH   18   20
ATOM    132  H27 UNL A   1      28.117   5.467   1.267  1.00  0.00    +0.000 H 
ATOM    133  H28 UNL A   1      26.206   5.246   2.745  1.00  0.00    +0.000 H 
ATOM    144  H39 UNL A   1      28.583   6.496   5.988  1.00  0.00    +0.000 H 
ATOM     81  C58 UNL A   1      28.472   6.301   4.980  1.00  0.00    +0.000 C 
ATOM     82  C59 UNL A   1      29.543   6.514   4.111  1.00  0.00    +0.000 C 
ATOM    145  H40 UNL A   1      30.414   6.943   4.463  1.00  0.00    +0.000 H 
ATOM     20  C16 UNL A   1      29.441   6.147   2.767  1.00  0.00    +0.000 C 
ATOM     21  C17 UNL A   1      28.213   5.696   2.269  1.00  0.00    +0.000 C 
ATOM     22  C18 UNL A   1      27.116   5.552   3.126  1.00  0.00    +0.000 C 
ATOM     23  C19 UNL A   1      27.244   5.822   4.496  1.00  0.00    +0.000 C 
BRANCH   23   24
ATOM    134  H29 UNL A   1      22.620   0.319   9.705  1.00  0.00    +0.000 H 
ATOM    135  H30 UNL A   1      20.697   1.802  10.656  1.00  0.00    +0.000 H 
ATOM    136  H31 UNL A   1      22.984   4.119   8.096  1.00  0.00    +0.000 H 
ATOM    137  H32 UNL A   1      24.299   9.787   5.476  1.00  0.00    +0.000 H 
ATOM    138  H33 UNL A   1      26.139   8.327   4.511  1.00  0.00    +0.000 H 
ATOM    139  H34 UNL A   1      23.820   5.957   7.018  1.00  0.00    +0.000 H 
ATOM    140  H35 UNL A   1      20.140   8.937   8.724  1.00  0.00    +0.000 H 
ATOM    141  H36 UNL A   1      19.364   6.955  10.144  1.00  0.00    +0.000 H 
ATOM    142  H37 UNL A   1      26.523   1.167   6.125  1.00  0.00    +0.000 H 
ATOM    143  H38 UNL A   1      27.618   3.239   5.092  1.00  0.00    +0.000 H 
ATOM     24  C20 UNL A   1      26.101   5.627   5.428  1.00  0.00    +0.000 C 
ATOM     25  C21 UNL A   1      25.821   4.270   6.014  1.00  0.00    +0.000 C 
ATOM     26  N3  UNL A   1      24.844   3.888   6.797  1.00  0.00    +0.000 N 
ATOM     27  C22 UNL A   1      25.032   2.527   7.004  1.00  0.00    +0.000 C 
ATOM     28  C23 UNL A   1      24.322   1.682   7.792  1.00  0.00    +0.000 C 
ATOM     40  C30 UNL A   1      23.195   2.078   8.595  1.00  0.00    +0.000 C 
ATOM     41  C31 UNL A   1      22.450   1.310   9.475  1.00  0.00    +0.000 C 
ATOM     42  C32 UNL A   1      21.429   2.110   9.997  1.00  0.00    +0.000 C 
ATOM     43  C33 UNL A   1      21.566   3.388   9.480  1.00  0.00    +0.000 C 
ATOM     44  N4  UNL A   1      22.650   3.353   8.617  1.00  0.00    +0.000 N 
ATOM     45  C34 UNL A   1      20.767   4.556   9.751  1.00  0.00    +0.000 C 
ATOM     57  C41 UNL A   1      20.971   5.780   9.204  1.00  0.00    +0.000 C 
ATOM     58  N5  UNL A   1      21.950   6.182   8.306  1.00  0.00    +0.000 N 
ATOM     59  C42 UNL A   1      21.721   7.451   8.067  1.00  0.00    +0.000 C 
ATOM     60  C43 UNL A   1      22.488   8.407   7.192  1.00  0.00    +0.000 C 
ATOM     72  C50 UNL A   1      23.583   7.971   6.541  1.00  0.00    +0.000 C 
ATOM     73  C51 UNL A   1      24.431   8.782   5.672  1.00  0.00    +0.000 C 
ATOM     74  C52 UNL A   1      25.411   8.013   5.171  1.00  0.00    +0.000 C 
ATOM     75  C53 UNL A   1      25.279   6.658   5.709  1.00  0.00    +0.000 C 
ATOM     76  N6  UNL A   1      24.167   6.727   6.511  1.00  0.00    +0.000 N 
ATOM     77  C54 UNL A   1      20.549   7.990   8.770  1.00  0.00    +0.000 C 
ATOM     78  C55 UNL A   1      20.153   6.943   9.480  1.00  0.00    +0.000 C 
ATOM     79  C56 UNL A   1      26.185   2.138   6.222  1.00  0.00    +0.000 C 
ATOM     80  C57 UNL A   1      26.752   3.189   5.649  1.00  0.00    +0.000 C 
BRANCH   28   29
ATOM     33  F2  UNL A   1      26.977  -1.977   9.687  1.00  0.00    +0.000 F 
ATOM     34  C27 UNL A   1      25.504  -2.464   7.908  1.00  0.00    +0.000 C 
ATOM     35  F3  UNL A   1      25.873  -3.752   7.936  1.00  0.00    +0.000 F 
ATOM     36  C28 UNL A   1      24.575  -2.028   6.975  1.00  0.00    +0.000 C 
ATOM     37  F4  UNL A   1      24.029  -2.900   6.116  1.00  0.00    +0.000 F 
ATOM     38  C29 UNL A   1      24.210  -0.684   6.928  1.00  0.00    +0.000 C 
ATOM     39  F5  UNL A   1      23.320  -0.291   6.004  1.00  0.00    +0.000 F 
ATOM     29  C24 UNL A   1      24.751   0.244   7.829  1.00  0.00    +0.000 C 
ATOM     30  C25 UNL A   1      25.671  -0.225   8.779  1.00  0.00    +0.000 C 
ATOM     31  F1  UNL A   1      26.227   0.623   9.657  1.00  0.00    +0.000 F 
ATOM     32  C26 UNL A   1      26.057  -1.563   8.804  1.00  0.00    +0.000 C 
ENDBRANCH   28   29
BRANCH   45   46
ATOM     46  C35 UNL A   1      19.638   4.418  10.728  1.00  0.00    +0.000 C 
ATOM     47  C36 UNL A   1      18.357   4.016  10.321  1.00  0.00    +0.000 C 
ATOM     48  F6  UNL A   1      18.100   3.795   9.023  1.00  0.00    +0.000 F 
ATOM     49  C37 UNL A   1      17.324   3.874  11.244  1.00  0.00    +0.000 C 
ATOM     50  F7  UNL A   1      16.098   3.532  10.827  1.00  0.00    +0.000 F 
ATOM     51  C38 UNL A   1      17.560   4.099  12.592  1.00  0.00    +0.000 C 
ATOM     52  F8  UNL A   1      16.566   3.955  13.480  1.00  0.00    +0.000 F 
ATOM     53  C39 UNL A   1      18.823   4.481  13.019  1.00  0.00    +0.000 C 
ATOM     54  F9  UNL A   1      19.055   4.686  14.323  1.00  0.00    +0.000 F 
ATOM     55  C40 UNL A   1      19.850   4.651  12.095  1.00  0.00    +0.000 C 
ATOM     56  F10 UNL A   1      21.058   5.032  12.537  1.00  0.00    +0.000 F 
ENDBRANCH   45   46
BRANCH   60   61
ATOM     65  F12 UNL A   1      22.878  13.098   8.468  1.00  0.00    +0.000 F 
ATOM     66  C47 UNL A   1      21.262  12.515   6.848  1.00  0.00    +0.000 C 
ATOM     67  F13 UNL A   1      20.873  13.793   6.753  1.00  0.00    +0.000 F 
ATOM     68  C48 UNL A   1      20.635  11.538   6.089  1.00  0.00    +0.000 C 
ATOM     69  F14 UNL A   1      19.652  11.875   5.244  1.00  0.00    +0.000 F 
ATOM     70  C49 UNL A   1      21.023  10.205   6.206  1.00  0.00    +0.000 C 
ATOM     71  F15 UNL A   1      20.389   9.279   5.470  1.00  0.00    +0.000 F 
ATOM     61  C44 UNL A   1      22.064   9.825   7.065  1.00  0.00    +0.000 C 
ATOM     62  C45 UNL A   1      22.695  10.833   7.809  1.00  0.00    +0.000 C 
ATOM     63  F11 UNL A   1      23.681  10.517   8.661  1.00  0.00    +0.000 F 
ATOM     64  C46 UNL A   1      22.288  12.162   7.713  1.00  0.00    +0.000 C 
ENDBRANCH   60   61
ENDBRANCH   23   24
ENDBRANCH   18   20
ENDBRANCH   17   18
ENDBRANCH   16   17
ENDBRANCH   15   16
ENDBRANCH   14   15
ENDBRANCH   13   14
ENDBRANCH   12   13
ENDBRANCH   11   12
ENDBRANCH   10   11
ENDBRANCH    8   10
ENDBRANCH    7    8
BRANCH   85   86
ATOM    151  H46 UNL A   1      33.658  -1.073   8.560  1.00  0.00    +0.000 H 
ATOM     86  C63 UNL A   1      32.974  -0.611   9.240  1.00  0.00    +0.000 C 
ATOM    150  H45 UNL A   1      33.516   0.011   9.923  1.00  0.00    +0.000 H 
ATOM    152  H47 UNL A   1      32.448  -1.367   9.786  1.00  0.00    +0.000 H 
ENDBRANCH   85   86
BRANCH   91   92
ATOM     92  C69 UNL A   1      29.836  -0.565   4.056  1.00  0.00    +0.000 C 
ATOM    157  H52 UNL A   1      28.996  -0.843   4.657  1.00  0.00    +0.000 H 
ATOM    158  H53 UNL A   1      30.513  -1.391   3.984  1.00  0.00    +0.000 H 
ATOM    159  H54 UNL A   1      29.499  -0.293   3.077  1.00  0.00    +0.000 H 
ENDBRANCH   91   92
BRANCH   95   96
ATOM    165  H60 UNL A   1      30.394   2.105   0.528  1.00  0.00    +0.000 H 
ATOM     96  O3  UNL A   1      30.973   2.767   0.938  1.00  0.00    +0.000 O 
ENDBRANCH   95   96
BRANCH   97   98
ATOM     98  C74 UNL A   1      31.751   0.090   1.641  1.00  0.00    +0.000 C 
ATOM    166  H61 UNL A   1      31.342  -0.719   2.209  1.00  0.00    +0.000 H 
ATOM    167  H62 UNL A   1      32.654  -0.228   1.165  1.00  0.00    +0.000 H 
ATOM    168  H63 UNL A   1      31.044   0.397   0.899  1.00  0.00    +0.000 H 
ENDBRANCH   97   98
BRANCH   97   99
ATOM    169  H64 UNL A   1      34.168   0.917   2.293  1.00  0.00    +0.000 H 
ATOM    170  H65 UNL A   1      33.796   2.527   2.857  1.00  0.00    +0.000 H 
ATOM     99  C75 UNL A   1      33.491   1.739   2.201  1.00  0.00    +0.000 C 
ATOM    171  H66 UNL A   1      33.495   2.094   1.191  1.00  0.00    +0.000 H 
ENDBRANCH   97   99
BRANCH  103  104
ATOM    177  H72 UNL A   1      30.698  -2.080   6.658  1.00  0.00    +0.000 H 
ATOM    178  H73 UNL A   1      31.989  -2.240   7.824  1.00  0.00    +0.000 H 
ATOM    179  H74 UNL A   1      32.350  -2.239   6.115  1.00  0.00    +0.000 H 
ATOM    104  C80 UNL A   1      31.716  -1.832   6.874  1.00  0.00    +0.000 C 
ENDBRANCH  103  104
TORSDOF 23
ENDMDL
