MODEL 1
REMARK VINA RESULT:      -8.5      0.000      0.000
ROOT
ATOM    129  H29 UNL A   1      49.836  57.245  16.339  1.00  0.00    +0.000 H 
ATOM    130  H30 UNL A   1      51.830  57.064  17.933  1.00  0.00    +0.000 H 
ATOM    131  H31 UNL A   1      48.428  48.227  21.313  1.00  0.00    +0.000 H 
ATOM    132  H32 UNL A   1      46.583  48.259  19.538  1.00  0.00    +0.000 H 
ATOM     28  C22 UNL A   1      46.484  50.673  18.014  1.00  0.00    +0.000 C 
ATOM     29  C23 UNL A   1      47.489  50.284  19.068  1.00  0.00    +0.000 C 
ATOM     30  N3  UNL A   1      48.534  50.946  19.502  1.00  0.00    +0.000 N 
ATOM     31  C24 UNL A   1      49.108  50.151  20.487  1.00  0.00    +0.000 C 
ATOM     32  C25 UNL A   1      50.236  50.374  21.204  1.00  0.00    +0.000 C 
ATOM     44  C32 UNL A   1      51.075  51.535  21.057  1.00  0.00    +0.000 C 
ATOM     45  C33 UNL A   1      52.249  51.839  21.725  1.00  0.00    +0.000 C 
ATOM     46  C34 UNL A   1      52.687  53.095  21.293  1.00  0.00    +0.000 C 
ATOM     47  C35 UNL A   1      51.818  53.549  20.314  1.00  0.00    +0.000 C 
ATOM     48  N4  UNL A   1      50.832  52.583  20.181  1.00  0.00    +0.000 N 
ATOM     49  C36 UNL A   1      51.877  54.776  19.562  1.00  0.00    +0.000 C 
ATOM     61  C43 UNL A   1      51.012  55.125  18.578  1.00  0.00    +0.000 C 
ATOM     62  N5  UNL A   1      49.912  54.427  18.099  1.00  0.00    +0.000 N 
ATOM     63  C44 UNL A   1      49.377  55.189  17.177  1.00  0.00    +0.000 C 
ATOM     64  C45 UNL A   1      48.170  54.933  16.317  1.00  0.00    +0.000 C 
ATOM     76  C52 UNL A   1      47.457  53.806  16.503  1.00  0.00    +0.000 C 
ATOM     77  C53 UNL A   1      46.260  53.435  15.756  1.00  0.00    +0.000 C 
ATOM     78  C54 UNL A   1      45.764  52.297  16.263  1.00  0.00    +0.000 C 
ATOM     79  C55 UNL A   1      46.650  51.819  17.324  1.00  0.00    +0.000 C 
ATOM     80  N6  UNL A   1      47.629  52.779  17.399  1.00  0.00    +0.000 N 
ATOM     81  C56 UNL A   1      50.072  56.467  16.974  1.00  0.00    +0.000 C 
ATOM     82  C57 UNL A   1      51.085  56.359  17.824  1.00  0.00    +0.000 C 
ATOM     83  C58 UNL A   1      48.277  48.975  20.617  1.00  0.00    +0.000 C 
ATOM     84  C59 UNL A   1      47.297  48.980  19.725  1.00  0.00    +0.000 C 
ATOM    123  H23 UNL A   1      52.721  51.242  22.422  1.00  0.00    +0.000 H 
ATOM    124  H24 UNL A   1      53.516  53.599  21.644  1.00  0.00    +0.000 H 
ATOM    125  H25 UNL A   1      50.072  52.634  19.557  1.00  0.00    +0.000 H 
ATOM    126  H26 UNL A   1      45.858  53.964  14.965  1.00  0.00    +0.000 H 
ATOM    127  H27 UNL A   1      44.896  51.833  15.953  1.00  0.00    +0.000 H 
ATOM    128  H28 UNL A   1      48.380  52.735  18.032  1.00  0.00    +0.000 H 
ENDROOT
BRANCH   28   27
ATOM    122  H22 UNL A   1      46.458  48.571  16.346  1.00  0.00    +0.000 H 
ATOM    133  H33 UNL A   1      43.893  50.789  18.841  1.00  0.00    +0.000 H 
ATOM    134  H34 UNL A   1      42.165  49.104  18.548  1.00  0.00    +0.000 H 
ATOM     85  C60 UNL A   1      44.082  49.951  18.270  1.00  0.00    +0.000 C 
ATOM     86  C61 UNL A   1      43.079  48.995  18.081  1.00  0.00    +0.000 C 
ATOM     24  C18 UNL A   1      43.318  47.891  17.258  1.00  0.00    +0.000 C 
ATOM     25  C19 UNL A   1      44.511  47.801  16.539  1.00  0.00    +0.000 C 
ATOM     26  C20 UNL A   1      45.541  48.697  16.803  1.00  0.00    +0.000 C 
ATOM     27  C21 UNL A   1      45.347  49.773  17.684  1.00  0.00    +0.000 C 
ATOM    121  H21 UNL A   1      44.629  47.072  15.817  1.00  0.00    +0.000 H 
BRANCH   24   22
ATOM     22  C17 UNL A   1      42.316  46.802  17.206  1.00  0.00    +0.000 C 
ATOM     23  O4  UNL A   1      41.353  46.895  16.451  1.00  0.00    +0.000 O 
BRANCH   22   21
ATOM     21  N2  UNL A   1      42.448  45.714  18.039  1.00  0.00    +0.000 N 
ATOM    120  H20 UNL A   1      42.642  45.927  18.980  1.00  0.00    +0.000 H 
BRANCH   21   20
ATOM     20  C16 UNL A   1      42.341  44.295  17.732  1.00  0.00    +0.000 C 
ATOM    118  H18 UNL A   1      41.354  44.101  17.369  1.00  0.00    +0.000 H 
ATOM    119  H19 UNL A   1      43.094  44.073  17.006  1.00  0.00    +0.000 H 
BRANCH   20   19
ATOM     19  C15 UNL A   1      42.597  43.394  18.934  1.00  0.00    +0.000 C 
ATOM    116  H16 UNL A   1      42.461  42.380  18.617  1.00  0.00    +0.000 H 
ATOM    117  H17 UNL A   1      43.590  43.620  19.259  1.00  0.00    +0.000 H 
BRANCH   19   18
ATOM     18  C14 UNL A   1      41.701  43.630  20.148  1.00  0.00    +0.000 C 
ATOM    115  H15 UNL A   1      40.700  43.520  19.787  1.00  0.00    +0.000 H 
ATOM    114  H14 UNL A   1      41.930  44.600  20.537  1.00  0.00    +0.000 H 
BRANCH   18   17
ATOM     17  C13 UNL A   1      41.831  42.626  21.295  1.00  0.00    +0.000 C 
ATOM    113  H13 UNL A   1      42.832  42.256  21.228  1.00  0.00    +0.000 H 
ATOM    112  H12 UNL A   1      41.068  41.887  21.166  1.00  0.00    +0.000 H 
BRANCH   17   16
ATOM    110  H10 UNL A   1      41.844  44.239  22.659  1.00  0.00    +0.000 H 
ATOM    111  H11 UNL A   1      40.735  42.864  23.043  1.00  0.00    +0.000 H 
ATOM     16  C12 UNL A   1      41.703  43.179  22.714  1.00  0.00    +0.000 C 
BRANCH   16   15
ATOM    108  H8  UNL A   1      42.222  42.803  24.729  1.00  0.00    +0.000 H 
ATOM    109  H9  UNL A   1      42.819  41.613  23.526  1.00  0.00    +0.000 H 
ATOM     15  C11 UNL A   1      42.666  42.644  23.768  1.00  0.00    +0.000 C 
BRANCH   15   14
ATOM    107  H7  UNL A   1      44.645  42.776  24.341  1.00  0.00    +0.000 H 
ATOM     14  N1  UNL A   1      43.984  43.246  23.782  1.00  0.00    +0.000 N 
BRANCH   14   12
ATOM     12  C10 UNL A   1      44.460  44.367  23.139  1.00  0.00    +0.000 C 
ATOM     13  O3  UNL A   1      44.520  45.429  23.755  1.00  0.00    +0.000 O 
BRANCH   12   11
ATOM    135  H35 UNL A   1      45.547  42.257  21.702  1.00  0.00    +0.000 H 
ATOM    136  H36 UNL A   1      46.976  42.476  19.751  1.00  0.00    +0.000 H 
ATOM      9  C7  UNL A   1      45.691  45.556  19.792  1.00  0.00    +0.000 C 
ATOM    105  H5  UNL A   1      45.600  46.385  19.184  1.00  0.00    +0.000 H 
ATOM      8  C6  UNL A   1      46.545  44.517  19.443  1.00  0.00    +0.000 C 
ATOM     10  C8  UNL A   1      44.956  45.462  20.978  1.00  0.00    +0.000 C 
ATOM    106  H6  UNL A   1      44.366  46.253  21.279  1.00  0.00    +0.000 H 
ATOM     11  C9  UNL A   1      45.018  44.299  21.760  1.00  0.00    +0.000 C 
ATOM     87  C62 UNL A   1      45.660  43.174  21.243  1.00  0.00    +0.000 C 
ATOM     88  C63 UNL A   1      46.454  43.292  20.104  1.00  0.00    +0.000 C 
BRANCH    8    7
ATOM      7  O2  UNL A   1      47.435  44.593  18.415  1.00  0.00    +0.000 O 
BRANCH    7    6
ATOM      2  C2  UNL A   1      50.197  47.699  17.732  1.00  0.00    +0.000 C 
ATOM      3  C3  UNL A   1      49.326  47.382  16.772  1.00  0.00    +0.000 C 
ATOM    100  O7  UNL A   1      50.298  46.985  18.907  1.00  0.00    +0.000 O 
ATOM      4  C4  UNL A   1      48.402  46.263  16.996  1.00  0.00    +0.000 C 
ATOM      5  O1  UNL A   1      47.635  45.934  16.094  1.00  0.00    +0.000 O 
ATOM      6  C5  UNL A   1      48.433  45.556  18.318  1.00  0.00    +0.000 C 
ATOM    104  H4  UNL A   1      49.302  47.914  15.889  1.00  0.00    +0.000 H 
ATOM     89  C64 UNL A   1      49.429  45.927  19.167  1.00  0.00    +0.000 C 
BRANCH    2    1
ATOM      1  C1  UNL A   1      51.152  48.844  17.617  1.00  0.00    +0.000 C 
ATOM    101  H1  UNL A   1      51.352  49.240  18.591  1.00  0.00    +0.000 H 
ATOM    102  H2  UNL A   1      50.722  49.607  17.002  1.00  0.00    +0.000 H 
ATOM    103  H3  UNL A   1      52.066  48.503  17.176  1.00  0.00    +0.000 H 
ENDBRANCH    2    1
BRANCH   89   90
ATOM     98  C70 UNL A   1      51.122  43.876  21.868  1.00  0.00    +0.000 C 
ATOM     99  C71 UNL A   1      50.861  44.476  20.632  1.00  0.00    +0.000 C 
ATOM    137  H37 UNL A   1      48.205  46.326  21.513  1.00  0.00    +0.000 H 
ATOM    138  H38 UNL A   1      48.625  45.248  23.649  1.00  0.00    +0.000 H 
ATOM    142  H42 UNL A   1      51.924  43.233  21.973  1.00  0.00    +0.000 H 
ATOM    143  H43 UNL A   1      51.479  44.286  19.828  1.00  0.00    +0.000 H 
ATOM     90  C65 UNL A   1      49.761  45.334  20.478  1.00  0.00    +0.000 C 
ATOM     91  C66 UNL A   1      48.975  45.645  21.600  1.00  0.00    +0.000 C 
ATOM     92  C67 UNL A   1      49.225  45.039  22.836  1.00  0.00    +0.000 C 
ATOM     93  C68 UNL A   1      50.295  44.149  22.960  1.00  0.00    +0.000 C 
BRANCH   93   94
ATOM     97  O6  UNL A   1      51.939  43.339  24.834  1.00  0.00    +0.000 O 
ATOM     94  S1  UNL A   1      50.526  43.285  24.499  1.00  0.00    +0.000 S 
ATOM     96  O5  UNL A   1      49.822  42.024  24.394  1.00  0.00    +0.000 O 
BRANCH   94   95
ATOM    139  H39 UNL A   1      49.762  45.318  25.406  1.00  0.00    +0.000 H 
ATOM    140  H40 UNL A   1      50.091  44.135  26.650  1.00  0.00    +0.000 H 
ATOM    141  H41 UNL A   1      48.634  44.016  25.694  1.00  0.00    +0.000 H 
ATOM     95  C69 UNL A   1      49.669  44.287  25.679  1.00  0.00    +0.000 C 
ENDBRANCH   94   95
ENDBRANCH   93   94
ENDBRANCH   89   90
ENDBRANCH    7    6
ENDBRANCH    8    7
ENDBRANCH   12   11
ENDBRANCH   14   12
ENDBRANCH   15   14
ENDBRANCH   16   15
ENDBRANCH   17   16
ENDBRANCH   18   17
ENDBRANCH   19   18
ENDBRANCH   20   19
ENDBRANCH   21   20
ENDBRANCH   22   21
ENDBRANCH   24   22
ENDBRANCH   28   27
BRANCH   32   33
ATOM     33  C26 UNL A   1      50.638  49.345  22.223  1.00  0.00    +0.000 C 
ATOM     34  C27 UNL A   1      51.606  48.369  21.942  1.00  0.00    +0.000 C 
ATOM     35  F1  UNL A   1      52.141  48.282  20.714  1.00  0.00    +0.000 F 
ATOM     36  C28 UNL A   1      52.011  47.459  22.915  1.00  0.00    +0.000 C 
ATOM     37  F2  UNL A   1      52.912  46.513  22.612  1.00  0.00    +0.000 F 
ATOM     38  C29 UNL A   1      51.485  47.527  24.196  1.00  0.00    +0.000 C 
ATOM     39  F3  UNL A   1      51.891  46.663  25.136  1.00  0.00    +0.000 F 
ATOM     40  C30 UNL A   1      50.536  48.490  24.501  1.00  0.00    +0.000 C 
ATOM     41  F4  UNL A   1      50.037  48.569  25.742  1.00  0.00    +0.000 F 
ATOM     42  C31 UNL A   1      50.105  49.382  23.522  1.00  0.00    +0.000 C 
ATOM     43  F5  UNL A   1      49.182  50.299  23.847  1.00  0.00    +0.000 F 
ENDBRANCH   32   33
BRANCH   49   50
ATOM     50  C37 UNL A   1      52.986  55.739  19.880  1.00  0.00    +0.000 C 
ATOM     51  C38 UNL A   1      52.831  56.736  20.855  1.00  0.00    +0.000 C 
ATOM     52  F6  UNL A   1      51.653  56.894  21.478  1.00  0.00    +0.000 F 
ATOM     53  C39 UNL A   1      53.877  57.599  21.170  1.00  0.00    +0.000 C 
ATOM     54  F7  UNL A   1      53.692  58.573  22.071  1.00  0.00    +0.000 F 
ATOM     55  C40 UNL A   1      55.107  57.458  20.545  1.00  0.00    +0.000 C 
ATOM     56  F8  UNL A   1      56.118  58.280  20.860  1.00  0.00    +0.000 F 
ATOM     57  C41 UNL A   1      55.288  56.470  19.590  1.00  0.00    +0.000 C 
ATOM     58  F9  UNL A   1      56.482  56.322  18.999  1.00  0.00    +0.000 F 
ATOM     59  C42 UNL A   1      54.234  55.627  19.248  1.00  0.00    +0.000 C 
ATOM     60  F10 UNL A   1      54.439  54.686  18.315  1.00  0.00    +0.000 F 
ENDBRANCH   49   50
BRANCH   64   65
ATOM     65  C46 UNL A   1      47.753  55.902  15.270  1.00  0.00    +0.000 C 
ATOM     66  C47 UNL A   1      48.087  55.694  13.925  1.00  0.00    +0.000 C 
ATOM     67  F11 UNL A   1      48.829  54.633  13.575  1.00  0.00    +0.000 F 
ATOM     68  C48 UNL A   1      47.684  56.590  12.937  1.00  0.00    +0.000 C 
ATOM     69  F12 UNL A   1      48.046  56.387  11.663  1.00  0.00    +0.000 F 
ATOM     70  C49 UNL A   1      46.914  57.694  13.271  1.00  0.00    +0.000 C 
ATOM     71  F13 UNL A   1      46.511  58.547  12.318  1.00  0.00    +0.000 F 
ATOM     72  C50 UNL A   1      46.564  57.916  14.594  1.00  0.00    +0.000 C 
ATOM     73  F14 UNL A   1      45.805  58.971  14.919  1.00  0.00    +0.000 F 
ATOM     74  C51 UNL A   1      46.995  57.039  15.585  1.00  0.00    +0.000 C 
ATOM     75  F15 UNL A   1      46.648  57.283  16.858  1.00  0.00    +0.000 F 
ENDBRANCH   64   65
TORSDOF 21
ENDMDL
MODEL 2
REMARK VINA RESULT:      -8.3     33.603     37.498
ROOT
ATOM    129  H29 UNL A   1      15.959  57.223   3.595  1.00  0.00    +0.000 H 
ATOM    130  H30 UNL A   1      17.070  57.142   1.290  1.00  0.00    +0.000 H 
ATOM    131  H31 UNL A   1      15.621  47.202   0.855  1.00  0.00    +0.000 H 
ATOM    132  H32 UNL A   1      14.267  47.305   3.025  1.00  0.00    +0.000 H 
ATOM     28  C22 UNL A   1      14.230  49.888   4.246  1.00  0.00    +0.000 C 
ATOM     29  C23 UNL A   1      14.849  49.494   2.928  1.00  0.00    +0.000 C 
ATOM     30  N3  UNL A   1      15.482  50.239   2.055  1.00  0.00    +0.000 N 
ATOM     31  C24 UNL A   1      15.865  49.383   1.029  1.00  0.00    +0.000 C 
ATOM     32  C25 UNL A   1      16.504  49.681  -0.127  1.00  0.00    +0.000 C 
ATOM     44  C32 UNL A   1      16.918  51.007  -0.508  1.00  0.00    +0.000 C 
ATOM     45  C33 UNL A   1      17.554  51.410  -1.670  1.00  0.00    +0.000 C 
ATOM     46  C34 UNL A   1      17.806  52.783  -1.579  1.00  0.00    +0.000 C 
ATOM     47  C35 UNL A   1      17.274  53.247  -0.387  1.00  0.00    +0.000 C 
ATOM     48  N4  UNL A   1      16.734  52.146   0.262  1.00  0.00    +0.000 N 
ATOM     49  C36 UNL A   1      17.265  54.593   0.127  1.00  0.00    +0.000 C 
ATOM     61  C43 UNL A   1      16.675  54.977   1.286  1.00  0.00    +0.000 C 
ATOM     62  N5  UNL A   1      15.989  54.202   2.211  1.00  0.00    +0.000 N 
ATOM     63  C44 UNL A   1      15.640  55.018   3.175  1.00  0.00    +0.000 C 
ATOM     64  C45 UNL A   1      14.867  54.727   4.432  1.00  0.00    +0.000 C 
ATOM     76  C52 UNL A   1      14.496  53.461   4.696  1.00  0.00    +0.000 C 
ATOM     77  C53 UNL A   1      13.759  53.031   5.881  1.00  0.00    +0.000 C 
ATOM     78  C54 UNL A   1      13.637  51.696   5.858  1.00  0.00    +0.000 C 
ATOM     79  C55 UNL A   1      14.225  51.182   4.621  1.00  0.00    +0.000 C 
ATOM     80  N6  UNL A   1      14.712  52.302   3.994  1.00  0.00    +0.000 N 
ATOM     81  C56 UNL A   1      16.078  56.406   2.975  1.00  0.00    +0.000 C 
ATOM     82  C57 UNL A   1      16.668  56.334   1.790  1.00  0.00    +0.000 C 
ATOM     83  C58 UNL A   1      15.428  48.056   1.403  1.00  0.00    +0.000 C 
ATOM     84  C59 UNL A   1      14.746  48.079   2.539  1.00  0.00    +0.000 C 
ATOM    123  H23 UNL A   1      17.802  50.802  -2.467  1.00  0.00    +0.000 H 
ATOM    124  H24 UNL A   1      18.302  53.353  -2.280  1.00  0.00    +0.000 H 
ATOM    125  H25 UNL A   1      16.288  52.170   1.139  1.00  0.00    +0.000 H 
ATOM    126  H26 UNL A   1      13.390  53.654   6.617  1.00  0.00    +0.000 H 
ATOM    127  H27 UNL A   1      13.198  51.123   6.596  1.00  0.00    +0.000 H 
ATOM    128  H28 UNL A   1      15.171  52.275   3.124  1.00  0.00    +0.000 H 
ENDROOT
BRANCH   28   27
ATOM    122  H22 UNL A   1      11.638  49.194   4.306  1.00  0.00    +0.000 H 
ATOM    133  H33 UNL A   1      15.290  48.340   6.219  1.00  0.00    +0.000 H 
ATOM    134  H34 UNL A   1      14.248  46.457   7.350  1.00  0.00    +0.000 H 
ATOM     85  C60 UNL A   1      14.302  48.110   6.032  1.00  0.00    +0.000 C 
ATOM     86  C61 UNL A   1      13.697  47.042   6.703  1.00  0.00    +0.000 C 
ATOM     24  C18 UNL A   1      12.342  46.769   6.493  1.00  0.00    +0.000 C 
ATOM     25  C19 UNL A   1      11.571  47.626   5.706  1.00  0.00    +0.000 C 
ATOM     26  C20 UNL A   1      12.194  48.625   4.965  1.00  0.00    +0.000 C 
ATOM     27  C21 UNL A   1      13.569  48.869   5.105  1.00  0.00    +0.000 C 
ATOM    121  H21 UNL A   1      10.545  47.518   5.673  1.00  0.00    +0.000 H 
BRANCH   24   22
ATOM     22  C17 UNL A   1      11.759  45.537   7.070  1.00  0.00    +0.000 C 
ATOM     23  O4  UNL A   1      11.730  44.507   6.404  1.00  0.00    +0.000 O 
BRANCH   22   21
ATOM     21  N2  UNL A   1      11.210  45.567   8.332  1.00  0.00    +0.000 N 
ATOM    120  H20 UNL A   1      10.244  45.385   8.375  1.00  0.00    +0.000 H 
BRANCH   21   20
ATOM     20  C16 UNL A   1      11.849  45.830   9.613  1.00  0.00    +0.000 C 
ATOM    118  H18 UNL A   1      11.707  44.977  10.243  1.00  0.00    +0.000 H 
ATOM    119  H19 UNL A   1      12.883  46.023   9.415  1.00  0.00    +0.000 H 
BRANCH   20   19
ATOM     19  C15 UNL A   1      11.293  47.055  10.328  1.00  0.00    +0.000 C 
ATOM    116  H16 UNL A   1      10.380  47.331   9.843  1.00  0.00    +0.000 H 
ATOM    117  H17 UNL A   1      11.174  46.764  11.350  1.00  0.00    +0.000 H 
BRANCH   19   18
ATOM     18  C14 UNL A   1      12.201  48.283  10.352  1.00  0.00    +0.000 C 
ATOM    115  H15 UNL A   1      11.857  48.906   9.553  1.00  0.00    +0.000 H 
ATOM    114  H14 UNL A   1      13.210  47.943  10.248  1.00  0.00    +0.000 H 
BRANCH   18   17
ATOM     17  C13 UNL A   1      12.132  49.157  11.605  1.00  0.00    +0.000 C 
ATOM    113  H13 UNL A   1      11.601  50.036  11.303  1.00  0.00    +0.000 H 
ATOM    112  H12 UNL A   1      13.135  49.330  11.934  1.00  0.00    +0.000 H 
BRANCH   17   16
ATOM    110  H10 UNL A   1      10.896  47.684  12.476  1.00  0.00    +0.000 H 
ATOM    111  H11 UNL A   1      12.065  48.513  13.578  1.00  0.00    +0.000 H 
ATOM     16  C12 UNL A   1      11.345  48.603  12.792  1.00  0.00    +0.000 C 
BRANCH   16   15
ATOM    108  H8  UNL A   1      10.027  50.252  12.667  1.00  0.00    +0.000 H 
ATOM    109  H9  UNL A   1       9.416  48.820  13.559  1.00  0.00    +0.000 H 
ATOM     15  C11 UNL A   1      10.240  49.477  13.374  1.00  0.00    +0.000 C 
BRANCH   15   14
ATOM    107  H7  UNL A   1      10.343  49.549  15.435  1.00  0.00    +0.000 H 
ATOM     14  N1  UNL A   1      10.536  50.105  14.645  1.00  0.00    +0.000 N 
BRANCH   14   12
ATOM     12  C10 UNL A   1      11.045  51.354  14.927  1.00  0.00    +0.000 C 
ATOM     13  O3  UNL A   1      10.399  52.114  15.646  1.00  0.00    +0.000 O 
BRANCH   12   11
ATOM    135  H35 UNL A   1      12.002  53.742  13.886  1.00  0.00    +0.000 H 
ATOM    136  H36 UNL A   1      14.070  54.000  12.639  1.00  0.00    +0.000 H 
ATOM      9  C7  UNL A   1      14.682  51.030  14.034  1.00  0.00    +0.000 C 
ATOM    105  H5  UNL A   1      15.466  50.383  14.208  1.00  0.00    +0.000 H 
ATOM      8  C6  UNL A   1      14.837  52.110  13.174  1.00  0.00    +0.000 C 
ATOM     10  C8  UNL A   1      13.448  50.833  14.661  1.00  0.00    +0.000 C 
ATOM    106  H6  UNL A   1      13.300  50.001  15.253  1.00  0.00    +0.000 H 
ATOM     11  C9  UNL A   1      12.408  51.760  14.487  1.00  0.00    +0.000 C 
ATOM     87  C62 UNL A   1      12.684  52.968  13.848  1.00  0.00    +0.000 C 
ATOM     88  C63 UNL A   1      13.885  53.129  13.159  1.00  0.00    +0.000 C 
BRANCH    8    7
ATOM      7  O2  UNL A   1      15.929  52.282  12.378  1.00  0.00    +0.000 O 
BRANCH    7    6
ATOM      2  C2  UNL A   1      16.702  50.167   8.818  1.00  0.00    +0.000 C 
ATOM      3  C3  UNL A   1      17.518  50.003   9.861  1.00  0.00    +0.000 C 
ATOM    100  O7  UNL A   1      15.668  51.079   8.822  1.00  0.00    +0.000 O 
ATOM      4  C4  UNL A   1      17.274  50.784  11.081  1.00  0.00    +0.000 C 
ATOM      5  O1  UNL A   1      18.054  50.674  12.023  1.00  0.00    +0.000 O 
ATOM      6  C5  UNL A   1      16.083  51.694  11.128  1.00  0.00    +0.000 C 
ATOM    104  H4  UNL A   1      18.306  49.339   9.810  1.00  0.00    +0.000 H 
ATOM     89  C64 UNL A   1      15.391  51.828   9.964  1.00  0.00    +0.000 C 
BRANCH    2    1
ATOM      1  C1  UNL A   1      16.842  49.393   7.546  1.00  0.00    +0.000 C 
ATOM    101  H1  UNL A   1      17.537  49.889   6.902  1.00  0.00    +0.000 H 
ATOM    102  H2  UNL A   1      15.889  49.328   7.062  1.00  0.00    +0.000 H 
ATOM    103  H3  UNL A   1      17.199  48.408   7.766  1.00  0.00    +0.000 H 
ENDBRANCH    2    1
BRANCH   89   90
ATOM     98  C70 UNL A   1      13.346  54.944   9.275  1.00  0.00    +0.000 C 
ATOM     99  C71 UNL A   1      14.443  54.098   9.468  1.00  0.00    +0.000 C 
ATOM    137  H37 UNL A   1      12.802  51.186   9.743  1.00  0.00    +0.000 H 
ATOM    138  H38 UNL A   1      10.890  52.657   9.459  1.00  0.00    +0.000 H 
ATOM    142  H42 UNL A   1      13.491  55.955   9.123  1.00  0.00    +0.000 H 
ATOM    143  H43 UNL A   1      15.400  54.485   9.444  1.00  0.00    +0.000 H 
ATOM     90  C65 UNL A   1      14.251  52.727   9.695  1.00  0.00    +0.000 C 
ATOM     91  C66 UNL A   1      12.949  52.202   9.644  1.00  0.00    +0.000 C 
ATOM     92  C67 UNL A   1      11.847  53.045   9.463  1.00  0.00    +0.000 C 
ATOM     93  C68 UNL A   1      12.053  54.416   9.288  1.00  0.00    +0.000 C 
BRANCH   93   94
ATOM     97  O6  UNL A   1       9.947  55.210   7.944  1.00  0.00    +0.000 O 
ATOM     94  S1  UNL A   1      10.642  55.495   9.188  1.00  0.00    +0.000 S 
ATOM     96  O5  UNL A   1      11.099  56.831   9.509  1.00  0.00    +0.000 O 
BRANCH   94   95
ATOM    139  H39 UNL A   1       9.797  53.918  10.717  1.00  0.00    +0.000 H 
ATOM    140  H40 UNL A   1       8.572  55.064  10.224  1.00  0.00    +0.000 H 
ATOM    141  H41 UNL A   1       9.792  55.533  11.383  1.00  0.00    +0.000 H 
ATOM     95  C69 UNL A   1       9.597  54.949  10.508  1.00  0.00    +0.000 C 
ENDBRANCH   94   95
ENDBRANCH   93   94
ENDBRANCH   89   90
ENDBRANCH    7    6
ENDBRANCH    8    7
ENDBRANCH   12   11
ENDBRANCH   14   12
ENDBRANCH   15   14
ENDBRANCH   16   15
ENDBRANCH   17   16
ENDBRANCH   18   17
ENDBRANCH   19   18
ENDBRANCH   20   19
ENDBRANCH   21   20
ENDBRANCH   22   21
ENDBRANCH   24   22
ENDBRANCH   28   27
BRANCH   32   33
ATOM     33  C26 UNL A   1      16.807  48.555  -1.076  1.00  0.00    +0.000 C 
ATOM     34  C27 UNL A   1      15.982  48.275  -2.175  1.00  0.00    +0.000 C 
ATOM     35  F1  UNL A   1      14.845  48.965  -2.359  1.00  0.00    +0.000 F 
ATOM     36  C28 UNL A   1      16.306  47.266  -3.078  1.00  0.00    +0.000 C 
ATOM     37  F2  UNL A   1      15.483  46.994  -4.101  1.00  0.00    +0.000 F 
ATOM     38  C29 UNL A   1      17.478  46.541  -2.922  1.00  0.00    +0.000 C 
ATOM     39  F3  UNL A   1      17.798  45.584  -3.804  1.00  0.00    +0.000 F 
ATOM     40  C30 UNL A   1      18.315  46.807  -1.850  1.00  0.00    +0.000 C 
ATOM     41  F4  UNL A   1      19.456  46.119  -1.706  1.00  0.00    +0.000 F 
ATOM     42  C31 UNL A   1      17.978  47.794  -0.927  1.00  0.00    +0.000 C 
ATOM     43  F5  UNL A   1      18.807  48.024   0.101  1.00  0.00    +0.000 F 
ENDBRANCH   32   33
BRANCH   49   50
ATOM     50  C37 UNL A   1      17.952  55.656  -0.683  1.00  0.00    +0.000 C 
ATOM     51  C38 UNL A   1      17.257  56.409  -1.640  1.00  0.00    +0.000 C 
ATOM     52  F6  UNL A   1      15.968  56.145  -1.901  1.00  0.00    +0.000 F 
ATOM     53  C39 UNL A   1      17.893  57.417  -2.359  1.00  0.00    +0.000 C 
ATOM     54  F7  UNL A   1      17.221  58.094  -3.300  1.00  0.00    +0.000 F 
ATOM     55  C40 UNL A   1      19.224  57.716  -2.109  1.00  0.00    +0.000 C 
ATOM     56  F8  UNL A   1      19.832  58.698  -2.791  1.00  0.00    +0.000 F 
ATOM     57  C41 UNL A   1      19.927  56.995  -1.156  1.00  0.00    +0.000 C 
ATOM     58  F9  UNL A   1      21.209  57.295  -0.901  1.00  0.00    +0.000 F 
ATOM     59  C42 UNL A   1      19.303  55.964  -0.460  1.00  0.00    +0.000 C 
ATOM     60  F10 UNL A   1      20.013  55.279   0.450  1.00  0.00    +0.000 F 
ENDBRANCH   49   50
BRANCH   64   65
ATOM     65  C46 UNL A   1      14.510  55.813   5.383  1.00  0.00    +0.000 C 
ATOM     66  C47 UNL A   1      13.186  56.250   5.509  1.00  0.00    +0.000 C 
ATOM     67  F11 UNL A   1      12.228  55.719   4.735  1.00  0.00    +0.000 F 
ATOM     68  C48 UNL A   1      12.843  57.255   6.412  1.00  0.00    +0.000 C 
ATOM     69  F12 UNL A   1      11.575  57.680   6.488  1.00  0.00    +0.000 F 
ATOM     70  C49 UNL A   1      13.813  57.820   7.226  1.00  0.00    +0.000 C 
ATOM     71  F13 UNL A   1      13.481  58.774   8.106  1.00  0.00    +0.000 F 
ATOM     72  C50 UNL A   1      15.130  57.398   7.124  1.00  0.00    +0.000 C 
ATOM     73  F14 UNL A   1      16.067  57.927   7.922  1.00  0.00    +0.000 F 
ATOM     74  C51 UNL A   1      15.478  56.417   6.200  1.00  0.00    +0.000 C 
ATOM     75  F15 UNL A   1      16.761  56.033   6.118  1.00  0.00    +0.000 F 
ENDBRANCH   64   65
TORSDOF 21
ENDMDL
MODEL 3
REMARK VINA RESULT:      -8.0     38.602     45.715
ROOT
ATOM    129  H29 UNL A   1      16.939  22.032   3.836  1.00  0.00    +0.000 H 
ATOM    130  H30 UNL A   1      15.035  22.798   5.366  1.00  0.00    +0.000 H 
ATOM    131  H31 UNL A   1      16.057  14.486  10.930  1.00  0.00    +0.000 H 
ATOM    132  H32 UNL A   1      18.135  13.838   9.582  1.00  0.00    +0.000 H 
ATOM     28  C22 UNL A   1      18.672  15.576   7.378  1.00  0.00    +0.000 C 
ATOM     29  C23 UNL A   1      17.593  15.711   8.423  1.00  0.00    +0.000 C 
ATOM     30  N3  UNL A   1      16.688  16.648   8.563  1.00  0.00    +0.000 N 
ATOM     31  C24 UNL A   1      15.931  16.287   9.671  1.00  0.00    +0.000 C 
ATOM     32  C25 UNL A   1      14.905  16.956  10.249  1.00  0.00    +0.000 C 
ATOM     44  C32 UNL A   1      14.398  18.222   9.789  1.00  0.00    +0.000 C 
ATOM     45  C33 UNL A   1      13.375  18.986  10.323  1.00  0.00    +0.000 C 
ATOM     46  C34 UNL A   1      13.198  20.112   9.512  1.00  0.00    +0.000 C 
ATOM     47  C35 UNL A   1      14.150  20.081   8.506  1.00  0.00    +0.000 C 
ATOM     48  N4  UNL A   1      14.878  18.913   8.686  1.00  0.00    +0.000 N 
ATOM     49  C36 UNL A   1      14.374  21.038   7.453  1.00  0.00    +0.000 C 
ATOM     61  C43 UNL A   1      15.365  20.960   6.532  1.00  0.00    +0.000 C 
ATOM     62  N5  UNL A   1      16.339  19.982   6.382  1.00  0.00    +0.000 N 
ATOM     63  C44 UNL A   1      17.041  20.331   5.332  1.00  0.00    +0.000 C 
ATOM     64  C45 UNL A   1      18.228  19.646   4.713  1.00  0.00    +0.000 C 
ATOM     76  C52 UNL A   1      18.653  18.476   5.226  1.00  0.00    +0.000 C 
ATOM     77  C53 UNL A   1      19.777  17.695   4.721  1.00  0.00    +0.000 C 
ATOM     78  C54 UNL A   1      19.860  16.550   5.414  1.00  0.00    +0.000 C 
ATOM     79  C55 UNL A   1      18.839  16.549   6.461  1.00  0.00    +0.000 C 
ATOM     80  N6  UNL A   1      18.168  17.732   6.273  1.00  0.00    +0.000 N 
ATOM     81  C56 UNL A   1      16.581  21.568   4.686  1.00  0.00    +0.000 C 
ATOM     82  C57 UNL A   1      15.584  21.932   5.481  1.00  0.00    +0.000 C 
ATOM     83  C58 UNL A   1      16.457  15.026  10.146  1.00  0.00    +0.000 C 
ATOM     84  C59 UNL A   1      17.519  14.655   9.446  1.00  0.00    +0.000 C 
ATOM    123  H23 UNL A   1      12.834  18.764  11.174  1.00  0.00    +0.000 H 
ATOM    124  H24 UNL A   1      12.481  20.842   9.641  1.00  0.00    +0.000 H 
ATOM    125  H25 UNL A   1      15.625  18.620   8.115  1.00  0.00    +0.000 H 
ATOM    126  H26 UNL A   1      20.407  17.978   3.953  1.00  0.00    +0.000 H 
ATOM    127  H27 UNL A   1      20.538  15.792   5.236  1.00  0.00    +0.000 H 
ATOM    128  H28 UNL A   1      17.413  18.018   6.835  1.00  0.00    +0.000 H 
ENDROOT
BRANCH   28   27
ATOM    122  H22 UNL A   1      18.523  13.326   5.923  1.00  0.00    +0.000 H 
ATOM    133  H33 UNL A   1      20.856  15.114   8.936  1.00  0.00    +0.000 H 
ATOM    134  H34 UNL A   1      22.517  13.358   8.680  1.00  0.00    +0.000 H 
ATOM     85  C60 UNL A   1      20.722  14.378   8.225  1.00  0.00    +0.000 C 
ATOM     86  C61 UNL A   1      21.666  13.355   8.097  1.00  0.00    +0.000 C 
ATOM     24  C18 UNL A   1      21.453  12.325   7.174  1.00  0.00    +0.000 C 
ATOM     25  C19 UNL A   1      20.252  12.261   6.466  1.00  0.00    +0.000 C 
ATOM     26  C20 UNL A   1      19.362  13.328   6.523  1.00  0.00    +0.000 C 
ATOM     27  C21 UNL A   1      19.594  14.408   7.390  1.00  0.00    +0.000 C 
ATOM    121  H21 UNL A   1      20.027  11.426   5.902  1.00  0.00    +0.000 H 
BRANCH   24   22
ATOM     22  C17 UNL A   1      22.536  11.348   6.924  1.00  0.00    +0.000 C 
ATOM     23  O4  UNL A   1      22.893  10.591   7.821  1.00  0.00    +0.000 O 
BRANCH   22   21
ATOM     21  N2  UNL A   1      23.168  11.328   5.701  1.00  0.00    +0.000 N 
ATOM    120  H20 UNL A   1      23.874  12.003   5.582  1.00  0.00    +0.000 H 
BRANCH   21   20
ATOM     20  C16 UNL A   1      22.943  10.455   4.558  1.00  0.00    +0.000 C 
ATOM    118  H18 UNL A   1      23.892  10.109   4.205  1.00  0.00    +0.000 H 
ATOM    119  H19 UNL A   1      22.317   9.655   4.892  1.00  0.00    +0.000 H 
BRANCH   20   19
ATOM     19  C15 UNL A   1      22.221  11.140   3.404  1.00  0.00    +0.000 C 
ATOM    116  H16 UNL A   1      21.482  10.460   3.032  1.00  0.00    +0.000 H 
ATOM    117  H17 UNL A   1      21.819  12.043   3.811  1.00  0.00    +0.000 H 
BRANCH   19   18
ATOM     18  C14 UNL A   1      23.098  11.569   2.229  1.00  0.00    +0.000 C 
ATOM    115  H15 UNL A   1      22.426  12.000   1.517  1.00  0.00    +0.000 H 
ATOM    114  H14 UNL A   1      23.620  10.703   1.881  1.00  0.00    +0.000 H 
BRANCH   18   17
ATOM     17  C13 UNL A   1      24.137  12.654   2.516  1.00  0.00    +0.000 C 
ATOM    113  H13 UNL A   1      24.553  12.899   1.561  1.00  0.00    +0.000 H 
ATOM    112  H12 UNL A   1      24.836  12.254   3.221  1.00  0.00    +0.000 H 
BRANCH   17   16
ATOM    110  H10 UNL A   1      23.906  14.749   2.396  1.00  0.00    +0.000 H 
ATOM    111  H11 UNL A   1      22.564  13.832   3.186  1.00  0.00    +0.000 H 
ATOM     16  C12 UNL A   1      23.619  13.976   3.078  1.00  0.00    +0.000 C 
BRANCH   16   15
ATOM    108  H8  UNL A   1      24.203  13.501   5.054  1.00  0.00    +0.000 H 
ATOM    109  H9  UNL A   1      25.017  14.917   4.310  1.00  0.00    +0.000 H 
ATOM     15  C11 UNL A   1      24.100  14.389   4.465  1.00  0.00    +0.000 C 
BRANCH   15   14
ATOM    107  H7  UNL A   1      22.306  14.995   5.290  1.00  0.00    +0.000 H 
ATOM     14  N1  UNL A   1      23.236  15.302   5.186  1.00  0.00    +0.000 N 
BRANCH   14   12
ATOM     12  C10 UNL A   1      23.507  16.531   5.749  1.00  0.00    +0.000 C 
ATOM     13  O3  UNL A   1      23.795  17.474   5.015  1.00  0.00    +0.000 O 
BRANCH   12   11
ATOM    135  H35 UNL A   1      21.639  18.023   7.156  1.00  0.00    +0.000 H 
ATOM    136  H36 UNL A   1      21.908  18.823   9.434  1.00  0.00    +0.000 H 
ATOM      9  C7  UNL A   1      24.297  16.490   9.423  1.00  0.00    +0.000 C 
ATOM    105  H5  UNL A   1      24.894  15.965  10.080  1.00  0.00    +0.000 H 
ATOM      8  C6  UNL A   1      23.563  17.586   9.861  1.00  0.00    +0.000 C 
ATOM     10  C8  UNL A   1      24.214  16.110   8.081  1.00  0.00    +0.000 C 
ATOM    106  H6  UNL A   1      24.801  15.337   7.729  1.00  0.00    +0.000 H 
ATOM     11  C9  UNL A   1      23.339  16.774   7.208  1.00  0.00    +0.000 C 
ATOM     87  C62 UNL A   1      22.418  17.678   7.737  1.00  0.00    +0.000 C 
ATOM     88  C63 UNL A   1      22.553  18.112   9.055  1.00  0.00    +0.000 C 
BRANCH    8    7
ATOM      7  O2  UNL A   1      23.716  18.146  11.093  1.00  0.00    +0.000 O 
BRANCH    7    6
ATOM      2  C2  UNL A   1      24.906  22.046  12.148  1.00  0.00    +0.000 C 
ATOM      3  C3  UNL A   1      23.761  21.563  12.633  1.00  0.00    +0.000 C 
ATOM    100  O7  UNL A   1      25.672  21.358  11.232  1.00  0.00    +0.000 O 
ATOM      4  C4  UNL A   1      23.325  20.224  12.219  1.00  0.00    +0.000 C 
ATOM      5  O1  UNL A   1      22.246  19.797  12.622  1.00  0.00    +0.000 O 
ATOM      6  C5  UNL A   1      24.212  19.426  11.311  1.00  0.00    +0.000 C 
ATOM    104  H4  UNL A   1      23.193  22.122  13.289  1.00  0.00    +0.000 H 
ATOM     89  C64 UNL A   1      25.304  20.077  10.825  1.00  0.00    +0.000 C 
BRANCH    2    1
ATOM      1  C1  UNL A   1      25.456  23.382  12.538  1.00  0.00    +0.000 C 
ATOM    101  H1  UNL A   1      25.658  23.954  11.657  1.00  0.00    +0.000 H 
ATOM    102  H2  UNL A   1      26.361  23.247  13.093  1.00  0.00    +0.000 H 
ATOM    103  H3  UNL A   1      24.740  23.899  13.142  1.00  0.00    +0.000 H 
ENDBRANCH    2    1
BRANCH   89   90
ATOM     98  C70 UNL A   1      27.011  19.251   7.542  1.00  0.00    +0.000 C 
ATOM     99  C71 UNL A   1      26.104  19.785   8.464  1.00  0.00    +0.000 C 
ATOM    137  H37 UNL A   1      27.607  18.796  11.294  1.00  0.00    +0.000 H 
ATOM    138  H38 UNL A   1      29.158  17.823   9.697  1.00  0.00    +0.000 H 
ATOM    142  H42 UNL A   1      26.867  19.395   6.530  1.00  0.00    +0.000 H 
ATOM    143  H43 UNL A   1      25.296  20.335   8.130  1.00  0.00    +0.000 H 
ATOM     90  C65 UNL A   1      26.284  19.577   9.840  1.00  0.00    +0.000 C 
ATOM     91  C66 UNL A   1      27.430  18.896  10.283  1.00  0.00    +0.000 C 
ATOM     92  C67 UNL A   1      28.334  18.350   9.366  1.00  0.00    +0.000 C 
ATOM     93  C68 UNL A   1      28.114  18.525   7.997  1.00  0.00    +0.000 C 
BRANCH   93   94
ATOM     97  O6  UNL A   1      29.751  16.542   7.487  1.00  0.00    +0.000 O 
ATOM     94  S1  UNL A   1      29.196  17.718   6.838  1.00  0.00    +0.000 S 
ATOM     96  O5  UNL A   1      30.050  18.738   6.265  1.00  0.00    +0.000 O 
BRANCH   94   95
ATOM    139  H39 UNL A   1      28.654  17.025   4.655  1.00  0.00    +0.000 H 
ATOM    140  H40 UNL A   1      27.324  17.864   5.418  1.00  0.00    +0.000 H 
ATOM    141  H41 UNL A   1      27.680  16.210   5.855  1.00  0.00    +0.000 H 
ATOM     95  C69 UNL A   1      28.105  17.148   5.566  1.00  0.00    +0.000 C 
ENDBRANCH   94   95
ENDBRANCH   93   94
ENDBRANCH   89   90
ENDBRANCH    7    6
ENDBRANCH    8    7
ENDBRANCH   12   11
ENDBRANCH   14   12
ENDBRANCH   15   14
ENDBRANCH   16   15
ENDBRANCH   17   16
ENDBRANCH   18   17
ENDBRANCH   19   18
ENDBRANCH   20   19
ENDBRANCH   21   20
ENDBRANCH   22   21
ENDBRANCH   24   22
ENDBRANCH   28   27
BRANCH   32   33
ATOM     33  C26 UNL A   1      14.248  16.335  11.451  1.00  0.00    +0.000 C 
ATOM     34  C27 UNL A   1      14.545  16.759  12.754  1.00  0.00    +0.000 C 
ATOM     35  F1  UNL A   1      15.495  17.683  12.965  1.00  0.00    +0.000 F 
ATOM     36  C28 UNL A   1      13.885  16.215  13.854  1.00  0.00    +0.000 C 
ATOM     37  F2  UNL A   1      14.211  16.611  15.093  1.00  0.00    +0.000 F 
ATOM     38  C29 UNL A   1      12.892  15.264  13.672  1.00  0.00    +0.000 C 
ATOM     39  F3  UNL A   1      12.245  14.757  14.729  1.00  0.00    +0.000 F 
ATOM     40  C30 UNL A   1      12.573  14.838  12.391  1.00  0.00    +0.000 C 
ATOM     41  F4  UNL A   1      11.603  13.932  12.211  1.00  0.00    +0.000 F 
ATOM     42  C31 UNL A   1      13.253  15.356  11.292  1.00  0.00    +0.000 C 
ATOM     43  F5  UNL A   1      12.923  14.920  10.067  1.00  0.00    +0.000 F 
ENDBRANCH   32   33
BRANCH   49   50
ATOM     50  C37 UNL A   1      13.447  22.218   7.372  1.00  0.00    +0.000 C 
ATOM     51  C38 UNL A   1      13.660  23.368   8.145  1.00  0.00    +0.000 C 
ATOM     52  F6  UNL A   1      14.666  23.411   9.031  1.00  0.00    +0.000 F 
ATOM     53  C39 UNL A   1      12.817  24.472   8.035  1.00  0.00    +0.000 C 
ATOM     54  F7  UNL A   1      13.013  25.543   8.816  1.00  0.00    +0.000 F 
ATOM     55  C40 UNL A   1      11.771  24.460   7.125  1.00  0.00    +0.000 C 
ATOM     56  F8  UNL A   1      10.969  25.528   7.009  1.00  0.00    +0.000 F 
ATOM     57  C41 UNL A   1      11.551  23.339   6.339  1.00  0.00    +0.000 C 
ATOM     58  F9  UNL A   1      10.550  23.333   5.447  1.00  0.00    +0.000 F 
ATOM     59  C42 UNL A   1      12.371  22.222   6.471  1.00  0.00    +0.000 C 
ATOM     60  F10 UNL A   1      12.127  21.150   5.702  1.00  0.00    +0.000 F 
ENDBRANCH   49   50
BRANCH   64   65
ATOM     65  C46 UNL A   1      18.936  20.239   3.549  1.00  0.00    +0.000 C 
ATOM     66  C47 UNL A   1      18.347  20.246   2.277  1.00  0.00    +0.000 C 
ATOM     67  F11 UNL A   1      17.148  19.674   2.091  1.00  0.00    +0.000 F 
ATOM     68  C48 UNL A   1      18.999  20.816   1.186  1.00  0.00    +0.000 C 
ATOM     69  F12 UNL A   1      18.430  20.778  -0.026  1.00  0.00    +0.000 F 
ATOM     70  C49 UNL A   1      20.238  21.416   1.351  1.00  0.00    +0.000 C 
ATOM     71  F13 UNL A   1      20.858  21.980   0.305  1.00  0.00    +0.000 F 
ATOM     72  C50 UNL A   1      20.837  21.429   2.601  1.00  0.00    +0.000 C 
ATOM     73  F14 UNL A   1      22.025  22.025   2.770  1.00  0.00    +0.000 F 
ATOM     74  C51 UNL A   1      20.201  20.830   3.685  1.00  0.00    +0.000 C 
ATOM     75  F15 UNL A   1      20.807  20.852   4.882  1.00  0.00    +0.000 F 
ENDBRANCH   64   65
TORSDOF 21
ENDMDL
MODEL 4
REMARK VINA RESULT:      -7.9     33.596     38.589
ROOT
ATOM    129  H29 UNL A   1      17.784  53.385   0.193  1.00  0.00    +0.000 H 
ATOM    130  H30 UNL A   1      17.277  51.058  -0.747  1.00  0.00    +0.000 H 
ATOM    131  H31 UNL A   1      11.618  48.958   7.294  1.00  0.00    +0.000 H 
ATOM    132  H32 UNL A   1      11.890  51.368   8.115  1.00  0.00    +0.000 H 
ATOM     28  C22 UNL A   1      13.672  52.938   6.527  1.00  0.00    +0.000 C 
ATOM     29  C23 UNL A   1      13.217  51.521   6.282  1.00  0.00    +0.000 C 
ATOM     30  N3  UNL A   1      13.518  50.713   5.296  1.00  0.00    +0.000 N 
ATOM     31  C24 UNL A   1      12.850  49.522   5.559  1.00  0.00    +0.000 C 
ATOM     32  C25 UNL A   1      12.804  48.394   4.811  1.00  0.00    +0.000 C 
ATOM     44  C32 UNL A   1      13.474  48.230   3.547  1.00  0.00    +0.000 C 
ATOM     45  C33 UNL A   1      13.469  47.130   2.706  1.00  0.00    +0.000 C 
ATOM     46  C34 UNL A   1      14.304  47.405   1.618  1.00  0.00    +0.000 C 
ATOM     47  C35 UNL A   1      14.783  48.698   1.750  1.00  0.00    +0.000 C 
ATOM     48  N4  UNL A   1      14.268  49.192   2.941  1.00  0.00    +0.000 N 
ATOM     49  C36 UNL A   1      15.653  49.428   0.863  1.00  0.00    +0.000 C 
ATOM     61  C43 UNL A   1      16.037  50.716   1.040  1.00  0.00    +0.000 C 
ATOM     62  N5  UNL A   1      15.714  51.587   2.070  1.00  0.00    +0.000 N 
ATOM     63  C44 UNL A   1      16.354  52.701   1.814  1.00  0.00    +0.000 C 
ATOM     64  C45 UNL A   1      16.364  53.990   2.589  1.00  0.00    +0.000 C 
ATOM     76  C52 UNL A   1      15.686  54.065   3.749  1.00  0.00    +0.000 C 
ATOM     77  C53 UNL A   1      15.620  55.241   4.610  1.00  0.00    +0.000 C 
ATOM     78  C54 UNL A   1      14.932  54.932   5.719  1.00  0.00    +0.000 C 
ATOM     79  C55 UNL A   1      14.446  53.557   5.614  1.00  0.00    +0.000 C 
ATOM     80  N6  UNL A   1      14.943  53.119   4.411  1.00  0.00    +0.000 N 
ATOM     81  C56 UNL A   1      17.169  52.658   0.593  1.00  0.00    +0.000 C 
ATOM     82  C57 UNL A   1      16.908  51.441   0.137  1.00  0.00    +0.000 C 
ATOM     83  C58 UNL A   1      12.158  49.698   6.817  1.00  0.00    +0.000 C 
ATOM     84  C59 UNL A   1      12.305  50.932   7.277  1.00  0.00    +0.000 C 
ATOM    123  H23 UNL A   1      12.940  46.256   2.855  1.00  0.00    +0.000 H 
ATOM    124  H24 UNL A   1      14.525  46.756   0.847  1.00  0.00    +0.000 H 
ATOM    125  H25 UNL A   1      14.442  50.091   3.301  1.00  0.00    +0.000 H 
ATOM    126  H26 UNL A   1      16.037  56.162   4.400  1.00  0.00    +0.000 H 
ATOM    127  H27 UNL A   1      14.771  55.566   6.518  1.00  0.00    +0.000 H 
ATOM    128  H28 UNL A   1      14.782  52.215   4.058  1.00  0.00    +0.000 H 
ENDROOT
BRANCH   28   27
ATOM    122  H22 UNL A   1      11.424  54.364   6.861  1.00  0.00    +0.000 H 
ATOM    133  H33 UNL A   1      14.944  53.293   8.908  1.00  0.00    +0.000 H 
ATOM    134  H34 UNL A   1      14.022  54.216  10.959  1.00  0.00    +0.000 H 
ATOM     85  C60 UNL A   1      13.992  53.693   8.911  1.00  0.00    +0.000 C 
ATOM     86  C61 UNL A   1      13.474  54.246  10.085  1.00  0.00    +0.000 C 
ATOM     24  C18 UNL A   1      12.208  54.841  10.072  1.00  0.00    +0.000 C 
ATOM     25  C19 UNL A   1      11.515  54.981   8.869  1.00  0.00    +0.000 C 
ATOM     26  C20 UNL A   1      11.987  54.345   7.726  1.00  0.00    +0.000 C 
ATOM     27  C21 UNL A   1      13.223  53.678   7.736  1.00  0.00    +0.000 C 
ATOM    121  H21 UNL A   1      10.656  55.552   8.829  1.00  0.00    +0.000 H 
BRANCH   24   22
ATOM     22  C17 UNL A   1      11.599  55.264  11.354  1.00  0.00    +0.000 C 
ATOM     23  O4  UNL A   1      10.563  55.921  11.348  1.00  0.00    +0.000 O 
BRANCH   22   21
ATOM     21  N2  UNL A   1      12.225  54.958  12.541  1.00  0.00    +0.000 N 
ATOM    120  H20 UNL A   1      12.735  55.694  12.949  1.00  0.00    +0.000 H 
BRANCH   21   20
ATOM     20  C16 UNL A   1      12.243  53.705  13.280  1.00  0.00    +0.000 C 
ATOM    118  H18 UNL A   1      11.765  53.862  14.224  1.00  0.00    +0.000 H 
ATOM    119  H19 UNL A   1      11.735  52.979  12.682  1.00  0.00    +0.000 H 
BRANCH   20   19
ATOM     19  C15 UNL A   1      13.648  53.171  13.536  1.00  0.00    +0.000 C 
ATOM    116  H16 UNL A   1      14.313  53.667  12.859  1.00  0.00    +0.000 H 
ATOM    117  H17 UNL A   1      13.848  53.367  14.568  1.00  0.00    +0.000 H 
BRANCH   19   18
ATOM     18  C14 UNL A   1      13.833  51.666  13.356  1.00  0.00    +0.000 C 
ATOM    115  H15 UNL A   1      13.340  51.427  12.438  1.00  0.00    +0.000 H 
ATOM    114  H14 UNL A   1      13.424  51.184  14.219  1.00  0.00    +0.000 H 
BRANCH   18   17
ATOM     17  C13 UNL A   1      15.271  51.172  13.186  1.00  0.00    +0.000 C 
ATOM    113  H13 UNL A   1      15.179  50.181  12.792  1.00  0.00    +0.000 H 
ATOM    112  H12 UNL A   1      15.748  51.233  14.142  1.00  0.00    +0.000 H 
BRANCH   17   16
ATOM    110  H10 UNL A   1      15.492  52.481  11.544  1.00  0.00    +0.000 H 
ATOM    111  H11 UNL A   1      16.807  52.511  12.785  1.00  0.00    +0.000 H 
ATOM     16  C12 UNL A   1      16.145  51.923  12.183  1.00  0.00    +0.000 C 
BRANCH   16   15
ATOM    108  H8  UNL A   1      18.063  51.447  11.432  1.00  0.00    +0.000 H 
ATOM    109  H9  UNL A   1      16.915  50.078  11.585  1.00  0.00    +0.000 H 
ATOM     15  C11 UNL A   1      17.062  51.095  11.290  1.00  0.00    +0.000 C 
BRANCH   15   14
ATOM    107  H7  UNL A   1      17.272  51.825   9.370  1.00  0.00    +0.000 H 
ATOM     14  N1  UNL A   1      16.771  51.141   9.872  1.00  0.00    +0.000 N 
BRANCH   14   12
ATOM     12  C10 UNL A   1      15.907  50.383   9.112  1.00  0.00    +0.000 C 
ATOM     13  O3  UNL A   1      16.033  50.380   7.889  1.00  0.00    +0.000 O 
BRANCH   12   11
ATOM    135  H35 UNL A   1      15.989  47.663   9.655  1.00  0.00    +0.000 H 
ATOM    136  H36 UNL A   1      14.053  46.257  10.072  1.00  0.00    +0.000 H 
ATOM      9  C7  UNL A   1      12.634  49.238  10.563  1.00  0.00    +0.000 C 
ATOM    105  H5  UNL A   1      11.781  49.652  10.969  1.00  0.00    +0.000 H 
ATOM      8  C6  UNL A   1      12.721  47.867  10.354  1.00  0.00    +0.000 C 
ATOM     10  C8  UNL A   1      13.719  50.048  10.214  1.00  0.00    +0.000 C 
ATOM    106  H6  UNL A   1      13.645  51.073  10.307  1.00  0.00    +0.000 H 
ATOM     11  C9  UNL A   1      14.908  49.474   9.739  1.00  0.00    +0.000 C 
ATOM     87  C62 UNL A   1      15.061  48.090   9.805  1.00  0.00    +0.000 C 
ATOM     88  C63 UNL A   1      13.957  47.284  10.077  1.00  0.00    +0.000 C 
BRANCH    8    7
ATOM      7  O2  UNL A   1      11.661  47.022  10.484  1.00  0.00    +0.000 O 
BRANCH    7    6
ATOM      2  C2  UNL A   1       8.460  47.777  13.117  1.00  0.00    +0.000 C 
ATOM      3  C3  UNL A   1       9.485  47.033  13.537  1.00  0.00    +0.000 C 
ATOM    100  O7  UNL A   1       8.356  48.229  11.818  1.00  0.00    +0.000 O 
ATOM      4  C4  UNL A   1      10.572  46.729  12.598  1.00  0.00    +0.000 C 
ATOM      5  O1  UNL A   1      11.491  46.001  12.966  1.00  0.00    +0.000 O 
ATOM      6  C5  UNL A   1      10.517  47.314  11.218  1.00  0.00    +0.000 C 
ATOM    104  H4  UNL A   1       9.513  46.679  14.506  1.00  0.00    +0.000 H 
ATOM     89  C64 UNL A   1       9.373  47.978  10.899  1.00  0.00    +0.000 C 
BRANCH    2    1
ATOM      1  C1  UNL A   1       7.325  48.174  14.005  1.00  0.00    +0.000 C 
ATOM    101  H1  UNL A   1       7.447  49.193  14.305  1.00  0.00    +0.000 H 
ATOM    102  H2  UNL A   1       7.313  47.545  14.871  1.00  0.00    +0.000 H 
ATOM    103  H3  UNL A   1       6.402  48.067  13.474  1.00  0.00    +0.000 H 
ENDBRANCH    2    1
BRANCH   89   90
ATOM     98  C70 UNL A   1       8.499  48.319   7.226  1.00  0.00    +0.000 C 
ATOM     99  C71 UNL A   1       8.787  47.746   8.469  1.00  0.00    +0.000 C 
ATOM    137  H37 UNL A   1       8.940  50.551  10.303  1.00  0.00    +0.000 H 
ATOM    138  H38 UNL A   1       8.490  51.554   8.136  1.00  0.00    +0.000 H 
ATOM    142  H42 UNL A   1       8.354  47.717   6.399  1.00  0.00    +0.000 H 
ATOM    143  H43 UNL A   1       8.842  46.719   8.561  1.00  0.00    +0.000 H 
ATOM     90  C65 UNL A   1       9.004  48.558   9.593  1.00  0.00    +0.000 C 
ATOM     91  C66 UNL A   1       8.848  49.950   9.469  1.00  0.00    +0.000 C 
ATOM     92  C67 UNL A   1       8.572  50.528   8.226  1.00  0.00    +0.000 C 
ATOM     93  C68 UNL A   1       8.407  49.707   7.108  1.00  0.00    +0.000 C 
BRANCH   93   94
ATOM     97  O6  UNL A   1       9.468  50.448   4.829  1.00  0.00    +0.000 O 
ATOM     94  S1  UNL A   1       8.185  50.458   5.510  1.00  0.00    +0.000 S 
ATOM     96  O5  UNL A   1       7.446  51.687   5.711  1.00  0.00    +0.000 O 
BRANCH   94   95
ATOM    139  H39 UNL A   1       7.725  48.631   4.101  1.00  0.00    +0.000 H 
ATOM    140  H40 UNL A   1       6.495  49.866   3.982  1.00  0.00    +0.000 H 
ATOM    141  H41 UNL A   1       6.527  48.794   5.361  1.00  0.00    +0.000 H 
ATOM     95  C69 UNL A   1       7.128  49.326   4.654  1.00  0.00    +0.000 C 
ENDBRANCH   94   95
ENDBRANCH   93   94
ENDBRANCH   89   90
ENDBRANCH    7    6
ENDBRANCH    8    7
ENDBRANCH   12   11
ENDBRANCH   14   12
ENDBRANCH   15   14
ENDBRANCH   16   15
ENDBRANCH   17   16
ENDBRANCH   18   17
ENDBRANCH   19   18
ENDBRANCH   20   19
ENDBRANCH   21   20
ENDBRANCH   22   21
ENDBRANCH   24   22
ENDBRANCH   28   27
BRANCH   32   33
ATOM     33  C26 UNL A   1      12.002  47.235   5.333  1.00  0.00    +0.000 C 
ATOM     34  C27 UNL A   1      12.441  46.465   6.420  1.00  0.00    +0.000 C 
ATOM     35  F1  UNL A   1      13.641  46.701   6.974  1.00  0.00    +0.000 F 
ATOM     36  C28 UNL A   1      11.660  45.430   6.930  1.00  0.00    +0.000 C 
ATOM     37  F2  UNL A   1      12.116  44.687   7.948  1.00  0.00    +0.000 F 
ATOM     38  C29 UNL A   1      10.411  45.167   6.387  1.00  0.00    +0.000 C 
ATOM     39  F3  UNL A   1       9.653  44.184   6.892  1.00  0.00    +0.000 F 
ATOM     40  C30 UNL A   1       9.951  45.921   5.319  1.00  0.00    +0.000 C 
ATOM     41  F4  UNL A   1       8.739  45.680   4.802  1.00  0.00    +0.000 F 
ATOM     42  C31 UNL A   1      10.743  46.936   4.786  1.00  0.00    +0.000 C 
ATOM     43  F5  UNL A   1      10.271  47.645   3.750  1.00  0.00    +0.000 F 
ENDBRANCH   32   33
BRANCH   49   50
ATOM     50  C37 UNL A   1      16.167  48.714  -0.355  1.00  0.00    +0.000 C 
ATOM     51  C38 UNL A   1      15.404  48.629  -1.528  1.00  0.00    +0.000 C 
ATOM     52  F6  UNL A   1      14.160  49.129  -1.563  1.00  0.00    +0.000 F 
ATOM     53  C39 UNL A   1      15.905  47.999  -2.664  1.00  0.00    +0.000 C 
ATOM     54  F7  UNL A   1      15.141  47.889  -3.760  1.00  0.00    +0.000 F 
ATOM     55  C40 UNL A   1      17.189  47.475  -2.661  1.00  0.00    +0.000 C 
ATOM     56  F8  UNL A   1      17.675  46.882  -3.760  1.00  0.00    +0.000 F 
ATOM     57  C41 UNL A   1      17.967  47.561  -1.517  1.00  0.00    +0.000 C 
ATOM     58  F9  UNL A   1      19.215  47.071  -1.518  1.00  0.00    +0.000 F 
ATOM     59  C42 UNL A   1      17.457  48.161  -0.369  1.00  0.00    +0.000 C 
ATOM     60  F10 UNL A   1      18.232  48.222   0.725  1.00  0.00    +0.000 F 
ENDBRANCH   49   50
BRANCH   64   65
ATOM     65  C46 UNL A   1      17.111  55.177   2.095  1.00  0.00    +0.000 C 
ATOM     66  C47 UNL A   1      18.485  55.310   2.328  1.00  0.00    +0.000 C 
ATOM     67  F11 UNL A   1      19.137  54.380   3.043  1.00  0.00    +0.000 F 
ATOM     68  C48 UNL A   1      19.192  56.412   1.853  1.00  0.00    +0.000 C 
ATOM     69  F12 UNL A   1      20.500  56.533   2.120  1.00  0.00    +0.000 F 
ATOM     70  C49 UNL A   1      18.545  57.387   1.109  1.00  0.00    +0.000 C 
ATOM     71  F13 UNL A   1      19.229  58.438   0.636  1.00  0.00    +0.000 F 
ATOM     72  C50 UNL A   1      17.186  57.273   0.858  1.00  0.00    +0.000 C 
ATOM     73  F14 UNL A   1      16.560  58.202   0.123  1.00  0.00    +0.000 F 
ATOM     74  C51 UNL A   1      16.472  56.189   1.361  1.00  0.00    +0.000 C 
ATOM     75  F15 UNL A   1      15.157  56.108   1.109  1.00  0.00    +0.000 F 
ENDBRANCH   64   65
TORSDOF 21
ENDMDL
MODEL 5
REMARK VINA RESULT:      -7.9     38.713     44.728
ROOT
ATOM    129  H29 UNL A   1      24.082  17.673   4.828  1.00  0.00    +0.000 H 
ATOM    130  H30 UNL A   1      21.992  16.301   4.277  1.00  0.00    +0.000 H 
ATOM    131  H31 UNL A   1      17.692  24.378   0.110  1.00  0.00    +0.000 H 
ATOM    132  H32 UNL A   1      19.871  25.690   0.406  1.00  0.00    +0.000 H 
ATOM     28  C22 UNL A   1      21.896  24.266   1.833  1.00  0.00    +0.000 C 
ATOM     29  C23 UNL A   1      20.537  23.767   1.407  1.00  0.00    +0.000 C 
ATOM     30  N3  UNL A   1      19.998  22.586   1.577  1.00  0.00    +0.000 N 
ATOM     31  C24 UNL A   1      18.729  22.660   1.015  1.00  0.00    +0.000 C 
ATOM     32  C25 UNL A   1      17.798  21.684   0.897  1.00  0.00    +0.000 C 
ATOM     44  C32 UNL A   1      17.975  20.331   1.358  1.00  0.00    +0.000 C 
ATOM     45  C33 UNL A   1      17.095  19.266   1.263  1.00  0.00    +0.000 C 
ATOM     46  C34 UNL A   1      17.674  18.161   1.896  1.00  0.00    +0.000 C 
ATOM     47  C35 UNL A   1      18.939  18.519   2.333  1.00  0.00    +0.000 C 
ATOM     48  N4  UNL A   1      19.110  19.855   1.999  1.00  0.00    +0.000 N 
ATOM     49  C36 UNL A   1      19.916  17.708   3.013  1.00  0.00    +0.000 C 
ATOM     61  C43 UNL A   1      21.159  18.122   3.363  1.00  0.00    +0.000 C 
ATOM     62  N5  UNL A   1      21.747  19.364   3.175  1.00  0.00    +0.000 N 
ATOM     63  C44 UNL A   1      22.939  19.283   3.714  1.00  0.00    +0.000 C 
ATOM     64  C45 UNL A   1      24.018  20.327   3.795  1.00  0.00    +0.000 C 
ATOM     76  C52 UNL A   1      23.776  21.561   3.312  1.00  0.00    +0.000 C 
ATOM     77  C53 UNL A   1      24.720  22.674   3.337  1.00  0.00    +0.000 C 
ATOM     78  C54 UNL A   1      24.116  23.769   2.854  1.00  0.00    +0.000 C 
ATOM     79  C55 UNL A   1      22.764  23.418   2.418  1.00  0.00    +0.000 C 
ATOM     80  N6  UNL A   1      22.649  22.087   2.730  1.00  0.00    +0.000 N 
ATOM     81  C56 UNL A   1      23.237  17.978   4.319  1.00  0.00    +0.000 C 
ATOM     82  C57 UNL A   1      22.135  17.295   4.041  1.00  0.00    +0.000 C 
ATOM     83  C58 UNL A   1      18.562  24.012   0.531  1.00  0.00    +0.000 C 
ATOM     84  C59 UNL A   1      19.669  24.721   0.697  1.00  0.00    +0.000 C 
ATOM    123  H23 UNL A   1      16.170  19.284   0.805  1.00  0.00    +0.000 H 
ATOM    124  H24 UNL A   1      17.234  17.236   2.016  1.00  0.00    +0.000 H 
ATOM    125  H25 UNL A   1      19.917  20.386   2.188  1.00  0.00    +0.000 H 
ATOM    126  H26 UNL A   1      25.695  22.625   3.673  1.00  0.00    +0.000 H 
ATOM    127  H27 UNL A   1      24.539  24.709   2.798  1.00  0.00    +0.000 H 
ATOM    128  H28 UNL A   1      21.837  21.560   2.554  1.00  0.00    +0.000 H 
ENDROOT
BRANCH   28   27
ATOM    122  H22 UNL A   1      23.613  25.156  -0.028  1.00  0.00    +0.000 H 
ATOM    133  H33 UNL A   1      21.206  26.559   3.129  1.00  0.00    +0.000 H 
ATOM    134  H34 UNL A   1      21.632  28.847   2.426  1.00  0.00    +0.000 H 
ATOM     85  C60 UNL A   1      21.787  26.742   2.296  1.00  0.00    +0.000 C 
ATOM     86  C61 UNL A   1      22.051  28.059   1.908  1.00  0.00    +0.000 C 
ATOM     24  C18 UNL A   1      22.888  28.306   0.815  1.00  0.00    +0.000 C 
ATOM     25  C19 UNL A   1      23.543  27.247   0.184  1.00  0.00    +0.000 C 
ATOM     26  C20 UNL A   1      23.202  25.938   0.508  1.00  0.00    +0.000 C 
ATOM     27  C21 UNL A   1      22.308  25.668   1.555  1.00  0.00    +0.000 C 
ATOM    121  H21 UNL A   1      24.275  27.435  -0.519  1.00  0.00    +0.000 H 
BRANCH   24   22
ATOM     22  C17 UNL A   1      23.020  29.690   0.308  1.00  0.00    +0.000 C 
ATOM     23  O4  UNL A   1      23.891  30.425   0.762  1.00  0.00    +0.000 O 
BRANCH   22   21
ATOM     21  N2  UNL A   1      22.134  30.159  -0.636  1.00  0.00    +0.000 N 
ATOM    120  H20 UNL A   1      22.195  29.729  -1.519  1.00  0.00    +0.000 H 
BRANCH   21   20
ATOM     20  C16 UNL A   1      21.120  31.196  -0.519  1.00  0.00    +0.000 C 
ATOM    118  H18 UNL A   1      20.427  30.907   0.244  1.00  0.00    +0.000 H 
ATOM    119  H19 UNL A   1      21.628  32.107  -0.283  1.00  0.00    +0.000 H 
BRANCH   20   19
ATOM     19  C15 UNL A   1      20.344  31.435  -1.808  1.00  0.00    +0.000 C 
ATOM    116  H16 UNL A   1      19.408  31.884  -1.548  1.00  0.00    +0.000 H 
ATOM    117  H17 UNL A   1      20.973  32.054  -2.413  1.00  0.00    +0.000 H 
BRANCH   19   18
ATOM     18  C14 UNL A   1      20.051  30.194  -2.650  1.00  0.00    +0.000 C 
ATOM    115  H15 UNL A   1      20.867  29.527  -2.466  1.00  0.00    +0.000 H 
ATOM    114  H14 UNL A   1      19.954  30.509  -3.668  1.00  0.00    +0.000 H 
BRANCH   18   17
ATOM     17  C13 UNL A   1      18.792  29.406  -2.286  1.00  0.00    +0.000 C 
ATOM    113  H13 UNL A   1      18.118  29.566  -3.101  1.00  0.00    +0.000 H 
ATOM    112  H12 UNL A   1      18.447  29.768  -1.340  1.00  0.00    +0.000 H 
BRANCH   17   16
ATOM    110  H10 UNL A   1      18.180  27.544  -1.500  1.00  0.00    +0.000 H 
ATOM    111  H11 UNL A   1      18.844  27.533  -3.182  1.00  0.00    +0.000 H 
ATOM     16  C12 UNL A   1      18.935  27.889  -2.176  1.00  0.00    +0.000 C 
BRANCH   16   15
ATOM    108  H8  UNL A   1      21.005  28.111  -1.806  1.00  0.00    +0.000 H 
ATOM    109  H9  UNL A   1      20.112  27.044  -0.674  1.00  0.00    +0.000 H 
ATOM     15  C11 UNL A   1      20.271  27.340  -1.689  1.00  0.00    +0.000 C 
BRANCH   15   14
ATOM    107  H7  UNL A   1      20.141  25.389  -2.352  1.00  0.00    +0.000 H 
ATOM     14  N1  UNL A   1      20.756  26.159  -2.373  1.00  0.00    +0.000 N 
BRANCH   14   12
ATOM     12  C10 UNL A   1      21.936  25.939  -3.049  1.00  0.00    +0.000 C 
ATOM     13  O3  UNL A   1      22.734  26.866  -3.175  1.00  0.00    +0.000 O 
BRANCH   12   11
ATOM    135  H35 UNL A   1      20.696  23.473  -2.763  1.00  0.00    +0.000 H 
ATOM    136  H36 UNL A   1      21.782  21.317  -3.026  1.00  0.00    +0.000 H 
ATOM      9  C7  UNL A   1      24.053  23.225  -4.559  1.00  0.00    +0.000 C 
ATOM    105  H5  UNL A   1      24.868  23.137  -5.185  1.00  0.00    +0.000 H 
ATOM      8  C6  UNL A   1      23.509  22.100  -3.951  1.00  0.00    +0.000 C 
ATOM     10  C8  UNL A   1      23.481  24.475  -4.308  1.00  0.00    +0.000 C 
ATOM    106  H6  UNL A   1      23.913  25.325  -4.704  1.00  0.00    +0.000 H 
ATOM     11  C9  UNL A   1      22.324  24.582  -3.522  1.00  0.00    +0.000 C 
ATOM     87  C62 UNL A   1      21.646  23.417  -3.161  1.00  0.00    +0.000 C 
ATOM     88  C63 UNL A   1      22.256  22.177  -3.342  1.00  0.00    +0.000 C 
BRANCH    8    7
ATOM      7  O2  UNL A   1      24.099  20.873  -3.981  1.00  0.00    +0.000 O 
BRANCH    7    6
ATOM      2  C2  UNL A   1      27.181  19.482  -1.468  1.00  0.00    +0.000 C 
ATOM      3  C3  UNL A   1      25.913  19.206  -1.155  1.00  0.00    +0.000 C 
ATOM    100  O7  UNL A   1      27.522  20.292  -2.530  1.00  0.00    +0.000 O 
ATOM      4  C4  UNL A   1      24.841  19.739  -2.006  1.00  0.00    +0.000 C 
ATOM      5  O1  UNL A   1      23.672  19.531  -1.691  1.00  0.00    +0.000 O 
ATOM      6  C5  UNL A   1      25.214  20.526  -3.226  1.00  0.00    +0.000 C 
ATOM    104  H4  UNL A   1      25.691  18.628  -0.330  1.00  0.00    +0.000 H 
ATOM     89  C64 UNL A   1      26.538  20.804  -3.373  1.00  0.00    +0.000 C 
BRANCH    2    1
ATOM      1  C1  UNL A   1      28.344  18.955  -0.689  1.00  0.00    +0.000 C 
ATOM    101  H1  UNL A   1      28.046  18.788   0.325  1.00  0.00    +0.000 H 
ATOM    102  H2  UNL A   1      29.142  19.668  -0.715  1.00  0.00    +0.000 H 
ATOM    103  H3  UNL A   1      28.674  18.034  -1.121  1.00  0.00    +0.000 H 
ENDBRANCH    2    1
BRANCH   89   90
ATOM     98  C70 UNL A   1      28.428  23.612  -5.081  1.00  0.00    +0.000 C 
ATOM     99  C71 UNL A   1      27.887  22.800  -4.078  1.00  0.00    +0.000 C 
ATOM    137  H37 UNL A   1      26.609  20.377  -6.014  1.00  0.00    +0.000 H 
ATOM    138  H38 UNL A   1      27.503  21.808  -7.762  1.00  0.00    +0.000 H 
ATOM    142  H42 UNL A   1      28.942  24.472  -4.831  1.00  0.00    +0.000 H 
ATOM    143  H43 UNL A   1      28.014  23.056  -3.086  1.00  0.00    +0.000 H 
ATOM     90  C65 UNL A   1      27.172  21.640  -4.412  1.00  0.00    +0.000 C 
ATOM     91  C66 UNL A   1      27.075  21.262  -5.762  1.00  0.00    +0.000 C 
ATOM     92  C67 UNL A   1      27.604  22.076  -6.769  1.00  0.00    +0.000 C 
ATOM     93  C68 UNL A   1      28.271  23.253  -6.422  1.00  0.00    +0.000 C 
BRANCH   93   94
ATOM     97  O6  UNL A   1      28.578  23.693  -8.987  1.00  0.00    +0.000 O 
ATOM     94  S1  UNL A   1      28.826  24.345  -7.713  1.00  0.00    +0.000 S 
ATOM     96  O5  UNL A   1      30.147  24.809  -7.345  1.00  0.00    +0.000 O 
BRANCH   94   95
ATOM    139  H39 UNL A   1      28.143  26.560  -8.121  1.00  0.00    +0.000 H 
ATOM    140  H40 UNL A   1      27.565  25.978  -6.578  1.00  0.00    +0.000 H 
ATOM    141  H41 UNL A   1      26.784  25.465  -8.054  1.00  0.00    +0.000 H 
ATOM     95  C69 UNL A   1      27.720  25.723  -7.605  1.00  0.00    +0.000 C 
ENDBRANCH   94   95
ENDBRANCH   93   94
ENDBRANCH   89   90
ENDBRANCH    7    6
ENDBRANCH    8    7
ENDBRANCH   12   11
ENDBRANCH   14   12
ENDBRANCH   15   14
ENDBRANCH   16   15
ENDBRANCH   17   16
ENDBRANCH   18   17
ENDBRANCH   19   18
ENDBRANCH   20   19
ENDBRANCH   21   20
ENDBRANCH   22   21
ENDBRANCH   24   22
ENDBRANCH   28   27
BRANCH   32   33
ATOM     33  C26 UNL A   1      16.490  22.033   0.243  1.00  0.00    +0.000 C 
ATOM     34  C27 UNL A   1      15.437  22.616   0.965  1.00  0.00    +0.000 C 
ATOM     35  F1  UNL A   1      15.548  22.801   2.290  1.00  0.00    +0.000 F 
ATOM     36  C28 UNL A   1      14.252  22.988   0.334  1.00  0.00    +0.000 C 
ATOM     37  F2  UNL A   1      13.248  23.510   1.052  1.00  0.00    +0.000 F 
ATOM     38  C29 UNL A   1      14.109  22.818  -1.034  1.00  0.00    +0.000 C 
ATOM     39  F3  UNL A   1      12.976  23.195  -1.643  1.00  0.00    +0.000 F 
ATOM     40  C30 UNL A   1      15.139  22.255  -1.771  1.00  0.00    +0.000 C 
ATOM     41  F4  UNL A   1      15.010  22.105  -3.096  1.00  0.00    +0.000 F 
ATOM     42  C31 UNL A   1      16.313  21.853  -1.138  1.00  0.00    +0.000 C 
ATOM     43  F5  UNL A   1      17.289  21.308  -1.879  1.00  0.00    +0.000 F 
ENDBRANCH   32   33
BRANCH   49   50
ATOM     50  C37 UNL A   1      19.537  16.294   3.351  1.00  0.00    +0.000 C 
ATOM     51  C38 UNL A   1      19.808  15.235   2.473  1.00  0.00    +0.000 C 
ATOM     52  F6  UNL A   1      20.353  15.476   1.271  1.00  0.00    +0.000 F 
ATOM     53  C39 UNL A   1      19.487  13.923   2.812  1.00  0.00    +0.000 C 
ATOM     54  F7  UNL A   1      19.713  12.932   1.939  1.00  0.00    +0.000 F 
ATOM     55  C40 UNL A   1      18.926  13.641   4.049  1.00  0.00    +0.000 C 
ATOM     56  F8  UNL A   1      18.632  12.376   4.380  1.00  0.00    +0.000 F 
ATOM     57  C41 UNL A   1      18.665  14.671   4.940  1.00  0.00    +0.000 C 
ATOM     58  F9  UNL A   1      18.139  14.398   6.142  1.00  0.00    +0.000 F 
ATOM     59  C42 UNL A   1      18.953  15.987   4.590  1.00  0.00    +0.000 C 
ATOM     60  F10 UNL A   1      18.681  16.962   5.470  1.00  0.00    +0.000 F 
ENDBRANCH   49   50
BRANCH   64   65
ATOM     65  C46 UNL A   1      25.341  20.020   4.397  1.00  0.00    +0.000 C 
ATOM     66  C47 UNL A   1      26.447  19.722   3.589  1.00  0.00    +0.000 C 
ATOM     67  F11 UNL A   1      26.307  19.669   2.256  1.00  0.00    +0.000 F 
ATOM     68  C48 UNL A   1      27.694  19.450   4.148  1.00  0.00    +0.000 C 
ATOM     69  F12 UNL A   1      28.726  19.134   3.354  1.00  0.00    +0.000 F 
ATOM     70  C49 UNL A   1      27.866  19.501   5.523  1.00  0.00    +0.000 C 
ATOM     71  F13 UNL A   1      29.070  19.257   6.059  1.00  0.00    +0.000 F 
ATOM     72  C50 UNL A   1      26.789  19.802   6.342  1.00  0.00    +0.000 C 
ATOM     73  F14 UNL A   1      26.956  19.871   7.670  1.00  0.00    +0.000 F 
ATOM     74  C51 UNL A   1      25.536  20.041   5.786  1.00  0.00    +0.000 C 
ATOM     75  F15 UNL A   1      24.510  20.322   6.604  1.00  0.00    +0.000 F 
ENDBRANCH   64   65
TORSDOF 21
ENDMDL
MODEL 6
REMARK VINA RESULT:      -7.8     33.658     38.250
ROOT
ATOM    129  H29 UNL A   1      18.441  53.007  -0.891  1.00  0.00    +0.000 H 
ATOM    130  H30 UNL A   1      17.938  50.560  -1.452  1.00  0.00    +0.000 H 
ATOM    131  H31 UNL A   1      11.639  49.980   6.362  1.00  0.00    +0.000 H 
ATOM    132  H32 UNL A   1      11.917  52.491   6.773  1.00  0.00    +0.000 H 
ATOM     28  C22 UNL A   1      13.857  53.733   5.083  1.00  0.00    +0.000 C 
ATOM     29  C23 UNL A   1      13.381  52.302   5.052  1.00  0.00    +0.000 C 
ATOM     30  N3  UNL A   1      13.731  51.330   4.246  1.00  0.00    +0.000 N 
ATOM     31  C24 UNL A   1      13.012  50.214   4.658  1.00  0.00    +0.000 C 
ATOM     32  C25 UNL A   1      12.989  48.974   4.114  1.00  0.00    +0.000 C 
ATOM     44  C32 UNL A   1      13.747  48.581   2.954  1.00  0.00    +0.000 C 
ATOM     45  C33 UNL A   1      13.773  47.352   2.318  1.00  0.00    +0.000 C 
ATOM     46  C34 UNL A   1      14.694  47.421   1.267  1.00  0.00    +0.000 C 
ATOM     47  C35 UNL A   1      15.199  48.710   1.212  1.00  0.00    +0.000 C 
ATOM     48  N4  UNL A   1      14.611  49.411   2.255  1.00  0.00    +0.000 N 
ATOM     49  C36 UNL A   1      16.153  49.260   0.283  1.00  0.00    +0.000 C 
ATOM     61  C43 UNL A   1      16.560  50.553   0.264  1.00  0.00    +0.000 C 
ATOM     62  N5  UNL A   1      16.186  51.595   1.100  1.00  0.00    +0.000 N 
ATOM     63  C44 UNL A   1      16.875  52.638   0.706  1.00  0.00    +0.000 C 
ATOM     64  C45 UNL A   1      16.864  54.042   1.245  1.00  0.00    +0.000 C 
ATOM     76  C52 UNL A   1      16.103  54.328   2.318  1.00  0.00    +0.000 C 
ATOM     77  C53 UNL A   1      16.008  55.637   2.956  1.00  0.00    +0.000 C 
ATOM     78  C54 UNL A   1      15.230  55.537   4.044  1.00  0.00    +0.000 C 
ATOM     79  C55 UNL A   1      14.714  54.172   4.140  1.00  0.00    +0.000 C 
ATOM     80  N6  UNL A   1      15.286  53.524   3.074  1.00  0.00    +0.000 N 
ATOM     81  C56 UNL A   1      17.777  52.371  -0.422  1.00  0.00    +0.000 C 
ATOM     82  C57 UNL A   1      17.515  51.096  -0.679  1.00  0.00    +0.000 C 
ATOM     83  C58 UNL A   1      12.234  50.617   5.808  1.00  0.00    +0.000 C 
ATOM     84  C59 UNL A   1      12.381  51.910   6.058  1.00  0.00    +0.000 C 
ATOM    123  H23 UNL A   1      13.210  46.526   2.574  1.00  0.00    +0.000 H 
ATOM    124  H24 UNL A   1      14.953  46.644   0.640  1.00  0.00    +0.000 H 
ATOM    125  H25 UNL A   1      14.783  50.357   2.467  1.00  0.00    +0.000 H 
ATOM    126  H26 UNL A   1      16.465  56.501   2.623  1.00  0.00    +0.000 H 
ATOM    127  H27 UNL A   1      15.028  56.302   4.707  1.00  0.00    +0.000 H 
ATOM    128  H28 UNL A   1      15.126  52.575   2.871  1.00  0.00    +0.000 H 
ENDROOT
BRANCH   28   27
ATOM    122  H22 UNL A   1      11.676  55.292   4.955  1.00  0.00    +0.000 H 
ATOM    133  H33 UNL A   1      14.917  54.417   7.496  1.00  0.00    +0.000 H 
ATOM    134  H34 UNL A   1      13.862  55.701   9.269  1.00  0.00    +0.000 H 
ATOM     85  C60 UNL A   1      13.995  54.852   7.338  1.00  0.00    +0.000 C 
ATOM     86  C61 UNL A   1      13.401  55.612   8.351  1.00  0.00    +0.000 C 
ATOM     24  C18 UNL A   1      12.180  56.251   8.114  1.00  0.00    +0.000 C 
ATOM     25  C19 UNL A   1      11.614  56.223   6.839  1.00  0.00    +0.000 C 
ATOM     26  C20 UNL A   1      12.153  55.389   5.865  1.00  0.00    +0.000 C 
ATOM     27  C21 UNL A   1      13.340  54.680   6.107  1.00  0.00    +0.000 C 
ATOM    121  H21 UNL A   1      10.798  56.817   6.620  1.00  0.00    +0.000 H 
BRANCH   24   22
ATOM     22  C17 UNL A   1      11.479  56.904   9.242  1.00  0.00    +0.000 C 
ATOM     23  O4  UNL A   1      11.778  58.050   9.564  1.00  0.00    +0.000 O 
BRANCH   22   21
ATOM     21  N2  UNL A   1      10.530  56.204   9.953  1.00  0.00    +0.000 N 
ATOM    120  H20 UNL A   1       9.893  56.757  10.460  1.00  0.00    +0.000 H 
BRANCH   21   20
ATOM     20  C16 UNL A   1      10.331  54.767  10.064  1.00  0.00    +0.000 C 
ATOM    118  H18 UNL A   1      11.245  54.278   9.798  1.00  0.00    +0.000 H 
ATOM    119  H19 UNL A   1      10.041  54.567  11.074  1.00  0.00    +0.000 H 
BRANCH   20   19
ATOM     19  C15 UNL A   1       9.222  54.237   9.165  1.00  0.00    +0.000 C 
ATOM    116  H16 UNL A   1       8.384  53.995   9.786  1.00  0.00    +0.000 H 
ATOM    117  H17 UNL A   1       9.028  55.013   8.455  1.00  0.00    +0.000 H 
BRANCH   19   18
ATOM     18  C14 UNL A   1       9.566  52.999   8.339  1.00  0.00    +0.000 C 
ATOM    115  H15 UNL A   1      10.613  53.077   8.134  1.00  0.00    +0.000 H 
ATOM    114  H14 UNL A   1       8.940  53.003   7.471  1.00  0.00    +0.000 H 
BRANCH   18   17
ATOM     17  C13 UNL A   1       9.388  51.647   9.033  1.00  0.00    +0.000 C 
ATOM    113  H13 UNL A   1       9.473  51.858  10.079  1.00  0.00    +0.000 H 
ATOM    112  H12 UNL A   1      10.135  50.985   8.646  1.00  0.00    +0.000 H 
BRANCH   17   16
ATOM    110  H10 UNL A   1       7.928  50.265   9.678  1.00  0.00    +0.000 H 
ATOM    111  H11 UNL A   1       7.322  51.760   8.862  1.00  0.00    +0.000 H 
ATOM     16  C12 UNL A   1       8.033  50.960   8.871  1.00  0.00    +0.000 C 
BRANCH   16   15
ATOM    108  H8  UNL A   1       6.731  50.247   7.365  1.00  0.00    +0.000 H 
ATOM    109  H9  UNL A   1       8.392  50.669   6.836  1.00  0.00    +0.000 H 
ATOM     15  C11 UNL A   1       7.780  50.199   7.575  1.00  0.00    +0.000 C 
BRANCH   15   14
ATOM    107  H7  UNL A   1       8.155  48.370   6.693  1.00  0.00    +0.000 H 
ATOM     14  N1  UNL A   1       8.168  48.803   7.578  1.00  0.00    +0.000 N 
BRANCH   14   12
ATOM     12  C10 UNL A   1       8.551  47.984   8.617  1.00  0.00    +0.000 C 
ATOM     13  O3  UNL A   1       7.694  47.338   9.217  1.00  0.00    +0.000 O 
BRANCH   12   11
ATOM    135  H35 UNL A   1       9.815  45.979  10.061  1.00  0.00    +0.000 H 
ATOM    136  H36 UNL A   1      12.032  46.140  11.041  1.00  0.00    +0.000 H 
ATOM      9  C7  UNL A   1      12.231  48.697   8.903  1.00  0.00    +0.000 C 
ATOM    105  H5  UNL A   1      12.934  49.317   8.474  1.00  0.00    +0.000 H 
ATOM      8  C6  UNL A   1      12.575  47.873   9.968  1.00  0.00    +0.000 C 
ATOM     10  C8  UNL A   1      10.918  48.672   8.422  1.00  0.00    +0.000 C 
ATOM    106  H6  UNL A   1      10.634  49.322   7.672  1.00  0.00    +0.000 H 
ATOM     11  C9  UNL A   1       9.985  47.767   8.953  1.00  0.00    +0.000 C 
ATOM     87  C62 UNL A   1      10.432  46.770   9.819  1.00  0.00    +0.000 C 
ATOM     88  C63 UNL A   1      11.716  46.844  10.356  1.00  0.00    +0.000 C 
BRANCH    8    7
ATOM      7  O2  UNL A   1      13.764  47.957  10.626  1.00  0.00    +0.000 O 
BRANCH    7    6
ATOM      2  C2  UNL A   1      16.999  50.245   9.193  1.00  0.00    +0.000 C 
ATOM      3  C3  UNL A   1      16.930  48.950   8.880  1.00  0.00    +0.000 C 
ATOM    100  O7  UNL A   1      16.105  50.848  10.052  1.00  0.00    +0.000 O 
ATOM      4  C4  UNL A   1      15.829  48.146   9.427  1.00  0.00    +0.000 C 
ATOM      5  O1  UNL A   1      15.793  46.942   9.183  1.00  0.00    +0.000 O 
ATOM      6  C5  UNL A   1      14.792  48.824  10.270  1.00  0.00    +0.000 C 
ATOM    104  H4  UNL A   1      17.638  48.521   8.264  1.00  0.00    +0.000 H 
ATOM     89  C64 UNL A   1      15.036  50.126  10.579  1.00  0.00    +0.000 C 
BRANCH    2    1
ATOM      1  C1  UNL A   1      18.057  51.156   8.658  1.00  0.00    +0.000 C 
ATOM    101  H1  UNL A   1      18.871  51.202   9.351  1.00  0.00    +0.000 H 
ATOM    102  H2  UNL A   1      17.648  52.136   8.521  1.00  0.00    +0.000 H 
ATOM    103  H3  UNL A   1      18.408  50.781   7.719  1.00  0.00    +0.000 H 
ENDBRANCH    2    1
BRANCH   89   90
ATOM     98  C70 UNL A   1      13.991  52.252  13.540  1.00  0.00    +0.000 C 
ATOM     99  C71 UNL A   1      14.775  51.473  12.682  1.00  0.00    +0.000 C 
ATOM    137  H37 UNL A   1      12.577  51.104  10.175  1.00  0.00    +0.000 H 
ATOM    138  H38 UNL A   1      11.194  52.412  11.684  1.00  0.00    +0.000 H 
ATOM    142  H42 UNL A   1      14.379  52.584  14.438  1.00  0.00    +0.000 H 
ATOM    143  H43 UNL A   1      15.747  51.244  12.941  1.00  0.00    +0.000 H 
ATOM     90  C65 UNL A   1      14.248  51.002  11.470  1.00  0.00    +0.000 C 
ATOM     91  C66 UNL A   1      12.950  51.389  11.093  1.00  0.00    +0.000 C 
ATOM     92  C67 UNL A   1      12.158  52.157  11.953  1.00  0.00    +0.000 C 
ATOM     93  C68 UNL A   1      12.682  52.577  13.178  1.00  0.00    +0.000 C 
BRANCH   93   94
ATOM     97  O6  UNL A   1      12.033  54.836  14.338  1.00  0.00    +0.000 O 
ATOM     94  S1  UNL A   1      11.625  53.442  14.319  1.00  0.00    +0.000 S 
ATOM     96  O5  UNL A   1      11.567  52.655  15.533  1.00  0.00    +0.000 O 
BRANCH   94   95
ATOM    139  H39 UNL A   1       9.347  53.990  14.099  1.00  0.00    +0.000 H 
ATOM    140  H40 UNL A   1       9.678  52.363  13.552  1.00  0.00    +0.000 H 
ATOM    141  H41 UNL A   1      10.102  53.728  12.547  1.00  0.00    +0.000 H 
ATOM     95  C69 UNL A   1      10.031  53.373  13.553  1.00  0.00    +0.000 C 
ENDBRANCH   94   95
ENDBRANCH   93   94
ENDBRANCH   89   90
ENDBRANCH    7    6
ENDBRANCH    8    7
ENDBRANCH   12   11
ENDBRANCH   14   12
ENDBRANCH   15   14
ENDBRANCH   16   15
ENDBRANCH   17   16
ENDBRANCH   18   17
ENDBRANCH   19   18
ENDBRANCH   20   19
ENDBRANCH   21   20
ENDBRANCH   22   21
ENDBRANCH   24   22
ENDBRANCH   28   27
BRANCH   32   33
ATOM     33  C26 UNL A   1      12.118  47.935   4.764  1.00  0.00    +0.000 C 
ATOM     34  C27 UNL A   1      10.771  47.775   4.407  1.00  0.00    +0.000 C 
ATOM     35  F1  UNL A   1      10.202  48.611   3.524  1.00  0.00    +0.000 F 
ATOM     36  C28 UNL A   1       9.992  46.770   4.976  1.00  0.00    +0.000 C 
ATOM     37  F2  UNL A   1       8.698  46.659   4.645  1.00  0.00    +0.000 F 
ATOM     38  C29 UNL A   1      10.551  45.884   5.885  1.00  0.00    +0.000 C 
ATOM     39  F3  UNL A   1       9.805  44.906   6.415  1.00  0.00    +0.000 F 
ATOM     40  C30 UNL A   1      11.884  46.016   6.244  1.00  0.00    +0.000 C 
ATOM     41  F4  UNL A   1      12.431  45.152   7.109  1.00  0.00    +0.000 F 
ATOM     42  C31 UNL A   1      12.657  47.039   5.701  1.00  0.00    +0.000 C 
ATOM     43  F5  UNL A   1      13.942  47.142   6.073  1.00  0.00    +0.000 F 
ENDBRANCH   32   33
BRANCH   49   50
ATOM     50  C37 UNL A   1      16.736  48.337  -0.750  1.00  0.00    +0.000 C 
ATOM     51  C38 UNL A   1      18.017  47.788  -0.600  1.00  0.00    +0.000 C 
ATOM     52  F6  UNL A   1      18.783  48.135   0.445  1.00  0.00    +0.000 F 
ATOM     53  C39 UNL A   1      18.532  46.904  -1.544  1.00  0.00    +0.000 C 
ATOM     54  F7  UNL A   1      19.777  46.427  -1.404  1.00  0.00    +0.000 F 
ATOM     55  C40 UNL A   1      17.764  46.523  -2.634  1.00  0.00    +0.000 C 
ATOM     56  F8  UNL A   1      18.255  45.659  -3.534  1.00  0.00    +0.000 F 
ATOM     57  C41 UNL A   1      16.487  47.040  -2.794  1.00  0.00    +0.000 C 
ATOM     58  F9  UNL A   1      15.737  46.660  -3.837  1.00  0.00    +0.000 F 
ATOM     59  C42 UNL A   1      15.982  47.951  -1.870  1.00  0.00    +0.000 C 
ATOM     60  F10 UNL A   1      14.747  48.440  -2.057  1.00  0.00    +0.000 F 
ENDBRANCH   49   50
BRANCH   64   65
ATOM     65  C46 UNL A   1      17.679  55.113   0.614  1.00  0.00    +0.000 C 
ATOM     66  C47 UNL A   1      17.227  55.777  -0.534  1.00  0.00    +0.000 C 
ATOM     67  F11 UNL A   1      16.067  55.418  -1.103  1.00  0.00    +0.000 F 
ATOM     68  C48 UNL A   1      17.979  56.794  -1.119  1.00  0.00    +0.000 C 
ATOM     69  F12 UNL A   1      17.541  57.388  -2.237  1.00  0.00    +0.000 F 
ATOM     70  C49 UNL A   1      19.181  57.187  -0.550  1.00  0.00    +0.000 C 
ATOM     71  F13 UNL A   1      19.895  58.177  -1.103  1.00  0.00    +0.000 F 
ATOM     72  C50 UNL A   1      19.644  56.550   0.591  1.00  0.00    +0.000 C 
ATOM     73  F14 UNL A   1      20.795  56.939   1.155  1.00  0.00    +0.000 F 
ATOM     74  C51 UNL A   1      18.910  55.512   1.157  1.00  0.00    +0.000 C 
ATOM     75  F15 UNL A   1      19.386  54.909   2.257  1.00  0.00    +0.000 F 
ENDBRANCH   64   65
TORSDOF 21
ENDMDL
MODEL 7
REMARK VINA RESULT:      -7.8     33.383     37.537
ROOT
ATOM    129  H29 UNL A   1      17.964  50.975  -1.766  1.00  0.00    +0.000 H 
ATOM    130  H30 UNL A   1      18.468  53.398  -1.113  1.00  0.00    +0.000 H 
ATOM    131  H31 UNL A   1      12.278  52.644   6.774  1.00  0.00    +0.000 H 
ATOM    132  H32 UNL A   1      11.975  50.147   6.297  1.00  0.00    +0.000 H 
ATOM     28  C22 UNL A   1      13.253  49.262   3.900  1.00  0.00    +0.000 C 
ATOM     29  C23 UNL A   1      13.301  50.634   4.523  1.00  0.00    +0.000 C 
ATOM     30  N3  UNL A   1      13.942  51.705   4.123  1.00  0.00    +0.000 N 
ATOM     31  C24 UNL A   1      13.634  52.701   5.041  1.00  0.00    +0.000 C 
ATOM     32  C25 UNL A   1      14.089  53.976   5.091  1.00  0.00    +0.000 C 
ATOM     44  C32 UNL A   1      15.018  54.545   4.148  1.00  0.00    +0.000 C 
ATOM     45  C33 UNL A   1      15.552  55.822   4.129  1.00  0.00    +0.000 C 
ATOM     46  C34 UNL A   1      16.366  55.940   2.998  1.00  0.00    +0.000 C 
ATOM     47  C35 UNL A   1      16.387  54.719   2.344  1.00  0.00    +0.000 C 
ATOM     48  N4  UNL A   1      15.553  53.872   3.060  1.00  0.00    +0.000 N 
ATOM     49  C36 UNL A   1      17.107  54.352   1.151  1.00  0.00    +0.000 C 
ATOM     61  C43 UNL A   1      17.115  53.114   0.600  1.00  0.00    +0.000 C 
ATOM     62  N5  UNL A   1      16.454  51.969   1.023  1.00  0.00    +0.000 N 
ATOM     63  C44 UNL A   1      16.746  51.040   0.146  1.00  0.00    +0.000 C 
ATOM     64  C45 UNL A   1      16.314  49.600   0.108  1.00  0.00    +0.000 C 
ATOM     76  C52 UNL A   1      15.464  49.145   1.047  1.00  0.00    +0.000 C 
ATOM     77  C53 UNL A   1      14.950  47.781   1.125  1.00  0.00    +0.000 C 
ATOM     78  C54 UNL A   1      14.064  47.705   2.129  1.00  0.00    +0.000 C 
ATOM     79  C55 UNL A   1      14.002  48.997   2.811  1.00  0.00    +0.000 C 
ATOM     80  N6  UNL A   1      14.865  49.792   2.099  1.00  0.00    +0.000 N 
ATOM     81  C56 UNL A   1      17.619  51.496  -0.944  1.00  0.00    +0.000 C 
ATOM     82  C57 UNL A   1      17.847  52.755  -0.597  1.00  0.00    +0.000 C 
ATOM     83  C58 UNL A   1      12.720  52.121   6.001  1.00  0.00    +0.000 C 
ATOM     84  C59 UNL A   1      12.526  50.833   5.759  1.00  0.00    +0.000 C 
ATOM    123  H23 UNL A   1      15.379  56.561   4.828  1.00  0.00    +0.000 H 
ATOM    124  H24 UNL A   1      16.867  56.791   2.701  1.00  0.00    +0.000 H 
ATOM    125  H25 UNL A   1      15.368  52.933   2.828  1.00  0.00    +0.000 H 
ATOM    126  H26 UNL A   1      15.223  47.000   0.506  1.00  0.00    +0.000 H 
ATOM    127  H27 UNL A   1      13.515  46.867   2.379  1.00  0.00    +0.000 H 
ATOM    128  H28 UNL A   1      15.039  50.734   2.322  1.00  0.00    +0.000 H 
ENDROOT
BRANCH   28   27
ATOM    122  H22 UNL A   1      14.097  47.130   5.295  1.00  0.00    +0.000 H 
ATOM    133  H33 UNL A   1      10.561  48.867   3.811  1.00  0.00    +0.000 H 
ATOM    134  H34 UNL A   1       9.249  47.286   5.111  1.00  0.00    +0.000 H 
ATOM     85  C60 UNL A   1      11.035  48.182   4.419  1.00  0.00    +0.000 C 
ATOM     86  C61 UNL A   1      10.280  47.257   5.146  1.00  0.00    +0.000 C 
ATOM     24  C18 UNL A   1      10.926  46.289   5.922  1.00  0.00    +0.000 C 
ATOM     25  C19 UNL A   1      12.317  46.178   5.882  1.00  0.00    +0.000 C 
ATOM     26  C20 UNL A   1      13.067  47.157   5.239  1.00  0.00    +0.000 C 
ATOM     27  C21 UNL A   1      12.436  48.181   4.514  1.00  0.00    +0.000 C 
ATOM    121  H21 UNL A   1      12.786  45.374   6.329  1.00  0.00    +0.000 H 
BRANCH   24   22
ATOM     22  C17 UNL A   1      10.121  45.432   6.821  1.00  0.00    +0.000 C 
ATOM     23  O4  UNL A   1       9.312  44.642   6.345  1.00  0.00    +0.000 O 
BRANCH   22   21
ATOM     21  N2  UNL A   1      10.252  45.560   8.185  1.00  0.00    +0.000 N 
ATOM    120  H20 UNL A   1       9.878  44.819   8.714  1.00  0.00    +0.000 H 
BRANCH   21   20
ATOM     20  C16 UNL A   1      10.862  46.630   8.959  1.00  0.00    +0.000 C 
ATOM    118  H18 UNL A   1      11.181  47.396   8.284  1.00  0.00    +0.000 H 
ATOM    119  H19 UNL A   1      10.124  46.979   9.651  1.00  0.00    +0.000 H 
BRANCH   20   19
ATOM     19  C15 UNL A   1      12.065  46.177   9.778  1.00  0.00    +0.000 C 
ATOM    116  H16 UNL A   1      11.870  46.414  10.804  1.00  0.00    +0.000 H 
ATOM    117  H17 UNL A   1      12.170  45.131   9.583  1.00  0.00    +0.000 H 
BRANCH   19   18
ATOM     18  C14 UNL A   1      13.405  46.805   9.398  1.00  0.00    +0.000 C 
ATOM    115  H15 UNL A   1      13.778  46.211   8.591  1.00  0.00    +0.000 H 
ATOM    114  H14 UNL A   1      14.021  46.806  10.272  1.00  0.00    +0.000 H 
BRANCH   18   17
ATOM     17  C13 UNL A   1      13.358  48.237   8.861  1.00  0.00    +0.000 C 
ATOM    113  H13 UNL A   1      13.341  48.860   9.731  1.00  0.00    +0.000 H 
ATOM    112  H12 UNL A   1      12.496  48.318   8.233  1.00  0.00    +0.000 H 
BRANCH   17   16
ATOM    110  H10 UNL A   1      14.339  48.554   7.018  1.00  0.00    +0.000 H 
ATOM    111  H11 UNL A   1      14.702  49.732   8.341  1.00  0.00    +0.000 H 
ATOM     16  C12 UNL A   1      14.565  48.711   8.053  1.00  0.00    +0.000 C 
BRANCH   16   15
ATOM    108  H8  UNL A   1      15.715  47.121   8.842  1.00  0.00    +0.000 H 
ATOM    109  H9  UNL A   1      16.377  47.923   7.381  1.00  0.00    +0.000 H 
ATOM     15  C11 UNL A   1      15.907  48.043   8.333  1.00  0.00    +0.000 C 
BRANCH   15   14
ATOM    107  H7  UNL A   1      17.389  48.273   9.752  1.00  0.00    +0.000 H 
ATOM     14  N1  UNL A   1      16.836  48.809   9.138  1.00  0.00    +0.000 N 
BRANCH   14   12
ATOM     12  C10 UNL A   1      17.071  50.166   9.184  1.00  0.00    +0.000 C 
ATOM     13  O3  UNL A   1      17.668  50.701   8.252  1.00  0.00    +0.000 O 
BRANCH   12   11
ATOM    135  H35 UNL A   1      18.026  50.766  11.719  1.00  0.00    +0.000 H 
ATOM    136  H36 UNL A   1      16.689  51.627  13.555  1.00  0.00    +0.000 H 
ATOM      9  C7  UNL A   1      14.605  52.313  11.039  1.00  0.00    +0.000 C 
ATOM    105  H5  UNL A   1      13.765  52.877  10.838  1.00  0.00    +0.000 H 
ATOM      8  C6  UNL A   1      15.035  52.134  12.349  1.00  0.00    +0.000 C 
ATOM     10  C8  UNL A   1      15.326  51.717  10.000  1.00  0.00    +0.000 C 
ATOM    106  H6  UNL A   1      14.982  51.790   9.029  1.00  0.00    +0.000 H 
ATOM     11  C9  UNL A   1      16.513  51.019  10.270  1.00  0.00    +0.000 C 
ATOM     87  C62 UNL A   1      17.063  51.095  11.549  1.00  0.00    +0.000 C 
ATOM     88  C63 UNL A   1      16.308  51.620  12.597  1.00  0.00    +0.000 C 
BRANCH    8    7
ATOM      7  O2  UNL A   1      14.306  52.512  13.434  1.00  0.00    +0.000 O 
BRANCH    7    6
ATOM      2  C2  UNL A   1      10.282  53.726  13.157  1.00  0.00    +0.000 C 
ATOM      3  C3  UNL A   1      11.244  54.649  13.104  1.00  0.00    +0.000 C 
ATOM    100  O7  UNL A   1      10.545  52.395  13.400  1.00  0.00    +0.000 O 
ATOM      4  C4  UNL A   1      12.642  54.226  13.255  1.00  0.00    +0.000 C 
ATOM      5  O1  UNL A   1      13.526  55.079  13.259  1.00  0.00    +0.000 O 
ATOM      6  C5  UNL A   1      12.939  52.764  13.406  1.00  0.00    +0.000 C 
ATOM    104  H4  UNL A   1      11.009  55.643  12.959  1.00  0.00    +0.000 H 
ATOM     89  C64 UNL A   1      11.858  51.947  13.532  1.00  0.00    +0.000 C 
BRANCH    2    1
ATOM      1  C1  UNL A   1       8.833  54.050  12.977  1.00  0.00    +0.000 C 
ATOM    101  H1  UNL A   1       8.500  54.659  13.791  1.00  0.00    +0.000 H 
ATOM    102  H2  UNL A   1       8.266  53.143  12.953  1.00  0.00    +0.000 H 
ATOM    103  H3  UNL A   1       8.698  54.580  12.057  1.00  0.00    +0.000 H 
ENDBRANCH    2    1
BRANCH   89   90
ATOM     98  C70 UNL A   1      11.451  48.602  15.269  1.00  0.00    +0.000 C 
ATOM     99  C71 UNL A   1      11.390  49.976  15.014  1.00  0.00    +0.000 C 
ATOM    137  H37 UNL A   1      12.587  49.971  11.881  1.00  0.00    +0.000 H 
ATOM    138  H38 UNL A   1      12.744  47.590  12.336  1.00  0.00    +0.000 H 
ATOM    142  H42 UNL A   1      11.121  48.227  16.173  1.00  0.00    +0.000 H 
ATOM    143  H43 UNL A   1      11.001  50.613  15.727  1.00  0.00    +0.000 H 
ATOM     90  C65 UNL A   1      11.854  50.494  13.796  1.00  0.00    +0.000 C 
ATOM     91  C66 UNL A   1      12.306  49.607  12.804  1.00  0.00    +0.000 C 
ATOM     92  C67 UNL A   1      12.381  48.233  13.058  1.00  0.00    +0.000 C 
ATOM     93  C68 UNL A   1      11.960  47.740  14.295  1.00  0.00    +0.000 C 
BRANCH   93   94
ATOM     97  O6  UNL A   1      13.593  45.703  14.528  1.00  0.00    +0.000 O 
ATOM     94  S1  UNL A   1      12.179  46.011  14.655  1.00  0.00    +0.000 S 
ATOM     96  O5  UNL A   1      11.178  45.284  13.902  1.00  0.00    +0.000 O 
BRANCH   94   95
ATOM    139  H39 UNL A   1      12.156  46.727  16.896  1.00  0.00    +0.000 H 
ATOM    140  H40 UNL A   1      12.191  44.984  16.774  1.00  0.00    +0.000 H 
ATOM    141  H41 UNL A   1      10.703  45.852  16.481  1.00  0.00    +0.000 H 
ATOM     95  C69 UNL A   1      11.767  45.880  16.371  1.00  0.00    +0.000 C 
ENDBRANCH   94   95
ENDBRANCH   93   94
ENDBRANCH   89   90
ENDBRANCH    7    6
ENDBRANCH    8    7
ENDBRANCH   12   11
ENDBRANCH   14   12
ENDBRANCH   15   14
ENDBRANCH   16   15
ENDBRANCH   17   16
ENDBRANCH   18   17
ENDBRANCH   19   18
ENDBRANCH   20   19
ENDBRANCH   21   20
ENDBRANCH   22   21
ENDBRANCH   24   22
ENDBRANCH   28   27
BRANCH   32   33
ATOM     33  C26 UNL A   1      13.591  54.860   6.200  1.00  0.00    +0.000 C 
ATOM     34  C27 UNL A   1      14.105  54.770   7.502  1.00  0.00    +0.000 C 
ATOM     35  F1  UNL A   1      15.008  53.825   7.808  1.00  0.00    +0.000 F 
ATOM     36  C28 UNL A   1      13.675  55.635   8.506  1.00  0.00    +0.000 C 
ATOM     37  F2  UNL A   1      14.156  55.506   9.751  1.00  0.00    +0.000 F 
ATOM     38  C29 UNL A   1      12.750  56.628   8.221  1.00  0.00    +0.000 C 
ATOM     39  F3  UNL A   1      12.353  57.471   9.184  1.00  0.00    +0.000 F 
ATOM     40  C30 UNL A   1      12.235  56.744   6.939  1.00  0.00    +0.000 C 
ATOM     41  F4  UNL A   1      11.354  57.712   6.657  1.00  0.00    +0.000 F 
ATOM     42  C31 UNL A   1      12.640  55.860   5.941  1.00  0.00    +0.000 C 
ATOM     43  F5  UNL A   1      12.120  55.996   4.712  1.00  0.00    +0.000 F 
ENDBRANCH   32   33
BRANCH   49   50
ATOM     50  C37 UNL A   1      17.918  55.417   0.469  1.00  0.00    +0.000 C 
ATOM     51  C38 UNL A   1      19.189  55.779   0.937  1.00  0.00    +0.000 C 
ATOM     52  F6  UNL A   1      19.681  55.225   2.056  1.00  0.00    +0.000 F 
ATOM     53  C39 UNL A   1      19.949  56.741   0.276  1.00  0.00    +0.000 C 
ATOM     54  F7  UNL A   1      21.142  57.104   0.766  1.00  0.00    +0.000 F 
ATOM     55  C40 UNL A   1      19.470  57.329  -0.885  1.00  0.00    +0.000 C 
ATOM     56  F8  UNL A   1      20.209  58.243  -1.529  1.00  0.00    +0.000 F 
ATOM     57  C41 UNL A   1      18.222  56.975  -1.375  1.00  0.00    +0.000 C 
ATOM     58  F9  UNL A   1      17.765  57.530  -2.506  1.00  0.00    +0.000 F 
ATOM     59  C42 UNL A   1      17.446  56.039  -0.697  1.00  0.00    +0.000 C 
ATOM     60  F10 UNL A   1      16.240  55.723  -1.192  1.00  0.00    +0.000 F 
ENDBRANCH   49   50
BRANCH   64   65
ATOM     65  C46 UNL A   1      16.810  48.677  -0.946  1.00  0.00    +0.000 C 
ATOM     66  C47 UNL A   1      16.094  48.495  -2.136  1.00  0.00    +0.000 C 
ATOM     67  F11 UNL A   1      14.923  49.124  -2.317  1.00  0.00    +0.000 F 
ATOM     68  C48 UNL A   1      16.563  47.643  -3.135  1.00  0.00    +0.000 C 
ATOM     69  F12 UNL A   1      15.841  47.460  -4.249  1.00  0.00    +0.000 F 
ATOM     70  C49 UNL A   1      17.771  46.982  -2.975  1.00  0.00    +0.000 C 
ATOM     71  F13 UNL A   1      18.232  46.178  -3.943  1.00  0.00    +0.000 F 
ATOM     72  C50 UNL A   1      18.502  47.153  -1.809  1.00  0.00    +0.000 C 
ATOM     73  F14 UNL A   1      19.679  46.532  -1.658  1.00  0.00    +0.000 F 
ATOM     74  C51 UNL A   1      18.017  47.978  -0.797  1.00  0.00    +0.000 C 
ATOM     75  F15 UNL A   1      18.742  48.119   0.323  1.00  0.00    +0.000 F 
ENDBRANCH   64   65
TORSDOF 21
ENDMDL
MODEL 8
REMARK VINA RESULT:      -7.8     54.643     61.369
ROOT
ATOM    129  H29 UNL A   1       5.548  10.102  24.792  1.00  0.00    +0.000 H 
ATOM    130  H30 UNL A   1       7.429  11.227  26.115  1.00  0.00    +0.000 H 
ATOM    131  H31 UNL A   1      10.968   2.231  28.880  1.00  0.00    +0.000 H 
ATOM    132  H32 UNL A   1       9.266   1.090  27.345  1.00  0.00    +0.000 H 
ATOM     28  C22 UNL A   1       7.423   2.894  26.115  1.00  0.00    +0.000 C 
ATOM     29  C23 UNL A   1       8.599   3.230  26.998  1.00  0.00    +0.000 C 
ATOM     30  N3  UNL A   1       9.043   4.403  27.377  1.00  0.00    +0.000 N 
ATOM     31  C24 UNL A   1      10.137   4.151  28.197  1.00  0.00    +0.000 C 
ATOM     32  C25 UNL A   1      10.965   5.039  28.798  1.00  0.00    +0.000 C 
ATOM     44  C32 UNL A   1      10.846   6.469  28.682  1.00  0.00    +0.000 C 
ATOM     45  C33 UNL A   1      11.651   7.448  29.239  1.00  0.00    +0.000 C 
ATOM     46  C34 UNL A   1      11.120   8.697  28.899  1.00  0.00    +0.000 C 
ATOM     47  C35 UNL A   1      10.019   8.498  28.083  1.00  0.00    +0.000 C 
ATOM     48  N4  UNL A   1       9.860   7.125  27.960  1.00  0.00    +0.000 N 
ATOM     49  C36 UNL A   1       9.169   9.485  27.467  1.00  0.00    +0.000 C 
ATOM     61  C43 UNL A   1       8.136   9.208  26.635  1.00  0.00    +0.000 C 
ATOM     62  N5  UNL A   1       7.666   7.972  26.213  1.00  0.00    +0.000 N 
ATOM     63  C44 UNL A   1       6.632   8.222  25.448  1.00  0.00    +0.000 C 
ATOM     64  C45 UNL A   1       5.742   7.260  24.711  1.00  0.00    +0.000 C 
ATOM     76  C52 UNL A   1       5.943   5.937  24.854  1.00  0.00    +0.000 C 
ATOM     77  C53 UNL A   1       5.149   4.892  24.215  1.00  0.00    +0.000 C 
ATOM     78  C54 UNL A   1       5.573   3.696  24.648  1.00  0.00    +0.000 C 
ATOM     79  C55 UNL A   1       6.716   3.887  25.541  1.00  0.00    +0.000 C 
ATOM     80  N6  UNL A   1       6.863   5.250  25.606  1.00  0.00    +0.000 N 
ATOM     81  C56 UNL A   1       6.320   9.651  25.307  1.00  0.00    +0.000 C 
ATOM     82  C57 UNL A   1       7.292  10.209  26.016  1.00  0.00    +0.000 C 
ATOM     83  C58 UNL A   1      10.270   2.714  28.292  1.00  0.00    +0.000 C 
ATOM     84  C59 UNL A   1       9.381   2.099  27.525  1.00  0.00    +0.000 C 
ATOM    123  H23 UNL A   1      12.497   7.286  29.807  1.00  0.00    +0.000 H 
ATOM    124  H24 UNL A   1      11.487   9.612  29.205  1.00  0.00    +0.000 H 
ATOM    125  H25 UNL A   1       9.152   6.684  27.438  1.00  0.00    +0.000 H 
ATOM    126  H26 UNL A   1       4.385   5.048  23.538  1.00  0.00    +0.000 H 
ATOM    127  H27 UNL A   1       5.158   2.786  24.392  1.00  0.00    +0.000 H 
ATOM    128  H28 UNL A   1       7.562   5.692  26.139  1.00  0.00    +0.000 H 
ENDROOT
BRANCH   28   27
ATOM    122  H22 UNL A   1       6.109   1.150  27.675  1.00  0.00    +0.000 H 
ATOM    133  H33 UNL A   1       8.042   1.376  23.942  1.00  0.00    +0.000 H 
ATOM    134  H34 UNL A   1       7.164  -0.815  23.364  1.00  0.00    +0.000 H 
ATOM     85  C60 UNL A   1       7.426   0.877  24.603  1.00  0.00    +0.000 C 
ATOM     86  C61 UNL A   1       6.943  -0.394  24.279  1.00  0.00    +0.000 C 
ATOM     24  C18 UNL A   1       6.158  -1.094  25.201  1.00  0.00    +0.000 C 
ATOM     25  C19 UNL A   1       5.952  -0.573  26.480  1.00  0.00    +0.000 C 
ATOM     26  C20 UNL A   1       6.350   0.729  26.764  1.00  0.00    +0.000 C 
ATOM     27  C21 UNL A   1       7.076   1.477  25.824  1.00  0.00    +0.000 C 
ATOM    121  H21 UNL A   1       5.506  -1.151  27.210  1.00  0.00    +0.000 H 
BRANCH   24   22
ATOM     22  C17 UNL A   1       5.510  -2.357  24.782  1.00  0.00    +0.000 C 
ATOM     23  O4  UNL A   1       4.359  -2.597  25.134  1.00  0.00    +0.000 O 
BRANCH   22   21
ATOM     21  N2  UNL A   1       6.218  -3.274  24.040  1.00  0.00    +0.000 N 
ATOM    120  H20 UNL A   1       5.789  -3.556  23.200  1.00  0.00    +0.000 H 
BRANCH   21   20
ATOM     20  C16 UNL A   1       7.509  -3.888  24.314  1.00  0.00    +0.000 C 
ATOM    118  H18 UNL A   1       7.421  -4.943  24.160  1.00  0.00    +0.000 H 
ATOM    119  H19 UNL A   1       8.218  -3.438  23.653  1.00  0.00    +0.000 H 
BRANCH   20   19
ATOM     19  C15 UNL A   1       8.004  -3.648  25.735  1.00  0.00    +0.000 C 
ATOM    116  H16 UNL A   1       7.302  -3.003  26.221  1.00  0.00    +0.000 H 
ATOM    117  H17 UNL A   1       8.086  -4.617  26.180  1.00  0.00    +0.000 H 
BRANCH   19   18
ATOM     18  C14 UNL A   1       9.389  -3.016  25.861  1.00  0.00    +0.000 C 
ATOM    115  H15 UNL A   1       9.536  -2.471  24.953  1.00  0.00    +0.000 H 
ATOM    114  H14 UNL A   1      10.092  -3.806  26.025  1.00  0.00    +0.000 H 
BRANCH   18   17
ATOM     17  C13 UNL A   1       9.570  -1.992  26.983  1.00  0.00    +0.000 C 
ATOM    113  H13 UNL A   1       8.811  -2.227  27.699  1.00  0.00    +0.000 H 
ATOM    112  H12 UNL A   1       9.491  -1.018  26.547  1.00  0.00    +0.000 H 
BRANCH   17   16
ATOM    110  H10 UNL A   1      11.056  -1.069  28.165  1.00  0.00    +0.000 H 
ATOM    111  H11 UNL A   1      10.742  -2.821  28.483  1.00  0.00    +0.000 H 
ATOM     16  C12 UNL A   1      10.884  -2.045  27.760  1.00  0.00    +0.000 C 
BRANCH   16   15
ATOM    108  H8  UNL A   1      12.541  -3.325  27.464  1.00  0.00    +0.000 H 
ATOM    109  H9  UNL A   1      11.827  -2.604  25.984  1.00  0.00    +0.000 H 
ATOM     15  C11 UNL A   1      12.139  -2.450  26.996  1.00  0.00    +0.000 C 
BRANCH   15   14
ATOM    107  H7  UNL A   1      13.643  -1.282  27.795  1.00  0.00    +0.000 H 
ATOM     14  N1  UNL A   1      13.191  -1.456  26.937  1.00  0.00    +0.000 N 
BRANCH   14   12
ATOM     12  C10 UNL A   1      13.661  -0.714  25.875  1.00  0.00    +0.000 C 
ATOM     13  O3  UNL A   1      14.875  -0.578  25.732  1.00  0.00    +0.000 O 
BRANCH   12   11
ATOM    135  H35 UNL A   1      13.539  -1.160  23.139  1.00  0.00    +0.000 H 
ATOM    136  H36 UNL A   1      12.421   0.277  21.532  1.00  0.00    +0.000 H 
ATOM      9  C7  UNL A   1      10.975   1.407  24.321  1.00  0.00    +0.000 C 
ATOM    105  H5  UNL A   1      10.168   1.975  24.620  1.00  0.00    +0.000 H 
ATOM      8  C6  UNL A   1      11.357   1.374  22.985  1.00  0.00    +0.000 C 
ATOM     10  C8  UNL A   1      11.700   0.658  25.252  1.00  0.00    +0.000 C 
ATOM    106  H6  UNL A   1      11.466   0.721  26.255  1.00  0.00    +0.000 H 
ATOM     11  C9  UNL A   1      12.745  -0.179  24.831  1.00  0.00    +0.000 C 
ATOM     87  C62 UNL A   1      12.919  -0.402  23.465  1.00  0.00    +0.000 C 
ATOM     88  C63 UNL A   1      12.252   0.401  22.542  1.00  0.00    +0.000 C 
BRANCH    8    7
ATOM      7  O2  UNL A   1      10.838   2.204  22.038  1.00  0.00    +0.000 O 
BRANCH    7    6
ATOM      2  C2  UNL A   1       6.809   2.717  20.921  1.00  0.00    +0.000 C 
ATOM      3  C3  UNL A   1       7.435   3.704  21.565  1.00  0.00    +0.000 C 
ATOM    100  O7  UNL A   1       7.396   1.491  20.693  1.00  0.00    +0.000 O 
ATOM      4  C4  UNL A   1       8.823   3.498  21.999  1.00  0.00    +0.000 C 
ATOM      5  O1  UNL A   1       9.385   4.385  22.638  1.00  0.00    +0.000 O 
ATOM      6  C5  UNL A   1       9.503   2.208  21.652  1.00  0.00    +0.000 C 
ATOM    104  H4  UNL A   1       6.952   4.596  21.753  1.00  0.00    +0.000 H 
ATOM     89  C64 UNL A   1       8.717   1.260  21.072  1.00  0.00    +0.000 C 
BRANCH    2    1
ATOM      1  C1  UNL A   1       5.410   2.841  20.406  1.00  0.00    +0.000 C 
ATOM    101  H1  UNL A   1       4.908   1.903  20.511  1.00  0.00    +0.000 H 
ATOM    102  H2  UNL A   1       5.435   3.119  19.372  1.00  0.00    +0.000 H 
ATOM    103  H3  UNL A   1       4.889   3.590  20.965  1.00  0.00    +0.000 H 
ENDBRANCH    2    1
BRANCH   89   90
ATOM     98  C70 UNL A   1       9.848  -1.783  19.112  1.00  0.00    +0.000 C 
ATOM     99  C71 UNL A   1       9.558  -0.454  19.441  1.00  0.00    +0.000 C 
ATOM    137  H37 UNL A   1       8.715  -0.896  22.658  1.00  0.00    +0.000 H 
ATOM    138  H38 UNL A   1       9.168  -3.211  22.077  1.00  0.00    +0.000 H 
ATOM    142  H42 UNL A   1      10.178  -2.021  18.163  1.00  0.00    +0.000 H 
ATOM    143  H43 UNL A   1       9.688   0.290  18.738  1.00  0.00    +0.000 H 
ATOM     90  C65 UNL A   1       9.090  -0.126  20.723  1.00  0.00    +0.000 C 
ATOM     91  C66 UNL A   1       8.993  -1.137  21.694  1.00  0.00    +0.000 C 
ATOM     92  C67 UNL A   1       9.271  -2.468  21.367  1.00  0.00    +0.000 C 
ATOM     93  C68 UNL A   1       9.689  -2.784  20.072  1.00  0.00    +0.000 C 
BRANCH   93   94
ATOM     97  O6  UNL A   1       9.030  -5.291  20.463  1.00  0.00    +0.000 O 
ATOM     94  S1  UNL A   1       9.914  -4.493  19.630  1.00  0.00    +0.000 S 
ATOM     96  O5  UNL A   1      11.340  -4.743  19.587  1.00  0.00    +0.000 O 
BRANCH   94   95
ATOM    139  H39 UNL A   1      10.120  -4.592  17.288  1.00  0.00    +0.000 H 
ATOM    140  H40 UNL A   1       8.674  -3.740  17.776  1.00  0.00    +0.000 H 
ATOM    141  H41 UNL A   1       8.730  -5.485  17.854  1.00  0.00    +0.000 H 
ATOM     95  C69 UNL A   1       9.298  -4.586  17.973  1.00  0.00    +0.000 C 
ENDBRANCH   94   95
ENDBRANCH   93   94
ENDBRANCH   89   90
ENDBRANCH    7    6
ENDBRANCH    8    7
ENDBRANCH   12   11
ENDBRANCH   14   12
ENDBRANCH   15   14
ENDBRANCH   16   15
ENDBRANCH   17   16
ENDBRANCH   18   17
ENDBRANCH   19   18
ENDBRANCH   20   19
ENDBRANCH   21   20
ENDBRANCH   22   21
ENDBRANCH   24   22
ENDBRANCH   28   27
BRANCH   32   33
ATOM     33  C26 UNL A   1      12.083   4.497  29.644  1.00  0.00    +0.000 C 
ATOM     34  C27 UNL A   1      12.025   4.522  31.046  1.00  0.00    +0.000 C 
ATOM     35  F1  UNL A   1      10.992   5.111  31.669  1.00  0.00    +0.000 F 
ATOM     36  C28 UNL A   1      13.042   3.963  31.817  1.00  0.00    +0.000 C 
ATOM     37  F2  UNL A   1      12.981   4.031  33.154  1.00  0.00    +0.000 F 
ATOM     38  C29 UNL A   1      14.118   3.339  31.205  1.00  0.00    +0.000 C 
ATOM     39  F3  UNL A   1      15.085   2.785  31.949  1.00  0.00    +0.000 F 
ATOM     40  C30 UNL A   1      14.192   3.291  29.821  1.00  0.00    +0.000 C 
ATOM     41  F4  UNL A   1      15.222   2.675  29.227  1.00  0.00    +0.000 F 
ATOM     42  C31 UNL A   1      13.193   3.877  29.047  1.00  0.00    +0.000 C 
ATOM     43  F5  UNL A   1      13.296   3.818  27.711  1.00  0.00    +0.000 F 
ENDBRANCH   32   33
BRANCH   49   50
ATOM     50  C37 UNL A   1       9.452  10.932  27.759  1.00  0.00    +0.000 C 
ATOM     51  C38 UNL A   1      10.439  11.639  27.058  1.00  0.00    +0.000 C 
ATOM     52  F6  UNL A   1      11.205  11.012  26.152  1.00  0.00    +0.000 F 
ATOM     53  C39 UNL A   1      10.668  12.989  27.309  1.00  0.00    +0.000 C 
ATOM     54  F7  UNL A   1      11.647  13.634  26.660  1.00  0.00    +0.000 F 
ATOM     55  C40 UNL A   1       9.891  13.666  28.237  1.00  0.00    +0.000 C 
ATOM     56  F8  UNL A   1      10.101  14.970  28.467  1.00  0.00    +0.000 F 
ATOM     57  C41 UNL A   1       8.898  12.991  28.931  1.00  0.00    +0.000 C 
ATOM     58  F9  UNL A   1       8.134  13.647  29.815  1.00  0.00    +0.000 F 
ATOM     59  C42 UNL A   1       8.690  11.632  28.706  1.00  0.00    +0.000 C 
ATOM     60  F10 UNL A   1       7.727  11.006  29.399  1.00  0.00    +0.000 F 
ENDBRANCH   49   50
BRANCH   64   65
ATOM     65  C46 UNL A   1       4.647   7.747  23.831  1.00  0.00    +0.000 C 
ATOM     66  C47 UNL A   1       4.836   7.870  22.449  1.00  0.00    +0.000 C 
ATOM     67  F11 UNL A   1       6.032   7.589  21.909  1.00  0.00    +0.000 F 
ATOM     68  C48 UNL A   1       3.808   8.309  21.617  1.00  0.00    +0.000 C 
ATOM     69  F12 UNL A   1       4.027   8.451  20.303  1.00  0.00    +0.000 F 
ATOM     70  C49 UNL A   1       2.562   8.604  22.149  1.00  0.00    +0.000 C 
ATOM     71  F13 UNL A   1       1.567   9.009  21.347  1.00  0.00    +0.000 F 
ATOM     72  C50 UNL A   1       2.348   8.483  23.513  1.00  0.00    +0.000 C 
ATOM     73  F14 UNL A   1       1.140   8.748  24.028  1.00  0.00    +0.000 F 
ATOM     74  C51 UNL A   1       3.384   8.076  24.348  1.00  0.00    +0.000 C 
ATOM     75  F15 UNL A   1       3.150   7.974  25.665  1.00  0.00    +0.000 F 
ENDBRANCH   64   65
TORSDOF 21
ENDMDL
MODEL 9
REMARK VINA RESULT:      -7.8     54.350     61.467
ROOT
ATOM    129  H29 UNL A   1      12.194   7.221  29.503  1.00  0.00    +0.000 H 
ATOM    130  H30 UNL A   1      11.338   9.532  28.811  1.00  0.00    +0.000 H 
ATOM    131  H31 UNL A   1       3.992   5.283  23.420  1.00  0.00    +0.000 H 
ATOM    132  H32 UNL A   1       4.664   2.981  24.318  1.00  0.00    +0.000 H 
ATOM     28  C22 UNL A   1       7.019   3.012  25.936  1.00  0.00    +0.000 C 
ATOM     29  C23 UNL A   1       6.298   4.189  25.325  1.00  0.00    +0.000 C 
ATOM     30  N3  UNL A   1       6.575   5.466  25.413  1.00  0.00    +0.000 N 
ATOM     31  C24 UNL A   1       5.613   6.119  24.651  1.00  0.00    +0.000 C 
ATOM     32  C25 UNL A   1       5.442   7.450  24.465  1.00  0.00    +0.000 C 
ATOM     44  C32 UNL A   1       6.272   8.467  25.056  1.00  0.00    +0.000 C 
ATOM     45  C33 UNL A   1       6.163   9.842  24.941  1.00  0.00    +0.000 C 
ATOM     46  C34 UNL A   1       7.221  10.427  25.645  1.00  0.00    +0.000 C 
ATOM     47  C35 UNL A   1       7.956   9.419  26.247  1.00  0.00    +0.000 C 
ATOM     48  N4  UNL A   1       7.364   8.220  25.875  1.00  0.00    +0.000 N 
ATOM     49  C36 UNL A   1       9.117   9.538  27.092  1.00  0.00    +0.000 C 
ATOM     61  C43 UNL A   1       9.751   8.499  27.688  1.00  0.00    +0.000 C 
ATOM     62  N5  UNL A   1       9.459   7.144  27.617  1.00  0.00    +0.000 N 
ATOM     63  C44 UNL A   1      10.376   6.540  28.332  1.00  0.00    +0.000 C 
ATOM     64  C45 UNL A   1      10.546   5.073  28.614  1.00  0.00    +0.000 C 
ATOM     76  C52 UNL A   1       9.706   4.191  28.041  1.00  0.00    +0.000 C 
ATOM     77  C53 UNL A   1       9.761   2.743  28.212  1.00  0.00    +0.000 C 
ATOM     78  C54 UNL A   1       8.832   2.175  27.429  1.00  0.00    +0.000 C 
ATOM     79  C55 UNL A   1       8.066   3.225  26.756  1.00  0.00    +0.000 C 
ATOM     80  N6  UNL A   1       8.656   4.390  27.178  1.00  0.00    +0.000 N 
ATOM     81  C56 UNL A   1      11.366   7.446  28.930  1.00  0.00    +0.000 C 
ATOM     82  C57 UNL A   1      10.915   8.631  28.541  1.00  0.00    +0.000 C 
ATOM     83  C58 UNL A   1       4.766   5.097  24.078  1.00  0.00    +0.000 C 
ATOM     84  C59 UNL A   1       5.111   3.892  24.508  1.00  0.00    +0.000 C 
ATOM    123  H23 UNL A   1       5.427  10.350  24.425  1.00  0.00    +0.000 H 
ATOM    124  H24 UNL A   1       7.420  11.437  25.705  1.00  0.00    +0.000 H 
ATOM    125  H25 UNL A   1       7.674   7.328  26.152  1.00  0.00    +0.000 H 
ATOM    126  H26 UNL A   1      10.412   2.237  28.834  1.00  0.00    +0.000 H 
ATOM    127  H27 UNL A   1       8.681   1.160  27.321  1.00  0.00    +0.000 H 
ATOM    128  H28 UNL A   1       8.356   5.281  26.890  1.00  0.00    +0.000 H 
ENDROOT
BRANCH   28   27
ATOM    122  H22 UNL A   1       7.752   1.325  23.983  1.00  0.00    +0.000 H 
ATOM    133  H33 UNL A   1       5.122   1.576  27.261  1.00  0.00    +0.000 H 
ATOM    134  H34 UNL A   1       4.631  -0.794  27.037  1.00  0.00    +0.000 H 
ATOM     85  C60 UNL A   1       5.596   1.019  26.533  1.00  0.00    +0.000 C 
ATOM     86  C61 UNL A   1       5.293  -0.339  26.390  1.00  0.00    +0.000 C 
ATOM     24  C18 UNL A   1       5.890  -1.079  25.365  1.00  0.00    +0.000 C 
ATOM     25  C19 UNL A   1       6.698  -0.441  24.422  1.00  0.00    +0.000 C 
ATOM     26  C20 UNL A   1       7.075   0.883  24.624  1.00  0.00    +0.000 C 
ATOM     27  C21 UNL A   1       6.543   1.624  25.691  1.00  0.00    +0.000 C 
ATOM    121  H21 UNL A   1       7.015  -0.949  23.582  1.00  0.00    +0.000 H 
BRANCH   24   22
ATOM     22  C17 UNL A   1       5.698  -2.546  25.331  1.00  0.00    +0.000 C 
ATOM     23  O4  UNL A   1       4.780  -3.025  24.673  1.00  0.00    +0.000 O 
BRANCH   22   21
ATOM     21  N2  UNL A   1       6.522  -3.360  26.075  1.00  0.00    +0.000 N 
ATOM    120  H20 UNL A   1       6.242  -4.302  26.132  1.00  0.00    +0.000 H 
BRANCH   21   20
ATOM     20  C16 UNL A   1       7.745  -3.032  26.792  1.00  0.00    +0.000 C 
ATOM    118  H18 UNL A   1       7.696  -2.006  27.092  1.00  0.00    +0.000 H 
ATOM    119  H19 UNL A   1       7.810  -3.698  27.626  1.00  0.00    +0.000 H 
BRANCH   20   19
ATOM     19  C15 UNL A   1       9.007  -3.229  25.960  1.00  0.00    +0.000 C 
ATOM    116  H16 UNL A   1       9.529  -4.076  26.354  1.00  0.00    +0.000 H 
ATOM    117  H17 UNL A   1       8.672  -3.353  24.952  1.00  0.00    +0.000 H 
BRANCH   19   18
ATOM     18  C14 UNL A   1       9.978  -2.051  25.931  1.00  0.00    +0.000 C 
ATOM    115  H15 UNL A   1       9.365  -1.180  25.836  1.00  0.00    +0.000 H 
ATOM    114  H14 UNL A   1      10.656  -2.209  25.119  1.00  0.00    +0.000 H 
BRANCH   18   17
ATOM     17  C13 UNL A   1      10.811  -1.824  27.194  1.00  0.00    +0.000 C 
ATOM    113  H13 UNL A   1      10.287  -2.343  27.970  1.00  0.00    +0.000 H 
ATOM    112  H12 UNL A   1      10.898  -0.768  27.339  1.00  0.00    +0.000 H 
BRANCH   17   16
ATOM    110  H10 UNL A   1      12.650  -2.197  28.163  1.00  0.00    +0.000 H 
ATOM    111  H11 UNL A   1      12.089  -3.448  26.984  1.00  0.00    +0.000 H 
ATOM     16  C12 UNL A   1      12.223  -2.409  27.205  1.00  0.00    +0.000 C 
BRANCH   16   15
ATOM    108  H8  UNL A   1      13.953  -2.659  26.015  1.00  0.00    +0.000 H 
ATOM    109  H9  UNL A   1      12.614  -1.724  25.272  1.00  0.00    +0.000 H 
ATOM     15  C11 UNL A   1      13.200  -1.909  26.147  1.00  0.00    +0.000 C 
BRANCH   15   14
ATOM    107  H7  UNL A   1      14.532  -0.709  27.172  1.00  0.00    +0.000 H 
ATOM     14  N1  UNL A   1      13.867  -0.658  26.446  1.00  0.00    +0.000 N 
BRANCH   14   12
ATOM     12  C10 UNL A   1      13.722   0.589  25.880  1.00  0.00    +0.000 C 
ATOM     13  O3  UNL A   1      14.457   1.503  26.249  1.00  0.00    +0.000 O 
BRANCH   12   11
ATOM    135  H35 UNL A   1      14.072   0.400  23.134  1.00  0.00    +0.000 H 
ATOM    136  H36 UNL A   1      12.652   1.442  21.462  1.00  0.00    +0.000 H 
ATOM      9  C7  UNL A   1      10.595   1.650  24.083  1.00  0.00    +0.000 C 
ATOM    105  H5  UNL A   1       9.603   1.831  24.299  1.00  0.00    +0.000 H 
ATOM      8  C6  UNL A   1      11.096   1.897  22.810  1.00  0.00    +0.000 C 
ATOM     10  C8  UNL A   1      11.456   1.152  25.066  1.00  0.00    +0.000 C 
ATOM    106  H6  UNL A   1      11.112   1.022  26.031  1.00  0.00    +0.000 H 
ATOM     11  C9  UNL A   1      12.784   0.829  24.749  1.00  0.00    +0.000 C 
ATOM     87  C62 UNL A   1      13.173   0.824  23.410  1.00  0.00    +0.000 C 
ATOM     88  C63 UNL A   1      12.344   1.393  22.445  1.00  0.00    +0.000 C 
BRANCH    8    7
ATOM      7  O2  UNL A   1      10.394   2.551  21.844  1.00  0.00    +0.000 O 
BRANCH    7    6
ATOM      2  C2  UNL A   1      10.749   2.053  17.676  1.00  0.00    +0.000 C 
ATOM      3  C3  UNL A   1      10.781   3.284  18.188  1.00  0.00    +0.000 C 
ATOM    100  O7  UNL A   1      10.504   0.936  18.446  1.00  0.00    +0.000 O 
ATOM      4  C4  UNL A   1      10.603   3.455  19.636  1.00  0.00    +0.000 C 
ATOM      5  O1  UNL A   1      10.579   4.591  20.103  1.00  0.00    +0.000 O 
ATOM      6  C5  UNL A   1      10.449   2.233  20.491  1.00  0.00    +0.000 C 
ATOM    104  H4  UNL A   1      10.930   4.103  17.577  1.00  0.00    +0.000 H 
ATOM     89  C64 UNL A   1      10.346   1.051  19.826  1.00  0.00    +0.000 C 
BRANCH    2    1
ATOM      1  C1  UNL A   1      10.958   1.771  16.222  1.00  0.00    +0.000 C 
ATOM    101  H1  UNL A   1      11.613   0.932  16.113  1.00  0.00    +0.000 H 
ATOM    102  H2  UNL A   1      11.394   2.628  15.752  1.00  0.00    +0.000 H 
ATOM    103  H3  UNL A   1      10.017   1.551  15.763  1.00  0.00    +0.000 H 
ENDBRANCH    2    1
BRANCH   89   90
ATOM     98  C70 UNL A   1      10.743  -2.590  20.806  1.00  0.00    +0.000 C 
ATOM     99  C71 UNL A   1      11.033  -1.315  20.309  1.00  0.00    +0.000 C 
ATOM    137  H37 UNL A   1       8.198   0.240  21.200  1.00  0.00    +0.000 H 
ATOM    138  H38 UNL A   1       7.668  -1.985  22.019  1.00  0.00    +0.000 H 
ATOM    142  H42 UNL A   1      11.438  -3.349  20.723  1.00  0.00    +0.000 H 
ATOM    143  H43 UNL A   1      11.950  -1.131  19.872  1.00  0.00    +0.000 H 
ATOM     90  C65 UNL A   1      10.085  -0.284  20.400  1.00  0.00    +0.000 C 
ATOM     91  C66 UNL A   1       8.873  -0.528  21.069  1.00  0.00    +0.000 C 
ATOM     92  C67 UNL A   1       8.573  -1.804  21.557  1.00  0.00    +0.000 C 
ATOM     93  C68 UNL A   1       9.509  -2.832  21.414  1.00  0.00    +0.000 C 
BRANCH   93   94
ATOM     97  O6  UNL A   1       9.974  -4.880  22.982  1.00  0.00    +0.000 O 
ATOM     94  S1  UNL A   1       9.066  -4.480  21.920  1.00  0.00    +0.000 S 
ATOM     96  O5  UNL A   1       8.913  -5.273  20.719  1.00  0.00    +0.000 O 
BRANCH   94   95
ATOM    139  H39 UNL A   1       7.570  -4.077  23.691  1.00  0.00    +0.000 H 
ATOM    140  H40 UNL A   1       6.900  -5.182  22.515  1.00  0.00    +0.000 H 
ATOM    141  H41 UNL A   1       6.955  -3.470  22.173  1.00  0.00    +0.000 H 
ATOM     95  C69 UNL A   1       7.464  -4.283  22.646  1.00  0.00    +0.000 C 
ENDBRANCH   94   95
ENDBRANCH   93   94
ENDBRANCH   89   90
ENDBRANCH    7    6
ENDBRANCH    8    7
ENDBRANCH   12   11
ENDBRANCH   14   12
ENDBRANCH   15   14
ENDBRANCH   16   15
ENDBRANCH   17   16
ENDBRANCH   18   17
ENDBRANCH   19   18
ENDBRANCH   20   19
ENDBRANCH   21   20
ENDBRANCH   22   21
ENDBRANCH   24   22
ENDBRANCH   28   27
BRANCH   32   33
ATOM     33  C26 UNL A   1       4.312   7.897  23.580  1.00  0.00    +0.000 C 
ATOM     34  C27 UNL A   1       3.053   8.231  24.103  1.00  0.00    +0.000 C 
ATOM     35  F1  UNL A   1       2.804   8.077  25.413  1.00  0.00    +0.000 F 
ATOM     36  C28 UNL A   1       2.034   8.700  23.278  1.00  0.00    +0.000 C 
ATOM     37  F2  UNL A   1       0.829   8.978  23.796  1.00  0.00    +0.000 F 
ATOM     38  C29 UNL A   1       2.261   8.878  21.922  1.00  0.00    +0.000 C 
ATOM     39  F3  UNL A   1       1.285   9.348  21.133  1.00  0.00    +0.000 F 
ATOM     40  C30 UNL A   1       3.500   8.567  21.383  1.00  0.00    +0.000 C 
ATOM     41  F4  UNL A   1       3.728   8.753  20.076  1.00  0.00    +0.000 F 
ATOM     42  C31 UNL A   1       4.512   8.067  22.200  1.00  0.00    +0.000 C 
ATOM     43  F5  UNL A   1       5.698   7.771  21.648  1.00  0.00    +0.000 F 
ENDBRANCH   32   33
BRANCH   49   50
ATOM     50  C37 UNL A   1       9.661  10.916  27.342  1.00  0.00    +0.000 C 
ATOM     51  C38 UNL A   1      10.770  11.403  26.635  1.00  0.00    +0.000 C 
ATOM     52  F6  UNL A   1      11.415  10.614  25.762  1.00  0.00    +0.000 F 
ATOM     53  C39 UNL A   1      11.243  12.695  26.847  1.00  0.00    +0.000 C 
ATOM     54  F7  UNL A   1      12.332  13.124  26.194  1.00  0.00    +0.000 F 
ATOM     55  C40 UNL A   1      10.596  13.536  27.740  1.00  0.00    +0.000 C 
ATOM     56  F8  UNL A   1      11.044  14.785  27.931  1.00  0.00    +0.000 F 
ATOM     57  C41 UNL A   1       9.488  13.081  28.438  1.00  0.00    +0.000 C 
ATOM     58  F9  UNL A   1       8.851  13.898  29.288  1.00  0.00    +0.000 F 
ATOM     59  C42 UNL A   1       9.033  11.778  28.254  1.00  0.00    +0.000 C 
ATOM     60  F10 UNL A   1       7.963  11.365  28.950  1.00  0.00    +0.000 F 
ENDBRANCH   49   50
BRANCH   64   65
ATOM     65  C46 UNL A   1      11.624   4.583  29.513  1.00  0.00    +0.000 C 
ATOM     66  C47 UNL A   1      12.771   3.971  28.992  1.00  0.00    +0.000 C 
ATOM     67  F11 UNL A   1      12.887   3.780  27.670  1.00  0.00    +0.000 F 
ATOM     68  C48 UNL A   1      13.792   3.526  29.830  1.00  0.00    +0.000 C 
ATOM     69  F12 UNL A   1      14.863   2.912  29.308  1.00  0.00    +0.000 F 
ATOM     70  C49 UNL A   1      13.700   3.713  31.201  1.00  0.00    +0.000 C 
ATOM     71  F13 UNL A   1      14.690   3.301  32.004  1.00  0.00    +0.000 F 
ATOM     72  C50 UNL A   1      12.578   4.324  31.739  1.00  0.00    +0.000 C 
ATOM     73  F14 UNL A   1      12.492   4.524  33.061  1.00  0.00    +0.000 F 
ATOM     74  C51 UNL A   1      11.543   4.739  30.906  1.00  0.00    +0.000 C 
ATOM     75  F15 UNL A   1      10.466   5.321  31.455  1.00  0.00    +0.000 F 
ENDBRANCH   64   65
TORSDOF 21
ENDMDL
MODEL 10
REMARK VINA RESULT:      -7.7     34.303     37.459
ROOT
ATOM    129  H29 UNL A   1      16.070  57.272   3.532  1.00  0.00    +0.000 H 
ATOM    130  H30 UNL A   1      17.166  57.158   1.222  1.00  0.00    +0.000 H 
ATOM    131  H31 UNL A   1      15.614  47.229   0.890  1.00  0.00    +0.000 H 
ATOM    132  H32 UNL A   1      14.275  47.365   3.067  1.00  0.00    +0.000 H 
ATOM     28  C22 UNL A   1      14.271  49.960   4.264  1.00  0.00    +0.000 C 
ATOM     29  C23 UNL A   1      14.879  49.548   2.946  1.00  0.00    +0.000 C 
ATOM     30  N3  UNL A   1      15.513  50.278   2.062  1.00  0.00    +0.000 N 
ATOM     31  C24 UNL A   1      15.881  49.409   1.042  1.00  0.00    +0.000 C 
ATOM     32  C25 UNL A   1      16.517  49.690  -0.121  1.00  0.00    +0.000 C 
ATOM     44  C32 UNL A   1      16.941  51.007  -0.517  1.00  0.00    +0.000 C 
ATOM     45  C33 UNL A   1      17.575  51.393  -1.686  1.00  0.00    +0.000 C 
ATOM     46  C34 UNL A   1      17.840  52.764  -1.610  1.00  0.00    +0.000 C 
ATOM     47  C35 UNL A   1      17.320  53.245  -0.419  1.00  0.00    +0.000 C 
ATOM     48  N4  UNL A   1      16.774  52.155   0.243  1.00  0.00    +0.000 N 
ATOM     49  C36 UNL A   1      17.329  54.595   0.082  1.00  0.00    +0.000 C 
ATOM     61  C43 UNL A   1      16.749  54.996   1.241  1.00  0.00    +0.000 C 
ATOM     62  N5  UNL A   1      16.061  54.237   2.177  1.00  0.00    +0.000 N 
ATOM     63  C44 UNL A   1      15.726  55.066   3.135  1.00  0.00    +0.000 C 
ATOM     64  C45 UNL A   1      14.959  54.795   4.399  1.00  0.00    +0.000 C 
ATOM     76  C52 UNL A   1      14.576  53.535   4.678  1.00  0.00    +0.000 C 
ATOM     77  C53 UNL A   1      13.842  53.123   5.871  1.00  0.00    +0.000 C 
ATOM     78  C54 UNL A   1      13.707  51.789   5.862  1.00  0.00    +0.000 C 
ATOM     79  C55 UNL A   1      14.282  51.258   4.626  1.00  0.00    +0.000 C 
ATOM     80  N6  UNL A   1      14.776  52.367   3.985  1.00  0.00    +0.000 N 
ATOM     81  C56 UNL A   1      16.177  56.447   2.920  1.00  0.00    +0.000 C 
ATOM     82  C57 UNL A   1      16.759  56.358   1.732  1.00  0.00    +0.000 C 
ATOM     83  C58 UNL A   1      15.433  48.090   1.431  1.00  0.00    +0.000 C 
ATOM     84  C59 UNL A   1      14.759  48.130   2.571  1.00  0.00    +0.000 C 
ATOM    123  H23 UNL A   1      17.811  50.775  -2.479  1.00  0.00    +0.000 H 
ATOM    124  H24 UNL A   1      18.338  53.323  -2.320  1.00  0.00    +0.000 H 
ATOM    125  H25 UNL A   1      16.333  52.192   1.122  1.00  0.00    +0.000 H 
ATOM    126  H26 UNL A   1      13.484  53.757   6.604  1.00  0.00    +0.000 H 
ATOM    127  H27 UNL A   1      13.267  51.228   6.608  1.00  0.00    +0.000 H 
ATOM    128  H28 UNL A   1      15.230  52.328   3.114  1.00  0.00    +0.000 H 
ENDROOT
BRANCH   28   27
ATOM    122  H22 UNL A   1      11.696  49.207   4.265  1.00  0.00    +0.000 H 
ATOM    133  H33 UNL A   1      15.300  48.507   6.323  1.00  0.00    +0.000 H 
ATOM    134  H34 UNL A   1      14.264  46.640   7.485  1.00  0.00    +0.000 H 
ATOM     85  C60 UNL A   1      14.324  48.247   6.113  1.00  0.00    +0.000 C 
ATOM     86  C61 UNL A   1      13.722  47.189   6.801  1.00  0.00    +0.000 C 
ATOM     24  C18 UNL A   1      12.381  46.877   6.557  1.00  0.00    +0.000 C 
ATOM     25  C19 UNL A   1      11.617  47.688   5.716  1.00  0.00    +0.000 C 
ATOM     26  C20 UNL A   1      12.241  48.675   4.961  1.00  0.00    +0.000 C 
ATOM     27  C21 UNL A   1      13.606  48.956   5.136  1.00  0.00    +0.000 C 
ATOM    121  H21 UNL A   1      10.595  47.554   5.653  1.00  0.00    +0.000 H 
BRANCH   24   22
ATOM     22  C17 UNL A   1      11.807  45.652   7.158  1.00  0.00    +0.000 C 
ATOM     23  O4  UNL A   1      11.792  44.608   6.515  1.00  0.00    +0.000 O 
BRANCH   22   21
ATOM     21  N2  UNL A   1      11.251  45.705   8.417  1.00  0.00    +0.000 N 
ATOM    120  H20 UNL A   1      11.784  45.284   9.129  1.00  0.00    +0.000 H 
BRANCH   21   20
ATOM     20  C16 UNL A   1       9.991  46.291   8.848  1.00  0.00    +0.000 C 
ATOM    118  H18 UNL A   1       9.338  46.348   8.002  1.00  0.00    +0.000 H 
ATOM    119  H19 UNL A   1       9.601  45.664   9.622  1.00  0.00    +0.000 H 
BRANCH   20   19
ATOM     19  C15 UNL A   1      10.141  47.689   9.434  1.00  0.00    +0.000 C 
ATOM    116  H16 UNL A   1       9.774  48.388   8.712  1.00  0.00    +0.000 H 
ATOM    117  H17 UNL A   1       9.591  47.678  10.351  1.00  0.00    +0.000 H 
BRANCH   19   18
ATOM     18  C14 UNL A   1      11.562  48.106   9.810  1.00  0.00    +0.000 C 
ATOM    115  H15 UNL A   1      11.695  49.078   9.383  1.00  0.00    +0.000 H 
ATOM    114  H14 UNL A   1      12.229  47.360   9.432  1.00  0.00    +0.000 H 
BRANCH   18   17
ATOM     17  C13 UNL A   1      11.851  48.275  11.302  1.00  0.00    +0.000 C 
ATOM    113  H13 UNL A   1      10.911  48.109  11.787  1.00  0.00    +0.000 H 
ATOM    112  H12 UNL A   1      12.262  49.253  11.442  1.00  0.00    +0.000 H 
BRANCH   17   16
ATOM    110  H10 UNL A   1      13.100  46.578  11.176  1.00  0.00    +0.000 H 
ATOM    111  H11 UNL A   1      13.606  47.871  12.335  1.00  0.00    +0.000 H 
ATOM     16  C12 UNL A   1      12.812  47.273  11.938  1.00  0.00    +0.000 C 
BRANCH   16   15
ATOM    108  H8  UNL A   1      11.289  46.184  12.922  1.00  0.00    +0.000 H 
ATOM    109  H9  UNL A   1      12.971  45.634  13.221  1.00  0.00    +0.000 H 
ATOM     15  C11 UNL A   1      12.302  46.464  13.126  1.00  0.00    +0.000 C 
BRANCH   15   14
ATOM    107  H7  UNL A   1      13.040  46.840  15.017  1.00  0.00    +0.000 H 
ATOM     14  N1  UNL A   1      12.327  47.140  14.406  1.00  0.00    +0.000 N 
BRANCH   14   12
ATOM     12  C10 UNL A   1      11.516  48.134  14.908  1.00  0.00    +0.000 C 
ATOM     13  O3  UNL A   1      10.455  47.825  15.446  1.00  0.00    +0.000 O 
BRANCH   12   11
ATOM    135  H35 UNL A   1      10.188  50.443  15.687  1.00  0.00    +0.000 H 
ATOM    136  H36 UNL A   1      10.802  52.702  15.039  1.00  0.00    +0.000 H 
ATOM      9  C7  UNL A   1      13.661  51.156  14.277  1.00  0.00    +0.000 C 
ATOM    105  H5  UNL A   1      14.645  51.373  14.058  1.00  0.00    +0.000 H 
ATOM      8  C6  UNL A   1      12.707  52.166  14.310  1.00  0.00    +0.000 C 
ATOM     10  C8  UNL A   1      13.268  49.841  14.546  1.00  0.00    +0.000 C 
ATOM    106  H6  UNL A   1      13.954  49.074  14.465  1.00  0.00    +0.000 H 
ATOM     11  C9  UNL A   1      11.946  49.560  14.924  1.00  0.00    +0.000 C 
ATOM     87  C62 UNL A   1      11.090  50.620  15.217  1.00  0.00    +0.000 C 
ATOM     88  C63 UNL A   1      11.456  51.921  14.875  1.00  0.00    +0.000 C 
BRANCH    8    7
ATOM      7  O2  UNL A   1      12.948  53.437  13.885  1.00  0.00    +0.000 O 
BRANCH    7    6
ATOM      2  C2  UNL A   1      11.465  55.346  10.435  1.00  0.00    +0.000 C 
ATOM      3  C3  UNL A   1      10.961  55.674  11.626  1.00  0.00    +0.000 C 
ATOM    100  O7  UNL A   1      12.385  54.332  10.273  1.00  0.00    +0.000 O 
ATOM      4  C4  UNL A   1      11.444  54.967  12.819  1.00  0.00    +0.000 C 
ATOM      5  O1  UNL A   1      10.945  55.230  13.910  1.00  0.00    +0.000 O 
ATOM      6  C5  UNL A   1      12.527  53.942  12.660  1.00  0.00    +0.000 C 
ATOM    104  H4  UNL A   1      10.245  56.413  11.707  1.00  0.00    +0.000 H 
ATOM     89  C64 UNL A   1      12.883  53.647  11.380  1.00  0.00    +0.000 C 
BRANCH    2    1
ATOM      1  C1  UNL A   1      11.068  56.032   9.167  1.00  0.00    +0.000 C 
ATOM    101  H1  UNL A   1      10.036  55.835   8.964  1.00  0.00    +0.000 H 
ATOM    102  H2  UNL A   1      11.668  55.665   8.360  1.00  0.00    +0.000 H 
ATOM    103  H3  UNL A   1      11.216  57.087   9.270  1.00  0.00    +0.000 H 
ENDBRANCH    2    1
BRANCH   89   90
ATOM     98  C70 UNL A   1      16.019  51.548  11.018  1.00  0.00    +0.000 C 
ATOM     99  C71 UNL A   1      15.109  52.494  11.503  1.00  0.00    +0.000 C 
ATOM    137  H37 UNL A   1      12.501  51.754   9.527  1.00  0.00    +0.000 H 
ATOM    138  H38 UNL A   1      14.094  50.144   8.648  1.00  0.00    +0.000 H 
ATOM    142  H42 UNL A   1      16.961  51.473  11.436  1.00  0.00    +0.000 H 
ATOM    143  H43 UNL A   1      15.376  53.108  12.289  1.00  0.00    +0.000 H 
ATOM     90  C65 UNL A   1      13.835  52.614  10.927  1.00  0.00    +0.000 C 
ATOM     91  C66 UNL A   1      13.458  51.718   9.912  1.00  0.00    +0.000 C 
ATOM     92  C67 UNL A   1      14.368  50.779   9.415  1.00  0.00    +0.000 C 
ATOM     93  C68 UNL A   1      15.649  50.706   9.968  1.00  0.00    +0.000 C 
BRANCH   93   94
ATOM     97  O6  UNL A   1      18.047  49.652  10.050  1.00  0.00    +0.000 O 
ATOM     94  S1  UNL A   1      16.840  49.598   9.245  1.00  0.00    +0.000 S 
ATOM     96  O5  UNL A   1      16.868  49.866   7.822  1.00  0.00    +0.000 O 
BRANCH   94   95
ATOM    139  H39 UNL A   1      15.231  48.087  10.062  1.00  0.00    +0.000 H 
ATOM    140  H40 UNL A   1      16.821  47.365   9.991  1.00  0.00    +0.000 H 
ATOM    141  H41 UNL A   1      15.887  47.568   8.528  1.00  0.00    +0.000 H 
ATOM     95  C69 UNL A   1      16.124  47.996   9.480  1.00  0.00    +0.000 C 
ENDBRANCH   94   95
ENDBRANCH   93   94
ENDBRANCH   89   90
ENDBRANCH    7    6
ENDBRANCH    8    7
ENDBRANCH   12   11
ENDBRANCH   14   12
ENDBRANCH   15   14
ENDBRANCH   16   15
ENDBRANCH   17   16
ENDBRANCH   18   17
ENDBRANCH   19   18
ENDBRANCH   20   19
ENDBRANCH   21   20
ENDBRANCH   22   21
ENDBRANCH   24   22
ENDBRANCH   28   27
BRANCH   32   33
ATOM     33  C26 UNL A   1      16.802  48.551  -1.061  1.00  0.00    +0.000 C 
ATOM     34  C27 UNL A   1      15.964  48.265  -2.148  1.00  0.00    +0.000 C 
ATOM     35  F1  UNL A   1      14.829  48.960  -2.328  1.00  0.00    +0.000 F 
ATOM     36  C28 UNL A   1      16.272  47.244  -3.044  1.00  0.00    +0.000 C 
ATOM     37  F2  UNL A   1      15.437  46.967  -4.055  1.00  0.00    +0.000 F 
ATOM     38  C29 UNL A   1      17.441  46.513  -2.893  1.00  0.00    +0.000 C 
ATOM     39  F3  UNL A   1      17.746  45.545  -3.767  1.00  0.00    +0.000 F 
ATOM     40  C30 UNL A   1      18.291  46.785  -1.832  1.00  0.00    +0.000 C 
ATOM     41  F4  UNL A   1      19.429  46.092  -1.692  1.00  0.00    +0.000 F 
ATOM     42  C31 UNL A   1      17.970  47.784  -0.916  1.00  0.00    +0.000 C 
ATOM     43  F5  UNL A   1      18.811  48.020   0.101  1.00  0.00    +0.000 F 
ENDBRANCH   32   33
BRANCH   49   50
ATOM     50  C37 UNL A   1      18.021  55.643  -0.743  1.00  0.00    +0.000 C 
ATOM     51  C38 UNL A   1      17.333  56.377  -1.720  1.00  0.00    +0.000 C 
ATOM     52  F6  UNL A   1      16.047  56.105  -1.988  1.00  0.00    +0.000 F 
ATOM     53  C39 UNL A   1      17.975  57.372  -2.452  1.00  0.00    +0.000 C 
ATOM     54  F7  UNL A   1      17.310  58.029  -3.412  1.00  0.00    +0.000 F 
ATOM     55  C40 UNL A   1      19.303  57.678  -2.196  1.00  0.00    +0.000 C 
ATOM     56  F8  UNL A   1      19.915  58.647  -2.891  1.00  0.00    +0.000 F 
ATOM     57  C41 UNL A   1      19.998  56.977  -1.223  1.00  0.00    +0.000 C 
ATOM     58  F9  UNL A   1      21.277  57.284  -0.962  1.00  0.00    +0.000 F 
ATOM     59  C42 UNL A   1      19.369  55.958  -0.513  1.00  0.00    +0.000 C 
ATOM     60  F10 UNL A   1      20.072  55.293   0.416  1.00  0.00    +0.000 F 
ENDBRANCH   49   50
BRANCH   64   65
ATOM     65  C46 UNL A   1      14.618  55.893   5.342  1.00  0.00    +0.000 C 
ATOM     66  C47 UNL A   1      13.306  56.374   5.441  1.00  0.00    +0.000 C 
ATOM     67  F11 UNL A   1      12.347  55.874   4.648  1.00  0.00    +0.000 F 
ATOM     68  C48 UNL A   1      12.979  57.391   6.336  1.00  0.00    +0.000 C 
ATOM     69  F12 UNL A   1      11.724  57.857   6.386  1.00  0.00    +0.000 F 
ATOM     70  C49 UNL A   1      13.950  57.924   7.169  1.00  0.00    +0.000 C 
ATOM     71  F13 UNL A   1      13.631  58.890   8.042  1.00  0.00    +0.000 F 
ATOM     72  C50 UNL A   1      15.254  57.458   7.095  1.00  0.00    +0.000 C 
ATOM     73  F14 UNL A   1      16.192  57.957   7.912  1.00  0.00    +0.000 F 
ATOM     74  C51 UNL A   1      15.589  56.466   6.178  1.00  0.00    +0.000 C 
ATOM     75  F15 UNL A   1      16.859  56.039   6.124  1.00  0.00    +0.000 F 
ENDBRANCH   64   65
TORSDOF 21
ENDMDL
