MODEL 1
REMARK VINA RESULT:     -11.3      0.000      0.000
ROOT
ATOM     34  C25 UNL A   1      38.190  29.855  29.571  1.00  0.00    +0.000 C 
ATOM     35  C26 UNL A   1      38.389  30.430  30.948  1.00  0.00    +0.000 C 
ATOM     36  N4  UNL A   1      39.405  30.293  31.762  1.00  0.00    +0.000 N 
ATOM     37  C27 UNL A   1      39.093  31.046  32.886  1.00  0.00    +0.000 C 
ATOM     38  C28 UNL A   1      39.788  31.167  34.041  1.00  0.00    +0.000 C 
ATOM     50  C35 UNL A   1      41.032  30.498  34.310  1.00  0.00    +0.000 C 
ATOM     51  C36 UNL A   1      41.788  30.522  35.469  1.00  0.00    +0.000 C 
ATOM     52  C37 UNL A   1      42.929  29.745  35.261  1.00  0.00    +0.000 C 
ATOM     53  C38 UNL A   1      42.862  29.200  33.990  1.00  0.00    +0.000 C 
ATOM     54  N5  UNL A   1      41.696  29.677  33.414  1.00  0.00    +0.000 N 
ATOM     55  C39 UNL A   1      43.796  28.313  33.348  1.00  0.00    +0.000 C 
ATOM     67  C46 UNL A   1      43.667  27.823  32.091  1.00  0.00    +0.000 C 
ATOM     68  N6  UNL A   1      42.645  28.031  31.177  1.00  0.00    +0.000 N 
ATOM     69  C47 UNL A   1      42.978  27.359  30.103  1.00  0.00    +0.000 C 
ATOM     70  C48 UNL A   1      42.222  27.200  28.811  1.00  0.00    +0.000 C 
ATOM     82  C55 UNL A   1      41.040  27.830  28.656  1.00  0.00    +0.000 C 
ATOM     83  C56 UNL A   1      40.182  27.748  27.477  1.00  0.00    +0.000 C 
ATOM     84  C57 UNL A   1      39.085  28.496  27.678  1.00  0.00    +0.000 C 
ATOM     85  C58 UNL A   1      39.148  29.086  29.016  1.00  0.00    +0.000 C 
ATOM     86  N7  UNL A   1      40.357  28.661  29.511  1.00  0.00    +0.000 N 
ATOM     87  C59 UNL A   1      44.272  26.669  30.207  1.00  0.00    +0.000 C 
ATOM     88  C60 UNL A   1      44.631  26.952  31.452  1.00  0.00    +0.000 C 
ATOM     89  C61 UNL A   1      37.822  31.686  32.632  1.00  0.00    +0.000 C 
ATOM     90  C62 UNL A   1      37.314  31.286  31.475  1.00  0.00    +0.000 C 
ATOM    117  H25 UNL A   1      41.550  31.027  36.337  1.00  0.00    +0.000 H 
ATOM    118  H26 UNL A   1      43.694  29.602  35.940  1.00  0.00    +0.000 H 
ATOM    119  H27 UNL A   1      41.386  29.464  32.504  1.00  0.00    +0.000 H 
ATOM    120  H28 UNL A   1      40.386  27.202  26.626  1.00  0.00    +0.000 H 
ATOM    121  H29 UNL A   1      38.321  28.633  26.999  1.00  0.00    +0.000 H 
ATOM    122  H30 UNL A   1      40.700  28.926  30.394  1.00  0.00    +0.000 H 
ATOM    123  H31 UNL A   1      44.771  26.110  29.498  1.00  0.00    +0.000 H 
ATOM    124  H32 UNL A   1      45.487  26.599  31.907  1.00  0.00    +0.000 H 
ATOM    125  H33 UNL A   1      37.371  32.364  33.266  1.00  0.00    +0.000 H 
ATOM    126  H34 UNL A   1      36.400  31.516  31.054  1.00  0.00    +0.000 H 
ENDROOT
BRANCH   34   33
ATOM     33  C24 UNL A   1      36.939  30.139  28.821  1.00  0.00    +0.000 C 
ATOM    127  H35 UNL A   1      37.307  32.211  28.608  1.00  0.00    +0.000 H 
ATOM    115  H23 UNL A   1      34.184  28.621  27.631  1.00  0.00    +0.000 H 
ATOM    116  H24 UNL A   1      36.239  28.143  28.827  1.00  0.00    +0.000 H 
ATOM     91  C63 UNL A   1      36.628  31.452  28.439  1.00  0.00    +0.000 C 
ATOM     92  C64 UNL A   1      35.405  31.738  27.832  1.00  0.00    +0.000 C 
ATOM     32  C23 UNL A   1      36.028  29.110  28.536  1.00  0.00    +0.000 C 
ATOM     30  C21 UNL A   1      34.529  30.702  27.498  1.00  0.00    +0.000 C 
ATOM     31  C22 UNL A   1      34.837  29.387  27.861  1.00  0.00    +0.000 C 
ATOM    128  H36 UNL A   1      35.148  32.716  27.629  1.00  0.00    +0.000 H 
BRANCH   30    2
ATOM      1  O1  UNL A   1      32.522  31.881  27.213  1.00  0.00    +0.000 O 
ATOM      2  C1  UNL A   1      33.236  30.960  26.822  1.00  0.00    +0.000 C 
BRANCH    2    3
ATOM      3  N1  UNL A   1      32.822  30.178  25.776  1.00  0.00    +0.000 N 
ATOM     93  H1  UNL A   1      33.424  30.169  24.998  1.00  0.00    +0.000 H 
BRANCH    3    4
ATOM      4  C2  UNL A   1      31.629  29.361  25.642  1.00  0.00    +0.000 C 
ATOM     94  H2  UNL A   1      31.408  29.245  24.602  1.00  0.00    +0.000 H 
ATOM     95  H3  UNL A   1      30.836  29.858  26.160  1.00  0.00    +0.000 H 
BRANCH    4    5
ATOM     97  H5  UNL A   1      32.001  28.146  27.302  1.00  0.00    +0.000 H 
ATOM      5  C3  UNL A   1      31.795  27.979  26.265  1.00  0.00    +0.000 C 
ATOM     96  H4  UNL A   1      30.893  27.428  26.090  1.00  0.00    +0.000 H 
BRANCH    5    6
ATOM     98  H6  UNL A   1      33.871  27.671  25.967  1.00  0.00    +0.000 H 
ATOM     99  H7  UNL A   1      32.791  27.048  24.677  1.00  0.00    +0.000 H 
ATOM      6  C4  UNL A   1      32.966  27.153  25.728  1.00  0.00    +0.000 C 
BRANCH    6    7
ATOM    100  H8  UNL A   1      32.178  25.208  26.029  1.00  0.00    +0.000 H 
ATOM    101  H9  UNL A   1      33.244  25.833  27.329  1.00  0.00    +0.000 H 
ATOM      7  C5  UNL A   1      33.079  25.729  26.277  1.00  0.00    +0.000 C 
BRANCH    7    8
ATOM    102  H10 UNL A   1      35.089  25.060  26.404  1.00  0.00    +0.000 H 
ATOM    103  H11 UNL A   1      34.433  25.250  24.749  1.00  0.00    +0.000 H 
ATOM      8  C6  UNL A   1      34.258  24.907  25.748  1.00  0.00    +0.000 C 
BRANCH    8    9
ATOM      9  C7  UNL A   1      34.008  23.406  25.643  1.00  0.00    +0.000 C 
ATOM    105  H13 UNL A   1      34.806  22.904  26.150  1.00  0.00    +0.000 H 
ATOM    104  H12 UNL A   1      33.061  23.182  26.088  1.00  0.00    +0.000 H 
BRANCH    9   10
ATOM     10  N2  UNL A   1      33.998  22.947  24.267  1.00  0.00    +0.000 N 
ATOM    106  H14 UNL A   1      34.850  22.587  23.928  1.00  0.00    +0.000 H 
BRANCH   10   11
ATOM     11  C8  UNL A   1      32.953  22.953  23.377  1.00  0.00    +0.000 C 
ATOM     12  O2  UNL A   1      32.612  21.919  22.808  1.00  0.00    +0.000 O 
BRANCH   11   13
ATOM    107  H15 UNL A   1      30.494  23.414  24.187  1.00  0.00    +0.000 H 
ATOM    108  H16 UNL A   1      29.159  25.429  23.956  1.00  0.00    +0.000 H 
ATOM     13  C9  UNL A   1      32.175  24.189  23.167  1.00  0.00    +0.000 C 
ATOM     14  C10 UNL A   1      30.881  24.236  23.696  1.00  0.00    +0.000 C 
ATOM     15  C11 UNL A   1      30.112  25.394  23.561  1.00  0.00    +0.000 C 
ATOM     16  C12 UNL A   1      30.631  26.509  22.888  1.00  0.00    +0.000 C 
ATOM    113  H21 UNL A   1      32.298  27.253  21.819  1.00  0.00    +0.000 H 
ATOM     27  C19 UNL A   1      31.917  26.441  22.329  1.00  0.00    +0.000 C 
ATOM     28  C20 UNL A   1      32.681  25.282  22.458  1.00  0.00    +0.000 C 
BRANCH   16   17
ATOM    109  H17 UNL A   1      31.445  29.006  21.991  1.00  0.00    +0.000 H 
ATOM    110  H18 UNL A   1      30.209  31.015  22.004  1.00  0.00    +0.000 H 
ATOM    112  H20 UNL A   1      28.125  26.876  23.424  1.00  0.00    +0.000 H 
ATOM     17  C13 UNL A   1      29.860  27.759  22.754  1.00  0.00    +0.000 C 
ATOM     18  C14 UNL A   1      30.463  29.001  22.309  1.00  0.00    +0.000 C 
ATOM     19  C15 UNL A   1      29.759  30.138  22.308  1.00  0.00    +0.000 C 
ATOM     20  N3  UNL A   1      28.436  30.156  22.708  1.00  0.00    +0.000 N 
ATOM     24  C17 UNL A   1      27.764  29.013  23.111  1.00  0.00    +0.000 C 
ATOM     25  O3  UNL A   1      26.592  28.960  23.468  1.00  0.00    +0.000 O 
ATOM     26  C18 UNL A   1      28.567  27.759  23.125  1.00  0.00    +0.000 C 
BRANCH   20   21
ATOM     21  C16 UNL A   1      27.702  31.394  22.746  1.00  0.00    +0.000 C 
ATOM     22  F1  UNL A   1      28.134  32.192  23.752  1.00  0.00    +0.000 F 
ATOM    111  H19 UNL A   1      26.674  31.141  22.903  1.00  0.00    +0.000 H 
ATOM     23  F2  UNL A   1      27.840  32.073  21.580  1.00  0.00    +0.000 F 
ENDBRANCH   20   21
ENDBRANCH   16   17
BRANCH   28   29
ATOM    114  H22 UNL A   1      34.126  24.583  21.254  1.00  0.00    +0.000 H 
ATOM     29  O4  UNL A   1      33.928  25.233  21.898  1.00  0.00    +0.000 O 
ENDBRANCH   28   29
ENDBRANCH   11   13
ENDBRANCH   10   11
ENDBRANCH    9   10
ENDBRANCH    8    9
ENDBRANCH    7    8
ENDBRANCH    6    7
ENDBRANCH    5    6
ENDBRANCH    4    5
ENDBRANCH    3    4
ENDBRANCH    2    3
ENDBRANCH   30    2
ENDBRANCH   34   33
BRANCH   38   39
ATOM     39  C29 UNL A   1      39.213  32.032  35.124  1.00  0.00    +0.000 C 
ATOM     40  C30 UNL A   1      38.461  31.481  36.171  1.00  0.00    +0.000 C 
ATOM     41  F3  UNL A   1      38.158  30.174  36.172  1.00  0.00    +0.000 F 
ATOM     42  C31 UNL A   1      38.005  32.276  37.219  1.00  0.00    +0.000 C 
ATOM     43  F4  UNL A   1      37.266  31.734  38.197  1.00  0.00    +0.000 F 
ATOM     44  C32 UNL A   1      38.313  33.628  37.253  1.00  0.00    +0.000 C 
ATOM     45  F5  UNL A   1      37.892  34.387  38.274  1.00  0.00    +0.000 F 
ATOM     46  C33 UNL A   1      39.058  34.193  36.229  1.00  0.00    +0.000 C 
ATOM     47  F6  UNL A   1      39.370  35.495  36.267  1.00  0.00    +0.000 F 
ATOM     48  C34 UNL A   1      39.494  33.405  35.166  1.00  0.00    +0.000 C 
ATOM     49  F7  UNL A   1      40.215  33.979  34.191  1.00  0.00    +0.000 F 
ENDBRANCH   38   39
BRANCH   55   56
ATOM     65  C45 UNL A   1      46.199  28.626  34.034  1.00  0.00    +0.000 C 
ATOM     66  F12 UNL A   1      46.251  29.741  33.291  1.00  0.00    +0.000 F 
ATOM     56  C40 UNL A   1      45.001  27.903  34.143  1.00  0.00    +0.000 C 
ATOM     57  C41 UNL A   1      45.001  26.739  34.922  1.00  0.00    +0.000 C 
ATOM     58  F8  UNL A   1      43.875  26.022  35.063  1.00  0.00    +0.000 F 
ATOM     59  C42 UNL A   1      46.158  26.312  35.568  1.00  0.00    +0.000 C 
ATOM     60  F9  UNL A   1      46.131  25.207  36.323  1.00  0.00    +0.000 F 
ATOM     61  C43 UNL A   1      47.339  27.027  35.426  1.00  0.00    +0.000 C 
ATOM     62  F10 UNL A   1      48.457  26.599  36.026  1.00  0.00    +0.000 F 
ATOM     63  C44 UNL A   1      47.360  28.182  34.659  1.00  0.00    +0.000 C 
ATOM     64  F11 UNL A   1      48.504  28.864  34.507  1.00  0.00    +0.000 F 
ENDBRANCH   55   56
BRANCH   70   71
ATOM     71  C49 UNL A   1      42.744  26.330  27.725  1.00  0.00    +0.000 C 
ATOM     72  C50 UNL A   1      42.350  24.987  27.627  1.00  0.00    +0.000 C 
ATOM     73  F13 UNL A   1      41.510  24.469  28.536  1.00  0.00    +0.000 F 
ATOM     74  C51 UNL A   1      42.843  24.163  26.618  1.00  0.00    +0.000 C 
ATOM     75  F14 UNL A   1      42.480  22.874  26.572  1.00  0.00    +0.000 F 
ATOM     76  C52 UNL A   1      43.718  24.671  25.670  1.00  0.00    +0.000 C 
ATOM     77  F15 UNL A   1      44.186  23.880  24.694  1.00  0.00    +0.000 F 
ATOM     78  C53 UNL A   1      44.112  25.999  25.738  1.00  0.00    +0.000 C 
ATOM     79  F16 UNL A   1      44.946  26.497  24.815  1.00  0.00    +0.000 F 
ATOM     80  C54 UNL A   1      43.641  26.817  26.762  1.00  0.00    +0.000 C 
ATOM     81  F17 UNL A   1      44.047  28.094  26.809  1.00  0.00    +0.000 F 
ENDBRANCH   70   71
TORSDOF 18
ENDMDL
MODEL 2
REMARK VINA RESULT:     -11.2     18.152     22.981
ROOT
ATOM     34  C25 UNL A   1      25.521  35.643  45.279  1.00  0.00    +0.000 C 
ATOM     35  C26 UNL A   1      25.304  36.786  46.234  1.00  0.00    +0.000 C 
ATOM     36  N4  UNL A   1      26.129  37.742  46.580  1.00  0.00    +0.000 N 
ATOM     37  C27 UNL A   1      25.426  38.547  47.466  1.00  0.00    +0.000 C 
ATOM     38  C28 UNL A   1      25.864  39.622  48.161  1.00  0.00    +0.000 C 
ATOM     50  C35 UNL A   1      27.206  40.135  48.095  1.00  0.00    +0.000 C 
ATOM     51  C36 UNL A   1      27.757  41.192  48.798  1.00  0.00    +0.000 C 
ATOM     52  C37 UNL A   1      29.084  41.343  48.387  1.00  0.00    +0.000 C 
ATOM     53  C38 UNL A   1      29.372  40.352  47.464  1.00  0.00    +0.000 C 
ATOM     54  N5  UNL A   1      28.208  39.622  47.287  1.00  0.00    +0.000 N 
ATOM     55  C39 UNL A   1      30.617  40.094  46.789  1.00  0.00    +0.000 C 
ATOM     67  C46 UNL A   1      30.824  39.105  45.887  1.00  0.00    +0.000 C 
ATOM     68  N6  UNL A   1      29.936  38.139  45.436  1.00  0.00    +0.000 N 
ATOM     69  C47 UNL A   1      30.596  37.421  44.562  1.00  0.00    +0.000 C 
ATOM     70  C48 UNL A   1      30.137  36.218  43.782  1.00  0.00    +0.000 C 
ATOM     82  C55 UNL A   1      28.873  35.776  43.935  1.00  0.00    +0.000 C 
ATOM     83  C56 UNL A   1      28.295  34.610  43.271  1.00  0.00    +0.000 C 
ATOM     84  C57 UNL A   1      27.019  34.466  43.667  1.00  0.00    +0.000 C 
ATOM     85  C58 UNL A   1      26.699  35.514  44.637  1.00  0.00    +0.000 C 
ATOM     86  N7  UNL A   1      27.848  36.262  44.711  1.00  0.00    +0.000 N 
ATOM     87  C59 UNL A   1      31.977  37.872  44.339  1.00  0.00    +0.000 C 
ATOM     88  C60 UNL A   1      32.077  38.878  45.199  1.00  0.00    +0.000 C 
ATOM     89  C61 UNL A   1      24.089  38.006  47.564  1.00  0.00    +0.000 C 
ATOM     90  C62 UNL A   1      23.982  36.880  46.874  1.00  0.00    +0.000 C 
ATOM    117  H25 UNL A   1      27.273  41.769  49.503  1.00  0.00    +0.000 H 
ATOM    118  H26 UNL A   1      29.739  42.070  48.717  1.00  0.00    +0.000 H 
ATOM    119  H27 UNL A   1      28.108  38.855  46.679  1.00  0.00    +0.000 H 
ATOM    120  H28 UNL A   1      28.788  33.995  42.607  1.00  0.00    +0.000 H 
ATOM    121  H29 UNL A   1      26.370  33.735  43.339  1.00  0.00    +0.000 H 
ATOM    122  H30 UNL A   1      27.930  37.069  45.268  1.00  0.00    +0.000 H 
ATOM    123  H31 UNL A   1      32.685  37.505  43.684  1.00  0.00    +0.000 H 
ATOM    124  H32 UNL A   1      32.936  39.427  45.357  1.00  0.00    +0.000 H 
ATOM    125  H33 UNL A   1      23.320  38.439  48.100  1.00  0.00    +0.000 H 
ATOM    126  H34 UNL A   1      23.178  36.236  46.803  1.00  0.00    +0.000 H 
ENDROOT
BRANCH   34   33
ATOM     33  C24 UNL A   1      24.434  34.658  45.040  1.00  0.00    +0.000 C 
ATOM    127  H35 UNL A   1      23.300  35.924  43.781  1.00  0.00    +0.000 H 
ATOM    115  H23 UNL A   1      23.484  31.539  45.860  1.00  0.00    +0.000 H 
ATOM    116  H24 UNL A   1      25.279  33.127  46.230  1.00  0.00    +0.000 H 
ATOM     91  C63 UNL A   1      23.323  35.009  44.258  1.00  0.00    +0.000 C 
ATOM     92  C64 UNL A   1      22.251  34.128  44.121  1.00  0.00    +0.000 C 
ATOM     32  C23 UNL A   1      24.474  33.389  45.638  1.00  0.00    +0.000 C 
ATOM     30  C21 UNL A   1      22.325  32.844  44.670  1.00  0.00    +0.000 C 
ATOM     31  C22 UNL A   1      23.434  32.480  45.439  1.00  0.00    +0.000 C 
ATOM    128  H36 UNL A   1      21.403  34.424  43.614  1.00  0.00    +0.000 H 
BRANCH   30    2
ATOM      1  O1  UNL A   1      21.407  30.692  44.831  1.00  0.00    +0.000 O 
ATOM      2  C1  UNL A   1      21.222  31.866  44.519  1.00  0.00    +0.000 C 
BRANCH    2    3
ATOM      3  N1  UNL A   1      20.004  32.253  44.025  1.00  0.00    +0.000 N 
ATOM     93  H1  UNL A   1      19.934  32.260  43.043  1.00  0.00    +0.000 H 
BRANCH    3    4
ATOM      4  C2  UNL A   1      18.800  32.654  44.730  1.00  0.00    +0.000 C 
ATOM     94  H2  UNL A   1      18.943  32.485  45.777  1.00  0.00    +0.000 H 
ATOM     95  H3  UNL A   1      17.989  32.072  44.345  1.00  0.00    +0.000 H 
BRANCH    4    5
ATOM     97  H5  UNL A   1      18.853  34.647  45.360  1.00  0.00    +0.000 H 
ATOM      5  C3  UNL A   1      18.459  34.124  44.514  1.00  0.00    +0.000 C 
ATOM     96  H4  UNL A   1      18.890  34.430  43.582  1.00  0.00    +0.000 H 
BRANCH    5    6
ATOM     98  H6  UNL A   1      16.792  35.098  43.637  1.00  0.00    +0.000 H 
ATOM     99  H7  UNL A   1      16.738  34.899  45.419  1.00  0.00    +0.000 H 
ATOM      6  C4  UNL A   1      16.965  34.453  44.473  1.00  0.00    +0.000 C 
BRANCH    6    7
ATOM    100  H8  UNL A   1      15.228  33.380  45.044  1.00  0.00    +0.000 H 
ATOM    101  H9  UNL A   1      16.628  32.387  44.526  1.00  0.00    +0.000 H 
ATOM      7  C5  UNL A   1      16.025  33.251  44.342  1.00  0.00    +0.000 C 
BRANCH    7    8
ATOM    102  H10 UNL A   1      15.594  33.921  42.375  1.00  0.00    +0.000 H 
ATOM    103  H11 UNL A   1      14.364  32.856  43.124  1.00  0.00    +0.000 H 
ATOM      8  C6  UNL A   1      15.405  33.044  42.958  1.00  0.00    +0.000 C 
BRANCH    8    9
ATOM      9  C7  UNL A   1      15.933  31.840  42.184  1.00  0.00    +0.000 C 
ATOM    105  H13 UNL A   1      15.496  31.860  41.207  1.00  0.00    +0.000 H 
ATOM    104  H12 UNL A   1      17.000  31.903  42.134  1.00  0.00    +0.000 H 
BRANCH    9   10
ATOM     10  N2  UNL A   1      15.567  30.583  42.808  1.00  0.00    +0.000 N 
ATOM    106  H14 UNL A   1      14.658  30.539  43.184  1.00  0.00    +0.000 H 
BRANCH   10   11
ATOM     11  C8  UNL A   1      16.329  29.449  42.945  1.00  0.00    +0.000 C 
ATOM     12  O2  UNL A   1      17.486  29.520  43.350  1.00  0.00    +0.000 O 
BRANCH   11   13
ATOM    107  H15 UNL A   1      15.589  28.490  40.611  1.00  0.00    +0.000 H 
ATOM    108  H16 UNL A   1      14.664  26.310  40.076  1.00  0.00    +0.000 H 
ATOM     13  C9  UNL A   1      15.728  28.126  42.688  1.00  0.00    +0.000 C 
ATOM     14  C10 UNL A   1      15.420  27.802  41.362  1.00  0.00    +0.000 C 
ATOM     15  C11 UNL A   1      14.886  26.549  41.055  1.00  0.00    +0.000 C 
ATOM     16  C12 UNL A   1      14.647  25.617  42.074  1.00  0.00    +0.000 C 
ATOM    113  H21 UNL A   1      14.738  25.286  44.162  1.00  0.00    +0.000 H 
ATOM     27  C19 UNL A   1      14.925  25.962  43.406  1.00  0.00    +0.000 C 
ATOM     28  C20 UNL A   1      15.453  27.216  43.712  1.00  0.00    +0.000 C 
BRANCH   16   17
ATOM    109  H17 UNL A   1      14.102  23.513  43.800  1.00  0.00    +0.000 H 
ATOM    110  H18 UNL A   1      13.447  21.319  43.237  1.00  0.00    +0.000 H 
ATOM    112  H20 UNL A   1      13.955  24.665  39.767  1.00  0.00    +0.000 H 
ATOM     17  C13 UNL A   1      14.113  24.273  41.782  1.00  0.00    +0.000 C 
ATOM     18  C14 UNL A   1      13.933  23.267  42.812  1.00  0.00    +0.000 C 
ATOM     19  C15 UNL A   1      13.553  22.026  42.492  1.00  0.00    +0.000 C 
ATOM     20  N3  UNL A   1      13.302  21.675  41.180  1.00  0.00    +0.000 N 
ATOM     24  C17 UNL A   1      13.408  22.577  40.134  1.00  0.00    +0.000 C 
ATOM     25  O3  UNL A   1      13.190  22.333  38.952  1.00  0.00    +0.000 O 
ATOM     26  C18 UNL A   1      13.850  23.951  40.503  1.00  0.00    +0.000 C 
BRANCH   20   21
ATOM     21  C16 UNL A   1      12.937  20.323  40.843  1.00  0.00    +0.000 C 
ATOM     22  F1  UNL A   1      13.707  19.426  41.504  1.00  0.00    +0.000 F 
ATOM    111  H19 UNL A   1      13.085  20.215  39.788  1.00  0.00    +0.000 H 
ATOM     23  F2  UNL A   1      11.641  20.080  41.158  1.00  0.00    +0.000 F 
ENDBRANCH   20   21
ENDBRANCH   16   17
BRANCH   28   29
ATOM    114  H22 UNL A   1      15.009  27.559  45.639  1.00  0.00    +0.000 H 
ATOM     29  O4  UNL A   1      15.708  27.537  45.017  1.00  0.00    +0.000 O 
ENDBRANCH   28   29
ENDBRANCH   11   13
ENDBRANCH   10   11
ENDBRANCH    9   10
ENDBRANCH    8    9
ENDBRANCH    7    8
ENDBRANCH    6    7
ENDBRANCH    5    6
ENDBRANCH    4    5
ENDBRANCH    3    4
ENDBRANCH    2    3
ENDBRANCH   30    2
ENDBRANCH   34   33
BRANCH   38   39
ATOM     39  C29 UNL A   1      24.901  40.308  49.083  1.00  0.00    +0.000 C 
ATOM     40  C30 UNL A   1      24.080  41.352  48.632  1.00  0.00    +0.000 C 
ATOM     41  F3  UNL A   1      24.213  41.824  47.384  1.00  0.00    +0.000 F 
ATOM     42  C31 UNL A   1      23.127  41.925  49.469  1.00  0.00    +0.000 C 
ATOM     43  F4  UNL A   1      22.371  42.939  49.025  1.00  0.00    +0.000 F 
ATOM     44  C32 UNL A   1      22.958  41.450  50.761  1.00  0.00    +0.000 C 
ATOM     45  F5  UNL A   1      22.024  41.988  51.558  1.00  0.00    +0.000 F 
ATOM     46  C33 UNL A   1      23.757  40.416  51.227  1.00  0.00    +0.000 C 
ATOM     47  F6  UNL A   1      23.584  39.945  52.470  1.00  0.00    +0.000 F 
ATOM     48  C34 UNL A   1      24.729  39.858  50.401  1.00  0.00    +0.000 C 
ATOM     49  F7  UNL A   1      25.485  38.858  50.878  1.00  0.00    +0.000 F 
ENDBRANCH   38   39
BRANCH   55   56
ATOM     65  C45 UNL A   1      31.857  42.273  46.546  1.00  0.00    +0.000 C 
ATOM     66  F12 UNL A   1      30.867  42.733  45.768  1.00  0.00    +0.000 F 
ATOM     56  C40 UNL A   1      31.770  40.996  47.122  1.00  0.00    +0.000 C 
ATOM     57  C41 UNL A   1      32.835  40.556  47.919  1.00  0.00    +0.000 C 
ATOM     58  F8  UNL A   1      32.789  39.347  48.499  1.00  0.00    +0.000 F 
ATOM     59  C42 UNL A   1      33.948  41.364  48.131  1.00  0.00    +0.000 C 
ATOM     60  F9  UNL A   1      34.947  40.931  48.911  1.00  0.00    +0.000 F 
ATOM     61  C43 UNL A   1      34.028  42.612  47.531  1.00  0.00    +0.000 C 
ATOM     62  F10 UNL A   1      35.112  43.377  47.714  1.00  0.00    +0.000 F 
ATOM     63  C44 UNL A   1      32.984  43.067  46.738  1.00  0.00    +0.000 C 
ATOM     64  F11 UNL A   1      33.066  44.265  46.145  1.00  0.00    +0.000 F 
ENDBRANCH   55   56
BRANCH   70   71
ATOM     71  C49 UNL A   1      31.070  35.494  42.880  1.00  0.00    +0.000 C 
ATOM     72  C50 UNL A   1      31.763  34.358  43.323  1.00  0.00    +0.000 C 
ATOM     73  F13 UNL A   1      31.604  33.927  44.584  1.00  0.00    +0.000 F 
ATOM     74  C51 UNL A   1      32.646  33.679  42.486  1.00  0.00    +0.000 C 
ATOM     75  F14 UNL A   1      33.324  32.620  42.949  1.00  0.00    +0.000 F 
ATOM     76  C52 UNL A   1      32.835  34.106  41.181  1.00  0.00    +0.000 C 
ATOM     77  F15 UNL A   1      33.678  33.450  40.373  1.00  0.00    +0.000 F 
ATOM     78  C53 UNL A   1      32.151  35.220  40.715  1.00  0.00    +0.000 C 
ATOM     79  F16 UNL A   1      32.319  35.627  39.450  1.00  0.00    +0.000 F 
ATOM     80  C54 UNL A   1      31.288  35.915  41.560  1.00  0.00    +0.000 C 
ATOM     81  F17 UNL A   1      30.648  36.994  41.085  1.00  0.00    +0.000 F 
ENDBRANCH   70   71
TORSDOF 18
ENDMDL
MODEL 3
REMARK VINA RESULT:     -11.2     18.063     22.916
ROOT
ATOM     34  C25 UNL A   1      25.712  35.878  45.523  1.00  0.00    +0.000 C 
ATOM     35  C26 UNL A   1      25.555  37.044  46.462  1.00  0.00    +0.000 C 
ATOM     36  N4  UNL A   1      26.410  37.992  46.753  1.00  0.00    +0.000 N 
ATOM     37  C27 UNL A   1      25.758  38.828  47.650  1.00  0.00    +0.000 C 
ATOM     38  C28 UNL A   1      26.244  39.908  48.304  1.00  0.00    +0.000 C 
ATOM     50  C35 UNL A   1      27.590  40.396  48.171  1.00  0.00    +0.000 C 
ATOM     51  C36 UNL A   1      28.188  41.457  48.827  1.00  0.00    +0.000 C 
ATOM     52  C37 UNL A   1      29.499  41.576  48.359  1.00  0.00    +0.000 C 
ATOM     53  C38 UNL A   1      29.731  40.561  47.445  1.00  0.00    +0.000 C 
ATOM     54  N5  UNL A   1      28.548  39.849  47.333  1.00  0.00    +0.000 N 
ATOM     55  C39 UNL A   1      30.942  40.268  46.725  1.00  0.00    +0.000 C 
ATOM     67  C46 UNL A   1      31.093  39.257  45.836  1.00  0.00    +0.000 C 
ATOM     68  N6  UNL A   1      30.171  38.298  45.443  1.00  0.00    +0.000 N 
ATOM     69  C47 UNL A   1      30.782  37.551  44.558  1.00  0.00    +0.000 C 
ATOM     70  C48 UNL A   1      30.270  36.340  43.823  1.00  0.00    +0.000 C 
ATOM     82  C55 UNL A   1      29.006  35.924  44.038  1.00  0.00    +0.000 C 
ATOM     83  C56 UNL A   1      28.381  34.755  43.424  1.00  0.00    +0.000 C 
ATOM     84  C57 UNL A   1      27.121  34.642  43.875  1.00  0.00    +0.000 C 
ATOM     85  C58 UNL A   1      26.859  35.715  44.836  1.00  0.00    +0.000 C 
ATOM     86  N7  UNL A   1      28.024  36.443  44.846  1.00  0.00    +0.000 N 
ATOM     87  C59 UNL A   1      32.160  37.972  44.267  1.00  0.00    +0.000 C 
ATOM     88  C60 UNL A   1      32.313  38.993  45.101  1.00  0.00    +0.000 C 
ATOM     89  C61 UNL A   1      24.418  38.313  47.816  1.00  0.00    +0.000 C 
ATOM     90  C62 UNL A   1      24.263  37.174  47.155  1.00  0.00    +0.000 C 
ATOM    117  H25 UNL A   1      27.744  42.057  49.540  1.00  0.00    +0.000 H 
ATOM    118  H26 UNL A   1      30.179  42.298  48.645  1.00  0.00    +0.000 H 
ATOM    119  H27 UNL A   1      28.409  39.071  46.745  1.00  0.00    +0.000 H 
ATOM    120  H28 UNL A   1      28.835  34.118  42.752  1.00  0.00    +0.000 H 
ATOM    121  H29 UNL A   1      26.446  33.916  43.590  1.00  0.00    +0.000 H 
ATOM    122  H30 UNL A   1      28.142  37.260  45.382  1.00  0.00    +0.000 H 
ATOM    123  H31 UNL A   1      32.833  37.579  43.591  1.00  0.00    +0.000 H 
ATOM    124  H32 UNL A   1      33.186  39.530  45.211  1.00  0.00    +0.000 H 
ATOM    125  H33 UNL A   1      23.680  38.770  48.374  1.00  0.00    +0.000 H 
ATOM    126  H34 UNL A   1      23.446  36.544  47.131  1.00  0.00    +0.000 H 
ENDROOT
BRANCH   34   33
ATOM     33  C24 UNL A   1      24.599  34.908  45.351  1.00  0.00    +0.000 C 
ATOM    127  H35 UNL A   1      23.623  36.002  43.827  1.00  0.00    +0.000 H 
ATOM    115  H23 UNL A   1      23.442  31.991  46.559  1.00  0.00    +0.000 H 
ATOM    116  H24 UNL A   1      25.279  33.551  46.824  1.00  0.00    +0.000 H 
ATOM     91  C63 UNL A   1      23.567  35.173  44.438  1.00  0.00    +0.000 C 
ATOM     92  C64 UNL A   1      22.467  34.320  44.352  1.00  0.00    +0.000 C 
ATOM     32  C23 UNL A   1      24.534  33.747  46.137  1.00  0.00    +0.000 C 
ATOM     30  C21 UNL A   1      22.438  33.136  45.095  1.00  0.00    +0.000 C 
ATOM     31  C22 UNL A   1      23.469  32.856  45.997  1.00  0.00    +0.000 C 
ATOM    128  H36 UNL A   1      21.674  34.564  43.739  1.00  0.00    +0.000 H 
BRANCH   30    2
ATOM      1  O1  UNL A   1      20.845  31.695  46.035  1.00  0.00    +0.000 O 
ATOM      2  C1  UNL A   1      21.303  32.187  45.007  1.00  0.00    +0.000 C 
BRANCH    2    3
ATOM      3  N1  UNL A   1      20.768  31.844  43.793  1.00  0.00    +0.000 N 
ATOM     93  H1  UNL A   1      21.404  31.458  43.150  1.00  0.00    +0.000 H 
BRANCH    3    4
ATOM      4  C2  UNL A   1      19.403  31.965  43.312  1.00  0.00    +0.000 C 
ATOM     94  H2  UNL A   1      18.805  31.215  43.785  1.00  0.00    +0.000 H 
ATOM     95  H3  UNL A   1      19.422  31.842  42.249  1.00  0.00    +0.000 H 
BRANCH    4    5
ATOM     97  H5  UNL A   1      18.755  33.412  44.676  1.00  0.00    +0.000 H 
ATOM      5  C3  UNL A   1      18.798  33.333  43.609  1.00  0.00    +0.000 C 
ATOM     96  H4  UNL A   1      19.419  34.075  43.149  1.00  0.00    +0.000 H 
BRANCH    5    6
ATOM     98  H6  UNL A   1      17.146  32.763  42.410  1.00  0.00    +0.000 H 
ATOM     99  H7  UNL A   1      17.343  34.523  42.690  1.00  0.00    +0.000 H 
ATOM      6  C4  UNL A   1      17.366  33.540  43.111  1.00  0.00    +0.000 C 
BRANCH    6    7
ATOM    100  H8  UNL A   1      15.633  34.355  44.019  1.00  0.00    +0.000 H 
ATOM    101  H9  UNL A   1      16.797  33.558  45.126  1.00  0.00    +0.000 H 
ATOM      7  C5  UNL A   1      16.280  33.521  44.190  1.00  0.00    +0.000 C 
BRANCH    7    8
ATOM    102  H10 UNL A   1      14.943  32.143  43.285  1.00  0.00    +0.000 H 
ATOM    103  H11 UNL A   1      14.726  32.400  45.043  1.00  0.00    +0.000 H 
ATOM      8  C6  UNL A   1      15.416  32.257  44.238  1.00  0.00    +0.000 C 
BRANCH    8    9
ATOM      9  C7  UNL A   1      16.169  30.968  44.549  1.00  0.00    +0.000 C 
ATOM    105  H13 UNL A   1      17.215  31.159  44.419  1.00  0.00    +0.000 H 
ATOM    104  H12 UNL A   1      15.949  30.674  45.554  1.00  0.00    +0.000 H 
BRANCH    9   10
ATOM     10  N2  UNL A   1      15.801  29.888  43.654  1.00  0.00    +0.000 N 
ATOM    106  H14 UNL A   1      14.898  29.943  43.263  1.00  0.00    +0.000 H 
BRANCH   10   11
ATOM     11  C8  UNL A   1      16.549  28.798  43.285  1.00  0.00    +0.000 C 
ATOM     12  O2  UNL A   1      17.774  28.825  43.369  1.00  0.00    +0.000 O 
BRANCH   11   13
ATOM    107  H15 UNL A   1      15.450  28.318  40.945  1.00  0.00    +0.000 H 
ATOM    108  H16 UNL A   1      14.388  26.289  40.139  1.00  0.00    +0.000 H 
ATOM     13  C9  UNL A   1      15.875  27.552  42.868  1.00  0.00    +0.000 C 
ATOM     14  C10 UNL A   1      15.369  27.496  41.564  1.00  0.00    +0.000 C 
ATOM     15  C11 UNL A   1      14.756  26.330  41.102  1.00  0.00    +0.000 C 
ATOM     16  C12 UNL A   1      14.638  25.216  41.944  1.00  0.00    +0.000 C 
ATOM    113  H21 UNL A   1      15.018  24.480  43.892  1.00  0.00    +0.000 H 
ATOM     27  C19 UNL A   1      15.116  25.292  43.262  1.00  0.00    +0.000 C 
ATOM     28  C20 UNL A   1      15.722  26.460  43.725  1.00  0.00    +0.000 C 
BRANCH   16   17
ATOM    109  H17 UNL A   1      13.247  23.287  43.376  1.00  0.00    +0.000 H 
ATOM    110  H18 UNL A   1      12.478  21.196  42.606  1.00  0.00    +0.000 H 
ATOM    112  H20 UNL A   1      14.586  24.290  39.527  1.00  0.00    +0.000 H 
ATOM     17  C13 UNL A   1      14.025  23.958  41.480  1.00  0.00    +0.000 C 
ATOM     18  C14 UNL A   1      13.370  23.031  42.384  1.00  0.00    +0.000 C 
ATOM     19  C15 UNL A   1      12.926  21.849  41.944  1.00  0.00    +0.000 C 
ATOM     20  N3  UNL A   1      13.059  21.489  40.617  1.00  0.00    +0.000 N 
ATOM     24  C17 UNL A   1      13.634  22.323  39.672  1.00  0.00    +0.000 C 
ATOM     25  O3  UNL A   1      13.773  22.068  38.480  1.00  0.00    +0.000 O 
ATOM     26  C18 UNL A   1      14.141  23.628  40.181  1.00  0.00    +0.000 C 
BRANCH   20   21
ATOM     21  C16 UNL A   1      12.618  20.195  40.164  1.00  0.00    +0.000 C 
ATOM     22  F1  UNL A   1      13.665  19.425  39.781  1.00  0.00    +0.000 F 
ATOM    111  H19 UNL A   1      11.970  20.362  39.329  1.00  0.00    +0.000 H 
ATOM     23  F2  UNL A   1      11.951  19.541  41.147  1.00  0.00    +0.000 F 
ENDBRANCH   20   21
ENDBRANCH   16   17
BRANCH   28   29
ATOM    114  H22 UNL A   1      16.310  27.347  45.426  1.00  0.00    +0.000 H 
ATOM     29  O4  UNL A   1      16.173  26.517  45.015  1.00  0.00    +0.000 O 
ENDBRANCH   28   29
ENDBRANCH   11   13
ENDBRANCH   10   11
ENDBRANCH    9   10
ENDBRANCH    8    9
ENDBRANCH    7    8
ENDBRANCH    6    7
ENDBRANCH    5    6
ENDBRANCH    4    5
ENDBRANCH    3    4
ENDBRANCH    2    3
ENDBRANCH   30    2
ENDBRANCH   34   33
BRANCH   38   39
ATOM     39  C29 UNL A   1      25.332  40.630  49.251  1.00  0.00    +0.000 C 
ATOM     40  C30 UNL A   1      24.497  41.666  48.809  1.00  0.00    +0.000 C 
ATOM     41  F3  UNL A   1      24.571  42.100  47.541  1.00  0.00    +0.000 F 
ATOM     42  C31 UNL A   1      23.590  42.273  49.674  1.00  0.00    +0.000 C 
ATOM     43  F4  UNL A   1      22.820  43.279  49.236  1.00  0.00    +0.000 F 
ATOM     44  C32 UNL A   1      23.482  41.839  50.986  1.00  0.00    +0.000 C 
ATOM     45  F5  UNL A   1      22.592  42.408  51.811  1.00  0.00    +0.000 F 
ATOM     46  C33 UNL A   1      24.296  40.812  51.443  1.00  0.00    +0.000 C 
ATOM     47  F6  UNL A   1      24.182  40.380  52.707  1.00  0.00    +0.000 F 
ATOM     48  C34 UNL A   1      25.222  40.221  50.588  1.00  0.00    +0.000 C 
ATOM     49  F7  UNL A   1      25.993  39.230  51.058  1.00  0.00    +0.000 F 
ENDBRANCH   38   39
BRANCH   55   56
ATOM     65  C45 UNL A   1      32.204  42.422  46.391  1.00  0.00    +0.000 C 
ATOM     66  F12 UNL A   1      31.186  42.886  45.651  1.00  0.00    +0.000 F 
ATOM     56  C40 UNL A   1      32.123  41.155  46.990  1.00  0.00    +0.000 C 
ATOM     57  C41 UNL A   1      33.216  40.710  47.744  1.00  0.00    +0.000 C 
ATOM     58  F8  UNL A   1      33.178  39.511  48.344  1.00  0.00    +0.000 F 
ATOM     59  C42 UNL A   1      34.351  41.503  47.891  1.00  0.00    +0.000 C 
ATOM     60  F9  UNL A   1      35.378  41.066  48.632  1.00  0.00    +0.000 F 
ATOM     61  C43 UNL A   1      34.422  42.741  47.269  1.00  0.00    +0.000 C 
ATOM     62  F10 UNL A   1      35.526  43.490  47.390  1.00  0.00    +0.000 F 
ATOM     63  C44 UNL A   1      33.350  43.200  46.518  1.00  0.00    +0.000 C 
ATOM     64  F11 UNL A   1      33.424  44.388  45.902  1.00  0.00    +0.000 F 
ENDBRANCH   55   56
BRANCH   70   71
ATOM     71  C49 UNL A   1      31.152  35.581  42.898  1.00  0.00    +0.000 C 
ATOM     72  C50 UNL A   1      31.306  35.979  41.562  1.00  0.00    +0.000 C 
ATOM     73  F13 UNL A   1      30.633  37.044  41.100  1.00  0.00    +0.000 F 
ATOM     74  C51 UNL A   1      32.123  35.267  40.687  1.00  0.00    +0.000 C 
ATOM     75  F14 UNL A   1      32.221  35.647  39.406  1.00  0.00    +0.000 F 
ATOM     76  C52 UNL A   1      32.824  34.158  41.136  1.00  0.00    +0.000 C 
ATOM     77  F15 UNL A   1      33.616  33.478  40.297  1.00  0.00    +0.000 F 
ATOM     78  C53 UNL A   1      32.698  33.753  42.457  1.00  0.00    +0.000 C 
ATOM     79  F16 UNL A   1      33.385  32.691  42.899  1.00  0.00    +0.000 F 
ATOM     80  C54 UNL A   1      31.860  34.449  43.326  1.00  0.00    +0.000 C 
ATOM     81  F17 UNL A   1      31.750  34.027  44.594  1.00  0.00    +0.000 F 
ENDBRANCH   70   71
TORSDOF 18
ENDMDL
MODEL 4
REMARK VINA RESULT:     -11.2      0.630      2.024
ROOT
ATOM     34  C25 UNL A   1      38.351  29.852  29.751  1.00  0.00    +0.000 C 
ATOM     35  C26 UNL A   1      38.633  30.416  31.118  1.00  0.00    +0.000 C 
ATOM     36  N4  UNL A   1      39.670  30.224  31.894  1.00  0.00    +0.000 N 
ATOM     37  C27 UNL A   1      39.443  30.995  33.027  1.00  0.00    +0.000 C 
ATOM     38  C28 UNL A   1      40.186  31.078  34.154  1.00  0.00    +0.000 C 
ATOM     50  C35 UNL A   1      41.400  30.341  34.379  1.00  0.00    +0.000 C 
ATOM     51  C36 UNL A   1      42.199  30.324  35.509  1.00  0.00    +0.000 C 
ATOM     52  C37 UNL A   1      43.287  29.484  35.260  1.00  0.00    +0.000 C 
ATOM     53  C38 UNL A   1      43.142  28.942  33.994  1.00  0.00    +0.000 C 
ATOM     54  N5  UNL A   1      41.983  29.483  33.460  1.00  0.00    +0.000 N 
ATOM     55  C39 UNL A   1      44.001  28.004  33.320  1.00  0.00    +0.000 C 
ATOM     67  C46 UNL A   1      43.797  27.522  32.071  1.00  0.00    +0.000 C 
ATOM     68  N6  UNL A   1      42.754  27.785  31.195  1.00  0.00    +0.000 N 
ATOM     69  C47 UNL A   1      43.009  27.095  30.111  1.00  0.00    +0.000 C 
ATOM     70  C48 UNL A   1      42.198  26.977  28.849  1.00  0.00    +0.000 C 
ATOM     82  C55 UNL A   1      41.048  27.671  28.737  1.00  0.00    +0.000 C 
ATOM     83  C56 UNL A   1      40.143  27.636  27.590  1.00  0.00    +0.000 C 
ATOM     84  C57 UNL A   1      39.097  28.444  27.831  1.00  0.00    +0.000 C 
ATOM     85  C58 UNL A   1      39.243  29.031  29.164  1.00  0.00    +0.000 C 
ATOM     86  N7  UNL A   1      40.444  28.539  29.614  1.00  0.00    +0.000 N 
ATOM     87  C59 UNL A   1      44.265  26.333  30.168  1.00  0.00    +0.000 C 
ATOM     88  C60 UNL A   1      44.687  26.598  31.398  1.00  0.00    +0.000 C 
ATOM     89  C61 UNL A   1      38.201  31.704  32.818  1.00  0.00    +0.000 C 
ATOM     90  C62 UNL A   1      37.627  31.331  31.683  1.00  0.00    +0.000 C 
ATOM    117  H25 UNL A   1      42.022  30.842  36.383  1.00  0.00    +0.000 H 
ATOM    118  H26 UNL A   1      44.068  29.299  35.911  1.00  0.00    +0.000 H 
ATOM    119  H27 UNL A   1      41.628  29.287  32.563  1.00  0.00    +0.000 H 
ATOM    120  H28 UNL A   1      40.284  27.079  26.734  1.00  0.00    +0.000 H 
ATOM    121  H29 UNL A   1      38.317  28.623  27.180  1.00  0.00    +0.000 H 
ATOM    122  H30 UNL A   1      40.834  28.786  30.483  1.00  0.00    +0.000 H 
ATOM    123  H31 UNL A   1      44.706  25.747  29.443  1.00  0.00    +0.000 H 
ATOM    124  H32 UNL A   1      45.538  26.198  31.822  1.00  0.00    +0.000 H 
ATOM    125  H33 UNL A   1      37.812  32.406  33.467  1.00  0.00    +0.000 H 
ATOM    126  H34 UNL A   1      36.713  31.611  31.296  1.00  0.00    +0.000 H 
ENDROOT
BRANCH   34   33
ATOM     33  C24 UNL A   1      37.090  30.205  29.048  1.00  0.00    +0.000 C 
ATOM    127  H35 UNL A   1      37.790  32.062  28.316  1.00  0.00    +0.000 H 
ATOM    115  H23 UNL A   1      33.991  29.039  28.462  1.00  0.00    +0.000 H 
ATOM    116  H24 UNL A   1      36.055  28.440  29.586  1.00  0.00    +0.000 H 
ATOM     91  C63 UNL A   1      36.973  31.435  28.385  1.00  0.00    +0.000 C 
ATOM     92  C64 UNL A   1      35.757  31.816  27.817  1.00  0.00    +0.000 C 
ATOM     32  C23 UNL A   1      35.985  29.341  29.086  1.00  0.00    +0.000 C 
ATOM     30  C21 UNL A   1      34.679  30.926  27.807  1.00  0.00    +0.000 C 
ATOM     31  C22 UNL A   1      34.791  29.691  28.453  1.00  0.00    +0.000 C 
ATOM    128  H36 UNL A   1      35.654  32.755  27.403  1.00  0.00    +0.000 H 
BRANCH   30    2
ATOM      1  O1  UNL A   1      32.856  32.358  27.451  1.00  0.00    +0.000 O 
ATOM      2  C1  UNL A   1      33.381  31.279  27.185  1.00  0.00    +0.000 C 
BRANCH    2    3
ATOM      3  N1  UNL A   1      32.755  30.413  26.327  1.00  0.00    +0.000 N 
ATOM     93  H1  UNL A   1      31.775  30.499  26.288  1.00  0.00    +0.000 H 
BRANCH    3    4
ATOM      4  C2  UNL A   1      33.318  29.388  25.468  1.00  0.00    +0.000 C 
ATOM     94  H2  UNL A   1      34.378  29.369  25.605  1.00  0.00    +0.000 H 
ATOM     95  H3  UNL A   1      33.055  29.630  24.459  1.00  0.00    +0.000 H 
BRANCH    4    5
ATOM     97  H5  UNL A   1      32.121  28.119  26.621  1.00  0.00    +0.000 H 
ATOM      5  C3  UNL A   1      32.760  28.001  25.771  1.00  0.00    +0.000 C 
ATOM     96  H4  UNL A   1      32.252  27.651  24.897  1.00  0.00    +0.000 H 
BRANCH    5    6
ATOM     98  H6  UNL A   1      33.398  26.380  26.980  1.00  0.00    +0.000 H 
ATOM     99  H7  UNL A   1      34.686  27.493  26.414  1.00  0.00    +0.000 H 
ATOM      6  C4  UNL A   1      33.799  26.948  26.167  1.00  0.00    +0.000 C 
BRANCH    6    7
ATOM    100  H8  UNL A   1      34.828  26.494  24.370  1.00  0.00    +0.000 H 
ATOM    101  H9  UNL A   1      33.289  25.613  24.637  1.00  0.00    +0.000 H 
ATOM      7  C5  UNL A   1      34.204  25.969  25.062  1.00  0.00    +0.000 C 
BRANCH    7    8
ATOM    102  H10 UNL A   1      35.722  25.035  26.214  1.00  0.00    +0.000 H 
ATOM    103  H11 UNL A   1      35.348  24.263  24.642  1.00  0.00    +0.000 H 
ATOM      8  C6  UNL A   1      34.962  24.723  25.528  1.00  0.00    +0.000 C 
BRANCH    8    9
ATOM      9  C7  UNL A   1      34.108  23.664  26.218  1.00  0.00    +0.000 C 
ATOM    105  H13 UNL A   1      34.706  23.205  26.979  1.00  0.00    +0.000 H 
ATOM    104  H12 UNL A   1      33.243  24.135  26.635  1.00  0.00    +0.000 H 
BRANCH    9   10
ATOM     10  N2  UNL A   1      33.679  22.624  25.302  1.00  0.00    +0.000 N 
ATOM    106  H14 UNL A   1      34.321  21.892  25.152  1.00  0.00    +0.000 H 
BRANCH   10   11
ATOM     11  C8  UNL A   1      32.494  22.532  24.617  1.00  0.00    +0.000 C 
ATOM     12  O2  UNL A   1      31.960  21.441  24.437  1.00  0.00    +0.000 O 
BRANCH   11   13
ATOM    107  H15 UNL A   1      30.650  23.868  25.932  1.00  0.00    +0.000 H 
ATOM    108  H16 UNL A   1      29.520  25.928  25.317  1.00  0.00    +0.000 H 
ATOM     13  C9  UNL A   1      31.809  23.760  24.168  1.00  0.00    +0.000 C 
ATOM     14  C10 UNL A   1      30.865  24.326  25.032  1.00  0.00    +0.000 C 
ATOM     15  C11 UNL A   1      30.213  25.508  24.677  1.00  0.00    +0.000 C 
ATOM     16  C12 UNL A   1      30.496  26.127  23.451  1.00  0.00    +0.000 C 
ATOM    113  H21 UNL A   1      31.619  25.977  21.664  1.00  0.00    +0.000 H 
ATOM     27  C19 UNL A   1      31.418  25.534  22.574  1.00  0.00    +0.000 C 
ATOM     28  C20 UNL A   1      32.063  24.349  22.927  1.00  0.00    +0.000 C 
BRANCH   16   17
ATOM    109  H17 UNL A   1      31.586  28.368  22.228  1.00  0.00    +0.000 H 
ATOM    110  H18 UNL A   1      30.537  30.440  21.820  1.00  0.00    +0.000 H 
ATOM    112  H20 UNL A   1      28.003  26.773  23.723  1.00  0.00    +0.000 H 
ATOM     17  C13 UNL A   1      29.850  27.393  23.057  1.00  0.00    +0.000 C 
ATOM     18  C14 UNL A   1      30.589  28.492  22.465  1.00  0.00    +0.000 C 
ATOM     19  C15 UNL A   1      29.991  29.664  22.226  1.00  0.00    +0.000 C 
ATOM     20  N3  UNL A   1      28.653  29.852  22.514  1.00  0.00    +0.000 N 
ATOM     24  C17 UNL A   1      27.856  28.849  23.043  1.00  0.00    +0.000 C 
ATOM     25  O3  UNL A   1      26.664  28.947  23.311  1.00  0.00    +0.000 O 
ATOM     26  C18 UNL A   1      28.541  27.556  23.322  1.00  0.00    +0.000 C 
BRANCH   20   21
ATOM     21  C16 UNL A   1      28.031  31.132  22.294  1.00  0.00    +0.000 C 
ATOM     22  F1  UNL A   1      27.655  31.704  23.463  1.00  0.00    +0.000 F 
ATOM    111  H19 UNL A   1      27.169  30.959  21.684  1.00  0.00    +0.000 H 
ATOM     23  F2  UNL A   1      28.883  31.980  21.665  1.00  0.00    +0.000 F 
ENDBRANCH   20   21
ENDBRANCH   16   17
BRANCH   28   29
ATOM    114  H22 UNL A   1      32.871  22.877  21.828  1.00  0.00    +0.000 H 
ATOM     29  O4  UNL A   1      32.951  23.782  22.055  1.00  0.00    +0.000 O 
ENDBRANCH   28   29
ENDBRANCH   11   13
ENDBRANCH   10   11
ENDBRANCH    9   10
ENDBRANCH    8    9
ENDBRANCH    7    8
ENDBRANCH    6    7
ENDBRANCH    5    6
ENDBRANCH    4    5
ENDBRANCH    3    4
ENDBRANCH    2    3
ENDBRANCH   30    2
ENDBRANCH   34   33
BRANCH   38   39
ATOM     39  C29 UNL A   1      39.701  31.974  35.255  1.00  0.00    +0.000 C 
ATOM     40  C30 UNL A   1      40.088  33.320  35.321  1.00  0.00    +0.000 C 
ATOM     41  F3  UNL A   1      40.982  33.810  34.448  1.00  0.00    +0.000 F 
ATOM     42  C31 UNL A   1      39.566  34.168  36.294  1.00  0.00    +0.000 C 
ATOM     43  F4  UNL A   1      39.968  35.445  36.353  1.00  0.00    +0.000 F 
ATOM     44  C32 UNL A   1      38.630  33.694  37.202  1.00  0.00    +0.000 C 
ATOM     45  F5  UNL A   1      38.112  34.517  38.123  1.00  0.00    +0.000 F 
ATOM     46  C33 UNL A   1      38.232  32.366  37.153  1.00  0.00    +0.000 C 
ATOM     47  F6  UNL A   1      37.316  31.910  38.019  1.00  0.00    +0.000 F 
ATOM     48  C34 UNL A   1      38.772  31.509  36.197  1.00  0.00    +0.000 C 
ATOM     49  F7  UNL A   1      38.365  30.231  36.173  1.00  0.00    +0.000 F 
ENDBRANCH   38   39
BRANCH   55   56
ATOM     65  C45 UNL A   1      45.123  26.411  34.916  1.00  0.00    +0.000 C 
ATOM     66  F12 UNL A   1      43.985  25.705  34.988  1.00  0.00    +0.000 F 
ATOM     56  C40 UNL A   1      45.210  27.529  34.071  1.00  0.00    +0.000 C 
ATOM     57  C41 UNL A   1      46.416  28.241  34.038  1.00  0.00    +0.000 C 
ATOM     58  F8  UNL A   1      46.548  29.308  33.237  1.00  0.00    +0.000 F 
ATOM     59  C42 UNL A   1      47.496  27.849  34.824  1.00  0.00    +0.000 C 
ATOM     60  F9  UNL A   1      48.647  28.532  34.764  1.00  0.00    +0.000 F 
ATOM     61  C43 UNL A   1      47.382  26.757  35.673  1.00  0.00    +0.000 C 
ATOM     62  F10 UNL A   1      48.413  26.399  36.448  1.00  0.00    +0.000 F 
ATOM     63  C44 UNL A   1      46.196  26.039  35.720  1.00  0.00    +0.000 C 
ATOM     64  F11 UNL A   1      46.077  24.995  36.551  1.00  0.00    +0.000 F 
ENDBRANCH   55   56
BRANCH   70   71
ATOM     71  C49 UNL A   1      42.629  26.078  27.747  1.00  0.00    +0.000 C 
ATOM     72  C50 UNL A   1      43.541  26.517  26.775  1.00  0.00    +0.000 C 
ATOM     73  F13 UNL A   1      44.015  27.771  26.822  1.00  0.00    +0.000 F 
ATOM     74  C51 UNL A   1      43.943  25.683  25.734  1.00  0.00    +0.000 C 
ATOM     75  F14 UNL A   1      44.784  26.142  24.798  1.00  0.00    +0.000 F 
ATOM     76  C52 UNL A   1      43.462  24.385  25.658  1.00  0.00    +0.000 C 
ATOM     77  F15 UNL A   1      43.855  23.580  24.661  1.00  0.00    +0.000 F 
ATOM     78  C53 UNL A   1      42.570  23.923  26.614  1.00  0.00    +0.000 C 
ATOM     79  F16 UNL A   1      42.115  22.664  26.552  1.00  0.00    +0.000 F 
ATOM     80  C54 UNL A   1      42.147  24.765  27.641  1.00  0.00    +0.000 C 
ATOM     81  F17 UNL A   1      41.276  24.295  28.545  1.00  0.00    +0.000 F 
ENDBRANCH   70   71
TORSDOF 18
ENDMDL
MODEL 5
REMARK VINA RESULT:     -11.1     19.876     25.699
ROOT
ATOM     34  C25 UNL A   1      52.806  20.509  11.507  1.00  0.00    +0.000 C 
ATOM     35  C26 UNL A   1      54.119  19.829  11.227  1.00  0.00    +0.000 C 
ATOM     36  N4  UNL A   1      55.141  19.643  12.025  1.00  0.00    +0.000 N 
ATOM     37  C27 UNL A   1      56.081  18.942  11.281  1.00  0.00    +0.000 C 
ATOM     38  C28 UNL A   1      57.335  18.577  11.633  1.00  0.00    +0.000 C 
ATOM     50  C35 UNL A   1      57.936  18.872  12.905  1.00  0.00    +0.000 C 
ATOM     51  C36 UNL A   1      59.218  18.583  13.338  1.00  0.00    +0.000 C 
ATOM     52  C37 UNL A   1      59.346  19.034  14.653  1.00  0.00    +0.000 C 
ATOM     53  C38 UNL A   1      58.159  19.645  15.024  1.00  0.00    +0.000 C 
ATOM     54  N5  UNL A   1      57.299  19.531  13.945  1.00  0.00    +0.000 N 
ATOM     55  C39 UNL A   1      57.835  20.281  16.274  1.00  0.00    +0.000 C 
ATOM     67  C46 UNL A   1      56.644  20.854  16.569  1.00  0.00    +0.000 C 
ATOM     68  N6  UNL A   1      55.516  20.978  15.771  1.00  0.00    +0.000 N 
ATOM     69  C47 UNL A   1      54.620  21.592  16.503  1.00  0.00    +0.000 C 
ATOM     70  C48 UNL A   1      53.224  22.018  16.135  1.00  0.00    +0.000 C 
ATOM     82  C55 UNL A   1      52.752  21.739  14.904  1.00  0.00    +0.000 C 
ATOM     83  C56 UNL A   1      51.434  22.111  14.395  1.00  0.00    +0.000 C 
ATOM     84  C57 UNL A   1      51.313  21.676  13.130  1.00  0.00    +0.000 C 
ATOM     85  C58 UNL A   1      52.558  21.020  12.728  1.00  0.00    +0.000 C 
ATOM     86  N7  UNL A   1      53.342  21.078  13.854  1.00  0.00    +0.000 N 
ATOM     87  C59 UNL A   1      55.073  21.903  17.867  1.00  0.00    +0.000 C 
ATOM     88  C60 UNL A   1      56.326  21.467  17.842  1.00  0.00    +0.000 C 
ATOM     89  C61 UNL A   1      55.492  18.682   9.987  1.00  0.00    +0.000 C 
ATOM     90  C62 UNL A   1      54.307  19.266   9.879  1.00  0.00    +0.000 C 
ATOM    117  H25 UNL A   1      59.953  18.115  12.785  1.00  0.00    +0.000 H 
ATOM    118  H26 UNL A   1      60.184  18.930  15.249  1.00  0.00    +0.000 H 
ATOM    119  H27 UNL A   1      56.374  19.868  13.920  1.00  0.00    +0.000 H 
ATOM    120  H28 UNL A   1      50.714  22.627  14.922  1.00  0.00    +0.000 H 
ATOM    121  H29 UNL A   1      50.476  21.786  12.537  1.00  0.00    +0.000 H 
ATOM    122  H30 UNL A   1      54.242  20.683  13.903  1.00  0.00    +0.000 H 
ATOM    123  H31 UNL A   1      54.554  22.345  18.641  1.00  0.00    +0.000 H 
ATOM    124  H32 UNL A   1      56.989  21.552  18.628  1.00  0.00    +0.000 H 
ATOM    125  H33 UNL A   1      55.935  18.118   9.245  1.00  0.00    +0.000 H 
ATOM    126  H34 UNL A   1      53.678  19.314   9.062  1.00  0.00    +0.000 H 
ENDROOT
BRANCH   34   33
ATOM     33  C24 UNL A   1      51.780  20.612  10.436  1.00  0.00    +0.000 C 
ATOM    127  H35 UNL A   1      52.424  22.500   9.733  1.00  0.00    +0.000 H 
ATOM    115  H23 UNL A   1      49.175  18.942   9.121  1.00  0.00    +0.000 H 
ATOM    116  H24 UNL A   1      50.866  18.750  10.848  1.00  0.00    +0.000 H 
ATOM     91  C63 UNL A   1      51.711  21.760   9.634  1.00  0.00    +0.000 C 
ATOM     92  C64 UNL A   1      50.683  21.908   8.703  1.00  0.00    +0.000 C 
ATOM     32  C23 UNL A   1      50.834  19.591  10.252  1.00  0.00    +0.000 C 
ATOM     30  C21 UNL A   1      49.780  20.863   8.483  1.00  0.00    +0.000 C 
ATOM     31  C22 UNL A   1      49.851  19.708   9.268  1.00  0.00    +0.000 C 
ATOM    128  H36 UNL A   1      50.590  22.789   8.175  1.00  0.00    +0.000 H 
BRANCH   30    2
ATOM      1  O1  UNL A   1      48.078  22.023   7.364  1.00  0.00    +0.000 O 
ATOM      2  C1  UNL A   1      48.695  20.967   7.480  1.00  0.00    +0.000 C 
BRANCH    2    3
ATOM      3  N1  UNL A   1      48.365  19.897   6.690  1.00  0.00    +0.000 N 
ATOM     93  H1  UNL A   1      47.545  19.421   6.954  1.00  0.00    +0.000 H 
BRANCH    3    4
ATOM      4  C2  UNL A   1      49.042  19.360   5.524  1.00  0.00    +0.000 C 
ATOM     94  H2  UNL A   1      50.036  19.081   5.802  1.00  0.00    +0.000 H 
ATOM     95  H3  UNL A   1      49.042  20.120   4.770  1.00  0.00    +0.000 H 
BRANCH    4    5
ATOM     97  H5  UNL A   1      47.406  18.494   4.550  1.00  0.00    +0.000 H 
ATOM      5  C3  UNL A   1      48.333  18.138   4.949  1.00  0.00    +0.000 C 
ATOM     96  H4  UNL A   1      48.976  17.699   4.213  1.00  0.00    +0.000 H 
BRANCH    5    6
ATOM     98  H6  UNL A   1      47.239  17.461   6.633  1.00  0.00    +0.000 H 
ATOM     99  H7  UNL A   1      48.885  16.777   6.440  1.00  0.00    +0.000 H 
ATOM      6  C4  UNL A   1      47.967  17.053   5.964  1.00  0.00    +0.000 C 
BRANCH    6    7
ATOM    100  H8  UNL A   1      46.663  15.384   6.060  1.00  0.00    +0.000 H 
ATOM    101  H9  UNL A   1      48.232  15.108   5.235  1.00  0.00    +0.000 H 
ATOM      7  C5  UNL A   1      47.395  15.760   5.377  1.00  0.00    +0.000 C 
BRANCH    7    8
ATOM    102  H10 UNL A   1      46.702  14.924   3.554  1.00  0.00    +0.000 H 
ATOM    103  H11 UNL A   1      47.321  16.601   3.457  1.00  0.00    +0.000 H 
ATOM      8  C6  UNL A   1      46.732  15.894   4.003  1.00  0.00    +0.000 C 
BRANCH    8    9
ATOM      9  C7  UNL A   1      45.312  16.451   4.020  1.00  0.00    +0.000 C 
ATOM    105  H13 UNL A   1      44.647  15.665   3.726  1.00  0.00    +0.000 H 
ATOM    104  H12 UNL A   1      45.089  16.799   5.007  1.00  0.00    +0.000 H 
BRANCH    9   10
ATOM     10  N2  UNL A   1      45.142  17.548   3.087  1.00  0.00    +0.000 N 
ATOM    106  H14 UNL A   1      45.387  17.359   2.152  1.00  0.00    +0.000 H 
BRANCH   10   11
ATOM     11  C8  UNL A   1      44.686  18.818   3.342  1.00  0.00    +0.000 C 
ATOM     12  O2  UNL A   1      45.299  19.558   4.107  1.00  0.00    +0.000 O 
BRANCH   11   13
ATOM    107  H15 UNL A   1      42.192  18.066   3.701  1.00  0.00    +0.000 H 
ATOM    108  H16 UNL A   1      40.175  18.895   2.634  1.00  0.00    +0.000 H 
ATOM     13  C9  UNL A   1      43.502  19.330   2.627  1.00  0.00    +0.000 C 
ATOM     14  C10 UNL A   1      42.254  18.805   2.983  1.00  0.00    +0.000 C 
ATOM     15  C11 UNL A   1      41.095  19.279   2.367  1.00  0.00    +0.000 C 
ATOM     16  C12 UNL A   1      41.177  20.276   1.385  1.00  0.00    +0.000 C 
ATOM    113  H21 UNL A   1      42.503  21.496   0.275  1.00  0.00    +0.000 H 
ATOM     27  C19 UNL A   1      42.435  20.773   1.008  1.00  0.00    +0.000 C 
ATOM     28  C20 UNL A   1      43.593  20.293   1.619  1.00  0.00    +0.000 C 
BRANCH   16   17
ATOM    109  H17 UNL A   1      40.953  21.944  -0.823  1.00  0.00    +0.000 H 
ATOM    110  H18 UNL A   1      38.999  22.950  -1.677  1.00  0.00    +0.000 H 
ATOM    112  H20 UNL A   1      38.709  19.862   2.048  1.00  0.00    +0.000 H 
ATOM     17  C13 UNL A   1      39.971  20.824   0.736  1.00  0.00    +0.000 C 
ATOM     18  C14 UNL A   1      40.039  21.731  -0.394  1.00  0.00    +0.000 C 
ATOM     19  C15 UNL A   1      38.929  22.294  -0.883  1.00  0.00    +0.000 C 
ATOM     20  N3  UNL A   1      37.690  22.010  -0.342  1.00  0.00    +0.000 N 
ATOM     24  C17 UNL A   1      37.521  21.126   0.711  1.00  0.00    +0.000 C 
ATOM     25  O3  UNL A   1      36.451  20.825   1.230  1.00  0.00    +0.000 O 
ATOM     26  C18 UNL A   1      38.768  20.522   1.258  1.00  0.00    +0.000 C 
BRANCH   20   21
ATOM     21  C16 UNL A   1      36.507  22.658  -0.848  1.00  0.00    +0.000 C 
ATOM     22  F1  UNL A   1      36.803  23.854  -1.410  1.00  0.00    +0.000 F 
ATOM    111  H19 UNL A   1      35.852  22.804  -0.014  1.00  0.00    +0.000 H 
ATOM     23  F2  UNL A   1      35.901  21.889  -1.786  1.00  0.00    +0.000 F 
ENDBRANCH   20   21
ENDBRANCH   16   17
BRANCH   28   29
ATOM    114  H22 UNL A   1      44.859  21.576   0.735  1.00  0.00    +0.000 H 
ATOM     29  O4  UNL A   1      44.810  20.783   1.231  1.00  0.00    +0.000 O 
ENDBRANCH   28   29
ENDBRANCH   11   13
ENDBRANCH   10   11
ENDBRANCH    9   10
ENDBRANCH    8    9
ENDBRANCH    7    8
ENDBRANCH    6    7
ENDBRANCH    5    6
ENDBRANCH    4    5
ENDBRANCH    3    4
ENDBRANCH    2    3
ENDBRANCH   30    2
ENDBRANCH   34   33
BRANCH   38   39
ATOM     39  C29 UNL A   1      58.166  17.842  10.623  1.00  0.00    +0.000 C 
ATOM     40  C30 UNL A   1      58.123  16.444  10.525  1.00  0.00    +0.000 C 
ATOM     41  F3  UNL A   1      57.406  15.727  11.403  1.00  0.00    +0.000 F 
ATOM     42  C31 UNL A   1      58.830  15.775   9.530  1.00  0.00    +0.000 C 
ATOM     43  F4  UNL A   1      58.794  14.436   9.470  1.00  0.00    +0.000 F 
ATOM     44  C32 UNL A   1      59.570  16.490   8.600  1.00  0.00    +0.000 C 
ATOM     45  F5  UNL A   1      60.230  15.845   7.628  1.00  0.00    +0.000 F 
ATOM     46  C33 UNL A   1      59.623  17.874   8.677  1.00  0.00    +0.000 C 
ATOM     47  F6  UNL A   1      60.325  18.568   7.770  1.00  0.00    +0.000 F 
ATOM     48  C34 UNL A   1      58.939  18.545   9.687  1.00  0.00    +0.000 C 
ATOM     49  F7  UNL A   1      59.008  19.883   9.734  1.00  0.00    +0.000 F 
ENDBRANCH   38   39
BRANCH   55   56
ATOM     65  C45 UNL A   1      59.117  19.194  18.149  1.00  0.00    +0.000 C 
ATOM     66  F12 UNL A   1      58.423  18.064  17.950  1.00  0.00    +0.000 F 
ATOM     56  C40 UNL A   1      58.909  20.309  17.322  1.00  0.00    +0.000 C 
ATOM     57  C41 UNL A   1      59.651  21.469  17.578  1.00  0.00    +0.000 C 
ATOM     58  F8  UNL A   1      59.492  22.555  16.805  1.00  0.00    +0.000 F 
ATOM     59  C42 UNL A   1      60.567  21.514  18.624  1.00  0.00    +0.000 C 
ATOM     60  F9  UNL A   1      61.280  22.627  18.839  1.00  0.00    +0.000 F 
ATOM     61  C43 UNL A   1      60.740  20.410  19.447  1.00  0.00    +0.000 C 
ATOM     62  F10 UNL A   1      61.603  20.464  20.470  1.00  0.00    +0.000 F 
ATOM     63  C44 UNL A   1      60.015  19.251  19.211  1.00  0.00    +0.000 C 
ATOM     64  F11 UNL A   1      60.168  18.190  20.015  1.00  0.00    +0.000 F 
ENDBRANCH   55   56
BRANCH   70   71
ATOM     71  C49 UNL A   1      52.379  22.773  17.098  1.00  0.00    +0.000 C 
ATOM     72  C50 UNL A   1      52.365  24.175  17.096  1.00  0.00    +0.000 C 
ATOM     73  F13 UNL A   1      53.139  24.851  16.234  1.00  0.00    +0.000 F 
ATOM     74  C51 UNL A   1      51.583  24.890  18.002  1.00  0.00    +0.000 C 
ATOM     75  F14 UNL A   1      51.619  26.229  18.004  1.00  0.00    +0.000 F 
ATOM     76  C52 UNL A   1      50.779  24.217  18.908  1.00  0.00    +0.000 C 
ATOM     77  F15 UNL A   1      50.021  24.904  19.774  1.00  0.00    +0.000 F 
ATOM     78  C53 UNL A   1      50.765  22.830  18.921  1.00  0.00    +0.000 C 
ATOM     79  F16 UNL A   1      49.979  22.176  19.786  1.00  0.00    +0.000 F 
ATOM     80  C54 UNL A   1      51.567  22.115  18.033  1.00  0.00    +0.000 C 
ATOM     81  F17 UNL A   1      51.542  20.775  18.075  1.00  0.00    +0.000 F 
ENDBRANCH   70   71
TORSDOF 18
ENDMDL
MODEL 6
REMARK VINA RESULT:     -11.0     19.948     24.832
ROOT
ATOM     34  C25 UNL A   1      53.433  19.869  11.716  1.00  0.00    +0.000 C 
ATOM     35  C26 UNL A   1      53.175  20.527  13.045  1.00  0.00    +0.000 C 
ATOM     36  N4  UNL A   1      53.995  20.712  14.050  1.00  0.00    +0.000 N 
ATOM     37  C27 UNL A   1      53.263  21.389  15.016  1.00  0.00    +0.000 C 
ATOM     38  C28 UNL A   1      53.639  21.743  16.266  1.00  0.00    +0.000 C 
ATOM     50  C35 UNL A   1      54.930  21.460  16.833  1.00  0.00    +0.000 C 
ATOM     51  C36 UNL A   1      55.388  21.739  18.108  1.00  0.00    +0.000 C 
ATOM     52  C37 UNL A   1      56.713  21.306  18.199  1.00  0.00    +0.000 C 
ATOM     53  C38 UNL A   1      57.064  20.716  16.996  1.00  0.00    +0.000 C 
ATOM     54  N5  UNL A   1      55.963  20.825  16.163  1.00  0.00    +0.000 N 
ATOM     55  C39 UNL A   1      58.315  20.103  16.634  1.00  0.00    +0.000 C 
ATOM     67  C46 UNL A   1      58.591  19.550  15.428  1.00  0.00    +0.000 C 
ATOM     68  N6  UNL A   1      57.767  19.429  14.318  1.00  0.00    +0.000 N 
ATOM     69  C47 UNL A   1      58.488  18.838  13.397  1.00  0.00    +0.000 C 
ATOM     70  C48 UNL A   1      58.093  18.425  12.004  1.00  0.00    +0.000 C 
ATOM     82  C55 UNL A   1      56.847  18.691  11.566  1.00  0.00    +0.000 C 
ATOM     83  C56 UNL A   1      56.312  18.328  10.255  1.00  0.00    +0.000 C 
ATOM     84  C57 UNL A   1      55.038  18.746  10.170  1.00  0.00    +0.000 C 
ATOM     85  C58 UNL A   1      54.656  19.379  11.433  1.00  0.00    +0.000 C 
ATOM     86  N7  UNL A   1      55.801  19.328  12.189  1.00  0.00    +0.000 N 
ATOM     87  C59 UNL A   1      59.866  18.542  13.814  1.00  0.00    +0.000 C 
ATOM     88  C60 UNL A   1      59.865  18.961  15.073  1.00  0.00    +0.000 C 
ATOM     89  C61 UNL A   1      51.951  21.637  14.461  1.00  0.00    +0.000 C 
ATOM     90  C62 UNL A   1      51.824  21.067  13.272  1.00  0.00    +0.000 C 
ATOM    117  H25 UNL A   1      54.846  22.189  18.862  1.00  0.00    +0.000 H 
ATOM    118  H26 UNL A   1      57.327  21.408  19.024  1.00  0.00    +0.000 H 
ATOM    119  H27 UNL A   1      55.921  20.500  15.235  1.00  0.00    +0.000 H 
ATOM    120  H28 UNL A   1      56.829  17.830   9.516  1.00  0.00    +0.000 H 
ATOM    121  H29 UNL A   1      54.427  18.637   9.346  1.00  0.00    +0.000 H 
ATOM    122  H30 UNL A   1      55.866  19.712  13.093  1.00  0.00    +0.000 H 
ATOM    123  H31 UNL A   1      60.634  18.119  13.271  1.00  0.00    +0.000 H 
ATOM    124  H32 UNL A   1      60.667  18.880  15.715  1.00  0.00    +0.000 H 
ATOM    125  H33 UNL A   1      51.211  22.184  14.929  1.00  0.00    +0.000 H 
ATOM    126  H34 UNL A   1      50.993  21.015  12.662  1.00  0.00    +0.000 H 
ENDROOT
BRANCH   34   33
ATOM     33  C24 UNL A   1      52.340  19.762  10.715  1.00  0.00    +0.000 C 
ATOM    127  H35 UNL A   1      51.815  17.775  11.212  1.00  0.00    +0.000 H 
ATOM    115  H23 UNL A   1      50.805  21.529   8.300  1.00  0.00    +0.000 H 
ATOM    116  H24 UNL A   1      52.569  21.723   9.954  1.00  0.00    +0.000 H 
ATOM     91  C63 UNL A   1      51.632  18.561  10.568  1.00  0.00    +0.000 C 
ATOM     92  C64 UNL A   1      50.681  18.423   9.557  1.00  0.00    +0.000 C 
ATOM     32  C23 UNL A   1      52.042  20.840   9.866  1.00  0.00    +0.000 C 
ATOM     30  C21 UNL A   1      50.347  19.517   8.754  1.00  0.00    +0.000 C 
ATOM     31  C22 UNL A   1      51.038  20.724   8.903  1.00  0.00    +0.000 C 
ATOM    128  H36 UNL A   1      50.224  17.511   9.402  1.00  0.00    +0.000 H 
BRANCH   30    2
ATOM      1  O1  UNL A   1      48.299  20.101   7.774  1.00  0.00    +0.000 O 
ATOM      2  C1  UNL A   1      49.319  19.421   7.692  1.00  0.00    +0.000 C 
BRANCH    2    3
ATOM      3  N1  UNL A   1      49.487  18.575   6.627  1.00  0.00    +0.000 N 
ATOM     93  H1  UNL A   1      50.073  18.913   5.913  1.00  0.00    +0.000 H 
BRANCH    3    4
ATOM      4  C2  UNL A   1      48.929  17.255   6.393  1.00  0.00    +0.000 C 
ATOM     94  H2  UNL A   1      48.096  17.113   7.047  1.00  0.00    +0.000 H 
ATOM     95  H3  UNL A   1      49.703  16.539   6.578  1.00  0.00    +0.000 H 
BRANCH    4    5
ATOM     97  H5  UNL A   1      48.817  17.918   4.413  1.00  0.00    +0.000 H 
ATOM      5  C3  UNL A   1      48.460  17.067   4.954  1.00  0.00    +0.000 C 
ATOM     96  H4  UNL A   1      48.851  16.137   4.598  1.00  0.00    +0.000 H 
BRANCH    5    6
ATOM     98  H6  UNL A   1      46.559  16.172   5.236  1.00  0.00    +0.000 H 
ATOM     99  H7  UNL A   1      46.785  17.066   3.698  1.00  0.00    +0.000 H 
ATOM      6  C4  UNL A   1      46.942  17.048   4.757  1.00  0.00    +0.000 C 
BRANCH    6    7
ATOM    100  H8  UNL A   1      46.378  18.311   6.363  1.00  0.00    +0.000 H 
ATOM    101  H9  UNL A   1      45.156  18.095   5.067  1.00  0.00    +0.000 H 
ATOM      7  C5  UNL A   1      46.185  18.257   5.312  1.00  0.00    +0.000 C 
BRANCH    7    8
ATOM    102  H10 UNL A   1      47.290  19.438   3.937  1.00  0.00    +0.000 H 
ATOM    103  H11 UNL A   1      46.907  20.217   5.503  1.00  0.00    +0.000 H 
ATOM      8  C6  UNL A   1      46.555  19.609   4.695  1.00  0.00    +0.000 C 
BRANCH    8    9
ATOM      9  C7  UNL A   1      45.395  20.373   4.064  1.00  0.00    +0.000 C 
ATOM    105  H13 UNL A   1      44.533  20.232   4.683  1.00  0.00    +0.000 H 
ATOM    104  H12 UNL A   1      45.660  21.408   3.996  1.00  0.00    +0.000 H 
BRANCH    9   10
ATOM     10  N2  UNL A   1      45.074  19.884   2.737  1.00  0.00    +0.000 N 
ATOM    106  H14 UNL A   1      45.626  20.240   2.002  1.00  0.00    +0.000 H 
BRANCH   10   11
ATOM     11  C8  UNL A   1      44.097  18.991   2.374  1.00  0.00    +0.000 C 
ATOM     12  O2  UNL A   1      44.305  17.781   2.432  1.00  0.00    +0.000 O 
BRANCH   11   13
ATOM    107  H15 UNL A   1      43.529  20.658   0.422  1.00  0.00    +0.000 H 
ATOM    108  H16 UNL A   1      41.363  21.465  -0.321  1.00  0.00    +0.000 H 
ATOM     13  C9  UNL A   1      42.757  19.481   1.998  1.00  0.00    +0.000 C 
ATOM     14  C10 UNL A   1      42.671  20.357   0.910  1.00  0.00    +0.000 C 
ATOM     15  C11 UNL A   1      41.425  20.823   0.485  1.00  0.00    +0.000 C 
ATOM     16  C12 UNL A   1      40.259  20.422   1.151  1.00  0.00    +0.000 C 
ATOM    113  H21 UNL A   1      39.503  19.285   2.768  1.00  0.00    +0.000 H 
ATOM     27  C19 UNL A   1      40.356  19.571   2.264  1.00  0.00    +0.000 C 
ATOM     28  C20 UNL A   1      41.601  19.112   2.692  1.00  0.00    +0.000 C 
BRANCH   16   17
ATOM    109  H17 UNL A   1      39.444  21.411  -1.311  1.00  0.00    +0.000 H 
ATOM    110  H18 UNL A   1      37.338  22.306  -1.879  1.00  0.00    +0.000 H 
ATOM    112  H20 UNL A   1      38.069  20.434   2.532  1.00  0.00    +0.000 H 
ATOM     17  C13 UNL A   1      38.925  20.869   0.710  1.00  0.00    +0.000 C 
ATOM     18  C14 UNL A   1      38.683  21.410  -0.614  1.00  0.00    +0.000 C 
ATOM     19  C15 UNL A   1      37.486  21.909  -0.938  1.00  0.00    +0.000 C 
ATOM     20  N3  UNL A   1      36.444  21.903  -0.031  1.00  0.00    +0.000 N 
ATOM     24  C17 UNL A   1      36.567  21.371   1.243  1.00  0.00    +0.000 C 
ATOM     25  O3  UNL A   1      35.681  21.325   2.089  1.00  0.00    +0.000 O 
ATOM     26  C18 UNL A   1      37.912  20.836   1.595  1.00  0.00    +0.000 C 
BRANCH   20   21
ATOM     21  C16 UNL A   1      35.172  22.484  -0.376  1.00  0.00    +0.000 C 
ATOM     22  F1  UNL A   1      35.306  23.782  -0.738  1.00  0.00    +0.000 F 
ATOM    111  H19 UNL A   1      34.552  22.415   0.494  1.00  0.00    +0.000 H 
ATOM     23  F2  UNL A   1      34.600  21.815  -1.408  1.00  0.00    +0.000 F 
ENDBRANCH   20   21
ENDBRANCH   16   17
BRANCH   28   29
ATOM    114  H22 UNL A   1      40.916  18.142   4.309  1.00  0.00    +0.000 H 
ATOM     29  O4  UNL A   1      41.676  18.292   3.784  1.00  0.00    +0.000 O 
ENDBRANCH   28   29
ENDBRANCH   11   13
ENDBRANCH   10   11
ENDBRANCH    9   10
ENDBRANCH    8    9
ENDBRANCH    7    8
ENDBRANCH    6    7
ENDBRANCH    5    6
ENDBRANCH    4    5
ENDBRANCH    3    4
ENDBRANCH    2    3
ENDBRANCH   30    2
ENDBRANCH   34   33
BRANCH   38   39
ATOM     39  C29 UNL A   1      52.639  22.452  17.131  1.00  0.00    +0.000 C 
ATOM     40  C30 UNL A   1      52.426  23.833  17.015  1.00  0.00    +0.000 C 
ATOM     41  F3  UNL A   1      53.189  24.567  16.191  1.00  0.00    +0.000 F 
ATOM     42  C31 UNL A   1      51.436  24.469  17.758  1.00  0.00    +0.000 C 
ATOM     43  F4  UNL A   1      51.268  25.795  17.651  1.00  0.00    +0.000 F 
ATOM     44  C32 UNL A   1      50.624  23.735  18.609  1.00  0.00    +0.000 C 
ATOM     45  F5  UNL A   1      49.656  24.346  19.306  1.00  0.00    +0.000 F 
ATOM     46  C33 UNL A   1      50.814  22.367  18.737  1.00  0.00    +0.000 C 
ATOM     47  F6  UNL A   1      50.020  21.653  19.547  1.00  0.00    +0.000 F 
ATOM     48  C34 UNL A   1      51.821  21.732  18.014  1.00  0.00    +0.000 C 
ATOM     49  F7  UNL A   1      51.980  20.407  18.156  1.00  0.00    +0.000 F 
ENDBRANCH   38   39
BRANCH   55   56
ATOM     65  C45 UNL A   1      59.625  18.910  18.424  1.00  0.00    +0.000 C 
ATOM     66  F12 UNL A   1      58.957  17.782  18.140  1.00  0.00    +0.000 F 
ATOM     56  C40 UNL A   1      59.389  20.078  17.682  1.00  0.00    +0.000 C 
ATOM     57  C41 UNL A   1      60.103  21.234  18.024  1.00  0.00    +0.000 C 
ATOM     58  F8  UNL A   1      59.918  22.370  17.334  1.00  0.00    +0.000 F 
ATOM     59  C42 UNL A   1      61.019  21.221  19.072  1.00  0.00    +0.000 C 
ATOM     60  F9  UNL A   1      61.706  22.332  19.370  1.00  0.00    +0.000 F 
ATOM     61  C43 UNL A   1      61.219  20.064  19.810  1.00  0.00    +0.000 C 
ATOM     62  F10 UNL A   1      62.081  20.062  20.835  1.00  0.00    +0.000 F 
ATOM     63  C44 UNL A   1      60.521  18.909  19.488  1.00  0.00    +0.000 C 
ATOM     64  F11 UNL A   1      60.700  17.795  20.211  1.00  0.00    +0.000 F 
ENDBRANCH   55   56
BRANCH   70   71
ATOM     71  C49 UNL A   1      59.046  17.695  11.127  1.00  0.00    +0.000 C 
ATOM     72  C50 UNL A   1      59.144  16.297  11.177  1.00  0.00    +0.000 C 
ATOM     73  F13 UNL A   1      58.387  15.605  12.041  1.00  0.00    +0.000 F 
ATOM     74  C51 UNL A   1      60.041  15.607  10.364  1.00  0.00    +0.000 C 
ATOM     75  F14 UNL A   1      60.141  14.275  10.461  1.00  0.00    +0.000 F 
ATOM     76  C52 UNL A   1      60.840  16.299   9.467  1.00  0.00    +0.000 C 
ATOM     77  F15 UNL A   1      61.698  15.636   8.680  1.00  0.00    +0.000 F 
ATOM     78  C53 UNL A   1      60.752  17.682   9.390  1.00  0.00    +0.000 C 
ATOM     79  F16 UNL A   1      61.512  18.352   8.514  1.00  0.00    +0.000 F 
ATOM     80  C54 UNL A   1      59.874  18.374  10.221  1.00  0.00    +0.000 C 
ATOM     81  F17 UNL A   1      59.818  19.711  10.132  1.00  0.00    +0.000 F 
ENDBRANCH   70   71
TORSDOF 18
ENDMDL
MODEL 7
REMARK VINA RESULT:     -11.0     19.961     25.825
ROOT
ATOM     34  C25 UNL A   1      53.649  19.539  11.826  1.00  0.00    +0.000 C 
ATOM     35  C26 UNL A   1      55.019  18.928  11.706  1.00  0.00    +0.000 C 
ATOM     36  N4  UNL A   1      56.008  18.941  12.564  1.00  0.00    +0.000 N 
ATOM     37  C27 UNL A   1      57.031  18.212  11.973  1.00  0.00    +0.000 C 
ATOM     38  C28 UNL A   1      58.288  17.999  12.427  1.00  0.00    +0.000 C 
ATOM     50  C35 UNL A   1      58.800  18.523  13.664  1.00  0.00    +0.000 C 
ATOM     51  C36 UNL A   1      60.075  18.400  14.188  1.00  0.00    +0.000 C 
ATOM     52  C37 UNL A   1      60.103  19.049  15.424  1.00  0.00    +0.000 C 
ATOM     53  C38 UNL A   1      58.859  19.615  15.650  1.00  0.00    +0.000 C 
ATOM     54  N5  UNL A   1      58.066  19.278  14.566  1.00  0.00    +0.000 N 
ATOM     55  C39 UNL A   1      58.426  20.402  16.775  1.00  0.00    +0.000 C 
ATOM     67  C46 UNL A   1      57.184  20.919  16.932  1.00  0.00    +0.000 C 
ATOM     68  N6  UNL A   1      56.094  20.838  16.078  1.00  0.00    +0.000 N 
ATOM     69  C47 UNL A   1      55.121  21.482  16.672  1.00  0.00    +0.000 C 
ATOM     70  C48 UNL A   1      53.719  21.741  16.187  1.00  0.00    +0.000 C 
ATOM     82  C55 UNL A   1      53.333  21.249  14.994  1.00  0.00    +0.000 C 
ATOM     83  C56 UNL A   1      52.020  21.440  14.380  1.00  0.00    +0.000 C 
ATOM     84  C57 UNL A   1      51.995  20.815  13.192  1.00  0.00    +0.000 C 
ATOM     85  C58 UNL A   1      53.302  20.204  12.945  1.00  0.00    +0.000 C 
ATOM     86  N7  UNL A   1      54.021  20.487  14.080  1.00  0.00    +0.000 N 
ATOM     87  C59 UNL A   1      55.480  22.025  17.991  1.00  0.00    +0.000 C 
ATOM     88  C60 UNL A   1      56.759  21.686  18.084  1.00  0.00    +0.000 C 
ATOM     89  C61 UNL A   1      56.530  17.720  10.710  1.00  0.00    +0.000 C 
ATOM     90  C62 UNL A   1      55.315  18.189  10.467  1.00  0.00    +0.000 C 
ATOM    117  H25 UNL A   1      60.868  17.913  13.742  1.00  0.00    +0.000 H 
ATOM    118  H26 UNL A   1      60.913  19.098  16.062  1.00  0.00    +0.000 H 
ATOM    119  H27 UNL A   1      57.122  19.536  14.452  1.00  0.00    +0.000 H 
ATOM    120  H28 UNL A   1      51.239  21.971  14.794  1.00  0.00    +0.000 H 
ATOM    121  H29 UNL A   1      51.185  20.773  12.555  1.00  0.00    +0.000 H 
ATOM    122  H30 UNL A   1      54.943  20.174  14.225  1.00  0.00    +0.000 H 
ATOM    123  H31 UNL A   1      54.892  22.534  18.668  1.00  0.00    +0.000 H 
ATOM    124  H32 UNL A   1      57.373  21.937  18.874  1.00  0.00    +0.000 H 
ATOM    125  H33 UNL A   1      57.049  17.088  10.080  1.00  0.00    +0.000 H 
ATOM    126  H34 UNL A   1      54.728  18.067   9.627  1.00  0.00    +0.000 H 
ENDROOT
BRANCH   34   33
ATOM     33  C24 UNL A   1      52.675  19.405  10.710  1.00  0.00    +0.000 C 
ATOM    127  H35 UNL A   1      51.898  17.547  11.354  1.00  0.00    +0.000 H 
ATOM    115  H23 UNL A   1      51.620  20.987   7.937  1.00  0.00    +0.000 H 
ATOM    116  H24 UNL A   1      53.188  21.230   9.771  1.00  0.00    +0.000 H 
ATOM     91  C63 UNL A   1      51.872  18.260  10.609  1.00  0.00    +0.000 C 
ATOM     92  C64 UNL A   1      51.037  18.081   9.506  1.00  0.00    +0.000 C 
ATOM     32  C23 UNL A   1      52.589  20.391   9.715  1.00  0.00    +0.000 C 
ATOM     30  C21 UNL A   1      50.911  19.093   8.550  1.00  0.00    +0.000 C 
ATOM     31  C22 UNL A   1      51.698  20.245   8.650  1.00  0.00    +0.000 C 
ATOM    128  H36 UNL A   1      50.511  17.200   9.397  1.00  0.00    +0.000 H 
BRANCH   30    2
ATOM      1  O1  UNL A   1      49.754  19.943   6.696  1.00  0.00    +0.000 O 
ATOM      2  C1  UNL A   1      50.010  18.956   7.382  1.00  0.00    +0.000 C 
BRANCH    2    3
ATOM      3  N1  UNL A   1      49.451  17.746   7.065  1.00  0.00    +0.000 N 
ATOM     93  H1  UNL A   1      48.780  17.416   7.705  1.00  0.00    +0.000 H 
BRANCH    3    4
ATOM      4  C2  UNL A   1      49.698  16.878   5.929  1.00  0.00    +0.000 C 
ATOM     94  H2  UNL A   1      49.916  15.895   6.289  1.00  0.00    +0.000 H 
ATOM     95  H3  UNL A   1      50.520  17.287   5.380  1.00  0.00    +0.000 H 
BRANCH    4    5
ATOM     97  H5  UNL A   1      48.361  17.789   4.604  1.00  0.00    +0.000 H 
ATOM      5  C3  UNL A   1      48.504  16.799   4.983  1.00  0.00    +0.000 C 
ATOM     96  H4  UNL A   1      48.731  16.078   4.225  1.00  0.00    +0.000 H 
BRANCH    5    6
ATOM     98  H6  UNL A   1      47.378  16.114   6.644  1.00  0.00    +0.000 H 
ATOM     99  H7  UNL A   1      46.783  15.608   5.030  1.00  0.00    +0.000 H 
ATOM      6  C4  UNL A   1      47.177  16.400   5.633  1.00  0.00    +0.000 C 
BRANCH    6    7
ATOM    100  H8  UNL A   1      45.658  17.490   6.631  1.00  0.00    +0.000 H 
ATOM    101  H9  UNL A   1      45.413  17.232   4.873  1.00  0.00    +0.000 H 
ATOM      7  C5  UNL A   1      46.097  17.484   5.656  1.00  0.00    +0.000 C 
BRANCH    7    8
ATOM    102  H10 UNL A   1      47.648  18.910   5.398  1.00  0.00    +0.000 H 
ATOM    103  H11 UNL A   1      46.114  19.539   6.075  1.00  0.00    +0.000 H 
ATOM      8  C6  UNL A   1      46.579  18.905   5.349  1.00  0.00    +0.000 C 
BRANCH    8    9
ATOM      9  C7  UNL A   1      46.167  19.450   3.985  1.00  0.00    +0.000 C 
ATOM    105  H13 UNL A   1      46.518  20.459   3.915  1.00  0.00    +0.000 H 
ATOM    104  H12 UNL A   1      46.597  18.834   3.223  1.00  0.00    +0.000 H 
BRANCH    9   10
ATOM     10  N2  UNL A   1      44.726  19.468   3.815  1.00  0.00    +0.000 N 
ATOM    106  H14 UNL A   1      44.227  20.044   4.439  1.00  0.00    +0.000 H 
BRANCH   10   11
ATOM     11  C8  UNL A   1      43.971  18.784   2.896  1.00  0.00    +0.000 C 
ATOM     12  O2  UNL A   1      44.306  17.662   2.525  1.00  0.00    +0.000 O 
BRANCH   11   13
ATOM    107  H15 UNL A   1      43.694  20.740   1.162  1.00  0.00    +0.000 H 
ATOM    108  H16 UNL A   1      41.659  21.706   0.255  1.00  0.00    +0.000 H 
ATOM     13  C9  UNL A   1      42.700  19.359   2.415  1.00  0.00    +0.000 C 
ATOM     14  C10 UNL A   1      42.773  20.391   1.473  1.00  0.00    +0.000 C 
ATOM     15  C11 UNL A   1      41.603  20.948   0.954  1.00  0.00    +0.000 C 
ATOM     16  C12 UNL A   1      40.352  20.481   1.381  1.00  0.00    +0.000 C 
ATOM    113  H21 UNL A   1      39.369  19.133   2.682  1.00  0.00    +0.000 H 
ATOM     27  C19 UNL A   1      40.287  19.471   2.353  1.00  0.00    +0.000 C 
ATOM     28  C20 UNL A   1      41.456  18.920   2.876  1.00  0.00    +0.000 C 
BRANCH   16   17
ATOM    109  H17 UNL A   1      39.919  21.955  -0.931  1.00  0.00    +0.000 H 
ATOM    110  H18 UNL A   1      37.912  22.971  -1.638  1.00  0.00    +0.000 H 
ATOM    112  H20 UNL A   1      37.971  20.242   2.368  1.00  0.00    +0.000 H 
ATOM     17  C13 UNL A   1      39.096  21.024   0.831  1.00  0.00    +0.000 C 
ATOM     18  C14 UNL A   1      39.057  21.823  -0.379  1.00  0.00    +0.000 C 
ATOM     19  C15 UNL A   1      37.916  22.392  -0.783  1.00  0.00    +0.000 C 
ATOM     20  N3  UNL A   1      36.743  22.215  -0.075  1.00  0.00    +0.000 N 
ATOM     24  C17 UNL A   1      36.674  21.437   1.069  1.00  0.00    +0.000 C 
ATOM     25  O3  UNL A   1      35.666  21.233   1.737  1.00  0.00    +0.000 O 
ATOM     26  C18 UNL A   1      37.956  20.826   1.518  1.00  0.00    +0.000 C 
BRANCH   20   21
ATOM     21  C16 UNL A   1      35.531  22.869  -0.495  1.00  0.00    +0.000 C 
ATOM     22  F1  UNL A   1      35.797  23.947  -1.271  1.00  0.00    +0.000 F 
ATOM    111  H19 UNL A   1      35.023  23.182   0.393  1.00  0.00    +0.000 H 
ATOM     23  F2  UNL A   1      34.747  22.021  -1.205  1.00  0.00    +0.000 F 
ENDBRANCH   20   21
ENDBRANCH   16   17
BRANCH   28   29
ATOM    114  H22 UNL A   1      41.766  18.072   4.668  1.00  0.00    +0.000 H 
ATOM     29  O4  UNL A   1      41.371  17.943   3.829  1.00  0.00    +0.000 O 
ENDBRANCH   28   29
ENDBRANCH   11   13
ENDBRANCH   10   11
ENDBRANCH    9   10
ENDBRANCH    8    9
ENDBRANCH    7    8
ENDBRANCH    6    7
ENDBRANCH    5    6
ENDBRANCH    4    5
ENDBRANCH    3    4
ENDBRANCH    2    3
ENDBRANCH   30    2
ENDBRANCH   34   33
BRANCH   38   39
ATOM     39  C29 UNL A   1      59.220  17.190  11.575  1.00  0.00    +0.000 C 
ATOM     40  C30 UNL A   1      60.052  17.799  10.626  1.00  0.00    +0.000 C 
ATOM     41  F3  UNL A   1      59.960  19.118  10.393  1.00  0.00    +0.000 F 
ATOM     42  C31 UNL A   1      60.976  17.053   9.900  1.00  0.00    +0.000 C 
ATOM     43  F4  UNL A   1      61.744  17.653   8.979  1.00  0.00    +0.000 F 
ATOM     44  C32 UNL A   1      61.104  15.691  10.127  1.00  0.00    +0.000 C 
ATOM     45  F5  UNL A   1      62.010  14.978   9.444  1.00  0.00    +0.000 F 
ATOM     46  C33 UNL A   1      60.293  15.068  11.064  1.00  0.00    +0.000 C 
ATOM     47  F6  UNL A   1      60.425  13.755  11.296  1.00  0.00    +0.000 F 
ATOM     48  C34 UNL A   1      59.349  15.807  11.773  1.00  0.00    +0.000 C 
ATOM     49  F7  UNL A   1      58.580  15.177  12.674  1.00  0.00    +0.000 F 
ENDBRANCH   38   39
BRANCH   55   56
ATOM     65  C45 UNL A   1      59.564  19.784  18.935  1.00  0.00    +0.000 C 
ATOM     66  F12 UNL A   1      58.844  18.653  18.974  1.00  0.00    +0.000 F 
ATOM     56  C40 UNL A   1      59.440  20.665  17.850  1.00  0.00    +0.000 C 
ATOM     57  C41 UNL A   1      60.205  21.839  17.861  1.00  0.00    +0.000 C 
ATOM     58  F8  UNL A   1      60.126  22.704  16.839  1.00  0.00    +0.000 F 
ATOM     59  C42 UNL A   1      61.062  22.121  18.921  1.00  0.00    +0.000 C 
ATOM     60  F9  UNL A   1      61.798  23.240  18.903  1.00  0.00    +0.000 F 
ATOM     61  C43 UNL A   1      61.150  21.250  19.997  1.00  0.00    +0.000 C 
ATOM     62  F10 UNL A   1      61.956  21.537  21.028  1.00  0.00    +0.000 F 
ATOM     63  C44 UNL A   1      60.402  20.083  20.005  1.00  0.00    +0.000 C 
ATOM     64  F11 UNL A   1      60.473  19.248  21.052  1.00  0.00    +0.000 F 
ENDBRANCH   55   56
BRANCH   70   71
ATOM     71  C49 UNL A   1      52.775  22.563  16.989  1.00  0.00    +0.000 C 
ATOM     72  C50 UNL A   1      52.688  23.950  16.799  1.00  0.00    +0.000 C 
ATOM     73  F13 UNL A   1      53.480  24.552  15.900  1.00  0.00    +0.000 F 
ATOM     74  C51 UNL A   1      51.812  24.728  17.554  1.00  0.00    +0.000 C 
ATOM     75  F14 UNL A   1      51.778  26.055  17.378  1.00  0.00    +0.000 F 
ATOM     76  C52 UNL A   1      50.987  24.132  18.495  1.00  0.00    +0.000 C 
ATOM     77  F15 UNL A   1      50.139  24.878  19.215  1.00  0.00    +0.000 F 
ATOM     78  C53 UNL A   1      51.045  22.760  18.692  1.00  0.00    +0.000 C 
ATOM     79  F16 UNL A   1      50.239  22.178  19.590  1.00  0.00    +0.000 F 
ATOM     80  C54 UNL A   1      51.940  21.985  17.956  1.00  0.00    +0.000 C 
ATOM     81  F17 UNL A   1      51.982  20.662  18.176  1.00  0.00    +0.000 F 
ENDBRANCH   70   71
TORSDOF 18
ENDMDL
MODEL 8
REMARK VINA RESULT:     -10.8     17.909     22.722
ROOT
ATOM     34  C25 UNL A   1      26.028  36.447  45.438  1.00  0.00    +0.000 C 
ATOM     35  C26 UNL A   1      25.968  37.600  46.404  1.00  0.00    +0.000 C 
ATOM     36  N4  UNL A   1      26.907  38.451  46.735  1.00  0.00    +0.000 N 
ATOM     37  C27 UNL A   1      26.322  39.325  47.641  1.00  0.00    +0.000 C 
ATOM     38  C28 UNL A   1      26.899  40.336  48.331  1.00  0.00    +0.000 C 
ATOM     50  C35 UNL A   1      28.289  40.691  48.235  1.00  0.00    +0.000 C 
ATOM     51  C36 UNL A   1      28.976  41.671  48.930  1.00  0.00    +0.000 C 
ATOM     52  C37 UNL A   1      30.301  41.671  48.488  1.00  0.00    +0.000 C 
ATOM     53  C38 UNL A   1      30.450  40.660  47.553  1.00  0.00    +0.000 C 
ATOM     54  N5  UNL A   1      29.206  40.072  47.401  1.00  0.00    +0.000 N 
ATOM     55  C39 UNL A   1      31.641  40.265  46.847  1.00  0.00    +0.000 C 
ATOM     67  C46 UNL A   1      31.710  39.266  45.935  1.00  0.00    +0.000 C 
ATOM     68  N6  UNL A   1      30.705  38.413  45.501  1.00  0.00    +0.000 N 
ATOM     69  C47 UNL A   1      31.257  37.631  44.607  1.00  0.00    +0.000 C 
ATOM     70  C48 UNL A   1      30.643  36.495  43.833  1.00  0.00    +0.000 C 
ATOM     82  C55 UNL A   1      29.341  36.201  44.014  1.00  0.00    +0.000 C 
ATOM     83  C56 UNL A   1      28.616  35.115  43.359  1.00  0.00    +0.000 C 
ATOM     84  C57 UNL A   1      27.341  35.117  43.784  1.00  0.00    +0.000 C 
ATOM     85  C58 UNL A   1      27.168  36.187  44.767  1.00  0.00    +0.000 C 
ATOM     86  N7  UNL A   1      28.398  36.796  44.817  1.00  0.00    +0.000 N 
ATOM     87  C59 UNL A   1      32.676  37.920  44.352  1.00  0.00    +0.000 C 
ATOM     88  C60 UNL A   1      32.912  38.900  45.215  1.00  0.00    +0.000 C 
ATOM     89  C61 UNL A   1      24.935  38.942  47.769  1.00  0.00    +0.000 C 
ATOM     90  C62 UNL A   1      24.681  37.841  47.076  1.00  0.00    +0.000 C 
ATOM    117  H25 UNL A   1      28.578  42.295  49.649  1.00  0.00    +0.000 H 
ATOM    118  H26 UNL A   1      31.043  42.315  48.805  1.00  0.00    +0.000 H 
ATOM    119  H27 UNL A   1      29.003  39.326  46.791  1.00  0.00    +0.000 H 
ATOM    120  H28 UNL A   1      29.018  34.452  42.679  1.00  0.00    +0.000 H 
ATOM    121  H29 UNL A   1      26.604  34.469  43.468  1.00  0.00    +0.000 H 
ATOM    122  H30 UNL A   1      28.586  37.584  45.376  1.00  0.00    +0.000 H 
ATOM    123  H31 UNL A   1      33.320  37.478  43.679  1.00  0.00    +0.000 H 
ATOM    124  H32 UNL A   1      33.832  39.345  45.355  1.00  0.00    +0.000 H 
ATOM    125  H33 UNL A   1      24.234  39.457  48.326  1.00  0.00    +0.000 H 
ATOM    126  H34 UNL A   1      23.807  37.296  47.022  1.00  0.00    +0.000 H 
ENDROOT
BRANCH   34   33
ATOM     33  C24 UNL A   1      24.829  35.597  45.220  1.00  0.00    +0.000 C 
ATOM    127  H35 UNL A   1      23.996  36.820  43.710  1.00  0.00    +0.000 H 
ATOM    115  H23 UNL A   1      23.366  32.780  46.330  1.00  0.00    +0.000 H 
ATOM    116  H24 UNL A   1      25.342  34.143  46.669  1.00  0.00    +0.000 H 
ATOM     91  C63 UNL A   1      23.847  35.985  44.297  1.00  0.00    +0.000 C 
ATOM     92  C64 UNL A   1      22.670  35.248  44.169  1.00  0.00    +0.000 C 
ATOM     32  C23 UNL A   1      24.634  34.429  45.975  1.00  0.00    +0.000 C 
ATOM     30  C21 UNL A   1      22.509  34.055  44.879  1.00  0.00    +0.000 C 
ATOM     31  C22 UNL A   1      23.489  33.652  45.792  1.00  0.00    +0.000 C 
ATOM    128  H36 UNL A   1      21.917  35.585  43.550  1.00  0.00    +0.000 H 
BRANCH   30    2
ATOM      1  O1  UNL A   1      21.357  32.013  44.933  1.00  0.00    +0.000 O 
ATOM      2  C1  UNL A   1      21.288  33.226  44.747  1.00  0.00    +0.000 C 
BRANCH    2    3
ATOM      3  N1  UNL A   1      20.088  33.793  44.407  1.00  0.00    +0.000 N 
ATOM     93  H1  UNL A   1      20.062  34.216  43.519  1.00  0.00    +0.000 H 
BRANCH    3    4
ATOM      4  C2  UNL A   1      18.848  33.865  45.160  1.00  0.00    +0.000 C 
ATOM     94  H2  UNL A   1      18.633  34.891  45.368  1.00  0.00    +0.000 H 
ATOM     95  H3  UNL A   1      18.981  33.300  46.059  1.00  0.00    +0.000 H 
BRANCH    4    5
ATOM     97  H5  UNL A   1      16.985  32.917  45.150  1.00  0.00    +0.000 H 
ATOM      5  C3  UNL A   1      17.670  33.261  44.403  1.00  0.00    +0.000 C 
ATOM     96  H4  UNL A   1      17.265  34.018  43.764  1.00  0.00    +0.000 H 
BRANCH    5    6
ATOM     98  H6  UNL A   1      17.531  31.188  43.981  1.00  0.00    +0.000 H 
ATOM     99  H7  UNL A   1      19.069  31.983  43.513  1.00  0.00    +0.000 H 
ATOM      6  C4  UNL A   1      18.000  32.041  43.539  1.00  0.00    +0.000 C 
BRANCH    6    7
ATOM    100  H8  UNL A   1      18.303  31.657  41.477  1.00  0.00    +0.000 H 
ATOM    101  H9  UNL A   1      17.412  33.163  41.872  1.00  0.00    +0.000 H 
ATOM      7  C5  UNL A   1      17.550  32.122  42.078  1.00  0.00    +0.000 C 
BRANCH    7    8
ATOM    102  H10 UNL A   1      16.402  30.628  41.102  1.00  0.00    +0.000 H 
ATOM    103  H11 UNL A   1      15.594  32.210  41.328  1.00  0.00    +0.000 H 
ATOM      8  C6  UNL A   1      16.212  31.450  41.760  1.00  0.00    +0.000 C 
BRANCH    8    9
ATOM      9  C7  UNL A   1      15.448  30.920  42.969  1.00  0.00    +0.000 C 
ATOM    105  H13 UNL A   1      16.081  31.018  43.827  1.00  0.00    +0.000 H 
ATOM    104  H12 UNL A   1      14.547  31.486  43.084  1.00  0.00    +0.000 H 
BRANCH    9   10
ATOM     10  N2  UNL A   1      15.105  29.517  42.829  1.00  0.00    +0.000 N 
ATOM    106  H14 UNL A   1      14.143  29.307  42.843  1.00  0.00    +0.000 H 
BRANCH   10   11
ATOM     11  C8  UNL A   1      15.951  28.447  42.683  1.00  0.00    +0.000 C 
ATOM     12  O2  UNL A   1      17.145  28.553  42.953  1.00  0.00    +0.000 O 
BRANCH   11   13
ATOM    107  H15 UNL A   1      15.365  27.670  40.240  1.00  0.00    +0.000 H 
ATOM    108  H16 UNL A   1      14.545  25.517  39.474  1.00  0.00    +0.000 H 
ATOM     13  C9  UNL A   1      15.410  27.133  42.284  1.00  0.00    +0.000 C 
ATOM     14  C10 UNL A   1      15.182  26.915  40.920  1.00  0.00    +0.000 C 
ATOM     15  C11 UNL A   1      14.708  25.678  40.480  1.00  0.00    +0.000 C 
ATOM     16  C12 UNL A   1      14.450  24.654  41.402  1.00  0.00    +0.000 C 
ATOM    113  H21 UNL A   1      14.445  24.147  43.457  1.00  0.00    +0.000 H 
ATOM     27  C19 UNL A   1      14.647  24.892  42.772  1.00  0.00    +0.000 C 
ATOM     28  C20 UNL A   1      15.114  26.130  43.211  1.00  0.00    +0.000 C 
BRANCH   16   17
ATOM    109  H17 UNL A   1      13.215  22.648  42.870  1.00  0.00    +0.000 H 
ATOM    110  H18 UNL A   1      12.679  20.464  42.159  1.00  0.00    +0.000 H 
ATOM    112  H20 UNL A   1      14.562  23.643  39.021  1.00  0.00    +0.000 H 
ATOM     17  C13 UNL A   1      13.978  23.325  40.970  1.00  0.00    +0.000 C 
ATOM     18  C14 UNL A   1      13.392  22.370  41.891  1.00  0.00    +0.000 C 
ATOM     19  C15 UNL A   1      13.080  21.135  41.485  1.00  0.00    +0.000 C 
ATOM     20  N3  UNL A   1      13.287  20.744  40.177  1.00  0.00    +0.000 N 
ATOM     24  C17 UNL A   1      13.804  21.597  39.216  1.00  0.00    +0.000 C 
ATOM     25  O3  UNL A   1      14.003  21.316  38.039  1.00  0.00    +0.000 O 
ATOM     26  C18 UNL A   1      14.164  22.964  39.688  1.00  0.00    +0.000 C 
BRANCH   20   21
ATOM     21  C16 UNL A   1      12.990  19.397  39.762  1.00  0.00    +0.000 C 
ATOM     22  F1  UNL A   1      13.643  18.491  40.528  1.00  0.00    +0.000 F 
ATOM    111  H19 UNL A   1      13.310  19.307  38.745  1.00  0.00    +0.000 H 
ATOM     23  F2  UNL A   1      11.660  19.146  39.854  1.00  0.00    +0.000 F 
ENDBRANCH   20   21
ENDBRANCH   16   17
BRANCH   28   29
ATOM    114  H22 UNL A   1      14.629  26.084  45.158  1.00  0.00    +0.000 H 
ATOM     29  O4  UNL A   1      15.291  26.345  44.550  1.00  0.00    +0.000 O 
ENDBRANCH   28   29
ENDBRANCH   11   13
ENDBRANCH   10   11
ENDBRANCH    9   10
ENDBRANCH    8    9
ENDBRANCH    7    8
ENDBRANCH    6    7
ENDBRANCH    5    6
ENDBRANCH    4    5
ENDBRANCH    3    4
ENDBRANCH    2    3
ENDBRANCH   30    2
ENDBRANCH   34   33
BRANCH   38   39
ATOM     39  C29 UNL A   1      26.043  41.122  49.280  1.00  0.00    +0.000 C 
ATOM     40  C30 UNL A   1      25.337  42.256  48.854  1.00  0.00    +0.000 C 
ATOM     41  F3  UNL A   1      25.492  42.718  47.604  1.00  0.00    +0.000 F 
ATOM     42  C31 UNL A   1      24.477  42.929  49.717  1.00  0.00    +0.000 C 
ATOM     43  F4  UNL A   1      23.831  44.025  49.296  1.00  0.00    +0.000 F 
ATOM     44  C32 UNL A   1      24.286  42.468  51.011  1.00  0.00    +0.000 C 
ATOM     45  F5  UNL A   1      23.441  43.104  51.833  1.00  0.00    +0.000 F 
ATOM     46  C33 UNL A   1      24.973  41.346  51.452  1.00  0.00    +0.000 C 
ATOM     47  F6  UNL A   1      24.779  40.890  52.697  1.00  0.00    +0.000 F 
ATOM     48  C34 UNL A   1      25.854  40.686  50.600  1.00  0.00    +0.000 C 
ATOM     49  F7  UNL A   1      26.502  39.603  51.054  1.00  0.00    +0.000 F 
ENDBRANCH   38   39
BRANCH   55   56
ATOM     65  C45 UNL A   1      33.711  40.637  48.233  1.00  0.00    +0.000 C 
ATOM     66  F12 UNL A   1      33.421  39.532  48.936  1.00  0.00    +0.000 F 
ATOM     56  C40 UNL A   1      32.898  41.024  47.156  1.00  0.00    +0.000 C 
ATOM     57  C41 UNL A   1      33.236  42.192  46.460  1.00  0.00    +0.000 C 
ATOM     58  F8  UNL A   1      32.494  42.594  45.417  1.00  0.00    +0.000 F 
ATOM     59  C42 UNL A   1      34.347  42.946  46.829  1.00  0.00    +0.000 C 
ATOM     60  F9  UNL A   1      34.663  44.049  46.138  1.00  0.00    +0.000 F 
ATOM     61  C43 UNL A   1      35.122  42.560  47.913  1.00  0.00    +0.000 C 
ATOM     62  F10 UNL A   1      36.175  43.302  48.282  1.00  0.00    +0.000 F 
ATOM     63  C44 UNL A   1      34.804  41.407  48.615  1.00  0.00    +0.000 C 
ATOM     64  F11 UNL A   1      35.542  41.043  49.673  1.00  0.00    +0.000 F 
ENDBRANCH   55   56
BRANCH   70   71
ATOM     71  C49 UNL A   1      31.465  35.674  42.904  1.00  0.00    +0.000 C 
ATOM     72  C50 UNL A   1      32.200  34.576  43.373  1.00  0.00    +0.000 C 
ATOM     73  F13 UNL A   1      32.185  34.270  44.680  1.00  0.00    +0.000 F 
ATOM     74  C51 UNL A   1      32.979  33.808  42.511  1.00  0.00    +0.000 C 
ATOM     75  F14 UNL A   1      33.702  32.789  42.993  1.00  0.00    +0.000 F 
ATOM     76  C52 UNL A   1      33.018  34.106  41.158  1.00  0.00    +0.000 C 
ATOM     77  F15 UNL A   1      33.761  33.363  40.326  1.00  0.00    +0.000 F 
ATOM     78  C53 UNL A   1      32.289  35.180  40.667  1.00  0.00    +0.000 C 
ATOM     79  F16 UNL A   1      32.313  35.462  39.358  1.00  0.00    +0.000 F 
ATOM     80  C54 UNL A   1      31.531  35.964  41.533  1.00  0.00    +0.000 C 
ATOM     81  F17 UNL A   1      30.845  37.002  41.033  1.00  0.00    +0.000 F 
ENDBRANCH   70   71
TORSDOF 18
ENDMDL
MODEL 9
REMARK VINA RESULT:     -10.8     19.992     24.894
ROOT
ATOM     34  C25 UNL A   1      53.379  19.981  11.611  1.00  0.00    +0.000 C 
ATOM     35  C26 UNL A   1      53.103  20.647  12.933  1.00  0.00    +0.000 C 
ATOM     36  N4  UNL A   1      53.911  20.842  13.945  1.00  0.00    +0.000 N 
ATOM     37  C27 UNL A   1      53.166  21.522  14.898  1.00  0.00    +0.000 C 
ATOM     38  C28 UNL A   1      53.527  21.887  16.150  1.00  0.00    +0.000 C 
ATOM     50  C35 UNL A   1      54.813  21.614  16.732  1.00  0.00    +0.000 C 
ATOM     51  C36 UNL A   1      55.257  21.903  18.010  1.00  0.00    +0.000 C 
ATOM     52  C37 UNL A   1      56.583  21.478  18.118  1.00  0.00    +0.000 C 
ATOM     53  C38 UNL A   1      56.950  20.881  16.923  1.00  0.00    +0.000 C 
ATOM     54  N5  UNL A   1      55.857  20.979  16.078  1.00  0.00    +0.000 N 
ATOM     55  C39 UNL A   1      58.208  20.272  16.578  1.00  0.00    +0.000 C 
ATOM     67  C46 UNL A   1      58.498  19.713  15.379  1.00  0.00    +0.000 C 
ATOM     68  N6  UNL A   1      57.687  19.580  14.261  1.00  0.00    +0.000 N 
ATOM     69  C47 UNL A   1      58.420  18.986  13.352  1.00  0.00    +0.000 C 
ATOM     70  C48 UNL A   1      58.042  18.562  11.958  1.00  0.00    +0.000 C 
ATOM     82  C55 UNL A   1      56.799  18.819  11.504  1.00  0.00    +0.000 C 
ATOM     83  C56 UNL A   1      56.280  18.444  10.191  1.00  0.00    +0.000 C 
ATOM     84  C57 UNL A   1      55.005  18.855  10.089  1.00  0.00    +0.000 C 
ATOM     85  C58 UNL A   1      54.607  19.495  11.344  1.00  0.00    +0.000 C 
ATOM     86  N7  UNL A   1      55.744  19.455  12.113  1.00  0.00    +0.000 N 
ATOM     87  C59 UNL A   1      59.795  18.700  13.785  1.00  0.00    +0.000 C 
ATOM     88  C60 UNL A   1      59.779  19.128  15.041  1.00  0.00    +0.000 C 
ATOM     89  C61 UNL A   1      51.859  21.760  14.328  1.00  0.00    +0.000 C 
ATOM     90  C62 UNL A   1      51.747  21.181  13.141  1.00  0.00    +0.000 C 
ATOM    117  H25 UNL A   1      54.705  22.356  18.755  1.00  0.00    +0.000 H 
ATOM    118  H26 UNL A   1      57.187  21.588  18.949  1.00  0.00    +0.000 H 
ATOM    119  H27 UNL A   1      55.826  20.648  15.151  1.00  0.00    +0.000 H 
ATOM    120  H28 UNL A   1      56.808  17.944   9.460  1.00  0.00    +0.000 H 
ATOM    121  H29 UNL A   1      54.404  18.738   9.260  1.00  0.00    +0.000 H 
ATOM    122  H30 UNL A   1      55.797  19.845  13.015  1.00  0.00    +0.000 H 
ATOM    123  H31 UNL A   1      60.571  18.277  13.253  1.00  0.00    +0.000 H 
ATOM    124  H32 UNL A   1      60.575  19.054  15.693  1.00  0.00    +0.000 H 
ATOM    125  H33 UNL A   1      51.112  22.306  14.785  1.00  0.00    +0.000 H 
ATOM    126  H34 UNL A   1      50.923  21.121  12.523  1.00  0.00    +0.000 H 
ENDROOT
BRANCH   34   33
ATOM     33  C24 UNL A   1      52.297  19.862  10.599  1.00  0.00    +0.000 C 
ATOM    127  H35 UNL A   1      51.819  17.854  11.060  1.00  0.00    +0.000 H 
ATOM    115  H23 UNL A   1      50.736  21.627   8.200  1.00  0.00    +0.000 H 
ATOM    116  H24 UNL A   1      52.481  21.840   9.871  1.00  0.00    +0.000 H 
ATOM     91  C63 UNL A   1      51.621  18.645  10.428  1.00  0.00    +0.000 C 
ATOM     92  C64 UNL A   1      50.682  18.499   9.407  1.00  0.00    +0.000 C 
ATOM     32  C23 UNL A   1      51.978  20.945   9.765  1.00  0.00    +0.000 C 
ATOM     30  C21 UNL A   1      50.327  19.597   8.618  1.00  0.00    +0.000 C 
ATOM     31  C22 UNL A   1      50.984  20.818   8.792  1.00  0.00    +0.000 C 
ATOM    128  H36 UNL A   1      50.250  17.578   9.234  1.00  0.00    +0.000 H 
BRANCH   30    2
ATOM      1  O1  UNL A   1      48.171  19.905   7.749  1.00  0.00    +0.000 O 
ATOM      2  C1  UNL A   1      49.310  19.491   7.546  1.00  0.00    +0.000 C 
BRANCH    2    3
ATOM      3  N1  UNL A   1      49.621  18.927   6.337  1.00  0.00    +0.000 N 
ATOM     93  H1  UNL A   1      50.552  19.054   6.044  1.00  0.00    +0.000 H 
BRANCH    3    4
ATOM      4  C2  UNL A   1      48.785  18.171   5.422  1.00  0.00    +0.000 C 
ATOM     94  H2  UNL A   1      49.342  17.976   4.530  1.00  0.00    +0.000 H 
ATOM     95  H3  UNL A   1      47.912  18.756   5.221  1.00  0.00    +0.000 H 
BRANCH    4    5
ATOM     97  H5  UNL A   1      49.041  16.593   6.769  1.00  0.00    +0.000 H 
ATOM      5  C3  UNL A   1      48.326  16.842   6.012  1.00  0.00    +0.000 C 
ATOM     96  H4  UNL A   1      47.332  16.974   6.388  1.00  0.00    +0.000 H 
BRANCH    5    6
ATOM     98  H6  UNL A   1      49.091  14.988   5.327  1.00  0.00    +0.000 H 
ATOM     99  H7  UNL A   1      48.443  16.085   4.065  1.00  0.00    +0.000 H 
ATOM      6  C4  UNL A   1      48.312  15.661   5.039  1.00  0.00    +0.000 C 
BRANCH    6    7
ATOM    100  H8  UNL A   1      46.554  14.901   5.948  1.00  0.00    +0.000 H 
ATOM    101  H9  UNL A   1      47.273  13.884   4.657  1.00  0.00    +0.000 H 
ATOM      7  C5  UNL A   1      47.004  14.869   4.977  1.00  0.00    +0.000 C 
BRANCH    7    8
ATOM    102  H10 UNL A   1      45.077  15.616   4.496  1.00  0.00    +0.000 H 
ATOM    103  H11 UNL A   1      45.845  14.582   3.253  1.00  0.00    +0.000 H 
ATOM      8  C6  UNL A   1      45.972  15.372   3.964  1.00  0.00    +0.000 C 
BRANCH    8    9
ATOM      9  C7  UNL A   1      46.395  16.599   3.162  1.00  0.00    +0.000 C 
ATOM    105  H13 UNL A   1      46.978  17.226   3.804  1.00  0.00    +0.000 H 
ATOM    104  H12 UNL A   1      46.961  16.277   2.313  1.00  0.00    +0.000 H 
BRANCH    9   10
ATOM     10  N2  UNL A   1      45.257  17.371   2.701  1.00  0.00    +0.000 N 
ATOM    106  H14 UNL A   1      44.794  17.020   1.905  1.00  0.00    +0.000 H 
BRANCH   10   11
ATOM     11  C8  UNL A   1      44.746  18.529   3.231  1.00  0.00    +0.000 C 
ATOM     12  O2  UNL A   1      45.378  19.162   4.073  1.00  0.00    +0.000 O 
BRANCH   11   13
ATOM    107  H15 UNL A   1      42.332  17.814   3.988  1.00  0.00    +0.000 H 
ATOM    108  H16 UNL A   1      40.181  18.685   3.272  1.00  0.00    +0.000 H 
ATOM     13  C9  UNL A   1      43.469  19.068   2.723  1.00  0.00    +0.000 C 
ATOM     14  C10 UNL A   1      42.288  18.559   3.275  1.00  0.00    +0.000 C 
ATOM     15  C11 UNL A   1      41.052  19.058   2.861  1.00  0.00    +0.000 C 
ATOM     16  C12 UNL A   1      40.989  20.063   1.886  1.00  0.00    +0.000 C 
ATOM    113  H21 UNL A   1      42.136  21.273   0.583  1.00  0.00    +0.000 H 
ATOM     27  C19 UNL A   1      42.176  20.544   1.312  1.00  0.00    +0.000 C 
ATOM     28  C20 UNL A   1      43.410  20.039   1.721  1.00  0.00    +0.000 C 
BRANCH   16   17
ATOM    109  H17 UNL A   1      38.466  19.828   3.019  1.00  0.00    +0.000 H 
ATOM    110  H18 UNL A   1      36.416  20.598   2.144  1.00  0.00    +0.000 H 
ATOM    112  H20 UNL A   1      40.563  21.590  -0.161  1.00  0.00    +0.000 H 
ATOM     17  C13 UNL A   1      39.702  20.636   1.448  1.00  0.00    +0.000 C 
ATOM     18  C14 UNL A   1      38.456  20.368   2.139  1.00  0.00    +0.000 C 
ATOM     19  C15 UNL A   1      37.295  20.813   1.647  1.00  0.00    +0.000 C 
ATOM     20  N3  UNL A   1      37.254  21.556   0.483  1.00  0.00    +0.000 N 
ATOM     24  C17 UNL A   1      38.396  21.896  -0.225  1.00  0.00    +0.000 C 
ATOM     25  O3  UNL A   1      38.429  22.559  -1.256  1.00  0.00    +0.000 O 
ATOM     26  C18 UNL A   1      39.679  21.377   0.326  1.00  0.00    +0.000 C 
BRANCH   20   21
ATOM     21  C16 UNL A   1      35.994  21.991  -0.062  1.00  0.00    +0.000 C 
ATOM     22  F1  UNL A   1      35.502  21.089  -0.945  1.00  0.00    +0.000 F 
ATOM    111  H19 UNL A   1      36.175  22.920  -0.561  1.00  0.00    +0.000 H 
ATOM     23  F2  UNL A   1      35.076  22.161   0.921  1.00  0.00    +0.000 F 
ENDBRANCH   20   21
ENDBRANCH   16   17
BRANCH   28   29
ATOM    114  H22 UNL A   1      45.224  19.918   0.871  1.00  0.00    +0.000 H 
ATOM     29  O4  UNL A   1      44.556  20.514   1.142  1.00  0.00    +0.000 O 
ENDBRANCH   28   29
ENDBRANCH   11   13
ENDBRANCH   10   11
ENDBRANCH    9   10
ENDBRANCH    8    9
ENDBRANCH    7    8
ENDBRANCH    6    7
ENDBRANCH    5    6
ENDBRANCH    4    5
ENDBRANCH    3    4
ENDBRANCH    2    3
ENDBRANCH   30    2
ENDBRANCH   34   33
BRANCH   38   39
ATOM     39  C29 UNL A   1      52.514  22.596  16.999  1.00  0.00    +0.000 C 
ATOM     40  C30 UNL A   1      51.759  21.907  17.959  1.00  0.00    +0.000 C 
ATOM     41  F3  UNL A   1      51.859  20.573  18.067  1.00  0.00    +0.000 F 
ATOM     42  C31 UNL A   1      50.884  22.585  18.803  1.00  0.00    +0.000 C 
ATOM     43  F4  UNL A   1      50.153  21.903  19.695  1.00  0.00    +0.000 F 
ATOM     44  C32 UNL A   1      50.768  23.965  18.723  1.00  0.00    +0.000 C 
ATOM     45  F5  UNL A   1      49.942  24.618  19.552  1.00  0.00    +0.000 F 
ATOM     46  C33 UNL A   1      51.508  24.667  17.783  1.00  0.00    +0.000 C 
ATOM     47  F6  UNL A   1      51.409  26.002  17.715  1.00  0.00    +0.000 F 
ATOM     48  C34 UNL A   1      52.365  23.988  16.919  1.00  0.00    +0.000 C 
ATOM     49  F7  UNL A   1      53.070  24.694  16.023  1.00  0.00    +0.000 F 
ENDBRANCH   38   39
BRANCH   55   56
ATOM     65  C45 UNL A   1      59.499  19.100  18.394  1.00  0.00    +0.000 C 
ATOM     66  F12 UNL A   1      58.835  17.968  18.116  1.00  0.00    +0.000 F 
ATOM     56  C40 UNL A   1      59.270  20.259  17.637  1.00  0.00    +0.000 C 
ATOM     57  C41 UNL A   1      59.980  21.420  17.974  1.00  0.00    +0.000 C 
ATOM     58  F8  UNL A   1      59.801  22.548  17.271  1.00  0.00    +0.000 F 
ATOM     59  C42 UNL A   1      60.885  21.420  19.032  1.00  0.00    +0.000 C 
ATOM     60  F9  UNL A   1      61.567  22.534  19.325  1.00  0.00    +0.000 F 
ATOM     61  C43 UNL A   1      61.078  20.270  19.785  1.00  0.00    +0.000 C 
ATOM     62  F10 UNL A   1      61.929  20.281  20.819  1.00  0.00    +0.000 F 
ATOM     63  C44 UNL A   1      60.385  19.111  19.468  1.00  0.00    +0.000 C 
ATOM     64  F11 UNL A   1      60.557  18.005  20.204  1.00  0.00    +0.000 F 
ENDBRANCH   55   56
BRANCH   70   71
ATOM     71  C49 UNL A   1      59.008  17.831  11.096  1.00  0.00    +0.000 C 
ATOM     72  C50 UNL A   1      59.841  18.522  10.204  1.00  0.00    +0.000 C 
ATOM     73  F13 UNL A   1      59.754  19.857  10.105  1.00  0.00    +0.000 F 
ATOM     74  C51 UNL A   1      60.742  17.843   9.386  1.00  0.00    +0.000 C 
ATOM     75  F14 UNL A   1      61.497  18.525   8.515  1.00  0.00    +0.000 F 
ATOM     76  C52 UNL A   1      60.847  16.463   9.462  1.00  0.00    +0.000 C 
ATOM     77  F15 UNL A   1      61.719  15.811   8.681  1.00  0.00    +0.000 F 
ATOM     78  C53 UNL A   1      60.043  15.758  10.346  1.00  0.00    +0.000 C 
ATOM     79  F16 UNL A   1      60.152  14.426  10.433  1.00  0.00    +0.000 F 
ATOM     80  C54 UNL A   1      59.123  16.434  11.145  1.00  0.00    +0.000 C 
ATOM     81  F17 UNL A   1      58.351  15.726  11.983  1.00  0.00    +0.000 F 
ENDBRANCH   70   71
TORSDOF 18
ENDMDL
MODEL 10
REMARK VINA RESULT:     -10.7     32.751     38.933
ROOT
ATOM     34  C25 UNL A   1       7.399   2.996  26.145  1.00  0.00    +0.000 C 
ATOM     35  C26 UNL A   1       8.576   3.312  27.029  1.00  0.00    +0.000 C 
ATOM     36  N4  UNL A   1       9.042   4.478  27.400  1.00  0.00    +0.000 N 
ATOM     37  C27 UNL A   1      10.121   4.208  28.231  1.00  0.00    +0.000 C 
ATOM     38  C28 UNL A   1      10.981   5.079  28.808  1.00  0.00    +0.000 C 
ATOM     50  C35 UNL A   1      10.916   6.506  28.647  1.00  0.00    +0.000 C 
ATOM     51  C36 UNL A   1      11.771   7.468  29.156  1.00  0.00    +0.000 C 
ATOM     52  C37 UNL A   1      11.299   8.722  28.762  1.00  0.00    +0.000 C 
ATOM     53  C38 UNL A   1      10.177   8.539  27.970  1.00  0.00    +0.000 C 
ATOM     54  N5  UNL A   1       9.948   7.174  27.915  1.00  0.00    +0.000 N 
ATOM     55  C39 UNL A   1       9.372   9.538  27.318  1.00  0.00    +0.000 C 
ATOM     67  C46 UNL A   1       8.278   9.283  26.561  1.00  0.00    +0.000 C 
ATOM     68  N6  UNL A   1       7.713   8.059  26.232  1.00  0.00    +0.000 N 
ATOM     69  C47 UNL A   1       6.666   8.332  25.494  1.00  0.00    +0.000 C 
ATOM     70  C48 UNL A   1       5.700   7.385  24.833  1.00  0.00    +0.000 C 
ATOM     82  C55 UNL A   1       5.857   6.057  25.001  1.00  0.00    +0.000 C 
ATOM     83  C56 UNL A   1       5.021   5.020  24.402  1.00  0.00    +0.000 C 
ATOM     84  C57 UNL A   1       5.476   3.815  24.782  1.00  0.00    +0.000 C 
ATOM     85  C58 UNL A   1       6.657   3.994  25.628  1.00  0.00    +0.000 C 
ATOM     86  N7  UNL A   1       6.790   5.357  25.727  1.00  0.00    +0.000 N 
ATOM     87  C59 UNL A   1       6.432   9.769  25.294  1.00  0.00    +0.000 C 
ATOM     88  C60 UNL A   1       7.465  10.303  25.933  1.00  0.00    +0.000 C 
ATOM     89  C61 UNL A   1      10.211   2.771  28.359  1.00  0.00    +0.000 C 
ATOM     90  C62 UNL A   1       9.321   2.170  27.583  1.00  0.00    +0.000 C 
ATOM    117  H25 UNL A   1      12.611   7.290  29.727  1.00  0.00    +0.000 H 
ATOM    118  H26 UNL A   1      11.716   9.632  29.018  1.00  0.00    +0.000 H 
ATOM    119  H27 UNL A   1       9.209   6.744  27.428  1.00  0.00    +0.000 H 
ATOM    120  H28 UNL A   1       4.211   5.187  23.786  1.00  0.00    +0.000 H 
ATOM    121  H29 UNL A   1       5.059   2.908  24.520  1.00  0.00    +0.000 H 
ATOM    122  H30 UNL A   1       7.489   5.791  26.268  1.00  0.00    +0.000 H 
ATOM    123  H31 UNL A   1       5.665  10.241  24.790  1.00  0.00    +0.000 H 
ATOM    124  H32 UNL A   1       7.663  11.315  25.978  1.00  0.00    +0.000 H 
ATOM    125  H33 UNL A   1      10.880   2.279  28.973  1.00  0.00    +0.000 H 
ATOM    126  H34 UNL A   1       9.185   1.161  27.413  1.00  0.00    +0.000 H 
ENDROOT
BRANCH   34   33
ATOM     33  C24 UNL A   1       7.052   1.582  25.848  1.00  0.00    +0.000 C 
ATOM    127  H35 UNL A   1       8.327   1.419  24.169  1.00  0.00    +0.000 H 
ATOM    115  H23 UNL A   1       5.104  -0.933  26.938  1.00  0.00    +0.000 H 
ATOM    116  H24 UNL A   1       5.689   1.364  27.451  1.00  0.00    +0.000 H 
ATOM     91  C63 UNL A   1       7.611   0.937  24.735  1.00  0.00    +0.000 C 
ATOM     92  C64 UNL A   1       7.206  -0.352  24.390  1.00  0.00    +0.000 C 
ATOM     32  C23 UNL A   1       6.120   0.893  26.639  1.00  0.00    +0.000 C 
ATOM     30  C21 UNL A   1       6.322  -1.053  25.216  1.00  0.00    +0.000 C 
ATOM     31  C22 UNL A   1       5.770  -0.424  26.336  1.00  0.00    +0.000 C 
ATOM    128  H36 UNL A   1       7.559  -0.788  23.525  1.00  0.00    +0.000 H 
BRANCH   30    2
ATOM      1  O1  UNL A   1       5.310  -2.665  23.845  1.00  0.00    +0.000 O 
ATOM      2  C1  UNL A   1       5.893  -2.436  24.903  1.00  0.00    +0.000 C 
BRANCH    2    3
ATOM      3  N1  UNL A   1       6.127  -3.460  25.783  1.00  0.00    +0.000 N 
ATOM     93  H1  UNL A   1       5.331  -3.980  26.040  1.00  0.00    +0.000 H 
BRANCH    3    4
ATOM      4  C2  UNL A   1       7.370  -3.894  26.394  1.00  0.00    +0.000 C 
ATOM     94  H2  UNL A   1       7.249  -4.898  26.741  1.00  0.00    +0.000 H 
ATOM     95  H3  UNL A   1       7.587  -3.223  27.199  1.00  0.00    +0.000 H 
BRANCH    4    5
ATOM     97  H5  UNL A   1       9.034  -4.797  25.507  1.00  0.00    +0.000 H 
ATOM      5  C3  UNL A   1       8.545  -3.849  25.423  1.00  0.00    +0.000 C 
ATOM     96  H4  UNL A   1       8.157  -3.651  24.445  1.00  0.00    +0.000 H 
BRANCH    5    6
ATOM     98  H6  UNL A   1       9.550  -2.036  24.979  1.00  0.00    +0.000 H 
ATOM     99  H7  UNL A   1      10.544  -3.318  25.745  1.00  0.00    +0.000 H 
ATOM      6  C4  UNL A   1       9.610  -2.794  25.731  1.00  0.00    +0.000 C 
BRANCH    6    7
ATOM    100  H8  UNL A   1       9.102  -2.828  27.789  1.00  0.00    +0.000 H 
ATOM    101  H9  UNL A   1       8.861  -1.263  26.947  1.00  0.00    +0.000 H 
ATOM      7  C5  UNL A   1       9.494  -2.113  27.097  1.00  0.00    +0.000 C 
BRANCH    7    8
ATOM    102  H10 UNL A   1      10.635  -1.337  28.709  1.00  0.00    +0.000 H 
ATOM    103  H11 UNL A   1      11.052  -0.709  27.085  1.00  0.00    +0.000 H 
ATOM      8  C6  UNL A   1      10.801  -1.565  27.677  1.00  0.00    +0.000 C 
BRANCH    8    9
ATOM      9  C7  UNL A   1      11.996  -2.508  27.587  1.00  0.00    +0.000 C 
ATOM    105  H13 UNL A   1      12.595  -2.364  28.463  1.00  0.00    +0.000 H 
ATOM    104  H12 UNL A   1      11.638  -3.514  27.522  1.00  0.00    +0.000 H 
BRANCH    9   10
ATOM     10  N2  UNL A   1      12.827  -2.231  26.431  1.00  0.00    +0.000 N 
ATOM    106  H14 UNL A   1      13.026  -3.002  25.850  1.00  0.00    +0.000 H 
BRANCH   10   11
ATOM     11  C8  UNL A   1      13.373  -1.033  26.045  1.00  0.00    +0.000 C 
ATOM     12  O2  UNL A   1      14.502  -0.715  26.411  1.00  0.00    +0.000 O 
BRANCH   11   13
ATOM    107  H15 UNL A   1      12.110   1.192  26.649  1.00  0.00    +0.000 H 
ATOM    108  H16 UNL A   1      10.938   2.734  25.184  1.00  0.00    +0.000 H 
ATOM     13  C9  UNL A   1      12.638  -0.157  25.111  1.00  0.00    +0.000 C 
ATOM     14  C10 UNL A   1      12.046   0.996  25.638  1.00  0.00    +0.000 C 
ATOM     15  C11 UNL A   1      11.370   1.881  24.796  1.00  0.00    +0.000 C 
ATOM     16  C12 UNL A   1      11.275   1.613  23.423  1.00  0.00    +0.000 C 
ATOM    113  H21 UNL A   1      11.760   0.225  21.901  1.00  0.00    +0.000 H 
ATOM     27  C19 UNL A   1      11.840   0.436  22.908  1.00  0.00    +0.000 C 
ATOM     28  C20 UNL A   1      12.509  -0.451  23.751  1.00  0.00    +0.000 C 
BRANCH   16   17
ATOM    109  H17 UNL A   1      11.597   1.942  20.686  1.00  0.00    +0.000 H 
ATOM    110  H18 UNL A   1      10.628   3.592  19.309  1.00  0.00    +0.000 H 
ATOM    112  H20 UNL A   1       9.432   3.338  23.999  1.00  0.00    +0.000 H 
ATOM     17  C13 UNL A   1      10.596   2.541  22.499  1.00  0.00    +0.000 C 
ATOM     18  C14 UNL A   1      10.925   2.614  21.089  1.00  0.00    +0.000 C 
ATOM     19  C15 UNL A   1      10.368   3.545  20.307  1.00  0.00    +0.000 C 
ATOM     20  N3  UNL A   1       9.451   4.445  20.815  1.00  0.00    +0.000 N 
ATOM     24  C17 UNL A   1       9.045   4.427  22.139  1.00  0.00    +0.000 C 
ATOM     25  O3  UNL A   1       8.230   5.189  22.649  1.00  0.00    +0.000 O 
ATOM     26  C18 UNL A   1       9.688   3.397  23.002  1.00  0.00    +0.000 C 
BRANCH   20   21
ATOM     21  C16 UNL A   1       8.893   5.472  19.973  1.00  0.00    +0.000 C 
ATOM     22  F1  UNL A   1       9.492   6.666  20.192  1.00  0.00    +0.000 F 
ATOM    111  H19 UNL A   1       7.853   5.541  20.216  1.00  0.00    +0.000 H 
ATOM     23  F2  UNL A   1       9.045   5.157  18.663  1.00  0.00    +0.000 F 
ENDBRANCH   20   21
ENDBRANCH   16   17
BRANCH   28   29
ATOM    114  H22 UNL A   1      13.435  -1.588  22.381  1.00  0.00    +0.000 H 
ATOM     29  O4  UNL A   1      13.046  -1.597  23.232  1.00  0.00    +0.000 O 
ENDBRANCH   28   29
ENDBRANCH   11   13
ENDBRANCH   10   11
ENDBRANCH    9   10
ENDBRANCH    8    9
ENDBRANCH    7    8
ENDBRANCH    6    7
ENDBRANCH    5    6
ENDBRANCH    4    5
ENDBRANCH    3    4
ENDBRANCH    2    3
ENDBRANCH   30    2
ENDBRANCH   34   33
BRANCH   38   39
ATOM     39  C29 UNL A   1      12.092   4.522  29.648  1.00  0.00    +0.000 C 
ATOM     40  C30 UNL A   1      12.043   4.578  31.049  1.00  0.00    +0.000 C 
ATOM     41  F3  UNL A   1      11.040   5.221  31.665  1.00  0.00    +0.000 F 
ATOM     42  C31 UNL A   1      13.034   3.982  31.823  1.00  0.00    +0.000 C 
ATOM     43  F4  UNL A   1      12.980   4.069  33.160  1.00  0.00    +0.000 F 
ATOM     44  C32 UNL A   1      14.077   3.299  31.216  1.00  0.00    +0.000 C 
ATOM     45  F5  UNL A   1      15.018   2.706  31.964  1.00  0.00    +0.000 F 
ATOM     46  C33 UNL A   1      14.143   3.229  29.832  1.00  0.00    +0.000 C 
ATOM     47  F6  UNL A   1      15.141   2.555  29.243  1.00  0.00    +0.000 F 
ATOM     48  C34 UNL A   1      13.167   3.846  29.053  1.00  0.00    +0.000 C 
ATOM     49  F7  UNL A   1      13.256   3.759  27.718  1.00  0.00    +0.000 F 
ENDBRANCH   38   39
BRANCH   55   56
ATOM     65  C45 UNL A   1       9.106  11.798  28.397  1.00  0.00    +0.000 C 
ATOM     66  F12 UNL A   1       8.136  11.296  29.175  1.00  0.00    +0.000 F 
ATOM     56  C40 UNL A   1       9.789  10.969  27.494  1.00  0.00    +0.000 C 
ATOM     57  C41 UNL A   1      10.787  11.543  26.694  1.00  0.00    +0.000 C 
ATOM     58  F8  UNL A   1      11.473  10.786  25.826  1.00  0.00    +0.000 F 
ATOM     59  C42 UNL A   1      11.088  12.898  26.794  1.00  0.00    +0.000 C 
ATOM     60  F9  UNL A   1      12.058  13.423  26.034  1.00  0.00    +0.000 F 
ATOM     61  C43 UNL A   1      10.382  13.706  27.674  1.00  0.00    +0.000 C 
ATOM     62  F10 UNL A   1      10.655  15.016  27.748  1.00  0.00    +0.000 F 
ATOM     63  C44 UNL A   1       9.391  13.158  28.474  1.00  0.00    +0.000 C 
ATOM     64  F11 UNL A   1       8.697  13.940  29.312  1.00  0.00    +0.000 F 
ENDBRANCH   55   56
BRANCH   70   71
ATOM     71  C49 UNL A   1       4.603   7.897  23.970  1.00  0.00    +0.000 C 
ATOM     72  C50 UNL A   1       4.792   8.064  22.590  1.00  0.00    +0.000 C 
ATOM     73  F13 UNL A   1       5.982   7.782  22.039  1.00  0.00    +0.000 F 
ATOM     74  C51 UNL A   1       3.771   8.551  21.776  1.00  0.00    +0.000 C 
ATOM     75  F14 UNL A   1       3.992   8.738  20.468  1.00  0.00    +0.000 F 
ATOM     76  C52 UNL A   1       2.533   8.856  22.320  1.00  0.00    +0.000 C 
ATOM     77  F15 UNL A   1       1.549   9.318  21.537  1.00  0.00    +0.000 F 
ATOM     78  C53 UNL A   1       2.318   8.687  23.680  1.00  0.00    +0.000 C 
ATOM     79  F16 UNL A   1       1.119   8.967  24.207  1.00  0.00    +0.000 F 
ATOM     80  C54 UNL A   1       3.346   8.225  24.499  1.00  0.00    +0.000 C 
ATOM     81  F17 UNL A   1       3.112   8.081  25.812  1.00  0.00    +0.000 F 
ENDBRANCH   70   71
TORSDOF 18
ENDMDL
