MODEL 1
REMARK VINA RESULT:     -11.1      0.000      0.000
ROOT
ATOM    129  H36 UNL A   1      40.556  32.922  29.440  1.00  0.00    +0.000 H 
ATOM    130  H37 UNL A   1      43.007  32.367  30.015  1.00  0.00    +0.000 H 
ATOM    131  H38 UNL A   1      44.021  28.544  25.594  1.00  0.00    +0.000 H 
ATOM    132  H39 UNL A   1      41.574  27.850  26.037  1.00  0.00    +0.000 H 
ATOM     35  C29 UNL A   1      41.101  27.245  28.812  1.00  0.00    +0.000 C 
ATOM     36  C30 UNL A   1      42.305  27.850  28.186  1.00  0.00    +0.000 C 
ATOM     37  N5  UNL A   1      43.431  28.125  28.758  1.00  0.00    +0.000 N 
ATOM     38  C31 UNL A   1      44.217  28.723  27.776  1.00  0.00    +0.000 C 
ATOM     39  C32 UNL A   1      45.161  29.644  28.116  1.00  0.00    +0.000 C 
ATOM     51  C39 UNL A   1      45.439  29.584  29.531  1.00  0.00    +0.000 C 
ATOM     52  C40 UNL A   1      45.960  28.647  30.398  1.00  0.00    +0.000 C 
ATOM     53  C41 UNL A   1      45.243  28.826  31.621  1.00  0.00    +0.000 C 
ATOM     54  C42 UNL A   1      44.371  29.905  31.466  1.00  0.00    +0.000 C 
ATOM     55  N6  UNL A   1      44.783  30.504  30.308  1.00  0.00    +0.000 N 
ATOM     56  C43 UNL A   1      43.194  30.325  32.194  1.00  0.00    +0.000 C 
ATOM     68  C50 UNL A   1      42.258  31.208  31.738  1.00  0.00    +0.000 C 
ATOM     69  N7  UNL A   1      40.961  31.165  32.226  1.00  0.00    +0.000 N 
ATOM     70  C51 UNL A   1      40.224  31.591  31.238  1.00  0.00    +0.000 C 
ATOM     71  C52 UNL A   1      38.896  31.024  30.908  1.00  0.00    +0.000 C 
ATOM     83  C59 UNL A   1      39.114  29.751  30.497  1.00  0.00    +0.000 C 
ATOM     84  C60 UNL A   1      38.201  28.633  30.431  1.00  0.00    +0.000 C 
ATOM     85  C61 UNL A   1      38.884  27.557  29.994  1.00  0.00    +0.000 C 
ATOM     86  C62 UNL A   1      40.231  27.956  29.567  1.00  0.00    +0.000 C 
ATOM     87  N8  UNL A   1      40.342  29.257  30.003  1.00  0.00    +0.000 N 
ATOM     88  C63 UNL A   1      40.923  32.336  30.207  1.00  0.00    +0.000 C 
ATOM     89  C64 UNL A   1      42.182  32.042  30.541  1.00  0.00    +0.000 C 
ATOM     90  C65 UNL A   1      43.577  28.438  26.520  1.00  0.00    +0.000 C 
ATOM     91  C66 UNL A   1      42.326  28.016  26.723  1.00  0.00    +0.000 C 
ATOM    123  H30 UNL A   1      46.708  27.962  30.205  1.00  0.00    +0.000 H 
ATOM    124  H31 UNL A   1      45.351  28.253  32.473  1.00  0.00    +0.000 H 
ATOM    125  H32 UNL A   1      44.632  31.447  30.070  1.00  0.00    +0.000 H 
ATOM    126  H33 UNL A   1      37.198  28.656  30.674  1.00  0.00    +0.000 H 
ATOM    127  H34 UNL A   1      38.515  26.594  29.966  1.00  0.00    +0.000 H 
ATOM    128  H35 UNL A   1      41.176  29.780  29.975  1.00  0.00    +0.000 H 
ENDROOT
BRANCH   35   34
ATOM     33  C27 UNL A   1      41.654  24.812  28.614  1.00  0.00    +0.000 C 
ATOM     34  C28 UNL A   1      40.803  25.896  28.344  1.00  0.00    +0.000 C 
ATOM    133  H40 UNL A   1      39.142  26.562  27.232  1.00  0.00    +0.000 H 
ATOM    134  H41 UNL A   1      38.409  24.320  26.697  1.00  0.00    +0.000 H 
ATOM    121  H28 UNL A   1      42.039  22.784  28.154  1.00  0.00    +0.000 H 
ATOM    122  H29 UNL A   1      42.461  24.927  29.247  1.00  0.00    +0.000 H 
ATOM     92  C67 UNL A   1      39.694  25.741  27.523  1.00  0.00    +0.000 C 
ATOM     93  C68 UNL A   1      39.343  24.488  27.104  1.00  0.00    +0.000 C 
ATOM     31  C25 UNL A   1      40.250  23.442  27.227  1.00  0.00    +0.000 C 
ATOM     32  C26 UNL A   1      41.397  23.579  28.017  1.00  0.00    +0.000 C 
BRANCH   31   29
ATOM     29  C24 UNL A   1      39.975  22.219  26.453  1.00  0.00    +0.000 C 
ATOM     30  O2  UNL A   1      40.897  21.586  25.945  1.00  0.00    +0.000 O 
BRANCH   29   28
ATOM     28  N4  UNL A   1      38.661  21.803  26.317  1.00  0.00    +0.000 N 
ATOM    120  H27 UNL A   1      38.243  21.385  27.103  1.00  0.00    +0.000 H 
BRANCH   28   27
ATOM     27  C23 UNL A   1      37.834  21.926  25.112  1.00  0.00    +0.000 C 
ATOM    118  H25 UNL A   1      38.171  22.774  24.554  1.00  0.00    +0.000 H 
ATOM    119  H26 UNL A   1      37.937  21.016  24.560  1.00  0.00    +0.000 H 
BRANCH   27   26
ATOM     26  C22 UNL A   1      36.354  22.106  25.419  1.00  0.00    +0.000 C 
ATOM    116  H23 UNL A   1      36.088  21.413  26.189  1.00  0.00    +0.000 H 
ATOM    117  H24 UNL A   1      36.228  23.128  25.710  1.00  0.00    +0.000 H 
BRANCH   26   25
ATOM     25  C21 UNL A   1      35.420  21.876  24.223  1.00  0.00    +0.000 C 
ATOM    114  H21 UNL A   1      35.243  22.827  23.765  1.00  0.00    +0.000 H 
ATOM    115  H22 UNL A   1      35.928  21.165  23.606  1.00  0.00    +0.000 H 
BRANCH   25   24
ATOM    113  H20 UNL A   1      33.887  21.399  25.565  1.00  0.00    +0.000 H 
ATOM    112  H19 UNL A   1      34.102  20.213  24.228  1.00  0.00    +0.000 H 
ATOM     24  C20 UNL A   1      34.053  21.242  24.520  1.00  0.00    +0.000 C 
BRANCH   24   23
ATOM    111  H18 UNL A   1      32.238  22.301  24.586  1.00  0.00    +0.000 H 
ATOM    110  H17 UNL A   1      32.341  21.098  23.268  1.00  0.00    +0.000 H 
ATOM     23  C19 UNL A   1      32.844  21.868  23.817  1.00  0.00    +0.000 C 
BRANCH   23   22
ATOM    108  H15 UNL A   1      33.857  23.671  23.335  1.00  0.00    +0.000 H 
ATOM    109  H16 UNL A   1      33.624  22.554  21.981  1.00  0.00    +0.000 H 
ATOM     22  C18 UNL A   1      33.183  22.996  22.850  1.00  0.00    +0.000 C 
BRANCH   22   21
ATOM    107  H14 UNL A   1      31.135  23.288  22.417  1.00  0.00    +0.000 H 
ATOM     21  N3  UNL A   1      32.011  23.737  22.420  1.00  0.00    +0.000 N 
BRANCH   21    2
ATOM      1  O1  UNL A   1      31.110  25.697  21.651  1.00  0.00    +0.000 O 
ATOM      2  C1  UNL A   1      32.094  25.056  22.016  1.00  0.00    +0.000 C 
BRANCH    2    3
ATOM      3  C2  UNL A   1      33.482  25.657  21.955  1.00  0.00    +0.000 C 
ATOM     94  H1  UNL A   1      33.710  25.859  20.930  1.00  0.00    +0.000 H 
ATOM     95  H2  UNL A   1      34.136  24.939  22.405  1.00  0.00    +0.000 H 
BRANCH    3    4
ATOM      4  N1  UNL A   1      33.660  26.890  22.708  1.00  0.00    +0.000 N 
ATOM      5  C3  UNL A   1      33.969  28.093  22.128  1.00  0.00    +0.000 C 
ATOM      6  N2  UNL A   1      33.969  29.071  23.001  1.00  0.00    +0.000 N 
ATOM      7  C4  UNL A   1      33.644  28.483  24.197  1.00  0.00    +0.000 C 
ATOM     14  C11 UNL A   1      33.435  27.117  24.053  1.00  0.00    +0.000 C 
ATOM     96  H3  UNL A   1      34.177  28.213  21.124  1.00  0.00    +0.000 H 
BRANCH    7    8
ATOM     97  H4  UNL A   1      35.348  28.570  26.244  1.00  0.00    +0.000 H 
ATOM     98  H5  UNL A   1      35.196  29.930  28.248  1.00  0.00    +0.000 H 
ATOM     99  H6  UNL A   1      33.259  31.345  28.614  1.00  0.00    +0.000 H 
ATOM    100  H7  UNL A   1      31.459  31.384  26.987  1.00  0.00    +0.000 H 
ATOM    101  H8  UNL A   1      31.616  30.040  24.976  1.00  0.00    +0.000 H 
ATOM      8  C5  UNL A   1      33.508  29.220  25.438  1.00  0.00    +0.000 C 
ATOM      9  C6  UNL A   1      34.528  29.177  26.393  1.00  0.00    +0.000 C 
ATOM     10  C7  UNL A   1      34.437  29.955  27.550  1.00  0.00    +0.000 C 
ATOM     11  C8  UNL A   1      33.321  30.765  27.762  1.00  0.00    +0.000 C 
ATOM     12  C9  UNL A   1      32.290  30.792  26.825  1.00  0.00    +0.000 C 
ATOM     13  C10 UNL A   1      32.382  30.020  25.667  1.00  0.00    +0.000 C 
ENDBRANCH    7    8
BRANCH   14   15
ATOM    102  H9  UNL A   1      34.954  25.346  25.361  1.00  0.00    +0.000 H 
ATOM    103  H10 UNL A   1      34.244  23.600  26.888  1.00  0.00    +0.000 H 
ATOM    104  H11 UNL A   1      31.906  23.397  27.502  1.00  0.00    +0.000 H 
ATOM    105  H12 UNL A   1      30.266  24.896  26.531  1.00  0.00    +0.000 H 
ATOM    106  H13 UNL A   1      30.962  26.572  24.928  1.00  0.00    +0.000 H 
ATOM     15  C12 UNL A   1      33.018  26.129  25.047  1.00  0.00    +0.000 C 
ATOM     16  C13 UNL A   1      33.956  25.252  25.605  1.00  0.00    +0.000 C 
ATOM     17  C14 UNL A   1      33.548  24.249  26.489  1.00  0.00    +0.000 C 
ATOM     18  C15 UNL A   1      32.203  24.124  26.834  1.00  0.00    +0.000 C 
ATOM     19  C16 UNL A   1      31.262  24.984  26.275  1.00  0.00    +0.000 C 
ATOM     20  C17 UNL A   1      31.668  25.962  25.368  1.00  0.00    +0.000 C 
ENDBRANCH   14   15
ENDBRANCH    3    4
ENDBRANCH    2    3
ENDBRANCH   21    2
ENDBRANCH   22   21
ENDBRANCH   23   22
ENDBRANCH   24   23
ENDBRANCH   25   24
ENDBRANCH   26   25
ENDBRANCH   27   26
ENDBRANCH   28   27
ENDBRANCH   29   28
ENDBRANCH   31   29
ENDBRANCH   35   34
BRANCH   39   40
ATOM     40  C33 UNL A   1      45.486  30.886  27.306  1.00  0.00    +0.000 C 
ATOM     41  C34 UNL A   1      46.841  31.181  27.038  1.00  0.00    +0.000 C 
ATOM     42  F1  UNL A   1      47.794  30.259  27.237  1.00  0.00    +0.000 F 
ATOM     43  C35 UNL A   1      47.261  32.460  26.659  1.00  0.00    +0.000 C 
ATOM     44  F2  UNL A   1      48.570  32.727  26.551  1.00  0.00    +0.000 F 
ATOM     45  C36 UNL A   1      46.341  33.473  26.469  1.00  0.00    +0.000 C 
ATOM     46  F3  UNL A   1      46.744  34.715  26.171  1.00  0.00    +0.000 F 
ATOM     47  C37 UNL A   1      45.001  33.204  26.640  1.00  0.00    +0.000 C 
ATOM     48  F4  UNL A   1      44.094  34.178  26.480  1.00  0.00    +0.000 F 
ATOM     49  C38 UNL A   1      44.582  31.944  27.069  1.00  0.00    +0.000 C 
ATOM     50  F5  UNL A   1      43.278  31.853  27.345  1.00  0.00    +0.000 F 
ENDBRANCH   39   40
BRANCH   56   57
ATOM     65  F9  UNL A   1      41.149  26.489  34.337  1.00  0.00    +0.000 F 
ATOM     66  C49 UNL A   1      42.238  28.342  33.355  1.00  0.00    +0.000 C 
ATOM     67  F10 UNL A   1      41.977  27.828  32.143  1.00  0.00    +0.000 F 
ATOM     57  C44 UNL A   1      42.884  29.581  33.465  1.00  0.00    +0.000 C 
ATOM     58  C45 UNL A   1      43.087  30.091  34.760  1.00  0.00    +0.000 C 
ATOM     59  F6  UNL A   1      43.619  31.306  34.943  1.00  0.00    +0.000 F 
ATOM     60  C46 UNL A   1      42.695  29.372  35.889  1.00  0.00    +0.000 C 
ATOM     61  F7  UNL A   1      42.913  29.871  37.115  1.00  0.00    +0.000 F 
ATOM     62  C47 UNL A   1      42.050  28.153  35.748  1.00  0.00    +0.000 C 
ATOM     63  F8  UNL A   1      41.637  27.480  36.830  1.00  0.00    +0.000 F 
ATOM     64  C48 UNL A   1      41.813  27.645  34.481  1.00  0.00    +0.000 C 
ENDBRANCH   56   57
BRANCH   71   72
ATOM     72  C53 UNL A   1      37.690  31.869  30.750  1.00  0.00    +0.000 C 
ATOM     73  C54 UNL A   1      37.321  32.377  29.493  1.00  0.00    +0.000 C 
ATOM     74  F11 UNL A   1      38.179  32.314  28.464  1.00  0.00    +0.000 F 
ATOM     75  C55 UNL A   1      36.039  32.884  29.253  1.00  0.00    +0.000 C 
ATOM     76  F12 UNL A   1      35.702  33.295  28.023  1.00  0.00    +0.000 F 
ATOM     77  C56 UNL A   1      35.095  32.904  30.265  1.00  0.00    +0.000 C 
ATOM     78  F13 UNL A   1      33.845  33.323  30.018  1.00  0.00    +0.000 F 
ATOM     79  C57 UNL A   1      35.437  32.444  31.524  1.00  0.00    +0.000 C 
ATOM     80  F14 UNL A   1      34.519  32.423  32.501  1.00  0.00    +0.000 F 
ATOM     81  C58 UNL A   1      36.715  31.936  31.764  1.00  0.00    +0.000 C 
ATOM     82  F15 UNL A   1      36.952  31.417  32.977  1.00  0.00    +0.000 F 
ENDBRANCH   71   72
TORSDOF 18
ENDMDL
MODEL 2
REMARK VINA RESULT:     -11.0      2.935      8.380
ROOT
ATOM    129  H36 UNL A   1      44.063  24.853  29.480  1.00  0.00    +0.000 H 
ATOM    130  H37 UNL A   1      45.053  26.697  30.984  1.00  0.00    +0.000 H 
ATOM    131  H38 UNL A   1      40.121  27.990  34.016  1.00  0.00    +0.000 H 
ATOM    132  H39 UNL A   1      38.973  27.554  31.745  1.00  0.00    +0.000 H 
ATOM     35  C29 UNL A   1      40.174  29.068  29.611  1.00  0.00    +0.000 C 
ATOM     36  C30 UNL A   1      40.649  28.897  31.009  1.00  0.00    +0.000 C 
ATOM     37  N5  UNL A   1      41.647  29.490  31.576  1.00  0.00    +0.000 N 
ATOM     38  C31 UNL A   1      41.720  28.960  32.862  1.00  0.00    +0.000 C 
ATOM     39  C32 UNL A   1      42.918  28.876  33.504  1.00  0.00    +0.000 C 
ATOM     51  C39 UNL A   1      43.900  29.709  32.853  1.00  0.00    +0.000 C 
ATOM     52  C40 UNL A   1      44.056  31.060  32.622  1.00  0.00    +0.000 C 
ATOM     53  C41 UNL A   1      44.672  31.152  31.336  1.00  0.00    +0.000 C 
ATOM     54  C42 UNL A   1      44.927  29.859  30.876  1.00  0.00    +0.000 C 
ATOM     55  N6  UNL A   1      44.738  29.070  31.976  1.00  0.00    +0.000 N 
ATOM     56  C43 UNL A   1      45.198  29.325  29.559  1.00  0.00    +0.000 C 
ATOM     68  C50 UNL A   1      45.105  28.008  29.209  1.00  0.00    +0.000 C 
ATOM     69  N7  UNL A   1      44.872  27.651  27.890  1.00  0.00    +0.000 N 
ATOM     70  C51 UNL A   1      44.219  26.524  27.965  1.00  0.00    +0.000 C 
ATOM     71  C52 UNL A   1      43.105  26.165  27.057  1.00  0.00    +0.000 C 
ATOM     83  C59 UNL A   1      42.097  27.032  27.326  1.00  0.00    +0.000 C 
ATOM     84  C60 UNL A   1      40.959  27.404  26.517  1.00  0.00    +0.000 C 
ATOM     85  C61 UNL A   1      40.250  28.331  27.190  1.00  0.00    +0.000 C 
ATOM     86  C62 UNL A   1      40.775  28.473  28.554  1.00  0.00    +0.000 C 
ATOM     87  N8  UNL A   1      41.949  27.755  28.531  1.00  0.00    +0.000 N 
ATOM     88  C63 UNL A   1      44.321  25.820  29.230  1.00  0.00    +0.000 C 
ATOM     89  C64 UNL A   1      44.849  26.793  29.978  1.00  0.00    +0.000 C 
ATOM     90  C65 UNL A   1      40.470  28.288  33.091  1.00  0.00    +0.000 C 
ATOM     91  C66 UNL A   1      39.824  28.104  31.936  1.00  0.00    +0.000 C 
ATOM    123  H30 UNL A   1      43.784  31.837  33.244  1.00  0.00    +0.000 H 
ATOM    124  H31 UNL A   1      44.890  32.027  30.833  1.00  0.00    +0.000 H 
ATOM    125  H32 UNL A   1      45.140  28.182  32.114  1.00  0.00    +0.000 H 
ATOM    126  H33 UNL A   1      40.729  27.024  25.586  1.00  0.00    +0.000 H 
ATOM    127  H34 UNL A   1      39.455  28.864  26.803  1.00  0.00    +0.000 H 
ATOM    128  H35 UNL A   1      42.606  27.746  29.264  1.00  0.00    +0.000 H 
ENDROOT
BRANCH   35   34
ATOM     33  C27 UNL A   1      37.696  28.990  29.268  1.00  0.00    +0.000 C 
ATOM     34  C28 UNL A   1      38.873  29.720  29.502  1.00  0.00    +0.000 C 
ATOM    133  H40 UNL A   1      39.738  31.639  29.584  1.00  0.00    +0.000 H 
ATOM    134  H41 UNL A   1      37.600  32.761  29.739  1.00  0.00    +0.000 H 
ATOM    121  H28 UNL A   1      35.643  29.165  28.793  1.00  0.00    +0.000 H 
ATOM    122  H29 UNL A   1      37.711  27.959  29.275  1.00  0.00    +0.000 H 
ATOM     92  C67 UNL A   1      38.855  31.108  29.531  1.00  0.00    +0.000 C 
ATOM     93  C68 UNL A   1      37.656  31.761  29.486  1.00  0.00    +0.000 C 
ATOM     31  C25 UNL A   1      36.511  31.074  29.099  1.00  0.00    +0.000 C 
ATOM     32  C26 UNL A   1      36.508  29.677  29.024  1.00  0.00    +0.000 C 
BRANCH   31   29
ATOM     29  C24 UNL A   1      35.337  31.881  28.725  1.00  0.00    +0.000 C 
ATOM     30  O2  UNL A   1      34.952  32.790  29.455  1.00  0.00    +0.000 O 
BRANCH   29   28
ATOM     28  N4  UNL A   1      34.687  31.593  27.537  1.00  0.00    +0.000 N 
ATOM    120  H27 UNL A   1      35.190  31.747  26.705  1.00  0.00    +0.000 H 
BRANCH   28   27
ATOM     27  C23 UNL A   1      33.319  31.081  27.400  1.00  0.00    +0.000 C 
ATOM    118  H25 UNL A   1      32.899  30.969  28.378  1.00  0.00    +0.000 H 
ATOM    119  H26 UNL A   1      32.773  31.785  26.808  1.00  0.00    +0.000 H 
BRANCH   27   26
ATOM     26  C22 UNL A   1      33.252  29.739  26.686  1.00  0.00    +0.000 C 
ATOM    116  H23 UNL A   1      34.251  29.381  26.556  1.00  0.00    +0.000 H 
ATOM    117  H24 UNL A   1      32.652  29.100  27.300  1.00  0.00    +0.000 H 
BRANCH   26   25
ATOM     25  C21 UNL A   1      32.575  29.780  25.309  1.00  0.00    +0.000 C 
ATOM    114  H21 UNL A   1      32.297  30.795  25.116  1.00  0.00    +0.000 H 
ATOM    115  H22 UNL A   1      33.297  29.374  24.632  1.00  0.00    +0.000 H 
BRANCH   25   24
ATOM    113  H20 UNL A   1      30.689  29.144  25.955  1.00  0.00    +0.000 H 
ATOM    112  H19 UNL A   1      31.638  27.890  25.079  1.00  0.00    +0.000 H 
ATOM     24  C20 UNL A   1      31.322  28.912  25.124  1.00  0.00    +0.000 C 
BRANCH   24   23
ATOM    111  H18 UNL A   1      31.038  29.877  23.278  1.00  0.00    +0.000 H 
ATOM    110  H17 UNL A   1      29.533  29.589  24.197  1.00  0.00    +0.000 H 
ATOM     23  C19 UNL A   1      30.475  29.193  23.878  1.00  0.00    +0.000 C 
BRANCH   23   22
ATOM    108  H15 UNL A   1      29.681  28.291  22.126  1.00  0.00    +0.000 H 
ATOM    109  H16 UNL A   1      31.151  27.535  22.762  1.00  0.00    +0.000 H 
ATOM     22  C18 UNL A   1      30.206  27.974  23.004  1.00  0.00    +0.000 C 
BRANCH   22   21
ATOM    107  H14 UNL A   1      28.433  27.073  23.723  1.00  0.00    +0.000 H 
ATOM     21  N3  UNL A   1      29.411  26.964  23.680  1.00  0.00    +0.000 N 
BRANCH   21    2
ATOM      1  O1  UNL A   1      29.906  25.623  25.469  1.00  0.00    +0.000 O 
ATOM      2  C1  UNL A   1      29.991  25.855  24.264  1.00  0.00    +0.000 C 
BRANCH    2    3
ATOM      3  C2  UNL A   1      30.824  24.973  23.357  1.00  0.00    +0.000 C 
ATOM     94  H1  UNL A   1      30.697  25.319  22.352  1.00  0.00    +0.000 H 
ATOM     95  H2  UNL A   1      30.476  23.974  23.512  1.00  0.00    +0.000 H 
BRANCH    3    4
ATOM      4  N1  UNL A   1      32.250  24.952  23.649  1.00  0.00    +0.000 N 
ATOM      5  C3  UNL A   1      32.990  26.082  23.889  1.00  0.00    +0.000 C 
ATOM      6  N2  UNL A   1      34.222  25.795  24.233  1.00  0.00    +0.000 N 
ATOM      7  C4  UNL A   1      34.287  24.425  24.219  1.00  0.00    +0.000 C 
ATOM     14  C11 UNL A   1      33.068  23.859  23.865  1.00  0.00    +0.000 C 
ATOM     96  H3  UNL A   1      32.620  27.042  23.809  1.00  0.00    +0.000 H 
BRANCH    7    8
ATOM     97  H4  UNL A   1      35.478  22.495  22.817  1.00  0.00    +0.000 H 
ATOM     98  H5  UNL A   1      37.564  21.362  23.322  1.00  0.00    +0.000 H 
ATOM     99  H6  UNL A   1      38.758  21.869  25.373  1.00  0.00    +0.000 H 
ATOM    100  H7  UNL A   1      37.857  23.492  26.934  1.00  0.00    +0.000 H 
ATOM    101  H8  UNL A   1      35.782  24.639  26.424  1.00  0.00    +0.000 H 
ATOM      8  C5  UNL A   1      35.481  23.678  24.567  1.00  0.00    +0.000 C 
ATOM      9  C6  UNL A   1      35.988  22.718  23.685  1.00  0.00    +0.000 C 
ATOM     10  C7  UNL A   1      37.186  22.062  23.979  1.00  0.00    +0.000 C 
ATOM     11  C8  UNL A   1      37.870  22.350  25.160  1.00  0.00    +0.000 C 
ATOM     12  C9  UNL A   1      37.355  23.287  26.055  1.00  0.00    +0.000 C 
ATOM     13  C10 UNL A   1      36.163  23.948  25.760  1.00  0.00    +0.000 C 
ENDBRANCH    7    8
BRANCH   14   15
ATOM    102  H9  UNL A   1      32.856  22.087  25.857  1.00  0.00    +0.000 H 
ATOM    103  H10 UNL A   1      32.376  19.714  25.707  1.00  0.00    +0.000 H 
ATOM    104  H11 UNL A   1      31.875  18.706  23.559  1.00  0.00    +0.000 H 
ATOM    105  H12 UNL A   1      31.925  20.060  21.547  1.00  0.00    +0.000 H 
ATOM    106  H13 UNL A   1      32.506  22.407  21.686  1.00  0.00    +0.000 H 
ATOM     15  C12 UNL A   1      32.683  22.452  23.785  1.00  0.00    +0.000 C 
ATOM     16  C13 UNL A   1      32.662  21.659  24.939  1.00  0.00    +0.000 C 
ATOM     17  C14 UNL A   1      32.380  20.293  24.853  1.00  0.00    +0.000 C 
ATOM     18  C15 UNL A   1      32.103  19.710  23.618  1.00  0.00    +0.000 C 
ATOM     19  C16 UNL A   1      32.134  20.488  22.464  1.00  0.00    +0.000 C 
ATOM     20  C17 UNL A   1      32.447  21.844  22.548  1.00  0.00    +0.000 C 
ENDBRANCH   14   15
ENDBRANCH    3    4
ENDBRANCH    2    3
ENDBRANCH   21    2
ENDBRANCH   22   21
ENDBRANCH   23   22
ENDBRANCH   24   23
ENDBRANCH   25   24
ENDBRANCH   26   25
ENDBRANCH   27   26
ENDBRANCH   28   27
ENDBRANCH   29   28
ENDBRANCH   31   29
ENDBRANCH   35   34
BRANCH   39   40
ATOM     40  C33 UNL A   1      43.337  27.726  34.402  1.00  0.00    +0.000 C 
ATOM     41  C34 UNL A   1      43.415  26.430  33.846  1.00  0.00    +0.000 C 
ATOM     42  F1  UNL A   1      43.403  26.254  32.517  1.00  0.00    +0.000 F 
ATOM     43  C35 UNL A   1      43.404  25.280  34.641  1.00  0.00    +0.000 C 
ATOM     44  F2  UNL A   1      43.340  24.072  34.064  1.00  0.00    +0.000 F 
ATOM     45  C36 UNL A   1      43.381  25.379  36.018  1.00  0.00    +0.000 C 
ATOM     46  F3  UNL A   1      43.303  24.281  36.782  1.00  0.00    +0.000 F 
ATOM     47  C37 UNL A   1      43.387  26.627  36.602  1.00  0.00    +0.000 C 
ATOM     48  F4  UNL A   1      43.345  26.745  37.937  1.00  0.00    +0.000 F 
ATOM     49  C38 UNL A   1      43.345  27.776  35.813  1.00  0.00    +0.000 C 
ATOM     50  F5  UNL A   1      43.201  28.916  36.494  1.00  0.00    +0.000 F 
ENDBRANCH   39   40
BRANCH   56   57
ATOM     65  F9  UNL A   1      48.246  32.167  27.088  1.00  0.00    +0.000 F 
ATOM     66  C49 UNL A   1      46.718  30.746  28.195  1.00  0.00    +0.000 C 
ATOM     67  F10 UNL A   1      47.741  30.213  28.881  1.00  0.00    +0.000 F 
ATOM     57  C44 UNL A   1      45.406  30.323  28.453  1.00  0.00    +0.000 C 
ATOM     58  C45 UNL A   1      44.372  30.952  27.738  1.00  0.00    +0.000 C 
ATOM     59  F6  UNL A   1      43.089  30.664  27.990  1.00  0.00    +0.000 F 
ATOM     60  C46 UNL A   1      44.647  31.930  26.782  1.00  0.00    +0.000 C 
ATOM     61  F7  UNL A   1      43.645  32.506  26.100  1.00  0.00    +0.000 F 
ATOM     62  C47 UNL A   1      45.953  32.334  26.556  1.00  0.00    +0.000 C 
ATOM     63  F8  UNL A   1      46.215  33.302  25.667  1.00  0.00    +0.000 F 
ATOM     64  C48 UNL A   1      46.986  31.749  27.270  1.00  0.00    +0.000 C 
ENDBRANCH   56   57
BRANCH   71   72
ATOM     72  C53 UNL A   1      43.071  24.888  26.309  1.00  0.00    +0.000 C 
ATOM     73  C54 UNL A   1      43.955  24.650  25.243  1.00  0.00    +0.000 C 
ATOM     74  F11 UNL A   1      44.673  25.659  24.726  1.00  0.00    +0.000 F 
ATOM     75  C55 UNL A   1      44.175  23.362  24.744  1.00  0.00    +0.000 C 
ATOM     76  F12 UNL A   1      45.078  23.164  23.773  1.00  0.00    +0.000 F 
ATOM     77  C56 UNL A   1      43.512  22.277  25.293  1.00  0.00    +0.000 C 
ATOM     78  F13 UNL A   1      43.774  21.034  24.865  1.00  0.00    +0.000 F 
ATOM     79  C57 UNL A   1      42.608  22.482  26.321  1.00  0.00    +0.000 C 
ATOM     80  F14 UNL A   1      41.989  21.436  26.885  1.00  0.00    +0.000 F 
ATOM     81  C58 UNL A   1      42.389  23.768  26.820  1.00  0.00    +0.000 C 
ATOM     82  F15 UNL A   1      41.576  23.885  27.879  1.00  0.00    +0.000 F 
ENDBRANCH   71   72
TORSDOF 18
ENDMDL
MODEL 3
REMARK VINA RESULT:     -10.9      3.437      8.429
ROOT
ATOM    129  H36 UNL A   1      43.293  23.715  30.079  1.00  0.00    +0.000 H 
ATOM    130  H37 UNL A   1      44.502  25.457  31.544  1.00  0.00    +0.000 H 
ATOM    131  H38 UNL A   1      39.717  27.686  34.250  1.00  0.00    +0.000 H 
ATOM    132  H39 UNL A   1      38.614  27.315  31.946  1.00  0.00    +0.000 H 
ATOM     35  C29 UNL A   1      40.137  28.499  29.809  1.00  0.00    +0.000 C 
ATOM     36  C30 UNL A   1      40.516  28.331  31.235  1.00  0.00    +0.000 C 
ATOM     37  N5  UNL A   1      41.571  28.787  31.825  1.00  0.00    +0.000 N 
ATOM     38  C31 UNL A   1      41.501  28.324  33.136  1.00  0.00    +0.000 C 
ATOM     39  C32 UNL A   1      42.640  28.085  33.843  1.00  0.00    +0.000 C 
ATOM     51  C39 UNL A   1      43.773  28.713  33.205  1.00  0.00    +0.000 C 
ATOM     52  C40 UNL A   1      44.155  30.007  32.919  1.00  0.00    +0.000 C 
ATOM     53  C41 UNL A   1      44.833  29.929  31.663  1.00  0.00    +0.000 C 
ATOM     54  C42 UNL A   1      44.895  28.589  31.279  1.00  0.00    +0.000 C 
ATOM     55  N6  UNL A   1      44.533  27.901  32.404  1.00  0.00    +0.000 N 
ATOM     56  C43 UNL A   1      45.133  27.946  30.005  1.00  0.00    +0.000 C 
ATOM     68  C50 UNL A   1      44.843  26.643  29.713  1.00  0.00    +0.000 C 
ATOM     69  N7  UNL A   1      44.613  26.256  28.402  1.00  0.00    +0.000 N 
ATOM     70  C51 UNL A   1      43.783  25.254  28.497  1.00  0.00    +0.000 C 
ATOM     71  C52 UNL A   1      42.666  25.028  27.550  1.00  0.00    +0.000 C 
ATOM     83  C59 UNL A   1      41.801  26.058  27.725  1.00  0.00    +0.000 C 
ATOM     84  C60 UNL A   1      40.776  26.562  26.842  1.00  0.00    +0.000 C 
ATOM     85  C61 UNL A   1      40.198  27.626  27.432  1.00  0.00    +0.000 C 
ATOM     86  C62 UNL A   1      40.679  27.758  28.813  1.00  0.00    +0.000 C 
ATOM     87  N8  UNL A   1      41.721  26.860  28.885  1.00  0.00    +0.000 N 
ATOM     88  C63 UNL A   1      43.715  24.613  29.797  1.00  0.00    +0.000 C 
ATOM     89  C64 UNL A   1      44.360  25.529  30.524  1.00  0.00    +0.000 C 
ATOM     90  C65 UNL A   1      40.150  27.873  33.332  1.00  0.00    +0.000 C 
ATOM     91  C66 UNL A   1      39.534  27.732  32.155  1.00  0.00    +0.000 C 
ATOM    123  H30 UNL A   1      43.986  30.851  33.488  1.00  0.00    +0.000 H 
ATOM    124  H31 UNL A   1      45.212  30.728  31.132  1.00  0.00    +0.000 H 
ATOM    125  H32 UNL A   1      44.779  26.969  32.605  1.00  0.00    +0.000 H 
ATOM    126  H33 UNL A   1      40.528  26.173  25.919  1.00  0.00    +0.000 H 
ATOM    127  H34 UNL A   1      39.518  28.257  26.979  1.00  0.00    +0.000 H 
ATOM    128  H35 UNL A   1      42.335  26.787  29.651  1.00  0.00    +0.000 H 
ENDROOT
BRANCH   35   34
ATOM     33  C27 UNL A   1      37.677  28.801  29.458  1.00  0.00    +0.000 C 
ATOM     34  C28 UNL A   1      38.965  29.342  29.601  1.00  0.00    +0.000 C 
ATOM    133  H40 UNL A   1      40.146  31.078  29.428  1.00  0.00    +0.000 H 
ATOM    134  H41 UNL A   1      38.234  32.560  29.412  1.00  0.00    +0.000 H 
ATOM    121  H28 UNL A   1      35.677  29.259  28.947  1.00  0.00    +0.000 H 
ATOM    122  H29 UNL A   1      37.516  27.792  29.606  1.00  0.00    +0.000 H 
ATOM     92  C67 UNL A   1      39.185  30.703  29.441  1.00  0.00    +0.000 C 
ATOM     93  C68 UNL A   1      38.115  31.541  29.298  1.00  0.00    +0.000 C 
ATOM     31  C25 UNL A   1      36.863  31.014  28.998  1.00  0.00    +0.000 C 
ATOM     32  C26 UNL A   1      36.620  29.641  29.114  1.00  0.00    +0.000 C 
BRANCH   31   29
ATOM     29  C24 UNL A   1      35.839  31.952  28.509  1.00  0.00    +0.000 C 
ATOM     30  O2  UNL A   1      36.162  33.062  28.094  1.00  0.00    +0.000 O 
BRANCH   29   28
ATOM     28  N4  UNL A   1      34.513  31.552  28.523  1.00  0.00    +0.000 N 
ATOM    120  H27 UNL A   1      34.162  31.206  29.375  1.00  0.00    +0.000 H 
BRANCH   28   27
ATOM     27  C23 UNL A   1      33.583  31.595  27.391  1.00  0.00    +0.000 C 
ATOM    118  H25 UNL A   1      32.917  32.422  27.529  1.00  0.00    +0.000 H 
ATOM    119  H26 UNL A   1      34.168  31.697  26.501  1.00  0.00    +0.000 H 
BRANCH   27   26
ATOM     26  C22 UNL A   1      32.756  30.326  27.248  1.00  0.00    +0.000 C 
ATOM    116  H23 UNL A   1      32.131  30.236  28.110  1.00  0.00    +0.000 H 
ATOM    117  H24 UNL A   1      32.204  30.426  26.336  1.00  0.00    +0.000 H 
BRANCH   26   25
ATOM     25  C21 UNL A   1      33.579  29.037  27.117  1.00  0.00    +0.000 C 
ATOM    114  H21 UNL A   1      34.438  29.262  26.518  1.00  0.00    +0.000 H 
ATOM    115  H22 UNL A   1      33.796  28.742  28.122  1.00  0.00    +0.000 H 
BRANCH   25   24
ATOM    113  H20 UNL A   1      32.328  28.213  25.656  1.00  0.00    +0.000 H 
ATOM    112  H19 UNL A   1      32.275  27.368  27.244  1.00  0.00    +0.000 H 
ATOM     24  C20 UNL A   1      32.878  27.824  26.487  1.00  0.00    +0.000 C 
BRANCH   24   23
ATOM    111  H18 UNL A   1      34.741  26.856  26.372  1.00  0.00    +0.000 H 
ATOM    110  H17 UNL A   1      33.826  26.875  24.838  1.00  0.00    +0.000 H 
ATOM     23  C19 UNL A   1      33.788  26.740  25.900  1.00  0.00    +0.000 C 
BRANCH   23   22
ATOM    108  H15 UNL A   1      34.202  24.682  26.223  1.00  0.00    +0.000 H 
ATOM    109  H16 UNL A   1      32.807  25.317  27.108  1.00  0.00    +0.000 H 
ATOM     22  C18 UNL A   1      33.338  25.312  26.180  1.00  0.00    +0.000 C 
BRANCH   22   21
ATOM    107  H14 UNL A   1      32.813  24.293  24.403  1.00  0.00    +0.000 H 
ATOM     21  N3  UNL A   1      32.439  24.798  25.162  1.00  0.00    +0.000 N 
BRANCH   21    2
ATOM      1  O1  UNL A   1      30.476  25.105  26.299  1.00  0.00    +0.000 O 
ATOM      2  C1  UNL A   1      31.074  24.998  25.230  1.00  0.00    +0.000 C 
BRANCH    2    3
ATOM      3  C2  UNL A   1      30.324  24.989  23.914  1.00  0.00    +0.000 C 
ATOM     94  H1  UNL A   1      29.648  24.159  23.926  1.00  0.00    +0.000 H 
ATOM     95  H2  UNL A   1      31.069  24.922  23.149  1.00  0.00    +0.000 H 
BRANCH    3    4
ATOM      4  N1  UNL A   1      29.558  26.192  23.627  1.00  0.00    +0.000 N 
ATOM      5  C3  UNL A   1      28.219  26.318  23.895  1.00  0.00    +0.000 C 
ATOM      6  N2  UNL A   1      27.782  27.529  23.647  1.00  0.00    +0.000 N 
ATOM      7  C4  UNL A   1      28.880  28.220  23.201  1.00  0.00    +0.000 C 
ATOM     14  C11 UNL A   1      30.015  27.418  23.183  1.00  0.00    +0.000 C 
ATOM     96  H3  UNL A   1      27.626  25.551  24.250  1.00  0.00    +0.000 H 
BRANCH    7    8
ATOM     97  H4  UNL A   1      29.404  29.303  20.823  1.00  0.00    +0.000 H 
ATOM     98  H5  UNL A   1      29.189  31.630  20.169  1.00  0.00    +0.000 H 
ATOM     99  H6  UNL A   1      28.533  33.297  21.805  1.00  0.00    +0.000 H 
ATOM    100  H7  UNL A   1      28.115  32.645  24.104  1.00  0.00    +0.000 H 
ATOM    101  H8  UNL A   1      28.312  30.319  24.757  1.00  0.00    +0.000 H 
ATOM      8  C5  UNL A   1      28.847  29.622  22.835  1.00  0.00    +0.000 C 
ATOM      9  C6  UNL A   1      29.117  30.008  21.518  1.00  0.00    +0.000 C 
ATOM     10  C7  UNL A   1      28.999  31.349  21.143  1.00  0.00    +0.000 C 
ATOM     11  C8  UNL A   1      28.627  32.309  22.085  1.00  0.00    +0.000 C 
ATOM     12  C9  UNL A   1      28.380  31.933  23.405  1.00  0.00    +0.000 C 
ATOM     13  C10 UNL A   1      28.492  30.594  23.779  1.00  0.00    +0.000 C 
ENDBRANCH    7    8
BRANCH   14   15
ATOM    102  H9  UNL A   1      31.741  26.029  21.684  1.00  0.00    +0.000 H 
ATOM    103  H10 UNL A   1      34.076  26.517  21.245  1.00  0.00    +0.000 H 
ATOM    104  H11 UNL A   1      35.075  28.556  22.099  1.00  0.00    +0.000 H 
ATOM    105  H12 UNL A   1      33.755  30.073  23.455  1.00  0.00    +0.000 H 
ATOM    106  H13 UNL A   1      31.454  29.533  23.979  1.00  0.00    +0.000 H 
ATOM     15  C12 UNL A   1      31.393  27.763  22.838  1.00  0.00    +0.000 C 
ATOM     16  C13 UNL A   1      32.166  26.888  22.065  1.00  0.00    +0.000 C 
ATOM     17  C14 UNL A   1      33.510  27.172  21.807  1.00  0.00    +0.000 C 
ATOM     18  C15 UNL A   1      34.089  28.338  22.307  1.00  0.00    +0.000 C 
ATOM     19  C16 UNL A   1      33.331  29.207  23.087  1.00  0.00    +0.000 C 
ATOM     20  C17 UNL A   1      32.000  28.904  23.369  1.00  0.00    +0.000 C 
ENDBRANCH   14   15
ENDBRANCH    3    4
ENDBRANCH    2    3
ENDBRANCH   21    2
ENDBRANCH   22   21
ENDBRANCH   23   22
ENDBRANCH   24   23
ENDBRANCH   25   24
ENDBRANCH   26   25
ENDBRANCH   27   26
ENDBRANCH   28   27
ENDBRANCH   29   28
ENDBRANCH   31   29
ENDBRANCH   35   34
BRANCH   39   40
ATOM     40  C33 UNL A   1      42.828  26.934  34.815  1.00  0.00    +0.000 C 
ATOM     41  C34 UNL A   1      42.904  27.220  36.196  1.00  0.00    +0.000 C 
ATOM     42  F1  UNL A   1      42.538  28.422  36.665  1.00  0.00    +0.000 F 
ATOM     43  C35 UNL A   1      43.453  26.318  37.112  1.00  0.00    +0.000 C 
ATOM     44  F2  UNL A   1      43.630  26.689  38.387  1.00  0.00    +0.000 F 
ATOM     45  C36 UNL A   1      43.886  25.074  36.697  1.00  0.00    +0.000 C 
ATOM     46  F3  UNL A   1      44.473  24.232  37.559  1.00  0.00    +0.000 F 
ATOM     47  C37 UNL A   1      43.754  24.724  35.372  1.00  0.00    +0.000 C 
ATOM     48  F4  UNL A   1      44.186  23.528  34.946  1.00  0.00    +0.000 F 
ATOM     49  C38 UNL A   1      43.255  25.640  34.445  1.00  0.00    +0.000 C 
ATOM     50  F5  UNL A   1      43.319  25.237  33.173  1.00  0.00    +0.000 F 
ENDBRANCH   39   40
BRANCH   56   57
ATOM     65  F9  UNL A   1      43.845  31.031  26.498  1.00  0.00    +0.000 F 
ATOM     66  C49 UNL A   1      44.555  29.598  28.237  1.00  0.00    +0.000 C 
ATOM     67  F10 UNL A   1      43.295  29.569  28.700  1.00  0.00    +0.000 F 
ATOM     57  C44 UNL A   1      45.549  28.835  28.865  1.00  0.00    +0.000 C 
ATOM     58  C45 UNL A   1      46.838  28.869  28.306  1.00  0.00    +0.000 C 
ATOM     59  F6  UNL A   1      47.819  28.101  28.797  1.00  0.00    +0.000 F 
ATOM     60  C46 UNL A   1      47.123  29.661  27.194  1.00  0.00    +0.000 C 
ATOM     61  F7  UNL A   1      48.365  29.690  26.687  1.00  0.00    +0.000 F 
ATOM     62  C47 UNL A   1      46.117  30.398  26.589  1.00  0.00    +0.000 C 
ATOM     63  F8  UNL A   1      46.379  31.128  25.497  1.00  0.00    +0.000 F 
ATOM     64  C48 UNL A   1      44.831  30.357  27.105  1.00  0.00    +0.000 C 
ENDBRANCH   56   57
BRANCH   71   72
ATOM     72  C53 UNL A   1      42.459  23.734  26.862  1.00  0.00    +0.000 C 
ATOM     73  C54 UNL A   1      43.417  23.227  25.968  1.00  0.00    +0.000 C 
ATOM     74  F11 UNL A   1      44.414  24.013  25.534  1.00  0.00    +0.000 F 
ATOM     75  C55 UNL A   1      43.413  21.886  25.569  1.00  0.00    +0.000 C 
ATOM     76  F12 UNL A   1      44.384  21.423  24.769  1.00  0.00    +0.000 F 
ATOM     77  C56 UNL A   1      42.447  21.018  26.047  1.00  0.00    +0.000 C 
ATOM     78  F13 UNL A   1      42.483  19.717  25.722  1.00  0.00    +0.000 F 
ATOM     79  C57 UNL A   1      41.468  21.493  26.901  1.00  0.00    +0.000 C 
ATOM     80  F14 UNL A   1      40.550  20.653  27.400  1.00  0.00    +0.000 F 
ATOM     81  C58 UNL A   1      41.472  22.831  27.302  1.00  0.00    +0.000 C 
ATOM     82  F15 UNL A   1      40.556  23.204  28.206  1.00  0.00    +0.000 F 
ENDBRANCH   71   72
TORSDOF 18
ENDMDL
MODEL 4
REMARK VINA RESULT:     -10.8      4.578     10.843
ROOT
ATOM    129  H36 UNL A   1      44.143  25.037  29.308  1.00  0.00    +0.000 H 
ATOM    130  H37 UNL A   1      44.890  26.880  30.947  1.00  0.00    +0.000 H 
ATOM    131  H38 UNL A   1      39.608  27.931  33.433  1.00  0.00    +0.000 H 
ATOM    132  H39 UNL A   1      38.736  27.505  31.041  1.00  0.00    +0.000 H 
ATOM     35  C29 UNL A   1      40.108  29.109  29.083  1.00  0.00    +0.000 C 
ATOM     36  C30 UNL A   1      40.431  28.923  30.521  1.00  0.00    +0.000 C 
ATOM     37  N5  UNL A   1      41.337  29.538  31.207  1.00  0.00    +0.000 N 
ATOM     38  C31 UNL A   1      41.287  28.982  32.483  1.00  0.00    +0.000 C 
ATOM     39  C32 UNL A   1      42.409  28.926  33.253  1.00  0.00    +0.000 C 
ATOM     51  C39 UNL A   1      43.426  29.808  32.731  1.00  0.00    +0.000 C 
ATOM     52  C40 UNL A   1      43.555  31.167  32.543  1.00  0.00    +0.000 C 
ATOM     53  C41 UNL A   1      44.306  31.310  31.335  1.00  0.00    +0.000 C 
ATOM     54  C42 UNL A   1      44.658  30.038  30.883  1.00  0.00    +0.000 C 
ATOM     55  N6  UNL A   1      44.379  29.218  31.941  1.00  0.00    +0.000 N 
ATOM     56  C43 UNL A   1      45.094  29.543  29.596  1.00  0.00    +0.000 C 
ATOM     68  C50 UNL A   1      45.090  28.232  29.213  1.00  0.00    +0.000 C 
ATOM     69  N7  UNL A   1      45.018  27.897  27.870  1.00  0.00    +0.000 N 
ATOM     70  C51 UNL A   1      44.403  26.746  27.851  1.00  0.00    +0.000 C 
ATOM     71  C52 UNL A   1      43.411  26.369  26.818  1.00  0.00    +0.000 C 
ATOM     83  C59 UNL A   1      42.347  27.193  26.989  1.00  0.00    +0.000 C 
ATOM     84  C60 UNL A   1      41.293  27.543  26.065  1.00  0.00    +0.000 C 
ATOM     85  C61 UNL A   1      40.480  28.429  26.672  1.00  0.00    +0.000 C 
ATOM     86  C62 UNL A   1      40.844  28.559  28.088  1.00  0.00    +0.000 C 
ATOM     87  N8  UNL A   1      42.040  27.883  28.183  1.00  0.00    +0.000 N 
ATOM     88  C63 UNL A   1      44.391  26.018  29.107  1.00  0.00    +0.000 C 
ATOM     89  C64 UNL A   1      44.796  26.992  29.926  1.00  0.00    +0.000 C 
ATOM     90  C65 UNL A   1      40.046  28.261  32.559  1.00  0.00    +0.000 C 
ATOM     91  C66 UNL A   1      39.539  28.081  31.336  1.00  0.00    +0.000 C 
ATOM    123  H30 UNL A   1      43.188  31.921  33.145  1.00  0.00    +0.000 H 
ATOM    124  H31 UNL A   1      44.545  32.203  30.876  1.00  0.00    +0.000 H 
ATOM    125  H32 UNL A   1      44.796  28.342  32.107  1.00  0.00    +0.000 H 
ATOM    126  H33 UNL A   1      41.182  27.176  25.108  1.00  0.00    +0.000 H 
ATOM    127  H34 UNL A   1      39.713  28.942  26.208  1.00  0.00    +0.000 H 
ATOM    128  H35 UNL A   1      42.612  27.881  28.984  1.00  0.00    +0.000 H 
ENDROOT
BRANCH   35   34
ATOM     33  C27 UNL A   1      37.782  29.033  28.161  1.00  0.00    +0.000 C 
ATOM     34  C28 UNL A   1      38.804  29.716  28.841  1.00  0.00    +0.000 C 
ATOM    133  H40 UNL A   1      39.439  31.574  29.605  1.00  0.00    +0.000 H 
ATOM    134  H41 UNL A   1      37.218  32.532  29.535  1.00  0.00    +0.000 H 
ATOM    121  H28 UNL A   1      35.872  29.252  27.280  1.00  0.00    +0.000 H 
ATOM    122  H29 UNL A   1      37.896  28.039  27.911  1.00  0.00    +0.000 H 
ATOM     92  C67 UNL A   1      38.644  31.044  29.215  1.00  0.00    +0.000 C 
ATOM     93  C68 UNL A   1      37.425  31.640  29.058  1.00  0.00    +0.000 C 
ATOM     31  C25 UNL A   1      36.463  31.040  28.253  1.00  0.00    +0.000 C 
ATOM     32  C26 UNL A   1      36.613  29.715  27.829  1.00  0.00    +0.000 C 
BRANCH   31   29
ATOM     29  C24 UNL A   1      35.324  31.872  27.832  1.00  0.00    +0.000 C 
ATOM     30  O2  UNL A   1      34.285  31.349  27.437  1.00  0.00    +0.000 O 
BRANCH   29   28
ATOM     28  N4  UNL A   1      35.451  33.250  27.896  1.00  0.00    +0.000 N 
ATOM    120  H27 UNL A   1      36.228  33.648  27.442  1.00  0.00    +0.000 H 
BRANCH   28   27
ATOM     27  C23 UNL A   1      34.537  34.173  28.577  1.00  0.00    +0.000 C 
ATOM    118  H25 UNL A   1      34.991  35.142  28.603  1.00  0.00    +0.000 H 
ATOM    119  H26 UNL A   1      33.619  34.175  28.028  1.00  0.00    +0.000 H 
BRANCH   27   26
ATOM     26  C22 UNL A   1      34.213  33.752  30.002  1.00  0.00    +0.000 C 
ATOM    116  H23 UNL A   1      33.369  34.317  30.333  1.00  0.00    +0.000 H 
ATOM    117  H24 UNL A   1      34.029  32.698  29.971  1.00  0.00    +0.000 H 
BRANCH   26   25
ATOM     25  C21 UNL A   1      35.355  33.962  31.007  1.00  0.00    +0.000 C 
ATOM    114  H21 UNL A   1      36.247  33.567  30.569  1.00  0.00    +0.000 H 
ATOM    115  H22 UNL A   1      35.371  35.016  31.192  1.00  0.00    +0.000 H 
BRANCH   25   24
ATOM    113  H20 UNL A   1      35.895  32.513  32.415  1.00  0.00    +0.000 H 
ATOM    112  H19 UNL A   1      34.169  33.016  32.491  1.00  0.00    +0.000 H 
ATOM     24  C20 UNL A   1      35.191  33.318  32.391  1.00  0.00    +0.000 C 
BRANCH   24   23
ATOM    111  H18 UNL A   1      34.613  34.411  34.091  1.00  0.00    +0.000 H 
ATOM    110  H17 UNL A   1      36.036  35.074  33.240  1.00  0.00    +0.000 H 
ATOM     23  C19 UNL A   1      35.537  34.196  33.598  1.00  0.00    +0.000 C 
BRANCH   23   22
ATOM    108  H15 UNL A   1      37.231  34.202  34.879  1.00  0.00    +0.000 H 
ATOM    109  H16 UNL A   1      35.831  33.305  35.487  1.00  0.00    +0.000 H 
ATOM     22  C18 UNL A   1      36.435  33.530  34.634  1.00  0.00    +0.000 C 
BRANCH   22   21
ATOM    107  H14 UNL A   1      36.658  31.879  33.332  1.00  0.00    +0.000 H 
ATOM     21  N3  UNL A   1      37.008  32.283  34.159  1.00  0.00    +0.000 N 
BRANCH   21    2
ATOM      1  O1  UNL A   1      37.931  31.308  36.014  1.00  0.00    +0.000 O 
ATOM      2  C1  UNL A   1      38.032  31.650  34.837  1.00  0.00    +0.000 C 
BRANCH    2    3
ATOM      3  C2  UNL A   1      39.333  31.476  34.083  1.00  0.00    +0.000 C 
ATOM     94  H1  UNL A   1      39.116  31.518  33.036  1.00  0.00    +0.000 H 
ATOM     95  H2  UNL A   1      39.735  30.536  34.398  1.00  0.00    +0.000 H 
BRANCH    3    4
ATOM      4  N1  UNL A   1      40.357  32.469  34.372  1.00  0.00    +0.000 N 
ATOM      5  C3  UNL A   1      41.123  32.457  35.510  1.00  0.00    +0.000 C 
ATOM      6  N2  UNL A   1      42.045  33.388  35.488  1.00  0.00    +0.000 N 
ATOM      7  C4  UNL A   1      41.875  34.032  34.289  1.00  0.00    +0.000 C 
ATOM     14  C11 UNL A   1      40.832  33.479  33.556  1.00  0.00    +0.000 C 
ATOM     96  H3  UNL A   1      40.989  31.793  36.288  1.00  0.00    +0.000 H 
BRANCH    7    8
ATOM     97  H4  UNL A   1      44.027  33.913  32.721  1.00  0.00    +0.000 H 
ATOM     98  H5  UNL A   1      45.333  35.762  31.846  1.00  0.00    +0.000 H 
ATOM     99  H6  UNL A   1      44.793  38.041  32.482  1.00  0.00    +0.000 H 
ATOM    100  H7  UNL A   1      42.962  38.473  34.013  1.00  0.00    +0.000 H 
ATOM    101  H8  UNL A   1      41.644  36.629  34.876  1.00  0.00    +0.000 H 
ATOM      8  C5  UNL A   1      42.714  35.127  33.845  1.00  0.00    +0.000 C 
ATOM      9  C6  UNL A   1      43.791  34.881  32.986  1.00  0.00    +0.000 C 
ATOM     10  C7  UNL A   1      44.546  35.945  32.488  1.00  0.00    +0.000 C 
ATOM     11  C8  UNL A   1      44.239  37.255  32.857  1.00  0.00    +0.000 C 
ATOM     12  C9  UNL A   1      43.182  37.504  33.732  1.00  0.00    +0.000 C 
ATOM     13  C10 UNL A   1      42.424  36.443  34.226  1.00  0.00    +0.000 C 
ENDBRANCH    7    8
BRANCH   14   15
ATOM    102  H9  UNL A   1      42.115  33.206  31.225  1.00  0.00    +0.000 H 
ATOM    103  H10 UNL A   1      41.388  33.914  29.022  1.00  0.00    +0.000 H 
ATOM    104  H11 UNL A   1      39.188  34.889  28.721  1.00  0.00    +0.000 H 
ATOM    105  H12 UNL A   1      37.740  35.222  30.638  1.00  0.00    +0.000 H 
ATOM    106  H13 UNL A   1      38.508  34.610  32.851  1.00  0.00    +0.000 H 
ATOM     15  C12 UNL A   1      40.353  33.816  32.217  1.00  0.00    +0.000 C 
ATOM     16  C13 UNL A   1      41.186  33.637  31.105  1.00  0.00    +0.000 C 
ATOM     17  C14 UNL A   1      40.765  34.040  29.835  1.00  0.00    +0.000 C 
ATOM     18  C15 UNL A   1      39.505  34.611  29.662  1.00  0.00    +0.000 C 
ATOM     19  C16 UNL A   1      38.676  34.804  30.763  1.00  0.00    +0.000 C 
ATOM     20  C17 UNL A   1      39.111  34.430  32.034  1.00  0.00    +0.000 C 
ENDBRANCH   14   15
ENDBRANCH    3    4
ENDBRANCH    2    3
ENDBRANCH   21    2
ENDBRANCH   22   21
ENDBRANCH   23   22
ENDBRANCH   24   23
ENDBRANCH   25   24
ENDBRANCH   26   25
ENDBRANCH   27   26
ENDBRANCH   28   27
ENDBRANCH   29   28
ENDBRANCH   31   29
ENDBRANCH   35   34
BRANCH   39   40
ATOM     40  C33 UNL A   1      42.769  27.772  34.170  1.00  0.00    +0.000 C 
ATOM     41  C34 UNL A   1      43.191  26.555  33.590  1.00  0.00    +0.000 C 
ATOM     42  F1  UNL A   1      43.540  26.499  32.297  1.00  0.00    +0.000 F 
ATOM     43  C35 UNL A   1      43.165  25.348  34.296  1.00  0.00    +0.000 C 
ATOM     44  F2  UNL A   1      43.443  24.200  33.663  1.00  0.00    +0.000 F 
ATOM     45  C36 UNL A   1      42.782  25.320  35.623  1.00  0.00    +0.000 C 
ATOM     46  F3  UNL A   1      42.693  24.158  36.284  1.00  0.00    +0.000 F 
ATOM     47  C37 UNL A   1      42.442  26.498  36.250  1.00  0.00    +0.000 C 
ATOM     48  F4  UNL A   1      42.049  26.489  37.532  1.00  0.00    +0.000 F 
ATOM     49  C38 UNL A   1      42.416  27.696  35.535  1.00  0.00    +0.000 C 
ATOM     50  F5  UNL A   1      41.925  28.739  36.211  1.00  0.00    +0.000 F 
ENDBRANCH   39   40
BRANCH   56   57
ATOM     65  F9  UNL A   1      48.283  32.560  27.545  1.00  0.00    +0.000 F 
ATOM     66  C49 UNL A   1      46.699  31.054  28.442  1.00  0.00    +0.000 C 
ATOM     67  F10 UNL A   1      47.658  30.549  29.234  1.00  0.00    +0.000 F 
ATOM     57  C44 UNL A   1      45.386  30.572  28.538  1.00  0.00    +0.000 C 
ATOM     58  C45 UNL A   1      44.416  31.174  27.718  1.00  0.00    +0.000 C 
ATOM     59  F6  UNL A   1      43.126  30.828  27.813  1.00  0.00    +0.000 F 
ATOM     60  C46 UNL A   1      44.757  32.183  26.817  1.00  0.00    +0.000 C 
ATOM     61  F7  UNL A   1      43.817  32.732  26.032  1.00  0.00    +0.000 F 
ATOM     62  C47 UNL A   1      46.062  32.645  26.751  1.00  0.00    +0.000 C 
ATOM     63  F8  UNL A   1      46.383  33.642  25.915  1.00  0.00    +0.000 F 
ATOM     64  C48 UNL A   1      47.029  32.087  27.571  1.00  0.00    +0.000 C 
ENDBRANCH   56   57
BRANCH   71   72
ATOM     72  C53 UNL A   1      43.508  25.108  26.048  1.00  0.00    +0.000 C 
ATOM     73  C54 UNL A   1      44.582  24.876  25.172  1.00  0.00    +0.000 C 
ATOM     74  F11 UNL A   1      45.402  25.882  24.831  1.00  0.00    +0.000 F 
ATOM     75  C55 UNL A   1      44.878  23.595  24.695  1.00  0.00    +0.000 C 
ATOM     76  F12 UNL A   1      45.952  23.401  23.917  1.00  0.00    +0.000 F 
ATOM     77  C56 UNL A   1      44.104  22.511  25.077  1.00  0.00    +0.000 C 
ATOM     78  F13 UNL A   1      44.429  21.273  24.678  1.00  0.00    +0.000 F 
ATOM     79  C57 UNL A   1      43.018  22.712  25.910  1.00  0.00    +0.000 C 
ATOM     80  F14 UNL A   1      42.285  21.665  26.316  1.00  0.00    +0.000 F 
ATOM     81  C58 UNL A   1      42.723  23.990  26.387  1.00  0.00    +0.000 C 
ATOM     82  F15 UNL A   1      41.718  24.100  27.267  1.00  0.00    +0.000 F 
ENDBRANCH   71   72
TORSDOF 18
ENDMDL
MODEL 5
REMARK VINA RESULT:     -10.5      0.970      2.236
ROOT
ATOM    129  H36 UNL A   1      40.329  32.851  30.278  1.00  0.00    +0.000 H 
ATOM    130  H37 UNL A   1      42.793  32.392  30.881  1.00  0.00    +0.000 H 
ATOM    131  H38 UNL A   1      44.160  29.048  26.176  1.00  0.00    +0.000 H 
ATOM    132  H39 UNL A   1      41.750  28.174  26.476  1.00  0.00    +0.000 H 
ATOM     35  C29 UNL A   1      41.240  27.296  29.170  1.00  0.00    +0.000 C 
ATOM     36  C30 UNL A   1      42.421  28.024  28.640  1.00  0.00    +0.000 C 
ATOM     37  N5  UNL A   1      43.512  28.313  29.270  1.00  0.00    +0.000 N 
ATOM     38  C31 UNL A   1      44.286  29.042  28.370  1.00  0.00    +0.000 C 
ATOM     39  C32 UNL A   1      45.161  29.982  28.821  1.00  0.00    +0.000 C 
ATOM     51  C39 UNL A   1      45.404  29.812  30.234  1.00  0.00    +0.000 C 
ATOM     52  C40 UNL A   1      45.958  28.834  31.031  1.00  0.00    +0.000 C 
ATOM     53  C41 UNL A   1      45.198  28.859  32.241  1.00  0.00    +0.000 C 
ATOM     54  C42 UNL A   1      44.267  29.894  32.153  1.00  0.00    +0.000 C 
ATOM     55  N6  UNL A   1      44.672  30.618  31.067  1.00  0.00    +0.000 N 
ATOM     56  C43 UNL A   1      43.047  30.177  32.877  1.00  0.00    +0.000 C 
ATOM     68  C50 UNL A   1      42.070  31.041  32.470  1.00  0.00    +0.000 C 
ATOM     69  N7  UNL A   1      40.766  30.878  32.910  1.00  0.00    +0.000 N 
ATOM     70  C51 UNL A   1      40.031  31.347  31.939  1.00  0.00    +0.000 C 
ATOM     71  C52 UNL A   1      38.749  30.735  31.518  1.00  0.00    +0.000 C 
ATOM     83  C59 UNL A   1      39.057  29.518  31.003  1.00  0.00    +0.000 C 
ATOM     84  C60 UNL A   1      38.216  28.359  30.809  1.00  0.00    +0.000 C 
ATOM     85  C61 UNL A   1      38.976  27.369  30.303  1.00  0.00    +0.000 C 
ATOM     86  C62 UNL A   1      40.307  27.883  29.956  1.00  0.00    +0.000 C 
ATOM     87  N8  UNL A   1      40.326  29.144  30.509  1.00  0.00    +0.000 N 
ATOM     88  C63 UNL A   1      40.710  32.221  31.001  1.00  0.00    +0.000 C 
ATOM     89  C64 UNL A   1      41.975  31.973  31.350  1.00  0.00    +0.000 C 
ATOM     90  C65 UNL A   1      43.699  28.834  27.074  1.00  0.00    +0.000 C 
ATOM     91  C66 UNL A   1      42.472  28.322  27.199  1.00  0.00    +0.000 C 
ATOM    123  H30 UNL A   1      46.752  28.214  30.803  1.00  0.00    +0.000 H 
ATOM    124  H31 UNL A   1      45.318  28.220  33.042  1.00  0.00    +0.000 H 
ATOM    125  H32 UNL A   1      44.469  31.568  30.908  1.00  0.00    +0.000 H 
ATOM    126  H33 UNL A   1      37.208  28.301  31.021  1.00  0.00    +0.000 H 
ATOM    127  H34 UNL A   1      38.668  26.392  30.177  1.00  0.00    +0.000 H 
ATOM    128  H35 UNL A   1      41.126  29.716  30.554  1.00  0.00    +0.000 H 
ENDROOT
BRANCH   35   34
ATOM     33  C27 UNL A   1      41.995  24.957  28.694  1.00  0.00    +0.000 C 
ATOM     34  C28 UNL A   1      41.039  25.979  28.576  1.00  0.00    +0.000 C 
ATOM    133  H40 UNL A   1      39.270  26.596  27.612  1.00  0.00    +0.000 H 
ATOM    134  H41 UNL A   1      38.711  24.361  26.876  1.00  0.00    +0.000 H 
ATOM    121  H28 UNL A   1      42.533  23.031  28.007  1.00  0.00    +0.000 H 
ATOM    122  H29 UNL A   1      42.820  25.083  29.301  1.00  0.00    +0.000 H 
ATOM     92  C67 UNL A   1      39.907  25.804  27.791  1.00  0.00    +0.000 C 
ATOM     93  C68 UNL A   1      39.647  24.574  27.258  1.00  0.00    +0.000 C 
ATOM     31  C25 UNL A   1      40.648  23.609  27.231  1.00  0.00    +0.000 C 
ATOM     32  C26 UNL A   1      41.817  23.772  27.982  1.00  0.00    +0.000 C 
BRANCH   31   29
ATOM     29  C24 UNL A   1      40.442  22.451  26.345  1.00  0.00    +0.000 C 
ATOM     30  O2  UNL A   1      41.354  22.048  25.628  1.00  0.00    +0.000 O 
BRANCH   29   28
ATOM     28  N4  UNL A   1      39.204  21.829  26.344  1.00  0.00    +0.000 N 
ATOM    120  H27 UNL A   1      38.960  21.321  27.150  1.00  0.00    +0.000 H 
BRANCH   28   27
ATOM     27  C23 UNL A   1      38.222  21.856  25.255  1.00  0.00    +0.000 C 
ATOM    118  H25 UNL A   1      38.280  22.808  24.769  1.00  0.00    +0.000 H 
ATOM    119  H26 UNL A   1      38.461  21.053  24.590  1.00  0.00    +0.000 H 
BRANCH   27   26
ATOM     26  C22 UNL A   1      36.794  21.641  25.732  1.00  0.00    +0.000 C 
ATOM    116  H23 UNL A   1      36.831  21.187  26.699  1.00  0.00    +0.000 H 
ATOM    117  H24 UNL A   1      36.328  22.605  25.736  1.00  0.00    +0.000 H 
BRANCH   26   25
ATOM     25  C21 UNL A   1      35.941  20.751  24.818  1.00  0.00    +0.000 C 
ATOM    114  H21 UNL A   1      35.650  21.341  23.974  1.00  0.00    +0.000 H 
ATOM    115  H22 UNL A   1      36.562  19.911  24.589  1.00  0.00    +0.000 H 
BRANCH   25   24
ATOM    113  H20 UNL A   1      34.551  20.626  26.377  1.00  0.00    +0.000 H 
ATOM    112  H19 UNL A   1      34.797  19.089  25.474  1.00  0.00    +0.000 H 
ATOM     24  C20 UNL A   1      34.665  20.150  25.426  1.00  0.00    +0.000 C 
BRANCH   24   23
ATOM    111  H18 UNL A   1      32.663  20.792  25.400  1.00  0.00    +0.000 H 
ATOM    110  H17 UNL A   1      33.039  19.509  24.216  1.00  0.00    +0.000 H 
ATOM     23  C19 UNL A   1      33.357  20.422  24.675  1.00  0.00    +0.000 C 
BRANCH   23   22
ATOM    108  H15 UNL A   1      33.902  22.365  24.012  1.00  0.00    +0.000 H 
ATOM    109  H16 UNL A   1      34.050  21.086  22.796  1.00  0.00    +0.000 H 
ATOM     22  C18 UNL A   1      33.457  21.488  23.591  1.00  0.00    +0.000 C 
BRANCH   22   21
ATOM    107  H14 UNL A   1      31.512  21.132  22.841  1.00  0.00    +0.000 H 
ATOM     21  N3  UNL A   1      32.163  21.845  23.036  1.00  0.00    +0.000 N 
BRANCH   21    2
ATOM      1  O1  UNL A   1      30.674  23.580  22.904  1.00  0.00    +0.000 O 
ATOM      2  C1  UNL A   1      31.822  23.158  22.774  1.00  0.00    +0.000 C 
BRANCH    2    3
ATOM      3  C2  UNL A   1      32.922  24.044  22.226  1.00  0.00    +0.000 C 
ATOM     94  H1  UNL A   1      32.743  24.183  21.181  1.00  0.00    +0.000 H 
ATOM     95  H2  UNL A   1      33.842  23.542  22.440  1.00  0.00    +0.000 H 
BRANCH    3    4
ATOM      4  N1  UNL A   1      33.027  25.357  22.844  1.00  0.00    +0.000 N 
ATOM      5  C3  UNL A   1      33.001  26.531  22.136  1.00  0.00    +0.000 C 
ATOM      6  N2  UNL A   1      33.004  27.579  22.925  1.00  0.00    +0.000 N 
ATOM      7  C4  UNL A   1      33.031  27.067  24.197  1.00  0.00    +0.000 C 
ATOM     14  C11 UNL A   1      33.038  25.678  24.189  1.00  0.00    +0.000 C 
ATOM     96  H3  UNL A   1      32.982  26.583  21.106  1.00  0.00    +0.000 H 
BRANCH    7    8
ATOM     97  H4  UNL A   1      35.065  27.620  25.828  1.00  0.00    +0.000 H 
ATOM     98  H5  UNL A   1      35.079  29.131  27.728  1.00  0.00    +0.000 H 
ATOM     99  H6  UNL A   1      33.037  30.254  28.404  1.00  0.00    +0.000 H 
ATOM    100  H7  UNL A   1      30.972  29.851  27.197  1.00  0.00    +0.000 H 
ATOM    101  H8  UNL A   1      30.958  28.356  25.287  1.00  0.00    +0.000 H 
ATOM      8  C5  UNL A   1      33.017  27.892  25.390  1.00  0.00    +0.000 C 
ATOM      9  C6  UNL A   1      34.198  28.103  26.108  1.00  0.00    +0.000 C 
ATOM     10  C7  UNL A   1      34.205  28.968  27.206  1.00  0.00    +0.000 C 
ATOM     11  C8  UNL A   1      33.029  29.610  27.598  1.00  0.00    +0.000 C 
ATOM     12  C9  UNL A   1      31.844  29.383  26.900  1.00  0.00    +0.000 C 
ATOM     13  C10 UNL A   1      31.837  28.525  25.800  1.00  0.00    +0.000 C 
ENDBRANCH    7    8
BRANCH   14   15
ATOM    102  H9  UNL A   1      30.912  24.828  25.573  1.00  0.00    +0.000 H 
ATOM    103  H10 UNL A   1      30.873  23.400  27.534  1.00  0.00    +0.000 H 
ATOM    104  H11 UNL A   1      32.933  22.441  28.382  1.00  0.00    +0.000 H 
ATOM    105  H12 UNL A   1      35.044  22.969  27.311  1.00  0.00    +0.000 H 
ATOM    106  H13 UNL A   1      35.093  24.477  25.417  1.00  0.00    +0.000 H 
ATOM     15  C12 UNL A   1      33.005  24.740  25.310  1.00  0.00    +0.000 C 
ATOM     16  C13 UNL A   1      31.793  24.437  25.941  1.00  0.00    +0.000 C 
ATOM     17  C14 UNL A   1      31.770  23.610  27.068  1.00  0.00    +0.000 C 
ATOM     18  C15 UNL A   1      32.954  23.067  27.563  1.00  0.00    +0.000 C 
ATOM     19  C16 UNL A   1      34.166  23.373  26.949  1.00  0.00    +0.000 C 
ATOM     20  C17 UNL A   1      34.189  24.224  25.845  1.00  0.00    +0.000 C 
ENDBRANCH   14   15
ENDBRANCH    3    4
ENDBRANCH    2    3
ENDBRANCH   21    2
ENDBRANCH   22   21
ENDBRANCH   23   22
ENDBRANCH   24   23
ENDBRANCH   25   24
ENDBRANCH   26   25
ENDBRANCH   27   26
ENDBRANCH   28   27
ENDBRANCH   29   28
ENDBRANCH   31   29
ENDBRANCH   35   34
BRANCH   39   40
ATOM     40  C33 UNL A   1      45.432  31.309  28.134  1.00  0.00    +0.000 C 
ATOM     41  C34 UNL A   1      44.333  32.123  27.781  1.00  0.00    +0.000 C 
ATOM     42  F1  UNL A   1      43.114  31.881  28.284  1.00  0.00    +0.000 F 
ATOM     43  C35 UNL A   1      44.439  33.138  26.826  1.00  0.00    +0.000 C 
ATOM     44  F2  UNL A   1      43.340  33.791  26.424  1.00  0.00    +0.000 F 
ATOM     45  C36 UNL A   1      45.655  33.424  26.237  1.00  0.00    +0.000 C 
ATOM     46  F3  UNL A   1      45.747  34.351  25.274  1.00  0.00    +0.000 F 
ATOM     47  C37 UNL A   1      46.769  32.707  26.614  1.00  0.00    +0.000 C 
ATOM     48  F4  UNL A   1      47.955  32.955  26.040  1.00  0.00    +0.000 F 
ATOM     49  C38 UNL A   1      46.658  31.659  27.528  1.00  0.00    +0.000 C 
ATOM     50  F5  UNL A   1      47.775  30.945  27.696  1.00  0.00    +0.000 F 
ENDBRANCH   39   40
BRANCH   56   57
ATOM     65  F9  UNL A   1      43.769  29.216  37.571  1.00  0.00    +0.000 F 
ATOM     66  C49 UNL A   1      43.306  29.671  35.300  1.00  0.00    +0.000 C 
ATOM     67  F10 UNL A   1      44.023  30.802  35.402  1.00  0.00    +0.000 F 
ATOM     57  C44 UNL A   1      42.748  29.305  34.067  1.00  0.00    +0.000 C 
ATOM     58  C45 UNL A   1      42.050  28.087  34.011  1.00  0.00    +0.000 C 
ATOM     59  F6  UNL A   1      41.563  27.628  32.851  1.00  0.00    +0.000 F 
ATOM     60  C46 UNL A   1      41.887  27.295  35.147  1.00  0.00    +0.000 C 
ATOM     61  F7  UNL A   1      41.202  26.143  35.074  1.00  0.00    +0.000 F 
ATOM     62  C47 UNL A   1      42.458  27.679  36.350  1.00  0.00    +0.000 C 
ATOM     63  F8  UNL A   1      42.336  26.899  37.434  1.00  0.00    +0.000 F 
ATOM     64  C48 UNL A   1      43.176  28.862  36.423  1.00  0.00    +0.000 C 
ENDBRANCH   56   57
BRANCH   71   72
ATOM     72  C53 UNL A   1      37.499  31.517  31.396  1.00  0.00    +0.000 C 
ATOM     73  C54 UNL A   1      36.718  31.816  32.526  1.00  0.00    +0.000 C 
ATOM     74  F11 UNL A   1      36.956  31.194  33.691  1.00  0.00    +0.000 F 
ATOM     75  C55 UNL A   1      35.736  32.812  32.498  1.00  0.00    +0.000 C 
ATOM     76  F12 UNL A   1      35.059  33.116  33.614  1.00  0.00    +0.000 F 
ATOM     77  C56 UNL A   1      35.503  33.531  31.338  1.00  0.00    +0.000 C 
ATOM     78  F13 UNL A   1      34.612  34.534  31.329  1.00  0.00    +0.000 F 
ATOM     79  C57 UNL A   1      36.230  33.238  30.198  1.00  0.00    +0.000 C 
ATOM     80  F14 UNL A   1      36.039  33.954  29.081  1.00  0.00    +0.000 F 
ATOM     81  C58 UNL A   1      37.211  32.245  30.225  1.00  0.00    +0.000 C 
ATOM     82  F15 UNL A   1      37.946  32.077  29.117  1.00  0.00    +0.000 F 
ENDBRANCH   71   72
TORSDOF 18
ENDMDL
MODEL 6
REMARK VINA RESULT:     -10.4     36.435     42.453
ROOT
ATOM    129  H36 UNL A   1       9.834   4.304  26.593  1.00  0.00    +0.000 H 
ATOM    130  H37 UNL A   1      10.814   2.082  27.457  1.00  0.00    +0.000 H 
ATOM    131  H38 UNL A   1      14.291   0.876  22.805  1.00  0.00    +0.000 H 
ATOM    132  H39 UNL A   1      12.339   1.905  21.464  1.00  0.00    +0.000 H 
ATOM     35  C29 UNL A   1       9.810   0.700  22.128  1.00  0.00    +0.000 C 
ATOM     36  C30 UNL A   1      11.125   0.525  22.797  1.00  0.00    +0.000 C 
ATOM     37  N5  UNL A   1      11.416  -0.296  23.751  1.00  0.00    +0.000 N 
ATOM     38  C31 UNL A   1      12.749  -0.048  24.069  1.00  0.00    +0.000 C 
ATOM     39  C32 UNL A   1      13.203  -0.254  25.336  1.00  0.00    +0.000 C 
ATOM     51  C39 UNL A   1      12.269  -1.063  26.083  1.00  0.00    +0.000 C 
ATOM     52  C40 UNL A   1      11.779  -2.349  25.991  1.00  0.00    +0.000 C 
ATOM     53  C41 UNL A   1      10.418  -2.263  26.416  1.00  0.00    +0.000 C 
ATOM     54  C42 UNL A   1      10.163  -0.950  26.814  1.00  0.00    +0.000 C 
ATOM     55  N6  UNL A   1      11.402  -0.378  26.894  1.00  0.00    +0.000 N 
ATOM     56  C43 UNL A   1       8.937  -0.204  26.999  1.00  0.00    +0.000 C 
ATOM     68  C50 UNL A   1       8.846   1.156  27.074  1.00  0.00    +0.000 C 
ATOM     69  N7  UNL A   1       7.664   1.797  26.737  1.00  0.00    +0.000 N 
ATOM     70  C51 UNL A   1       8.040   2.963  26.287  1.00  0.00    +0.000 C 
ATOM     71  C52 UNL A   1       7.394   3.640  25.139  1.00  0.00    +0.000 C 
ATOM     83  C59 UNL A   1       7.656   2.879  24.047  1.00  0.00    +0.000 C 
ATOM     84  C60 UNL A   1       6.979   2.830  22.772  1.00  0.00    +0.000 C 
ATOM     85  C61 UNL A   1       7.577   1.890  22.015  1.00  0.00    +0.000 C 
ATOM     86  C62 UNL A   1       8.796   1.410  22.678  1.00  0.00    +0.000 C 
ATOM     87  N8  UNL A   1       8.720   1.956  23.940  1.00  0.00    +0.000 N 
ATOM     88  C63 UNL A   1       9.379   3.380  26.659  1.00  0.00    +0.000 C 
ATOM     89  C64 UNL A   1       9.850   2.216  27.115  1.00  0.00    +0.000 C 
ATOM     90  C65 UNL A   1      13.285   0.724  22.982  1.00  0.00    +0.000 C 
ATOM     91  C66 UNL A   1      12.295   1.219  22.233  1.00  0.00    +0.000 C 
ATOM    123  H30 UNL A   1      12.287  -3.192  25.679  1.00  0.00    +0.000 H 
ATOM    124  H31 UNL A   1       9.739  -3.041  26.426  1.00  0.00    +0.000 H 
ATOM    125  H32 UNL A   1      11.633   0.403  27.447  1.00  0.00    +0.000 H 
ATOM    126  H33 UNL A   1       6.178   3.415  22.490  1.00  0.00    +0.000 H 
ATOM    127  H34 UNL A   1       7.228   1.555  21.103  1.00  0.00    +0.000 H 
ATOM    128  H35 UNL A   1       9.333   1.731  24.677  1.00  0.00    +0.000 H 
ENDROOT
BRANCH   35   34
ATOM     33  C27 UNL A   1       9.887  -1.093  20.384  1.00  0.00    +0.000 C 
ATOM     34  C28 UNL A   1       9.788   0.263  20.737  1.00  0.00    +0.000 C 
ATOM    133  H40 UNL A   1       9.821   2.246  20.028  1.00  0.00    +0.000 H 
ATOM    134  H41 UNL A   1       9.453   1.592  17.729  1.00  0.00    +0.000 H 
ATOM    121  H28 UNL A   1      10.143  -2.423  18.760  1.00  0.00    +0.000 H 
ATOM    122  H29 UNL A   1       9.869  -1.824  21.112  1.00  0.00    +0.000 H 
ATOM     92  C67 UNL A   1       9.774   1.251  19.762  1.00  0.00    +0.000 C 
ATOM     93  C68 UNL A   1       9.698   0.890  18.446  1.00  0.00    +0.000 C 
ATOM     31  C25 UNL A   1       9.953  -0.426  18.077  1.00  0.00    +0.000 C 
ATOM     32  C26 UNL A   1      10.011  -1.439  19.040  1.00  0.00    +0.000 C 
BRANCH   31   29
ATOM     29  C24 UNL A   1      10.210  -0.686  16.650  1.00  0.00    +0.000 C 
ATOM     30  O2  UNL A   1      11.194  -0.202  16.098  1.00  0.00    +0.000 O 
BRANCH   29   28
ATOM     28  N4  UNL A   1       9.321  -1.487  15.953  1.00  0.00    +0.000 N 
ATOM    120  H27 UNL A   1       9.708  -2.188  15.380  1.00  0.00    +0.000 H 
BRANCH   28   27
ATOM     27  C23 UNL A   1       7.858  -1.393  15.988  1.00  0.00    +0.000 C 
ATOM    118  H25 UNL A   1       7.455  -2.118  15.312  1.00  0.00    +0.000 H 
ATOM    119  H26 UNL A   1       7.551  -1.571  16.997  1.00  0.00    +0.000 H 
BRANCH   27   26
ATOM     26  C22 UNL A   1       7.339  -0.019  15.591  1.00  0.00    +0.000 C 
ATOM    116  H23 UNL A   1       8.111   0.696  15.777  1.00  0.00    +0.000 H 
ATOM    117  H24 UNL A   1       7.066  -0.086  14.558  1.00  0.00    +0.000 H 
BRANCH   26   25
ATOM     25  C21 UNL A   1       6.078   0.430  16.343  1.00  0.00    +0.000 C 
ATOM    114  H21 UNL A   1       5.656   1.252  15.803  1.00  0.00    +0.000 H 
ATOM    115  H22 UNL A   1       5.460  -0.441  16.395  1.00  0.00    +0.000 H 
BRANCH   25   24
ATOM    113  H20 UNL A   1       5.860   1.868  17.847  1.00  0.00    +0.000 H 
ATOM    112  H19 UNL A   1       7.303   0.809  18.034  1.00  0.00    +0.000 H 
ATOM     24  C20 UNL A   1       6.260   0.878  17.801  1.00  0.00    +0.000 C 
BRANCH   24   23
ATOM    111  H18 UNL A   1       4.779  -0.517  18.331  1.00  0.00    +0.000 H 
ATOM    110  H17 UNL A   1       5.040   0.774  19.538  1.00  0.00    +0.000 H 
ATOM     23  C19 UNL A   1       5.492   0.079  18.860  1.00  0.00    +0.000 C 
BRANCH   23   22
ATOM    108  H15 UNL A   1       7.355  -0.531  19.676  1.00  0.00    +0.000 H 
ATOM    109  H16 UNL A   1       5.937  -0.928  20.659  1.00  0.00    +0.000 H 
ATOM     22  C18 UNL A   1       6.346  -0.887  19.671  1.00  0.00    +0.000 C 
BRANCH   22   21
ATOM    107  H14 UNL A   1       6.249  -2.362  18.160  1.00  0.00    +0.000 H 
ATOM     21  N3  UNL A   1       6.332  -2.235  19.133  1.00  0.00    +0.000 N 
BRANCH   21    2
ATOM      1  O1  UNL A   1       6.321  -4.492  19.520  1.00  0.00    +0.000 O 
ATOM      2  C1  UNL A   1       6.432  -3.345  19.950  1.00  0.00    +0.000 C 
BRANCH    2    3
ATOM      3  C2  UNL A   1       6.596  -3.079  21.431  1.00  0.00    +0.000 C 
ATOM     94  H1  UNL A   1       5.782  -2.459  21.747  1.00  0.00    +0.000 H 
ATOM     95  H2  UNL A   1       7.554  -2.617  21.546  1.00  0.00    +0.000 H 
BRANCH    3    4
ATOM      4  N1  UNL A   1       6.616  -4.263  22.277  1.00  0.00    +0.000 N 
ATOM      5  C3  UNL A   1       5.484  -4.859  22.771  1.00  0.00    +0.000 C 
ATOM      6  N2  UNL A   1       5.757  -5.969  23.414  1.00  0.00    +0.000 N 
ATOM      7  C4  UNL A   1       7.120  -6.103  23.333  1.00  0.00    +0.000 C 
ATOM     14  C11 UNL A   1       7.694  -5.057  22.621  1.00  0.00    +0.000 C 
ATOM     96  H3  UNL A   1       4.532  -4.480  22.651  1.00  0.00    +0.000 H 
BRANCH    7    8
ATOM     97  H4  UNL A   1       8.832  -6.079  25.376  1.00  0.00    +0.000 H 
ATOM     98  H5  UNL A   1       9.922  -7.978  26.424  1.00  0.00    +0.000 H 
ATOM     99  H6  UNL A   1       9.590 -10.212  25.538  1.00  0.00    +0.000 H 
ATOM    100  H7  UNL A   1       8.186 -10.550  23.588  1.00  0.00    +0.000 H 
ATOM    101  H8  UNL A   1       7.082  -8.658  22.550  1.00  0.00    +0.000 H 
ATOM      8  C5  UNL A   1       7.847  -7.223  23.898  1.00  0.00    +0.000 C 
ATOM      9  C6  UNL A   1       8.683  -7.029  25.003  1.00  0.00    +0.000 C 
ATOM     10  C7  UNL A   1       9.315  -8.121  25.602  1.00  0.00    +0.000 C 
ATOM     11  C8  UNL A   1       9.128  -9.406  25.090  1.00  0.00    +0.000 C 
ATOM     12  C9  UNL A   1       8.316  -9.601  23.973  1.00  0.00    +0.000 C 
ATOM     13  C10 UNL A   1       7.680  -8.512  23.378  1.00  0.00    +0.000 C 
ENDBRANCH    7    8
BRANCH   14   15
ATOM    102  H9  UNL A   1       9.666  -4.054  24.126  1.00  0.00    +0.000 H 
ATOM    103  H10 UNL A   1      11.942  -3.540  23.465  1.00  0.00    +0.000 H 
ATOM    104  H11 UNL A   1      12.709  -4.069  21.226  1.00  0.00    +0.000 H 
ATOM    105  H12 UNL A   1      11.175  -5.048  19.622  1.00  0.00    +0.000 H 
ATOM    106  H13 UNL A   1       8.875  -5.465  20.251  1.00  0.00    +0.000 H 
ATOM     15  C12 UNL A   1       9.091  -4.839  22.251  1.00  0.00    +0.000 C 
ATOM     16  C13 UNL A   1       9.981  -4.264  23.166  1.00  0.00    +0.000 C 
ATOM     17  C14 UNL A   1      11.295  -3.973  22.787  1.00  0.00    +0.000 C 
ATOM     18  C15 UNL A   1      11.734  -4.266  21.497  1.00  0.00    +0.000 C 
ATOM     19  C16 UNL A   1      10.852  -4.826  20.577  1.00  0.00    +0.000 C 
ATOM     20  C17 UNL A   1       9.534  -5.085  20.948  1.00  0.00    +0.000 C 
ENDBRANCH   14   15
ENDBRANCH    3    4
ENDBRANCH    2    3
ENDBRANCH   21    2
ENDBRANCH   22   21
ENDBRANCH   23   22
ENDBRANCH   24   23
ENDBRANCH   25   24
ENDBRANCH   26   25
ENDBRANCH   27   26
ENDBRANCH   28   27
ENDBRANCH   29   28
ENDBRANCH   31   29
ENDBRANCH   35   34
BRANCH   39   40
ATOM     40  C33 UNL A   1      14.216   0.628  26.044  1.00  0.00    +0.000 C 
ATOM     41  C34 UNL A   1      15.531   0.143  26.216  1.00  0.00    +0.000 C 
ATOM     42  F1  UNL A   1      15.958  -0.930  25.534  1.00  0.00    +0.000 F 
ATOM     43  C35 UNL A   1      16.402   0.682  27.167  1.00  0.00    +0.000 C 
ATOM     44  F2  UNL A   1      17.589   0.100  27.389  1.00  0.00    +0.000 F 
ATOM     45  C36 UNL A   1      16.020   1.765  27.934  1.00  0.00    +0.000 C 
ATOM     46  F3  UNL A   1      16.827   2.244  28.891  1.00  0.00    +0.000 F 
ATOM     47  C37 UNL A   1      14.775   2.321  27.739  1.00  0.00    +0.000 C 
ATOM     48  F4  UNL A   1      14.378   3.360  28.487  1.00  0.00    +0.000 F 
ATOM     49  C38 UNL A   1      13.883   1.753  26.829  1.00  0.00    +0.000 C 
ATOM     50  F5  UNL A   1      12.658   2.287  26.842  1.00  0.00    +0.000 F 
ENDBRANCH   39   40
BRANCH   56   57
ATOM     65  F9  UNL A   1       5.604  -2.951  29.196  1.00  0.00    +0.000 F 
ATOM     66  C49 UNL A   1       7.146  -1.551  28.080  1.00  0.00    +0.000 C 
ATOM     67  F10 UNL A   1       7.771  -1.341  29.249  1.00  0.00    +0.000 F 
ATOM     57  C44 UNL A   1       7.651  -0.980  26.904  1.00  0.00    +0.000 C 
ATOM     58  C45 UNL A   1       6.982  -1.276  25.703  1.00  0.00    +0.000 C 
ATOM     59  F6  UNL A   1       7.454  -0.838  24.529  1.00  0.00    +0.000 F 
ATOM     60  C46 UNL A   1       5.838  -2.073  25.692  1.00  0.00    +0.000 C 
ATOM     61  F7  UNL A   1       5.207  -2.329  24.536  1.00  0.00    +0.000 F 
ATOM     62  C47 UNL A   1       5.367  -2.631  26.870  1.00  0.00    +0.000 C 
ATOM     63  F8  UNL A   1       4.292  -3.430  26.855  1.00  0.00    +0.000 F 
ATOM     64  C48 UNL A   1       6.027  -2.378  28.061  1.00  0.00    +0.000 C 
ENDBRANCH   56   57
BRANCH   71   72
ATOM     72  C53 UNL A   1       6.900   5.034  25.215  1.00  0.00    +0.000 C 
ATOM     73  C54 UNL A   1       5.923   5.405  26.155  1.00  0.00    +0.000 C 
ATOM     74  F11 UNL A   1       5.245   4.464  26.828  1.00  0.00    +0.000 F 
ATOM     75  C55 UNL A   1       5.683   6.746  26.475  1.00  0.00    +0.000 C 
ATOM     76  F12 UNL A   1       4.793   7.058  27.426  1.00  0.00    +0.000 F 
ATOM     77  C56 UNL A   1       6.409   7.752  25.859  1.00  0.00    +0.000 C 
ATOM     78  F13 UNL A   1       6.231   9.032  26.216  1.00  0.00    +0.000 F 
ATOM     79  C57 UNL A   1       7.354   7.421  24.904  1.00  0.00    +0.000 C 
ATOM     80  F14 UNL A   1       8.089   8.384  24.330  1.00  0.00    +0.000 F 
ATOM     81  C58 UNL A   1       7.595   6.084  24.585  1.00  0.00    +0.000 C 
ATOM     82  F15 UNL A   1       8.589   5.827  23.724  1.00  0.00    +0.000 F 
ENDBRANCH   71   72
TORSDOF 18
ENDMDL
MODEL 7
REMARK VINA RESULT:     -10.1      3.052      8.371
ROOT
ATOM    129  H36 UNL A   1      43.604  24.013  30.127  1.00  0.00    +0.000 H 
ATOM    130  H37 UNL A   1      44.681  25.840  31.591  1.00  0.00    +0.000 H 
ATOM    131  H38 UNL A   1      39.747  27.704  34.306  1.00  0.00    +0.000 H 
ATOM    132  H39 UNL A   1      38.672  27.252  32.003  1.00  0.00    +0.000 H 
ATOM     35  C29 UNL A   1      40.099  28.548  29.864  1.00  0.00    +0.000 C 
ATOM     36  C30 UNL A   1      40.492  28.408  31.290  1.00  0.00    +0.000 C 
ATOM     37  N5  UNL A   1      41.511  28.941  31.879  1.00  0.00    +0.000 N 
ATOM     38  C31 UNL A   1      41.477  28.473  33.190  1.00  0.00    +0.000 C 
ATOM     39  C32 UNL A   1      42.632  28.320  33.896  1.00  0.00    +0.000 C 
ATOM     51  C39 UNL A   1      43.713  29.031  33.256  1.00  0.00    +0.000 C 
ATOM     52  C40 UNL A   1      43.998  30.350  32.970  1.00  0.00    +0.000 C 
ATOM     53  C41 UNL A   1      44.678  30.323  31.714  1.00  0.00    +0.000 C 
ATOM     54  C42 UNL A   1      44.839  28.992  31.329  1.00  0.00    +0.000 C 
ATOM     55  N6  UNL A   1      44.531  28.279  32.453  1.00  0.00    +0.000 N 
ATOM     56  C43 UNL A   1      45.123  28.369  30.054  1.00  0.00    +0.000 C 
ATOM     68  C50 UNL A   1      44.931  27.049  29.762  1.00  0.00    +0.000 C 
ATOM     69  N7  UNL A   1      44.729  26.647  28.451  1.00  0.00    +0.000 N 
ATOM     70  C51 UNL A   1      43.976  25.585  28.545  1.00  0.00    +0.000 C 
ATOM     71  C52 UNL A   1      42.878  25.278  27.600  1.00  0.00    +0.000 C 
ATOM     83  C59 UNL A   1      41.939  26.240  27.777  1.00  0.00    +0.000 C 
ATOM     84  C60 UNL A   1      40.877  26.666  26.895  1.00  0.00    +0.000 C 
ATOM     85  C61 UNL A   1      40.223  27.684  27.487  1.00  0.00    +0.000 C 
ATOM     86  C62 UNL A   1      40.694  27.850  28.868  1.00  0.00    +0.000 C 
ATOM     87  N8  UNL A   1      41.800  27.033  28.937  1.00  0.00    +0.000 N 
ATOM     88  C63 UNL A   1      43.958  24.941  29.845  1.00  0.00    +0.000 C 
ATOM     89  C64 UNL A   1      44.534  25.902  30.573  1.00  0.00    +0.000 C 
ATOM     90  C65 UNL A   1      40.164  27.923  33.387  1.00  0.00    +0.000 C 
ATOM     91  C66 UNL A   1      39.559  27.737  32.211  1.00  0.00    +0.000 C 
ATOM    123  H30 UNL A   1      43.767  31.179  33.541  1.00  0.00    +0.000 H 
ATOM    124  H31 UNL A   1      44.996  31.150  31.183  1.00  0.00    +0.000 H 
ATOM    125  H32 UNL A   1      44.846  27.368  32.654  1.00  0.00    +0.000 H 
ATOM    126  H33 UNL A   1      40.658  26.261  25.972  1.00  0.00    +0.000 H 
ATOM    127  H34 UNL A   1      39.496  28.263  27.036  1.00  0.00    +0.000 H 
ATOM    128  H35 UNL A   1      42.419  27.005  29.702  1.00  0.00    +0.000 H 
ENDROOT
BRANCH   35   34
ATOM     33  C27 UNL A   1      37.603  28.715  29.825  1.00  0.00    +0.000 C 
ATOM     34  C28 UNL A   1      38.868  29.302  29.659  1.00  0.00    +0.000 C 
ATOM    133  H40 UNL A   1      39.921  30.984  28.952  1.00  0.00    +0.000 H 
ATOM    134  H41 UNL A   1      37.951  32.387  28.906  1.00  0.00    +0.000 H 
ATOM    121  H28 UNL A   1      35.529  29.010  29.530  1.00  0.00    +0.000 H 
ATOM    122  H29 UNL A   1      37.516  27.760  30.204  1.00  0.00    +0.000 H 
ATOM     92  C67 UNL A   1      38.992  30.601  29.185  1.00  0.00    +0.000 C 
ATOM     93  C68 UNL A   1      37.870  31.365  29.028  1.00  0.00    +0.000 C 
ATOM     31  C25 UNL A   1      36.618  30.760  29.034  1.00  0.00    +0.000 C 
ATOM     32  C26 UNL A   1      36.465  29.439  29.471  1.00  0.00    +0.000 C 
BRANCH   31   29
ATOM     29  C24 UNL A   1      35.488  31.548  28.514  1.00  0.00    +0.000 C 
ATOM     30  O2  UNL A   1      35.457  32.766  28.671  1.00  0.00    +0.000 O 
BRANCH   29   28
ATOM     28  N4  UNL A   1      34.470  30.887  27.847  1.00  0.00    +0.000 N 
ATOM    120  H27 UNL A   1      34.511  29.904  27.835  1.00  0.00    +0.000 H 
BRANCH   28   27
ATOM     27  C23 UNL A   1      33.338  31.512  27.155  1.00  0.00    +0.000 C 
ATOM    118  H25 UNL A   1      33.060  32.397  27.690  1.00  0.00    +0.000 H 
ATOM    119  H26 UNL A   1      33.655  31.731  26.157  1.00  0.00    +0.000 H 
BRANCH   27   26
ATOM     26  C22 UNL A   1      32.122  30.603  27.057  1.00  0.00    +0.000 C 
ATOM    116  H23 UNL A   1      32.340  29.698  27.581  1.00  0.00    +0.000 H 
ATOM    117  H24 UNL A   1      31.303  31.148  27.478  1.00  0.00    +0.000 H 
BRANCH   26   25
ATOM     25  C21 UNL A   1      31.709  30.240  25.624  1.00  0.00    +0.000 C 
ATOM    114  H21 UNL A   1      30.765  29.740  25.677  1.00  0.00    +0.000 H 
ATOM    115  H22 UNL A   1      31.698  31.169  25.093  1.00  0.00    +0.000 H 
BRANCH   25   24
ATOM    113  H20 UNL A   1      32.663  28.400  25.340  1.00  0.00    +0.000 H 
ATOM    112  H19 UNL A   1      33.622  29.825  24.804  1.00  0.00    +0.000 H 
ATOM     24  C20 UNL A   1      32.668  29.340  24.830  1.00  0.00    +0.000 C 
BRANCH   24   23
ATOM    111  H18 UNL A   1      32.367  27.963  23.270  1.00  0.00    +0.000 H 
ATOM    110  H17 UNL A   1      32.906  29.579  22.732  1.00  0.00    +0.000 H 
ATOM     23  C19 UNL A   1      32.267  29.022  23.386  1.00  0.00    +0.000 C 
BRANCH   23   22
ATOM    108  H15 UNL A   1      30.372  29.845  23.879  1.00  0.00    +0.000 H 
ATOM    109  H16 UNL A   1      30.838  29.995  22.177  1.00  0.00    +0.000 H 
ATOM     22  C18 UNL A   1      30.822  29.360  23.038  1.00  0.00    +0.000 C 
BRANCH   22   21
ATOM    107  H14 UNL A   1      29.443  28.214  21.918  1.00  0.00    +0.000 H 
ATOM     21  N3  UNL A   1      30.037  28.185  22.703  1.00  0.00    +0.000 N 
BRANCH   21    2
ATOM      1  O1  UNL A   1      29.971  27.030  24.679  1.00  0.00    +0.000 O 
ATOM      2  C1  UNL A   1      30.103  27.029  23.456  1.00  0.00    +0.000 C 
BRANCH    2    3
ATOM      3  C2  UNL A   1      30.439  25.755  22.708  1.00  0.00    +0.000 C 
ATOM     94  H1  UNL A   1      30.116  25.872  21.695  1.00  0.00    +0.000 H 
ATOM     95  H2  UNL A   1      29.938  24.966  23.228  1.00  0.00    +0.000 H 
BRANCH    3    4
ATOM      4  N1  UNL A   1      31.849  25.397  22.694  1.00  0.00    +0.000 N 
ATOM      5  C3  UNL A   1      32.752  25.910  21.799  1.00  0.00    +0.000 C 
ATOM      6  N2  UNL A   1      33.975  25.517  22.058  1.00  0.00    +0.000 N 
ATOM      7  C4  UNL A   1      33.866  24.717  23.167  1.00  0.00    +0.000 C 
ATOM     14  C11 UNL A   1      32.550  24.623  23.602  1.00  0.00    +0.000 C 
ATOM     96  H3  UNL A   1      32.498  26.532  21.016  1.00  0.00    +0.000 H 
BRANCH    7    8
ATOM     97  H4  UNL A   1      34.899  25.262  25.563  1.00  0.00    +0.000 H 
ATOM     98  H5  UNL A   1      36.694  24.098  26.708  1.00  0.00    +0.000 H 
ATOM     99  H6  UNL A   1      37.852  22.269  25.612  1.00  0.00    +0.000 H 
ATOM    100  H7  UNL A   1      37.233  21.616  23.359  1.00  0.00    +0.000 H 
ATOM    101  H8  UNL A   1      35.428  22.766  22.219  1.00  0.00    +0.000 H 
ATOM      8  C5  UNL A   1      35.002  24.087  23.812  1.00  0.00    +0.000 C 
ATOM      9  C6  UNL A   1      35.384  24.480  25.099  1.00  0.00    +0.000 C 
ATOM     10  C7  UNL A   1      36.421  23.814  25.755  1.00  0.00    +0.000 C 
ATOM     11  C8  UNL A   1      37.090  22.765  25.123  1.00  0.00    +0.000 C 
ATOM     12  C9  UNL A   1      36.730  22.386  23.830  1.00  0.00    +0.000 C 
ATOM     13  C10 UNL A   1      35.690  23.046  23.176  1.00  0.00    +0.000 C 
ENDBRANCH    7    8
BRANCH   14   15
ATOM    102  H9  UNL A   1      31.622  22.119  23.751  1.00  0.00    +0.000 H 
ATOM    103  H10 UNL A   1      30.561  21.024  25.638  1.00  0.00    +0.000 H 
ATOM    104  H11 UNL A   1      30.367  22.177  27.763  1.00  0.00    +0.000 H 
ATOM    105  H12 UNL A   1      31.169  24.455  27.980  1.00  0.00    +0.000 H 
ATOM    106  H13 UNL A   1      32.134  25.583  26.067  1.00  0.00    +0.000 H 
ATOM     15  C12 UNL A   1      32.000  23.932  24.766  1.00  0.00    +0.000 C 
ATOM     16  C13 UNL A   1      31.525  22.620  24.648  1.00  0.00    +0.000 C 
ATOM     17  C14 UNL A   1      30.919  21.987  25.737  1.00  0.00    +0.000 C 
ATOM     18  C15 UNL A   1      30.796  22.653  26.955  1.00  0.00    +0.000 C 
ATOM     19  C16 UNL A   1      31.255  23.961  27.078  1.00  0.00    +0.000 C 
ATOM     20  C17 UNL A   1      31.829  24.601  25.981  1.00  0.00    +0.000 C 
ENDBRANCH   14   15
ENDBRANCH    3    4
ENDBRANCH    2    3
ENDBRANCH   21    2
ENDBRANCH   22   21
ENDBRANCH   23   22
ENDBRANCH   24   23
ENDBRANCH   25   24
ENDBRANCH   26   25
ENDBRANCH   27   26
ENDBRANCH   28   27
ENDBRANCH   29   28
ENDBRANCH   31   29
ENDBRANCH   35   34
BRANCH   39   40
ATOM     40  C33 UNL A   1      42.906  27.185  34.866  1.00  0.00    +0.000 C 
ATOM     41  C34 UNL A   1      43.148  27.499  36.221  1.00  0.00    +0.000 C 
ATOM     42  F1  UNL A   1      42.865  28.718  36.701  1.00  0.00    +0.000 F 
ATOM     43  C35 UNL A   1      43.781  26.604  37.089  1.00  0.00    +0.000 C 
ATOM     44  F2  UNL A   1      44.113  26.997  38.326  1.00  0.00    +0.000 F 
ATOM     45  C36 UNL A   1      44.136  25.340  36.657  1.00  0.00    +0.000 C 
ATOM     46  F3  UNL A   1      44.801  24.503  37.465  1.00  0.00    +0.000 F 
ATOM     47  C37 UNL A   1      43.843  24.966  35.364  1.00  0.00    +0.000 C 
ATOM     48  F4  UNL A   1      44.197  23.751  34.920  1.00  0.00    +0.000 F 
ATOM     49  C38 UNL A   1      43.260  25.874  34.480  1.00  0.00    +0.000 C 
ATOM     50  F5  UNL A   1      43.166  25.443  33.219  1.00  0.00    +0.000 F 
ENDBRANCH   39   40
BRANCH   56   57
ATOM     65  F9  UNL A   1      43.601  31.295  26.504  1.00  0.00    +0.000 F 
ATOM     66  C49 UNL A   1      44.417  29.948  28.265  1.00  0.00    +0.000 C 
ATOM     67  F10 UNL A   1      43.159  29.800  28.708  1.00  0.00    +0.000 F 
ATOM     57  C44 UNL A   1      45.470  29.288  28.914  1.00  0.00    +0.000 C 
ATOM     58  C45 UNL A   1      46.759  29.443  28.376  1.00  0.00    +0.000 C 
ATOM     59  F6  UNL A   1      47.802  28.777  28.888  1.00  0.00    +0.000 F 
ATOM     60  C46 UNL A   1      46.984  30.253  27.262  1.00  0.00    +0.000 C 
ATOM     61  F7  UNL A   1      48.226  30.398  26.775  1.00  0.00    +0.000 F 
ATOM     62  C47 UNL A   1      45.922  30.885  26.636  1.00  0.00    +0.000 C 
ATOM     63  F8  UNL A   1      46.131  31.631  25.543  1.00  0.00    +0.000 F 
ATOM     64  C48 UNL A   1      44.638  30.724  27.132  1.00  0.00    +0.000 C 
ENDBRANCH   56   57
BRANCH   71   72
ATOM     72  C53 UNL A   1      42.767  23.972  26.912  1.00  0.00    +0.000 C 
ATOM     73  C54 UNL A   1      43.436  23.733  25.699  1.00  0.00    +0.000 C 
ATOM     74  F11 UNL A   1      43.984  24.752  25.021  1.00  0.00    +0.000 F 
ATOM     75  C55 UNL A   1      43.623  22.437  25.206  1.00  0.00    +0.000 C 
ATOM     76  F12 UNL A   1      44.327  22.243  24.082  1.00  0.00    +0.000 F 
ATOM     77  C56 UNL A   1      43.138  21.346  25.907  1.00  0.00    +0.000 C 
ATOM     78  F13 UNL A   1      43.377  20.100  25.473  1.00  0.00    +0.000 F 
ATOM     79  C57 UNL A   1      42.444  21.549  27.086  1.00  0.00    +0.000 C 
ATOM     80  F14 UNL A   1      42.004  20.498  27.793  1.00  0.00    +0.000 F 
ATOM     81  C58 UNL A   1      42.259  22.842  27.580  1.00  0.00    +0.000 C 
ATOM     82  F15 UNL A   1      41.663  22.964  28.775  1.00  0.00    +0.000 F 
ENDBRANCH   71   72
TORSDOF 18
ENDMDL
MODEL 8
REMARK VINA RESULT:     -10.1      3.988      7.785
ROOT
ATOM    129  H36 UNL A   1      39.485  33.267  30.394  1.00  0.00    +0.000 H 
ATOM    130  H37 UNL A   1      42.036  33.037  30.683  1.00  0.00    +0.000 H 
ATOM    131  H38 UNL A   1      43.107  29.817  25.818  1.00  0.00    +0.000 H 
ATOM    132  H39 UNL A   1      40.843  28.727  26.408  1.00  0.00    +0.000 H 
ATOM     35  C29 UNL A   1      40.754  27.814  29.138  1.00  0.00    +0.000 C 
ATOM     36  C30 UNL A   1      41.789  28.646  28.471  1.00  0.00    +0.000 C 
ATOM     37  N5  UNL A   1      42.919  29.036  28.962  1.00  0.00    +0.000 N 
ATOM     38  C31 UNL A   1      43.505  29.829  27.980  1.00  0.00    +0.000 C 
ATOM     39  C32 UNL A   1      44.340  30.848  28.326  1.00  0.00    +0.000 C 
ATOM     51  C39 UNL A   1      44.771  30.705  29.696  1.00  0.00    +0.000 C 
ATOM     52  C40 UNL A   1      45.508  29.784  30.411  1.00  0.00    +0.000 C 
ATOM     53  C41 UNL A   1      44.905  29.744  31.705  1.00  0.00    +0.000 C 
ATOM     54  C42 UNL A   1      43.879  30.689  31.742  1.00  0.00    +0.000 C 
ATOM     55  N6  UNL A   1      44.078  31.443  30.620  1.00  0.00    +0.000 N 
ATOM     56  C43 UNL A   1      42.738  30.862  32.615  1.00  0.00    +0.000 C 
ATOM     68  C50 UNL A   1      41.643  31.631  32.338  1.00  0.00    +0.000 C 
ATOM     69  N7  UNL A   1      40.424  31.351  32.936  1.00  0.00    +0.000 N 
ATOM     70  C51 UNL A   1      39.535  31.748  32.068  1.00  0.00    +0.000 C 
ATOM     71  C52 UNL A   1      38.272  31.019  31.804  1.00  0.00    +0.000 C 
ATOM     83  C59 UNL A   1      38.622  29.834  31.246  1.00  0.00    +0.000 C 
ATOM     84  C60 UNL A   1      37.874  28.603  31.148  1.00  0.00    +0.000 C 
ATOM     85  C61 UNL A   1      38.652  27.684  30.543  1.00  0.00    +0.000 C 
ATOM     86  C62 UNL A   1      39.877  28.317  30.038  1.00  0.00    +0.000 C 
ATOM     87  N8  UNL A   1      39.849  29.576  30.594  1.00  0.00    +0.000 N 
ATOM     88  C63 UNL A   1      40.009  32.677  31.060  1.00  0.00    +0.000 C 
ATOM     89  C64 UNL A   1      41.325  32.547  31.246  1.00  0.00    +0.000 C 
ATOM     90  C65 UNL A   1      42.783  29.564  26.765  1.00  0.00    +0.000 C 
ATOM     91  C66 UNL A   1      41.632  28.942  27.037  1.00  0.00    +0.000 C 
ATOM    123  H30 UNL A   1      46.320  29.239  30.081  1.00  0.00    +0.000 H 
ATOM    124  H31 UNL A   1      45.181  29.121  32.481  1.00  0.00    +0.000 H 
ATOM    125  H32 UNL A   1      43.771  32.371  30.496  1.00  0.00    +0.000 H 
ATOM    126  H33 UNL A   1      36.909  28.453  31.483  1.00  0.00    +0.000 H 
ATOM    127  H34 UNL A   1      38.421  26.682  30.449  1.00  0.00    +0.000 H 
ATOM    128  H35 UNL A   1      40.593  30.219  30.544  1.00  0.00    +0.000 H 
ENDROOT
BRANCH   35   34
ATOM     33  C27 UNL A   1      41.507  25.446  28.841  1.00  0.00    +0.000 C 
ATOM     34  C28 UNL A   1      40.602  26.483  28.562  1.00  0.00    +0.000 C 
ATOM    133  H40 UNL A   1      38.996  27.104  27.348  1.00  0.00    +0.000 H 
ATOM    134  H41 UNL A   1      38.485  24.857  26.612  1.00  0.00    +0.000 H 
ATOM    121  H28 UNL A   1      42.083  23.486  28.294  1.00  0.00    +0.000 H 
ATOM    122  H29 UNL A   1      42.245  25.574  29.551  1.00  0.00    +0.000 H 
ATOM     92  C67 UNL A   1      39.582  26.306  27.637  1.00  0.00    +0.000 C 
ATOM     93  C68 UNL A   1      39.365  25.063  27.111  1.00  0.00    +0.000 C 
ATOM     31  C25 UNL A   1      40.335  24.077  27.251  1.00  0.00    +0.000 C 
ATOM     32  C26 UNL A   1      41.396  24.241  28.148  1.00  0.00    +0.000 C 
BRANCH   31   29
ATOM     29  C24 UNL A   1      40.222  22.894  26.381  1.00  0.00    +0.000 C 
ATOM     30  O2  UNL A   1      39.140  22.331  26.239  1.00  0.00    +0.000 O 
BRANCH   29   28
ATOM     28  N4  UNL A   1      41.356  22.439  25.730  1.00  0.00    +0.000 N 
ATOM    120  H27 UNL A   1      41.552  22.833  24.849  1.00  0.00    +0.000 H 
BRANCH   28   27
ATOM     27  C23 UNL A   1      42.293  21.426  26.226  1.00  0.00    +0.000 C 
ATOM    118  H25 UNL A   1      42.227  21.398  27.294  1.00  0.00    +0.000 H 
ATOM    119  H26 UNL A   1      42.017  20.493  25.783  1.00  0.00    +0.000 H 
BRANCH   27   26
ATOM     26  C22 UNL A   1      43.737  21.706  25.836  1.00  0.00    +0.000 C 
ATOM    116  H23 UNL A   1      44.363  21.424  26.655  1.00  0.00    +0.000 H 
ATOM    117  H24 UNL A   1      43.925  21.140  24.947  1.00  0.00    +0.000 H 
BRANCH   26   25
ATOM     25  C21 UNL A   1      44.034  23.171  25.488  1.00  0.00    +0.000 C 
ATOM    114  H21 UNL A   1      43.189  23.553  24.954  1.00  0.00    +0.000 H 
ATOM    115  H22 UNL A   1      44.226  23.646  26.427  1.00  0.00    +0.000 H 
BRANCH   25   24
ATOM    113  H20 UNL A   1      45.052  24.317  24.064  1.00  0.00    +0.000 H 
ATOM    112  H19 UNL A   1      45.479  22.569  24.056  1.00  0.00    +0.000 H 
ATOM     24  C20 UNL A   1      45.284  23.445  24.639  1.00  0.00    +0.000 C 
BRANCH   24   23
ATOM    111  H18 UNL A   1      47.033  22.861  25.648  1.00  0.00    +0.000 H 
ATOM    110  H17 UNL A   1      46.294  24.365  26.267  1.00  0.00    +0.000 H 
ATOM     23  C19 UNL A   1      46.566  23.791  25.404  1.00  0.00    +0.000 C 
BRANCH   23   22
ATOM    108  H15 UNL A   1      48.473  24.702  25.195  1.00  0.00    +0.000 H 
ATOM    109  H16 UNL A   1      47.781  24.054  23.700  1.00  0.00    +0.000 H 
ATOM     22  C18 UNL A   1      47.587  24.591  24.605  1.00  0.00    +0.000 C 
BRANCH   22   21
ATOM    107  H14 UNL A   1      46.221  25.995  23.809  1.00  0.00    +0.000 H 
ATOM     21  N3  UNL A   1      47.104  25.910  24.238  1.00  0.00    +0.000 N 
BRANCH   21    2
ATOM      1  O1  UNL A   1      48.693  27.462  23.684  1.00  0.00    +0.000 O 
ATOM      2  C1  UNL A   1      47.848  27.049  24.477  1.00  0.00    +0.000 C 
BRANCH    2    3
ATOM      3  C2  UNL A   1      47.639  27.723  25.816  1.00  0.00    +0.000 C 
ATOM     94  H1  UNL A   1      47.419  28.755  25.636  1.00  0.00    +0.000 H 
ATOM     95  H2  UNL A   1      48.542  27.570  26.370  1.00  0.00    +0.000 H 
BRANCH    3    4
ATOM      4  N1  UNL A   1      46.569  27.169  26.631  1.00  0.00    +0.000 N 
ATOM      5  C3  UNL A   1      45.251  27.168  26.251  1.00  0.00    +0.000 C 
ATOM      6  N2  UNL A   1      44.497  26.517  27.104  1.00  0.00    +0.000 N 
ATOM      7  C4  UNL A   1      45.357  26.075  28.076  1.00  0.00    +0.000 C 
ATOM     14  C11 UNL A   1      46.667  26.456  27.812  1.00  0.00    +0.000 C 
ATOM     96  H3  UNL A   1      44.897  27.625  25.397  1.00  0.00    +0.000 H 
BRANCH    7    8
ATOM     97  H4  UNL A   1      44.920  23.447  28.161  1.00  0.00    +0.000 H 
ATOM     98  H5  UNL A   1      44.375  22.092  30.100  1.00  0.00    +0.000 H 
ATOM     99  H6  UNL A   1      44.048  23.141  32.264  1.00  0.00    +0.000 H 
ATOM    100  H7  UNL A   1      44.243  25.549  32.489  1.00  0.00    +0.000 H 
ATOM    101  H8  UNL A   1      44.806  26.903  30.558  1.00  0.00    +0.000 H 
ATOM      8  C5  UNL A   1      44.935  25.279  29.213  1.00  0.00    +0.000 C 
ATOM      9  C6  UNL A   1      44.790  23.894  29.082  1.00  0.00    +0.000 C 
ATOM     10  C7  UNL A   1      44.470  23.115  30.196  1.00  0.00    +0.000 C 
ATOM     11  C8  UNL A   1      44.278  23.718  31.440  1.00  0.00    +0.000 C 
ATOM     12  C9  UNL A   1      44.396  25.101  31.570  1.00  0.00    +0.000 C 
ATOM     13  C10 UNL A   1      44.722  25.879  30.459  1.00  0.00    +0.000 C 
ENDBRANCH    7    8
BRANCH   14   15
ATOM    102  H9  UNL A   1      47.619  27.650  30.008  1.00  0.00    +0.000 H 
ATOM    103  H10 UNL A   1      49.730  27.252  31.134  1.00  0.00    +0.000 H 
ATOM    104  H11 UNL A   1      51.208  25.491  30.363  1.00  0.00    +0.000 H 
ATOM    105  H12 UNL A   1      50.607  24.173  28.418  1.00  0.00    +0.000 H 
ATOM    106  H13 UNL A   1      48.548  24.640  27.233  1.00  0.00    +0.000 H 
ATOM     15  C12 UNL A   1      47.892  26.150  28.547  1.00  0.00    +0.000 C 
ATOM     16  C13 UNL A   1      48.252  26.912  29.665  1.00  0.00    +0.000 C 
ATOM     17  C14 UNL A   1      49.467  26.679  30.317  1.00  0.00    +0.000 C 
ATOM     18  C15 UNL A   1      50.322  25.675  29.869  1.00  0.00    +0.000 C 
ATOM     19  C16 UNL A   1      49.978  24.920  28.751  1.00  0.00    +0.000 C 
ATOM     20  C17 UNL A   1      48.781  25.177  28.083  1.00  0.00    +0.000 C 
ENDBRANCH   14   15
ENDBRANCH    3    4
ENDBRANCH    2    3
ENDBRANCH   21    2
ENDBRANCH   22   21
ENDBRANCH   23   22
ENDBRANCH   24   23
ENDBRANCH   25   24
ENDBRANCH   26   25
ENDBRANCH   27   26
ENDBRANCH   28   27
ENDBRANCH   29   28
ENDBRANCH   31   29
ENDBRANCH   35   34
BRANCH   39   40
ATOM     40  C33 UNL A   1      44.401  32.191  27.621  1.00  0.00    +0.000 C 
ATOM     41  C34 UNL A   1      45.503  32.464  26.781  1.00  0.00    +0.000 C 
ATOM     42  F1  UNL A   1      46.321  31.478  26.386  1.00  0.00    +0.000 F 
ATOM     43  C35 UNL A   1      45.850  33.767  26.412  1.00  0.00    +0.000 C 
ATOM     44  F2  UNL A   1      46.982  33.987  25.729  1.00  0.00    +0.000 F 
ATOM     45  C36 UNL A   1      45.075  34.839  26.812  1.00  0.00    +0.000 C 
ATOM     46  F3  UNL A   1      45.441  36.094  26.516  1.00  0.00    +0.000 F 
ATOM     47  C37 UNL A   1      43.945  34.608  27.564  1.00  0.00    +0.000 C 
ATOM     48  F4  UNL A   1      43.191  35.637  27.978  1.00  0.00    +0.000 F 
ATOM     49  C38 UNL A   1      43.624  33.315  27.978  1.00  0.00    +0.000 C 
ATOM     50  F5  UNL A   1      42.595  33.240  28.827  1.00  0.00    +0.000 F 
ENDBRANCH   39   40
BRANCH   56   57
ATOM     65  F9  UNL A   1      43.861  30.139  37.272  1.00  0.00    +0.000 F 
ATOM     66  C49 UNL A   1      43.209  30.458  35.025  1.00  0.00    +0.000 C 
ATOM     67  F10 UNL A   1      43.700  31.706  35.080  1.00  0.00    +0.000 F 
ATOM     57  C44 UNL A   1      42.670  29.971  33.825  1.00  0.00    +0.000 C 
ATOM     58  C45 UNL A   1      42.215  28.640  33.815  1.00  0.00    +0.000 C 
ATOM     59  F6  UNL A   1      41.768  28.076  32.686  1.00  0.00    +0.000 F 
ATOM     60  C46 UNL A   1      42.263  27.852  34.965  1.00  0.00    +0.000 C 
ATOM     61  F7  UNL A   1      41.808  26.590  34.936  1.00  0.00    +0.000 F 
ATOM     62  C47 UNL A   1      42.809  28.359  36.134  1.00  0.00    +0.000 C 
ATOM     63  F8  UNL A   1      42.893  27.590  37.228  1.00  0.00    +0.000 F 
ATOM     64  C48 UNL A   1      43.291  29.658  36.159  1.00  0.00    +0.000 C 
ENDBRANCH   56   57
BRANCH   71   72
ATOM     72  C53 UNL A   1      36.950  31.684  31.845  1.00  0.00    +0.000 C 
ATOM     73  C54 UNL A   1      36.388  32.106  33.062  1.00  0.00    +0.000 C 
ATOM     74  F11 UNL A   1      36.919  31.698  34.225  1.00  0.00    +0.000 F 
ATOM     75  C55 UNL A   1      35.325  33.014  33.105  1.00  0.00    +0.000 C 
ATOM     76  F12 UNL A   1      34.862  33.447  34.286  1.00  0.00    +0.000 F 
ATOM     77  C56 UNL A   1      34.790  33.519  31.932  1.00  0.00    +0.000 C 
ATOM     78  F13 UNL A   1      33.819  34.443  31.973  1.00  0.00    +0.000 F 
ATOM     79  C57 UNL A   1      35.296  33.097  30.716  1.00  0.00    +0.000 C 
ATOM     80  F14 UNL A   1      34.811  33.608  29.576  1.00  0.00    +0.000 F 
ATOM     81  C58 UNL A   1      36.358  32.192  30.672  1.00  0.00    +0.000 C 
ATOM     82  F15 UNL A   1      36.866  31.898  29.467  1.00  0.00    +0.000 F 
ENDBRANCH   71   72
TORSDOF 18
ENDMDL
MODEL 9
REMARK VINA RESULT:     -10.1     26.106     33.119
ROOT
ATOM    129  H36 UNL A   1      26.442  15.100   5.395  1.00  0.00    +0.000 H 
ATOM    130  H37 UNL A   1      24.510  13.783   6.479  1.00  0.00    +0.000 H 
ATOM    131  H38 UNL A   1      20.292  15.159   2.542  1.00  0.00    +0.000 H 
ATOM    132  H39 UNL A   1      21.489  17.446   2.513  1.00  0.00    +0.000 H 
ATOM     35  C29 UNL A   1      21.842  18.522   5.161  1.00  0.00    +0.000 C 
ATOM     36  C30 UNL A   1      21.374  17.169   4.764  1.00  0.00    +0.000 C 
ATOM     37  N5  UNL A   1      20.925  16.236   5.538  1.00  0.00    +0.000 N 
ATOM     38  C31 UNL A   1      20.668  15.148   4.708  1.00  0.00    +0.000 C 
ATOM     39  C32 UNL A   1      20.770  13.877   5.188  1.00  0.00    +0.000 C 
ATOM     51  C39 UNL A   1      20.787  13.882   6.631  1.00  0.00    +0.000 C 
ATOM     52  C40 UNL A   1      19.909  14.248   7.629  1.00  0.00    +0.000 C 
ATOM     53  C41 UNL A   1      20.727  14.783   8.671  1.00  0.00    +0.000 C 
ATOM     54  C42 UNL A   1      22.063  14.654   8.292  1.00  0.00    +0.000 C 
ATOM     55  N6  UNL A   1      22.025  13.814   7.215  1.00  0.00    +0.000 N 
ATOM     56  C43 UNL A   1      23.276  15.298   8.747  1.00  0.00    +0.000 C 
ATOM     68  C50 UNL A   1      24.462  15.315   8.068  1.00  0.00    +0.000 C 
ATOM     69  N7  UNL A   1      25.376  16.333   8.286  1.00  0.00    +0.000 N 
ATOM     70  C51 UNL A   1      26.005  16.458   7.149  1.00  0.00    +0.000 C 
ATOM     71  C52 UNL A   1      26.418  17.764   6.585  1.00  0.00    +0.000 C 
ATOM     83  C59 UNL A   1      25.276  18.432   6.287  1.00  0.00    +0.000 C 
ATOM     84  C60 UNL A   1      25.058  19.846   6.091  1.00  0.00    +0.000 C 
ATOM     85  C61 UNL A   1      23.746  20.040   5.854  1.00  0.00    +0.000 C 
ATOM     86  C62 UNL A   1      23.068  18.748   5.689  1.00  0.00    +0.000 C 
ATOM     87  N8  UNL A   1      24.016  17.828   6.077  1.00  0.00    +0.000 N 
ATOM     88  C63 UNL A   1      25.905  15.326   6.247  1.00  0.00    +0.000 C 
ATOM     89  C64 UNL A   1      24.912  14.660   6.843  1.00  0.00    +0.000 C 
ATOM     90  C65 UNL A   1      20.669  15.658   3.363  1.00  0.00    +0.000 C 
ATOM     91  C66 UNL A   1      21.228  16.871   3.329  1.00  0.00    +0.000 C 
ATOM    123  H30 UNL A   1      18.881  14.157   7.624  1.00  0.00    +0.000 H 
ATOM    124  H31 UNL A   1      20.386  15.196   9.554  1.00  0.00    +0.000 H 
ATOM    125  H32 UNL A   1      22.771  13.249   6.907  1.00  0.00    +0.000 H 
ATOM    126  H33 UNL A   1      25.782  20.580   6.125  1.00  0.00    +0.000 H 
ATOM    127  H34 UNL A   1      23.286  20.962   5.797  1.00  0.00    +0.000 H 
ATOM    128  H35 UNL A   1      23.838  16.867   6.193  1.00  0.00    +0.000 H 
ENDROOT
BRANCH   35   34
ATOM     33  C27 UNL A   1      21.450  20.629   3.869  1.00  0.00    +0.000 C 
ATOM     34  C28 UNL A   1      20.978  19.605   4.707  1.00  0.00    +0.000 C 
ATOM    133  H40 UNL A   1      19.389  18.959   5.930  1.00  0.00    +0.000 H 
ATOM    134  H41 UNL A   1      17.814  20.525   4.973  1.00  0.00    +0.000 H 
ATOM    121  H28 UNL A   1      20.966  22.507   3.025  1.00  0.00    +0.000 H 
ATOM    122  H29 UNL A   1      22.398  20.578   3.466  1.00  0.00    +0.000 H 
ATOM     92  C67 UNL A   1      19.690  19.648   5.223  1.00  0.00    +0.000 C 
ATOM     93  C68 UNL A   1      18.826  20.612   4.787  1.00  0.00    +0.000 C 
ATOM     31  C25 UNL A   1      19.316  21.712   4.091  1.00  0.00    +0.000 C 
ATOM     32  C26 UNL A   1      20.622  21.716   3.590  1.00  0.00    +0.000 C 
BRANCH   31   29
ATOM     29  C24 UNL A   1      18.423  22.875   3.958  1.00  0.00    +0.000 C 
ATOM     30  O2  UNL A   1      18.469  23.580   2.953  1.00  0.00    +0.000 O 
BRANCH   29   28
ATOM     28  N4  UNL A   1      17.535  23.149   4.984  1.00  0.00    +0.000 N 
ATOM    120  H27 UNL A   1      17.904  23.187   5.896  1.00  0.00    +0.000 H 
BRANCH   28   27
ATOM     27  C23 UNL A   1      16.095  23.389   4.842  1.00  0.00    +0.000 C 
ATOM    118  H25 UNL A   1      15.709  23.709   5.788  1.00  0.00    +0.000 H 
ATOM    119  H26 UNL A   1      15.969  24.135   4.086  1.00  0.00    +0.000 H 
BRANCH   27   26
ATOM     26  C22 UNL A   1      15.324  22.155   4.396  1.00  0.00    +0.000 C 
ATOM    116  H23 UNL A   1      15.815  21.294   4.796  1.00  0.00    +0.000 H 
ATOM    117  H24 UNL A   1      14.324  22.276   4.758  1.00  0.00    +0.000 H 
BRANCH   26   25
ATOM     25  C21 UNL A   1      15.217  21.983   2.875  1.00  0.00    +0.000 C 
ATOM    114  H21 UNL A   1      15.966  22.602   2.426  1.00  0.00    +0.000 H 
ATOM    115  H22 UNL A   1      15.339  20.934   2.705  1.00  0.00    +0.000 H 
BRANCH   25   24
ATOM    113  H20 UNL A   1      14.117  22.888   1.343  1.00  0.00    +0.000 H 
ATOM    112  H19 UNL A   1      13.300  22.889   2.946  1.00  0.00    +0.000 H 
ATOM     24  C20 UNL A   1      13.871  22.339   2.227  1.00  0.00    +0.000 C 
BRANCH   24   23
ATOM    111  H18 UNL A   1      12.270  21.576   1.099  1.00  0.00    +0.000 H 
ATOM    110  H17 UNL A   1      12.596  20.683   2.611  1.00  0.00    +0.000 H 
ATOM     23  C19 UNL A   1      13.012  21.163   1.750  1.00  0.00    +0.000 C 
BRANCH   23   22
ATOM    108  H15 UNL A   1      13.437  20.171  -0.080  1.00  0.00    +0.000 H 
ATOM    109  H16 UNL A   1      14.808  20.323   1.031  1.00  0.00    +0.000 H 
ATOM     22  C18 UNL A   1      13.763  20.115   0.938  1.00  0.00    +0.000 C 
BRANCH   22   21
ATOM    107  H14 UNL A   1      13.234  18.633   2.351  1.00  0.00    +0.000 H 
ATOM     21  N3  UNL A   1      13.538  18.764   1.424  1.00  0.00    +0.000 N 
BRANCH   21    2
ATOM      1  O1  UNL A   1      13.063  16.639   0.719  1.00  0.00    +0.000 O 
ATOM      2  C1  UNL A   1      13.740  17.660   0.619  1.00  0.00    +0.000 C 
BRANCH    2    3
ATOM      3  C2  UNL A   1      14.907  17.731  -0.344  1.00  0.00    +0.000 C 
ATOM     94  H1  UNL A   1      15.132  18.764  -0.514  1.00  0.00    +0.000 H 
ATOM     95  H2  UNL A   1      14.597  17.211  -1.225  1.00  0.00    +0.000 H 
BRANCH    3    4
ATOM      4  N1  UNL A   1      16.124  17.072   0.105  1.00  0.00    +0.000 N 
ATOM      5  C3  UNL A   1      16.933  17.569   1.095  1.00  0.00    +0.000 C 
ATOM      6  N2  UNL A   1      17.906  16.742   1.393  1.00  0.00    +0.000 N 
ATOM      7  C4  UNL A   1      17.723  15.663   0.566  1.00  0.00    +0.000 C 
ATOM     14  C11 UNL A   1      16.611  15.828  -0.251  1.00  0.00    +0.000 C 
ATOM     96  H3  UNL A   1      16.792  18.484   1.550  1.00  0.00    +0.000 H 
BRANCH    7    8
ATOM     97  H4  UNL A   1      19.916  15.212  -0.880  1.00  0.00    +0.000 H 
ATOM     98  H5  UNL A   1      21.432  13.322  -0.732  1.00  0.00    +0.000 H 
ATOM     99  H6  UNL A   1      20.956  11.498   0.796  1.00  0.00    +0.000 H 
ATOM    100  H7  UNL A   1      18.950  11.548   2.160  1.00  0.00    +0.000 H 
ATOM    101  H8  UNL A   1      17.443  13.442   2.027  1.00  0.00    +0.000 H 
ATOM      8  C5  UNL A   1      18.575  14.490   0.584  1.00  0.00    +0.000 C 
ATOM      9  C6  UNL A   1      19.716  14.442  -0.224  1.00  0.00    +0.000 C 
ATOM     10  C7  UNL A   1      20.585  13.351  -0.143  1.00  0.00    +0.000 C 
ATOM     11  C8  UNL A   1      20.309  12.299   0.732  1.00  0.00    +0.000 C 
ATOM     12  C9  UNL A   1      19.160  12.331   1.520  1.00  0.00    +0.000 C 
ATOM     13  C10 UNL A   1      18.295  13.422   1.445  1.00  0.00    +0.000 C 
ENDBRANCH    7    8
BRANCH   14   15
ATOM    102  H9  UNL A   1      16.603  16.032  -2.918  1.00  0.00    +0.000 H 
ATOM    103  H10 UNL A   1      15.495  14.595  -4.527  1.00  0.00    +0.000 H 
ATOM    104  H11 UNL A   1      14.317  12.611  -3.780  1.00  0.00    +0.000 H 
ATOM    105  H12 UNL A   1      14.186  12.103  -1.412  1.00  0.00    +0.000 H 
ATOM    106  H13 UNL A   1      15.204  13.594   0.201  1.00  0.00    +0.000 H 
ATOM     15  C12 UNL A   1      16.027  14.909  -1.225  1.00  0.00    +0.000 C 
ATOM     16  C13 UNL A   1      16.088  15.199  -2.593  1.00  0.00    +0.000 C 
ATOM     17  C14 UNL A   1      15.454  14.368  -3.521  1.00  0.00    +0.000 C 
ATOM     18  C15 UNL A   1      14.767  13.234  -3.092  1.00  0.00    +0.000 C 
ATOM     19  C16 UNL A   1      14.690  12.944  -1.733  1.00  0.00    +0.000 C 
ATOM     20  C17 UNL A   1      15.296  13.793  -0.808  1.00  0.00    +0.000 C 
ENDBRANCH   14   15
ENDBRANCH    3    4
ENDBRANCH    2    3
ENDBRANCH   21    2
ENDBRANCH   22   21
ENDBRANCH   23   22
ENDBRANCH   24   23
ENDBRANCH   25   24
ENDBRANCH   26   25
ENDBRANCH   27   26
ENDBRANCH   28   27
ENDBRANCH   29   28
ENDBRANCH   31   29
ENDBRANCH   35   34
BRANCH   39   40
ATOM     40  C33 UNL A   1      21.317  12.699   4.402  1.00  0.00    +0.000 C 
ATOM     41  C34 UNL A   1      20.638  11.463   4.477  1.00  0.00    +0.000 C 
ATOM     42  F1  UNL A   1      19.399  11.395   4.985  1.00  0.00    +0.000 F 
ATOM     43  C35 UNL A   1      21.251  10.257   4.128  1.00  0.00    +0.000 C 
ATOM     44  F2  UNL A   1      20.614   9.098   4.346  1.00  0.00    +0.000 F 
ATOM     45  C36 UNL A   1      22.540  10.243   3.631  1.00  0.00    +0.000 C 
ATOM     46  F3  UNL A   1      23.155   9.084   3.358  1.00  0.00    +0.000 F 
ATOM     47  C37 UNL A   1      23.209  11.435   3.465  1.00  0.00    +0.000 C 
ATOM     48  F4  UNL A   1      24.467  11.442   3.002  1.00  0.00    +0.000 F 
ATOM     49  C38 UNL A   1      22.620  12.636   3.861  1.00  0.00    +0.000 C 
ATOM     50  F5  UNL A   1      23.424  13.701   3.791  1.00  0.00    +0.000 F 
ENDBRANCH   39   40
BRANCH   56   57
ATOM     65  F9  UNL A   1      23.597  15.743  13.561  1.00  0.00    +0.000 F 
ATOM     66  C49 UNL A   1      23.500  15.621  11.204  1.00  0.00    +0.000 C 
ATOM     67  F10 UNL A   1      23.972  14.366  11.269  1.00  0.00    +0.000 F 
ATOM     57  C44 UNL A   1      23.161  16.177   9.962  1.00  0.00    +0.000 C 
ATOM     58  C45 UNL A   1      22.627  17.477   9.962  1.00  0.00    +0.000 C 
ATOM     59  F6  UNL A   1      22.200  18.043   8.826  1.00  0.00    +0.000 F 
ATOM     60  C46 UNL A   1      22.477  18.197  11.147  1.00  0.00    +0.000 C 
ATOM     61  F7  UNL A   1      21.980  19.443  11.121  1.00  0.00    +0.000 F 
ATOM     62  C47 UNL A   1      22.812  17.617  12.360  1.00  0.00    +0.000 C 
ATOM     63  F8  UNL A   1      22.632  18.292  13.503  1.00  0.00    +0.000 F 
ATOM     64  C48 UNL A   1      23.314  16.326  12.388  1.00  0.00    +0.000 C 
ENDBRANCH   56   57
BRANCH   71   72
ATOM     72  C53 UNL A   1      27.806  18.035   6.147  1.00  0.00    +0.000 C 
ATOM     73  C54 UNL A   1      28.850  18.155   7.080  1.00  0.00    +0.000 C 
ATOM     74  F11 UNL A   1      28.573  18.271   8.387  1.00  0.00    +0.000 F 
ATOM     75  C55 UNL A   1      30.192  18.077   6.694  1.00  0.00    +0.000 C 
ATOM     76  F12 UNL A   1      31.159  18.126   7.621  1.00  0.00    +0.000 F 
ATOM     77  C56 UNL A   1      30.528  17.885   5.364  1.00  0.00    +0.000 C 
ATOM     78  F13 UNL A   1      31.811  17.740   5.003  1.00  0.00    +0.000 F 
ATOM     79  C57 UNL A   1      29.524  17.799   4.416  1.00  0.00    +0.000 C 
ATOM     80  F14 UNL A   1      29.836  17.575   3.131  1.00  0.00    +0.000 F 
ATOM     81  C58 UNL A   1      28.184  17.874   4.800  1.00  0.00    +0.000 C 
ATOM     82  F15 UNL A   1      27.260  17.686   3.847  1.00  0.00    +0.000 F 
ENDBRANCH   71   72
TORSDOF 18
ENDMDL
MODEL 10
REMARK VINA RESULT:     -10.0     26.117     33.003
ROOT
ATOM    129  H36 UNL A   1      26.368  15.135   5.368  1.00  0.00    +0.000 H 
ATOM    130  H37 UNL A   1      24.406  13.849   6.437  1.00  0.00    +0.000 H 
ATOM    131  H38 UNL A   1      20.231  15.334   2.493  1.00  0.00    +0.000 H 
ATOM    132  H39 UNL A   1      21.474  17.597   2.483  1.00  0.00    +0.000 H 
ATOM     35  C29 UNL A   1      21.838  18.648   5.138  1.00  0.00    +0.000 C 
ATOM     36  C30 UNL A   1      21.345  17.307   4.731  1.00  0.00    +0.000 C 
ATOM     37  N5  UNL A   1      20.875  16.379   5.497  1.00  0.00    +0.000 N 
ATOM     38  C31 UNL A   1      20.599  15.301   4.659  1.00  0.00    +0.000 C 
ATOM     39  C32 UNL A   1      20.674  14.026   5.132  1.00  0.00    +0.000 C 
ATOM     51  C39 UNL A   1      20.685  14.021   6.575  1.00  0.00    +0.000 C 
ATOM     52  C40 UNL A   1      19.811  14.399   7.572  1.00  0.00    +0.000 C 
ATOM     53  C41 UNL A   1      20.635  14.911   8.621  1.00  0.00    +0.000 C 
ATOM     54  C42 UNL A   1      21.970  14.758   8.246  1.00  0.00    +0.000 C 
ATOM     55  N6  UNL A   1      21.920  13.925   7.163  1.00  0.00    +0.000 N 
ATOM     56  C43 UNL A   1      23.194  15.374   8.709  1.00  0.00    +0.000 C 
ATOM     68  C50 UNL A   1      24.382  15.372   8.035  1.00  0.00    +0.000 C 
ATOM     69  N7  UNL A   1      25.316  16.370   8.262  1.00  0.00    +0.000 N 
ATOM     70  C51 UNL A   1      25.952  16.490   7.129  1.00  0.00    +0.000 C 
ATOM     71  C52 UNL A   1      26.393  17.791   6.575  1.00  0.00    +0.000 C 
ATOM     83  C59 UNL A   1      25.265  18.483   6.277  1.00  0.00    +0.000 C 
ATOM     84  C60 UNL A   1      25.076  19.902   6.089  1.00  0.00    +0.000 C 
ATOM     85  C61 UNL A   1      23.769  20.124   5.848  1.00  0.00    +0.000 C 
ATOM     86  C62 UNL A   1      23.066  18.847   5.673  1.00  0.00    +0.000 C 
ATOM     87  N8  UNL A   1      23.994  17.906   6.058  1.00  0.00    +0.000 N 
ATOM     88  C63 UNL A   1      25.832  15.365   6.219  1.00  0.00    +0.000 C 
ATOM     89  C64 UNL A   1      24.824  14.716   6.807  1.00  0.00    +0.000 C 
ATOM     90  C65 UNL A   1      20.616  15.820   3.318  1.00  0.00    +0.000 C 
ATOM     91  C66 UNL A   1      21.199  17.021   3.294  1.00  0.00    +0.000 C 
ATOM    123  H30 UNL A   1      18.781  14.328   7.563  1.00  0.00    +0.000 H 
ATOM    124  H31 UNL A   1      20.299  15.325   9.505  1.00  0.00    +0.000 H 
ATOM    125  H32 UNL A   1      22.656  13.348   6.854  1.00  0.00    +0.000 H 
ATOM    126  H33 UNL A   1      25.815  20.621   6.130  1.00  0.00    +0.000 H 
ATOM    127  H34 UNL A   1      23.327  21.056   5.795  1.00  0.00    +0.000 H 
ATOM    128  H35 UNL A   1      23.797  16.948   6.168  1.00  0.00    +0.000 H 
ENDROOT
BRANCH   35   34
ATOM     33  C27 UNL A   1      19.642  19.846   5.045  1.00  0.00    +0.000 C 
ATOM     34  C28 UNL A   1      20.997  19.752   4.688  1.00  0.00    +0.000 C 
ATOM    133  H40 UNL A   1      22.521  20.512   3.448  1.00  0.00    +0.000 H 
ATOM    134  H41 UNL A   1      21.297  22.532   2.926  1.00  0.00    +0.000 H 
ATOM    121  H28 UNL A   1      17.843  20.892   4.668  1.00  0.00    +0.000 H 
ATOM    122  H29 UNL A   1      19.236  19.188   5.728  1.00  0.00    +0.000 H 
ATOM     92  C67 UNL A   1      21.562  20.656   3.798  1.00  0.00    +0.000 C 
ATOM     93  C68 UNL A   1      20.831  21.736   3.390  1.00  0.00    +0.000 C 
ATOM     31  C25 UNL A   1      19.458  21.759   3.603  1.00  0.00    +0.000 C 
ATOM     32  C26 UNL A   1      18.853  20.838   4.466  1.00  0.00    +0.000 C 
BRANCH   31   29
ATOM     29  C24 UNL A   1      18.676  22.752   2.846  1.00  0.00    +0.000 C 
ATOM     30  O2  UNL A   1      19.242  23.559   2.114  1.00  0.00    +0.000 O 
BRANCH   29   28
ATOM     28  N4  UNL A   1      17.298  22.749   2.976  1.00  0.00    +0.000 N 
ATOM    120  H27 UNL A   1      16.927  23.123   3.807  1.00  0.00    +0.000 H 
BRANCH   28   27
ATOM     27  C23 UNL A   1      16.336  22.240   1.993  1.00  0.00    +0.000 C 
ATOM    118  H25 UNL A   1      16.081  23.035   1.323  1.00  0.00    +0.000 H 
ATOM    119  H26 UNL A   1      16.802  21.422   1.484  1.00  0.00    +0.000 H 
BRANCH   27   26
ATOM     26  C22 UNL A   1      15.057  21.711   2.625  1.00  0.00    +0.000 C 
ATOM    116  H23 UNL A   1      14.284  22.432   2.467  1.00  0.00    +0.000 H 
ATOM    117  H24 UNL A   1      14.856  20.769   2.159  1.00  0.00    +0.000 H 
BRANCH   26   25
ATOM     25  C21 UNL A   1      15.155  21.437   4.132  1.00  0.00    +0.000 C 
ATOM    114  H21 UNL A   1      15.815  22.167   4.551  1.00  0.00    +0.000 H 
ATOM    115  H22 UNL A   1      14.148  21.482   4.489  1.00  0.00    +0.000 H 
BRANCH   25   24
ATOM    113  H20 UNL A   1      16.081  20.187   5.532  1.00  0.00    +0.000 H 
ATOM    112  H19 UNL A   1      16.367  19.724   3.817  1.00  0.00    +0.000 H 
ATOM     24  C20 UNL A   1      15.666  20.051   4.556  1.00  0.00    +0.000 C 
BRANCH   24   23
ATOM    111  H18 UNL A   1      14.391  18.599   3.728  1.00  0.00    +0.000 H 
ATOM    110  H17 UNL A   1      13.757  19.379   5.205  1.00  0.00    +0.000 H 
ATOM     23  C19 UNL A   1      14.608  18.953   4.714  1.00  0.00    +0.000 C 
BRANCH   23   22
ATOM    108  H15 UNL A   1      14.950  17.960   6.560  1.00  0.00    +0.000 H 
ATOM    109  H16 UNL A   1      14.459  16.911   5.220  1.00  0.00    +0.000 H 
ATOM     22  C18 UNL A   1      15.063  17.742   5.518  1.00  0.00    +0.000 C 
BRANCH   22   21
ATOM    107  H14 UNL A   1      17.162  17.890   5.726  1.00  0.00    +0.000 H 
ATOM     21  N3  UNL A   1      16.450  17.391   5.265  1.00  0.00    +0.000 N 
BRANCH   21    2
ATOM      1  O1  UNL A   1      16.772  15.189   4.724  1.00  0.00    +0.000 O 
ATOM      2  C1  UNL A   1      16.794  16.374   4.396  1.00  0.00    +0.000 C 
BRANCH    2    3
ATOM      3  C2  UNL A   1      17.293  16.795   3.029  1.00  0.00    +0.000 C 
ATOM     94  H1  UNL A   1      18.244  16.331   2.868  1.00  0.00    +0.000 H 
ATOM     95  H2  UNL A   1      17.337  17.864   3.046  1.00  0.00    +0.000 H 
BRANCH    3    4
ATOM      4  N1  UNL A   1      16.425  16.446   1.915  1.00  0.00    +0.000 N 
ATOM      5  C3  UNL A   1      15.259  17.107   1.628  1.00  0.00    +0.000 C 
ATOM      6  N2  UNL A   1      14.713  16.676   0.516  1.00  0.00    +0.000 N 
ATOM      7  C4  UNL A   1      15.558  15.697   0.060  1.00  0.00    +0.000 C 
ATOM     14  C11 UNL A   1      16.648  15.528   0.905  1.00  0.00    +0.000 C 
ATOM     96  H3  UNL A   1      14.860  17.855   2.216  1.00  0.00    +0.000 H 
BRANCH    7    8
ATOM     97  H4  UNL A   1      16.133  16.470  -2.425  1.00  0.00    +0.000 H 
ATOM     98  H5  UNL A   1      15.919  15.181  -4.470  1.00  0.00    +0.000 H 
ATOM     99  H6  UNL A   1      14.981  12.944  -4.405  1.00  0.00    +0.000 H 
ATOM    100  H7  UNL A   1      14.232  12.001  -2.299  1.00  0.00    +0.000 H 
ATOM    101  H8  UNL A   1      14.460  13.280  -0.252  1.00  0.00    +0.000 H 
ATOM      8  C5  UNL A   1      15.340  14.965  -1.173  1.00  0.00    +0.000 C 
ATOM      9  C6  UNL A   1      15.741  15.516  -2.394  1.00  0.00    +0.000 C 
ATOM     10  C7  UNL A   1      15.613  14.777  -3.572  1.00  0.00    +0.000 C 
ATOM     11  C8  UNL A   1      15.069  13.492  -3.535  1.00  0.00    +0.000 C 
ATOM     12  C9  UNL A   1      14.644  12.948  -2.324  1.00  0.00    +0.000 C 
ATOM     13  C10 UNL A   1      14.778  13.683  -1.147  1.00  0.00    +0.000 C 
ENDBRANCH    7    8
BRANCH   14   15
ATOM    102  H9  UNL A   1      17.073  13.166   2.087  1.00  0.00    +0.000 H 
ATOM    103  H10 UNL A   1      19.059  11.777   1.989  1.00  0.00    +0.000 H 
ATOM    104  H11 UNL A   1      20.925  12.418   0.578  1.00  0.00    +0.000 H 
ATOM    105  H12 UNL A   1      20.833  14.489  -0.681  1.00  0.00    +0.000 H 
ATOM    106  H13 UNL A   1      18.892  15.926  -0.502  1.00  0.00    +0.000 H 
ATOM     15  C12 UNL A   1      17.804  14.644   0.769  1.00  0.00    +0.000 C 
ATOM     16  C13 UNL A   1      17.871  13.452   1.500  1.00  0.00    +0.000 C 
ATOM     17  C14 UNL A   1      19.014  12.649   1.439  1.00  0.00    +0.000 C 
ATOM     18  C15 UNL A   1      20.091  13.022   0.637  1.00  0.00    +0.000 C 
ATOM     19  C16 UNL A   1      20.038  14.212  -0.083  1.00  0.00    +0.000 C 
ATOM     20  C17 UNL A   1      18.911  15.027   0.005  1.00  0.00    +0.000 C 
ENDBRANCH   14   15
ENDBRANCH    3    4
ENDBRANCH    2    3
ENDBRANCH   21    2
ENDBRANCH   22   21
ENDBRANCH   23   22
ENDBRANCH   24   23
ENDBRANCH   25   24
ENDBRANCH   26   25
ENDBRANCH   27   26
ENDBRANCH   28   27
ENDBRANCH   29   28
ENDBRANCH   31   29
ENDBRANCH   35   34
BRANCH   39   40
ATOM     40  C33 UNL A   1      21.201  12.842   4.341  1.00  0.00    +0.000 C 
ATOM     41  C34 UNL A   1      20.452  11.644   4.339  1.00  0.00    +0.000 C 
ATOM     42  F1  UNL A   1      19.185  11.630   4.776  1.00  0.00    +0.000 F 
ATOM     43  C35 UNL A   1      21.019  10.416   3.987  1.00  0.00    +0.000 C 
ATOM     44  F2  UNL A   1      20.309   9.289   4.133  1.00  0.00    +0.000 F 
ATOM     45  C36 UNL A   1      22.331  10.345   3.561  1.00  0.00    +0.000 C 
ATOM     46  F3  UNL A   1      22.898   9.162   3.286  1.00  0.00    +0.000 F 
ATOM     47  C37 UNL A   1      23.071  11.503   3.470  1.00  0.00    +0.000 C 
ATOM     48  F4  UNL A   1      24.353  11.453   3.077  1.00  0.00    +0.000 F 
ATOM     49  C38 UNL A   1      22.527  12.723   3.870  1.00  0.00    +0.000 C 
ATOM     50  F5  UNL A   1      23.389  13.743   3.878  1.00  0.00    +0.000 F 
ENDBRANCH   39   40
BRANCH   56   57
ATOM     65  F9  UNL A   1      23.597  15.805  13.518  1.00  0.00    +0.000 F 
ATOM     66  C49 UNL A   1      23.459  15.691  11.163  1.00  0.00    +0.000 C 
ATOM     67  F10 UNL A   1      23.945  14.441  11.215  1.00  0.00    +0.000 F 
ATOM     57  C44 UNL A   1      23.092  16.248   9.930  1.00  0.00    +0.000 C 
ATOM     58  C45 UNL A   1      22.544  17.542   9.943  1.00  0.00    +0.000 C 
ATOM     59  F6  UNL A   1      22.091  18.108   8.818  1.00  0.00    +0.000 F 
ATOM     60  C46 UNL A   1      22.409  18.256  11.134  1.00  0.00    +0.000 C 
ATOM     61  F7  UNL A   1      21.898  19.497  11.121  1.00  0.00    +0.000 F 
ATOM     62  C47 UNL A   1      22.772  17.676  12.339  1.00  0.00    +0.000 C 
ATOM     63  F8  UNL A   1      22.605  18.345  13.487  1.00  0.00    +0.000 F 
ATOM     64  C48 UNL A   1      23.287  16.389  12.353  1.00  0.00    +0.000 C 
ENDBRANCH   56   57
BRANCH   71   72
ATOM     72  C53 UNL A   1      27.787  18.037   6.143  1.00  0.00    +0.000 C 
ATOM     73  C54 UNL A   1      28.822  18.176   7.083  1.00  0.00    +0.000 C 
ATOM     74  F11 UNL A   1      28.533  18.334   8.384  1.00  0.00    +0.000 F 
ATOM     75  C55 UNL A   1      30.168  18.076   6.714  1.00  0.00    +0.000 C 
ATOM     76  F12 UNL A   1      31.125  18.144   7.650  1.00  0.00    +0.000 F 
ATOM     77  C56 UNL A   1      30.516  17.841   5.395  1.00  0.00    +0.000 C 
ATOM     78  F13 UNL A   1      31.801  17.674   5.051  1.00  0.00    +0.000 F 
ATOM     79  C57 UNL A   1      29.521  17.734   4.439  1.00  0.00    +0.000 C 
ATOM     80  F14 UNL A   1      29.845  17.469   3.165  1.00  0.00    +0.000 F 
ATOM     81  C58 UNL A   1      28.178  17.833   4.806  1.00  0.00    +0.000 C 
ATOM     82  F15 UNL A   1      27.263  17.623   3.849  1.00  0.00    +0.000 F 
ENDBRANCH   71   72
TORSDOF 18
ENDMDL
