MODEL 1
REMARK VINA RESULT:      -9.8      0.000      0.000
ROOT
ATOM    129  H32 UNL A   1      18.015  50.713  -2.189  1.00  0.00    +0.000 H 
ATOM    130  H33 UNL A   1      18.548  53.264  -2.140  1.00  0.00    +0.000 H 
ATOM    131  H34 UNL A   1      16.383  52.315   1.263  1.00  0.00    +0.000 H 
ATOM    132  H35 UNL A   1      13.411  54.055   6.605  1.00  0.00    +0.000 H 
ATOM    133  H36 UNL A   1      13.224  51.528   6.765  1.00  0.00    +0.000 H 
ATOM    134  H37 UNL A   1      15.157  52.442   3.200  1.00  0.00    +0.000 H 
ATOM    135  H38 UNL A   1      16.037  57.437   3.454  1.00  0.00    +0.000 H 
ATOM    136  H39 UNL A   1      17.250  57.249   1.209  1.00  0.00    +0.000 H 
ATOM    137  H40 UNL A   1      15.480  47.361   1.101  1.00  0.00    +0.000 H 
ATOM    138  H41 UNL A   1      14.081  47.564   3.234  1.00  0.00    +0.000 H 
ATOM     31  C26 UNL A   1      14.230  50.130   4.487  1.00  0.00    +0.000 C 
ATOM     32  C27 UNL A   1      14.826  49.703   3.159  1.00  0.00    +0.000 C 
ATOM     33  N4  UNL A   1      15.512  50.405   2.287  1.00  0.00    +0.000 N 
ATOM     34  C28 UNL A   1      15.863  49.522   1.270  1.00  0.00    +0.000 C 
ATOM     35  C29 UNL A   1      16.552  49.760   0.126  1.00  0.00    +0.000 C 
ATOM     47  C36 UNL A   1      17.038  51.050  -0.294  1.00  0.00    +0.000 C 
ATOM     48  C37 UNL A   1      17.741  51.373  -1.445  1.00  0.00    +0.000 C 
ATOM     49  C38 UNL A   1      18.014  52.744  -1.426  1.00  0.00    +0.000 C 
ATOM     50  C39 UNL A   1      17.443  53.283  -0.287  1.00  0.00    +0.000 C 
ATOM     51  N5  UNL A   1      16.857  52.233   0.404  1.00  0.00    +0.000 N 
ATOM     52  C40 UNL A   1      17.435  54.654   0.151  1.00  0.00    +0.000 C 
ATOM     64  C47 UNL A   1      16.817  55.092   1.274  1.00  0.00    +0.000 C 
ATOM     65  N6  UNL A   1      16.091  54.360   2.205  1.00  0.00    +0.000 N 
ATOM     66  C48 UNL A   1      15.713  55.217   3.120  1.00  0.00    +0.000 C 
ATOM     67  C49 UNL A   1      14.898  54.983   4.364  1.00  0.00    +0.000 C 
ATOM     79  C56 UNL A   1      14.512  53.735   4.700  1.00  0.00    +0.000 C 
ATOM     80  C57 UNL A   1      13.778  53.383   5.913  1.00  0.00    +0.000 C 
ATOM     81  C58 UNL A   1      13.654  52.048   5.984  1.00  0.00    +0.000 C 
ATOM     82  C59 UNL A   1      14.225  51.448   4.780  1.00  0.00    +0.000 C 
ATOM     83  N7  UNL A   1      14.710  52.528   4.073  1.00  0.00    +0.000 N 
ATOM     84  C60 UNL A   1      16.174  56.593   2.876  1.00  0.00    +0.000 C 
ATOM     85  C61 UNL A   1      16.813  56.467   1.721  1.00  0.00    +0.000 C 
ATOM     86  C62 UNL A   1      15.331  48.228   1.640  1.00  0.00    +0.000 C 
ATOM     87  C63 UNL A   1      14.628  48.301   2.762  1.00  0.00    +0.000 C 
ENDROOT
BRANCH   31   30
ATOM    139  H42 UNL A   1      15.424  48.614   6.408  1.00  0.00    +0.000 H 
ATOM    140  H43 UNL A   1      14.527  46.698   7.594  1.00  0.00    +0.000 H 
ATOM     88  C64 UNL A   1      14.432  48.358   6.284  1.00  0.00    +0.000 C 
ATOM     89  C65 UNL A   1      13.908  47.261   6.988  1.00  0.00    +0.000 C 
ATOM     27  C22 UNL A   1      12.556  46.928   6.874  1.00  0.00    +0.000 C 
ATOM     28  C23 UNL A   1      11.714  47.770   6.152  1.00  0.00    +0.000 C 
ATOM     29  C24 UNL A   1      12.252  48.819   5.391  1.00  0.00    +0.000 C 
ATOM     30  C25 UNL A   1      13.627  49.111   5.413  1.00  0.00    +0.000 C 
ATOM    127  H30 UNL A   1      10.694  47.621   6.177  1.00  0.00    +0.000 H 
ATOM    128  H31 UNL A   1      11.624  49.389   4.804  1.00  0.00    +0.000 H 
BRANCH   27   25
ATOM     25  C21 UNL A   1      12.054  45.702   7.543  1.00  0.00    +0.000 C 
ATOM     26  O2  UNL A   1      12.055  44.644   6.920  1.00  0.00    +0.000 O 
BRANCH   25   24
ATOM    126  H29 UNL A   1      10.584  45.991   8.881  1.00  0.00    +0.000 H 
ATOM     24  N3  UNL A   1      11.536  45.745   8.823  1.00  0.00    +0.000 N 
BRANCH   24   23
ATOM    124  H27 UNL A   1      11.451  45.074  10.762  1.00  0.00    +0.000 H 
ATOM    125  H28 UNL A   1      12.991  44.814   9.887  1.00  0.00    +0.000 H 
ATOM     23  C20 UNL A   1      12.183  45.483  10.097  1.00  0.00    +0.000 C 
BRANCH   23   22
ATOM    122  H25 UNL A   1      12.728  46.557  11.832  1.00  0.00    +0.000 H 
ATOM    123  H26 UNL A   1      13.804  46.744  10.387  1.00  0.00    +0.000 H 
ATOM     22  C19 UNL A   1      12.808  46.704  10.776  1.00  0.00    +0.000 C 
BRANCH   22   21
ATOM    121  H24 UNL A   1      11.879  48.442  11.408  1.00  0.00    +0.000 H 
ATOM     21  C18 UNL A   1      12.218  48.080  10.460  1.00  0.00    +0.000 C 
ATOM    120  H23 UNL A   1      11.466  47.937   9.712  1.00  0.00    +0.000 H 
BRANCH   21   20
ATOM     20  C17 UNL A   1      13.154  49.183   9.953  1.00  0.00    +0.000 C 
ATOM    118  H21 UNL A   1      13.661  49.577  10.808  1.00  0.00    +0.000 H 
ATOM    119  H22 UNL A   1      13.750  48.685   9.218  1.00  0.00    +0.000 H 
BRANCH   20   19
ATOM     19  C16 UNL A   1      12.575  50.379   9.191  1.00  0.00    +0.000 C 
ATOM    116  H19 UNL A   1      13.224  50.560   8.360  1.00  0.00    +0.000 H 
ATOM    117  H20 UNL A   1      11.573  50.072   8.971  1.00  0.00    +0.000 H 
BRANCH   19   18
ATOM     18  C15 UNL A   1      12.387  51.713   9.906  1.00  0.00    +0.000 C 
ATOM    115  H18 UNL A   1      12.640  51.520  10.928  1.00  0.00    +0.000 H 
ATOM    114  H17 UNL A   1      11.378  52.029   9.743  1.00  0.00    +0.000 H 
BRANCH   18   17
ATOM     17  N2  UNL A   1      13.247  52.793   9.507  1.00  0.00    +0.000 N 
ATOM    113  H16 UNL A   1      12.772  53.608   9.224  1.00  0.00    +0.000 H 
BRANCH   17   15
ATOM     15  C14 UNL A   1      14.620  52.889   9.453  1.00  0.00    +0.000 C 
ATOM     16  O1  UNL A   1      15.055  53.943   8.975  1.00  0.00    +0.000 O 
BRANCH   15   14
ATOM      9  C8  UNL A   1      15.970  51.542  11.286  1.00  0.00    +0.000 C 
ATOM     10  C9  UNL A   1      16.822  50.426  11.499  1.00  0.00    +0.000 C 
ATOM     11  C10 UNL A   1      17.382  49.701  10.453  1.00  0.00    +0.000 C 
ATOM     12  C11 UNL A   1      17.092  50.070   9.152  1.00  0.00    +0.000 C 
ATOM    109  H12 UNL A   1      17.035  50.142  12.468  1.00  0.00    +0.000 H 
ATOM     14  C13 UNL A   1      15.632  51.898   9.962  1.00  0.00    +0.000 C 
ATOM     13  C12 UNL A   1      16.220  51.139   8.915  1.00  0.00    +0.000 C 
ATOM    110  H13 UNL A   1      18.003  48.900  10.644  1.00  0.00    +0.000 H 
ATOM    112  H15 UNL A   1      15.993  51.384   7.939  1.00  0.00    +0.000 H 
ATOM    111  H14 UNL A   1      17.517  49.561   8.361  1.00  0.00    +0.000 H 
BRANCH    9    8
ATOM    108  H11 UNL A   1      16.393  52.713  12.946  1.00  0.00    +0.000 H 
ATOM      8  N1  UNL A   1      15.657  52.282  12.454  1.00  0.00    +0.000 N 
BRANCH    8    7
ATOM      1  C1  UNL A   1      10.653  50.346  15.593  1.00  0.00    +0.000 C 
ATOM      2  C2  UNL A   1      11.515  50.125  14.330  1.00  0.00    +0.000 C 
ATOM      3  C3  UNL A   1      12.436  48.927  14.648  1.00  0.00    +0.000 C 
ATOM      4  C4  UNL A   1      10.582  49.759  13.160  1.00  0.00    +0.000 C 
ATOM      5  C5  UNL A   1      12.297  51.374  13.905  1.00  0.00    +0.000 C 
ATOM      6  C6  UNL A   1      13.658  51.322  13.509  1.00  0.00    +0.000 C 
ATOM      7  C7  UNL A   1      14.327  52.434  12.954  1.00  0.00    +0.000 C 
ATOM    141  H44 UNL A   1      14.132  54.503  12.560  1.00  0.00    +0.000 H 
ATOM    142  H45 UNL A   1       9.892  54.708  14.814  1.00  0.00    +0.000 H 
ATOM    143  H46 UNL A   1       9.351  54.418  13.173  1.00  0.00    +0.000 H 
ATOM     90  C66 UNL A   1      13.650  53.659  12.905  1.00  0.00    +0.000 C 
ATOM     91  C67 UNL A   1      12.331  53.734  13.320  1.00  0.00    +0.000 C 
ATOM     92  C68 UNL A   1      11.671  52.613  13.782  1.00  0.00    +0.000 C 
ATOM     93  O3  UNL A   1      10.350  52.847  14.052  1.00  0.00    +0.000 O 
ATOM     94  C69 UNL A   1      10.146  54.265  13.873  1.00  0.00    +0.000 C 
ATOM     95  C70 UNL A   1      11.430  54.921  13.331  1.00  0.00    +0.000 C 
ATOM     98  H1  UNL A   1      10.136  49.440  15.834  1.00  0.00    +0.000 H 
ATOM     99  H2  UNL A   1       9.943  51.124  15.408  1.00  0.00    +0.000 H 
ATOM    100  H3  UNL A   1      11.284  50.624  16.411  1.00  0.00    +0.000 H 
ATOM    101  H4  UNL A   1      11.840  48.087  14.938  1.00  0.00    +0.000 H 
ATOM    102  H5  UNL A   1      13.097  49.187  15.448  1.00  0.00    +0.000 H 
ATOM    103  H6  UNL A   1      13.008  48.676  13.779  1.00  0.00    +0.000 H 
ATOM    104  H7  UNL A   1      10.015  48.888  13.415  1.00  0.00    +0.000 H 
ATOM    105  H8  UNL A   1      11.167  49.559  12.286  1.00  0.00    +0.000 H 
ATOM    106  H9  UNL A   1       9.917  50.573  12.965  1.00  0.00    +0.000 H 
ATOM    107  H10 UNL A   1      14.178  50.439  13.631  1.00  0.00    +0.000 H 
BRANCH   95   96
ATOM    145  H48 UNL A   1      12.993  55.828  14.478  1.00  0.00    +0.000 H 
ATOM    146  H49 UNL A   1      11.412  55.945  15.210  1.00  0.00    +0.000 H 
ATOM    144  H47 UNL A   1      11.822  56.961  13.848  1.00  0.00    +0.000 H 
ATOM     96  C71 UNL A   1      11.954  55.994  14.289  1.00  0.00    +0.000 C 
ENDBRANCH   95   96
BRANCH   95   97
ATOM     97  C72 UNL A   1      11.214  55.505  11.932  1.00  0.00    +0.000 C 
ATOM    147  H50 UNL A   1      12.162  55.728  11.489  1.00  0.00    +0.000 H 
ATOM    148  H51 UNL A   1      10.635  56.401  12.005  1.00  0.00    +0.000 H 
ATOM    149  H52 UNL A   1      10.696  54.792  11.324  1.00  0.00    +0.000 H 
ENDBRANCH   95   97
ENDBRANCH    8    7
ENDBRANCH    9    8
ENDBRANCH   15   14
ENDBRANCH   17   15
ENDBRANCH   18   17
ENDBRANCH   19   18
ENDBRANCH   20   19
ENDBRANCH   21   20
ENDBRANCH   22   21
ENDBRANCH   23   22
ENDBRANCH   24   23
ENDBRANCH   25   24
ENDBRANCH   27   25
ENDBRANCH   31   30
BRANCH   35   36
ATOM     36  C30 UNL A   1      16.836  48.595  -0.780  1.00  0.00    +0.000 C 
ATOM     37  C31 UNL A   1      16.022  48.305  -1.884  1.00  0.00    +0.000 C 
ATOM     38  F1  UNL A   1      14.907  49.016  -2.105  1.00  0.00    +0.000 F 
ATOM     39  C32 UNL A   1      16.342  47.266  -2.755  1.00  0.00    +0.000 C 
ATOM     40  F2  UNL A   1      15.533  46.986  -3.785  1.00  0.00    +0.000 F 
ATOM     41  C33 UNL A   1      17.494  46.519  -2.557  1.00  0.00    +0.000 C 
ATOM     42  F3  UNL A   1      17.809  45.532  -3.407  1.00  0.00    +0.000 F 
ATOM     43  C34 UNL A   1      18.318  46.794  -1.477  1.00  0.00    +0.000 C 
ATOM     44  F4  UNL A   1      19.441  46.085  -1.294  1.00  0.00    +0.000 F 
ATOM     45  C35 UNL A   1      17.987  47.814  -0.589  1.00  0.00    +0.000 C 
ATOM     46  F5  UNL A   1      18.807  48.058   0.446  1.00  0.00    +0.000 F 
ENDBRANCH   35   36
BRANCH   52   53
ATOM     53  C41 UNL A   1      18.145  55.666  -0.700  1.00  0.00    +0.000 C 
ATOM     54  C42 UNL A   1      17.486  56.344  -1.737  1.00  0.00    +0.000 C 
ATOM     55  F6  UNL A   1      16.213  56.045  -2.037  1.00  0.00    +0.000 F 
ATOM     56  C43 UNL A   1      18.142  57.318  -2.487  1.00  0.00    +0.000 C 
ATOM     57  F7  UNL A   1      17.503  57.929  -3.495  1.00  0.00    +0.000 F 
ATOM     58  C44 UNL A   1      19.458  57.650  -2.200  1.00  0.00    +0.000 C 
ATOM     59  F8  UNL A   1      20.084  58.595  -2.915  1.00  0.00    +0.000 F 
ATOM     60  C45 UNL A   1      20.126  57.001  -1.174  1.00  0.00    +0.000 C 
ATOM     61  F9  UNL A   1      21.393  57.329  -0.886  1.00  0.00    +0.000 F 
ATOM     62  C46 UNL A   1      19.480  56.009  -0.437  1.00  0.00    +0.000 C 
ATOM     63  F10 UNL A   1      20.154  55.397   0.547  1.00  0.00    +0.000 F 
ENDBRANCH   52   53
BRANCH   67   68
ATOM     68  C50 UNL A   1      14.524  56.129   5.236  1.00  0.00    +0.000 C 
ATOM     69  C51 UNL A   1      15.431  56.640   6.175  1.00  0.00    +0.000 C 
ATOM     70  F11 UNL A   1      16.637  56.073   6.320  1.00  0.00    +0.000 F 
ATOM     71  C52 UNL A   1      15.088  57.714   6.996  1.00  0.00    +0.000 C 
ATOM     72  F12 UNL A   1      15.960  58.159   7.911  1.00  0.00    +0.000 F 
ATOM     73  C53 UNL A   1      13.843  58.312   6.874  1.00  0.00    +0.000 C 
ATOM     74  F13 UNL A   1      13.518  59.353   7.654  1.00  0.00    +0.000 F 
ATOM     75  C54 UNL A   1      12.932  57.826   5.949  1.00  0.00    +0.000 C 
ATOM     76  F14 UNL A   1      11.732  58.410   5.820  1.00  0.00    +0.000 F 
ATOM     77  C55 UNL A   1      13.263  56.735   5.149  1.00  0.00    +0.000 C 
ATOM     78  F15 UNL A   1      12.356  56.277   4.273  1.00  0.00    +0.000 F 
ENDBRANCH   67   68
TORSDOF 19
ENDMDL
MODEL 2
REMARK VINA RESULT:      -9.8     51.698     56.258
ROOT
ATOM    129  H32 UNL A   1      -2.753   6.580  34.533  1.00  0.00    +0.000 H 
ATOM    130  H33 UNL A   1      -1.422   4.341  34.614  1.00  0.00    +0.000 H 
ATOM    131  H34 UNL A   1       0.948   7.329  36.231  1.00  0.00    +0.000 H 
ATOM    132  H35 UNL A   1       6.471   9.308  38.678  1.00  0.00    +0.000 H 
ATOM    133  H36 UNL A   1       5.055  11.395  38.964  1.00  0.00    +0.000 H 
ATOM    134  H37 UNL A   1       2.718   8.517  37.085  1.00  0.00    +0.000 H 
ATOM    135  H38 UNL A   1       5.500   4.272  37.276  1.00  0.00    +0.000 H 
ATOM    136  H39 UNL A   1       3.545   3.046  36.171  1.00  0.00    +0.000 H 
ATOM    137  H40 UNL A   1      -1.748  11.584  36.097  1.00  0.00    +0.000 H 
ATOM    138  H41 UNL A   1       0.270  12.870  37.004  1.00  0.00    +0.000 H 
ATOM     31  C26 UNL A   1       2.438  11.203  37.839  1.00  0.00    +0.000 C 
ATOM     32  C27 UNL A   1       1.152  10.787  37.148  1.00  0.00    +0.000 C 
ATOM     33  N4  UNL A   1       0.759   9.597  36.761  1.00  0.00    +0.000 N 
ATOM     34  C28 UNL A   1      -0.516   9.764  36.229  1.00  0.00    +0.000 C 
ATOM     35  C29 UNL A   1      -1.341   8.843  35.671  1.00  0.00    +0.000 C 
ATOM     47  C36 UNL A   1      -1.018   7.453  35.475  1.00  0.00    +0.000 C 
ATOM     48  C37 UNL A   1      -1.801   6.458  34.911  1.00  0.00    +0.000 C 
ATOM     49  C38 UNL A   1      -1.082   5.259  34.940  1.00  0.00    +0.000 C 
ATOM     50  C39 UNL A   1       0.165   5.517  35.481  1.00  0.00    +0.000 C 
ATOM     51  N5  UNL A   1       0.188   6.862  35.815  1.00  0.00    +0.000 N 
ATOM     52  C40 UNL A   1       1.260   4.605  35.689  1.00  0.00    +0.000 C 
ATOM     64  C47 UNL A   1       2.463   4.961  36.199  1.00  0.00    +0.000 C 
ATOM     65  N6  UNL A   1       2.890   6.217  36.615  1.00  0.00    +0.000 N 
ATOM     66  C48 UNL A   1       4.114   6.054  37.051  1.00  0.00    +0.000 C 
ATOM     67  C49 UNL A   1       5.066   7.073  37.617  1.00  0.00    +0.000 C 
ATOM     79  C56 UNL A   1       4.668   8.349  37.798  1.00  0.00    +0.000 C 
ATOM     80  C57 UNL A   1       5.482   9.403  38.397  1.00  0.00    +0.000 C 
ATOM     81  C58 UNL A   1       4.743  10.516  38.522  1.00  0.00    +0.000 C 
ATOM     82  C59 UNL A   1       3.424  10.286  37.936  1.00  0.00    +0.000 C 
ATOM     83  N7  UNL A   1       3.472   8.970  37.529  1.00  0.00    +0.000 N 
ATOM     84  C60 UNL A   1       4.595   4.664  36.974  1.00  0.00    +0.000 C 
ATOM     85  C61 UNL A   1       3.562   4.048  36.417  1.00  0.00    +0.000 C 
ATOM     86  C62 UNL A   1      -0.840  11.169  36.359  1.00  0.00    +0.000 C 
ATOM     87  C63 UNL A   1       0.181  11.852  36.858  1.00  0.00    +0.000 C 
ENDROOT
BRANCH   31   30
ATOM    139  H42 UNL A   1       3.177  13.457  36.501  1.00  0.00    +0.000 H 
ATOM    140  H43 UNL A   1       3.841  15.604  37.413  1.00  0.00    +0.000 H 
ATOM     88  C64 UNL A   1       3.089  13.629  37.515  1.00  0.00    +0.000 C 
ATOM     89  C65 UNL A   1       3.453  14.880  38.039  1.00  0.00    +0.000 C 
ATOM     27  C22 UNL A   1       3.294  15.150  39.400  1.00  0.00    +0.000 C 
ATOM     28  C23 UNL A   1       2.657  14.207  40.204  1.00  0.00    +0.000 C 
ATOM     29  C24 UNL A   1       2.363  12.933  39.695  1.00  0.00    +0.000 C 
ATOM     30  C25 UNL A   1       2.608  12.606  38.350  1.00  0.00    +0.000 C 
ATOM    127  H30 UNL A   1       2.402  14.447  41.174  1.00  0.00    +0.000 H 
ATOM    128  H31 UNL A   1       1.958  12.221  40.323  1.00  0.00    +0.000 H 
BRANCH   27   25
ATOM     25  C21 UNL A   1       3.786  16.440  39.945  1.00  0.00    +0.000 C 
ATOM     26  O2  UNL A   1       2.978  17.341  40.157  1.00  0.00    +0.000 O 
BRANCH   25   24
ATOM    126  H29 UNL A   1       5.464  17.541  39.873  1.00  0.00    +0.000 H 
ATOM     24  N3  UNL A   1       5.133  16.660  40.162  1.00  0.00    +0.000 N 
BRANCH   24   23
ATOM    124  H27 UNL A   1       6.889  16.404  41.194  1.00  0.00    +0.000 H 
ATOM    125  H28 UNL A   1       5.616  15.172  41.453  1.00  0.00    +0.000 H 
ATOM     23  C20 UNL A   1       6.136  15.788  40.748  1.00  0.00    +0.000 C 
BRANCH   23   22
ATOM    122  H25 UNL A   1       6.538  15.126  38.784  1.00  0.00    +0.000 H 
ATOM    123  H26 UNL A   1       7.863  14.917  40.001  1.00  0.00    +0.000 H 
ATOM     22  C19 UNL A   1       6.821  14.830  39.772  1.00  0.00    +0.000 C 
BRANCH   22   21
ATOM    121  H24 UNL A   1       7.346  12.861  39.415  1.00  0.00    +0.000 H 
ATOM     21  C18 UNL A   1       6.522  13.336  39.904  1.00  0.00    +0.000 C 
ATOM    120  H23 UNL A   1       5.556  13.169  39.475  1.00  0.00    +0.000 H 
BRANCH   21   20
ATOM     20  C17 UNL A   1       6.508  12.709  41.303  1.00  0.00    +0.000 C 
ATOM    118  H21 UNL A   1       7.350  12.053  41.358  1.00  0.00    +0.000 H 
ATOM    119  H22 UNL A   1       6.506  13.557  41.955  1.00  0.00    +0.000 H 
BRANCH   20   19
ATOM     19  C16 UNL A   1       5.288  11.904  41.761  1.00  0.00    +0.000 C 
ATOM    116  H19 UNL A   1       4.516  12.072  41.039  1.00  0.00    +0.000 H 
ATOM    117  H20 UNL A   1       5.667  10.907  41.849  1.00  0.00    +0.000 H 
BRANCH   19   18
ATOM     18  C15 UNL A   1       4.676  12.172  43.133  1.00  0.00    +0.000 C 
ATOM    115  H18 UNL A   1       4.972  13.171  43.380  1.00  0.00    +0.000 H 
ATOM    114  H17 UNL A   1       5.034  11.417  43.800  1.00  0.00    +0.000 H 
BRANCH   18   17
ATOM     17  N2  UNL A   1       3.241  12.178  43.216  1.00  0.00    +0.000 N 
ATOM    113  H16 UNL A   1       2.832  13.069  43.123  1.00  0.00    +0.000 H 
BRANCH   17   15
ATOM     15  C14 UNL A   1       2.338  11.156  43.403  1.00  0.00    +0.000 C 
ATOM     16  O1  UNL A   1       2.000  10.961  44.577  1.00  0.00    +0.000 O 
BRANCH   15   14
ATOM      9  C8  UNL A   1       0.447  10.487  41.678  1.00  0.00    +0.000 C 
ATOM     10  C9  UNL A   1       0.141   9.648  40.574  1.00  0.00    +0.000 C 
ATOM     11  C10 UNL A   1       0.980   8.619  40.160  1.00  0.00    +0.000 C 
ATOM     12  C11 UNL A   1       2.166   8.408  40.841  1.00  0.00    +0.000 C 
ATOM    109  H12 UNL A   1      -0.739   9.806  40.058  1.00  0.00    +0.000 H 
ATOM     14  C13 UNL A   1       1.676  10.308  42.350  1.00  0.00    +0.000 C 
ATOM     13  C12 UNL A   1       2.512   9.249  41.904  1.00  0.00    +0.000 C 
ATOM    110  H13 UNL A   1       0.723   8.023  39.359  1.00  0.00    +0.000 H 
ATOM    112  H15 UNL A   1       3.412   9.095  42.384  1.00  0.00    +0.000 H 
ATOM    111  H14 UNL A   1       2.791   7.634  40.567  1.00  0.00    +0.000 H 
BRANCH    9    8
ATOM    108  H11 UNL A   1      -1.361  10.954  42.582  1.00  0.00    +0.000 H 
ATOM      8  N1  UNL A   1      -0.608  11.344  42.082  1.00  0.00    +0.000 N 
BRANCH    8    7
ATOM      1  C1  UNL A   1      -2.446  16.326  38.853  1.00  0.00    +0.000 C 
ATOM      2  C2  UNL A   1      -1.591  15.041  38.813  1.00  0.00    +0.000 C 
ATOM      3  C3  UNL A   1      -2.443  13.987  38.071  1.00  0.00    +0.000 C 
ATOM      4  C4  UNL A   1      -0.312  15.330  38.003  1.00  0.00    +0.000 C 
ATOM      5  C5  UNL A   1      -1.144  14.567  40.201  1.00  0.00    +0.000 C 
ATOM      6  C6  UNL A   1      -1.201  13.206  40.597  1.00  0.00    +0.000 C 
ATOM      7  C7  UNL A   1      -0.632  12.745  41.803  1.00  0.00    +0.000 C 
ATOM    141  H44 UNL A   1       0.273  13.389  43.603  1.00  0.00    +0.000 H 
ATOM    142  H45 UNL A   1      -0.480  18.012  42.528  1.00  0.00    +0.000 H 
ATOM    143  H46 UNL A   1       1.133  17.807  41.876  1.00  0.00    +0.000 H 
ATOM     90  C66 UNL A   1      -0.096  13.689  42.688  1.00  0.00    +0.000 C 
ATOM     91  C67 UNL A   1      -0.064  15.026  42.331  1.00  0.00    +0.000 C 
ATOM     92  C68 UNL A   1      -0.552  15.443  41.109  1.00  0.00    +0.000 C 
ATOM     93  O3  UNL A   1      -0.347  16.777  40.882  1.00  0.00    +0.000 O 
ATOM     94  C69 UNL A   1       0.210  17.314  42.100  1.00  0.00    +0.000 C 
ATOM     95  C70 UNL A   1       0.475  16.179  43.107  1.00  0.00    +0.000 C 
ATOM     98  H1  UNL A   1      -2.724  16.601  37.856  1.00  0.00    +0.000 H 
ATOM     99  H2  UNL A   1      -1.880  17.118  39.296  1.00  0.00    +0.000 H 
ATOM    100  H3  UNL A   1      -3.328  16.150  39.432  1.00  0.00    +0.000 H 
ATOM    101  H4  UNL A   1      -2.726  14.368  37.112  1.00  0.00    +0.000 H 
ATOM    102  H5  UNL A   1      -3.321  13.772  38.643  1.00  0.00    +0.000 H 
ATOM    103  H6  UNL A   1      -1.870  13.091  37.944  1.00  0.00    +0.000 H 
ATOM    104  H7  UNL A   1      -0.579  15.664  37.022  1.00  0.00    +0.000 H 
ATOM    105  H8  UNL A   1       0.272  14.436  37.927  1.00  0.00    +0.000 H 
ATOM    106  H9  UNL A   1       0.259  16.088  38.495  1.00  0.00    +0.000 H 
ATOM    107  H10 UNL A   1      -1.677  12.529  39.981  1.00  0.00    +0.000 H 
BRANCH   95   96
ATOM    145  H48 UNL A   1      -0.171  17.383  44.755  1.00  0.00    +0.000 H 
ATOM    146  H49 UNL A   1       0.018  15.689  45.140  1.00  0.00    +0.000 H 
ATOM    144  H47 UNL A   1      -1.360  16.225  44.209  1.00  0.00    +0.000 H 
ATOM     96  C71 UNL A   1      -0.319  16.385  44.400  1.00  0.00    +0.000 C 
ENDBRANCH   95   96
BRANCH   95   97
ATOM     97  C72 UNL A   1       1.969  16.034  43.409  1.00  0.00    +0.000 C 
ATOM    147  H50 UNL A   1       2.140  15.116  43.931  1.00  0.00    +0.000 H 
ATOM    148  H51 UNL A   1       2.292  16.854  44.014  1.00  0.00    +0.000 H 
ATOM    149  H52 UNL A   1       2.519  16.029  42.490  1.00  0.00    +0.000 H 
ENDBRANCH   95   97
ENDBRANCH    8    7
ENDBRANCH    9    8
ENDBRANCH   15   14
ENDBRANCH   17   15
ENDBRANCH   18   17
ENDBRANCH   19   18
ENDBRANCH   20   19
ENDBRANCH   21   20
ENDBRANCH   22   21
ENDBRANCH   23   22
ENDBRANCH   24   23
ENDBRANCH   25   24
ENDBRANCH   27   25
ENDBRANCH   31   30
BRANCH   35   36
ATOM     36  C30 UNL A   1      -2.701   9.298  35.221  1.00  0.00    +0.000 C 
ATOM     37  C31 UNL A   1      -2.928   9.764  33.918  1.00  0.00    +0.000 C 
ATOM     38  F1  UNL A   1      -1.904   9.900  33.063  1.00  0.00    +0.000 F 
ATOM     39  C32 UNL A   1      -4.208  10.113  33.496  1.00  0.00    +0.000 C 
ATOM     40  F2  UNL A   1      -4.397  10.586  32.257  1.00  0.00    +0.000 F 
ATOM     41  C33 UNL A   1      -5.288   9.974  34.355  1.00  0.00    +0.000 C 
ATOM     42  F3  UNL A   1      -6.523  10.292  33.940  1.00  0.00    +0.000 F 
ATOM     43  C34 UNL A   1      -5.090   9.506  35.644  1.00  0.00    +0.000 C 
ATOM     44  F4  UNL A   1      -6.134   9.354  36.471  1.00  0.00    +0.000 F 
ATOM     45  C35 UNL A   1      -3.806   9.183  36.079  1.00  0.00    +0.000 C 
ATOM     46  F5  UNL A   1      -3.646   8.731  37.333  1.00  0.00    +0.000 F 
ENDBRANCH   35   36
BRANCH   52   53
ATOM     53  C41 UNL A   1       1.060   3.169  35.300  1.00  0.00    +0.000 C 
ATOM     54  C42 UNL A   1       0.486   2.243  36.184  1.00  0.00    +0.000 C 
ATOM     55  F6  UNL A   1       0.167   2.611  37.434  1.00  0.00    +0.000 F 
ATOM     56  C43 UNL A   1       0.260   0.925  35.794  1.00  0.00    +0.000 C 
ATOM     57  F7  UNL A   1      -0.258   0.049  36.666  1.00  0.00    +0.000 F 
ATOM     58  C44 UNL A   1       0.578   0.514  34.507  1.00  0.00    +0.000 C 
ATOM     59  F8  UNL A   1       0.349  -0.751  34.130  1.00  0.00    +0.000 F 
ATOM     60  C45 UNL A   1       1.137   1.414  33.614  1.00  0.00    +0.000 C 
ATOM     61  F9  UNL A   1       1.434   1.023  32.367  1.00  0.00    +0.000 F 
ATOM     62  C46 UNL A   1       1.387   2.727  34.009  1.00  0.00    +0.000 C 
ATOM     63  F10 UNL A   1       1.932   3.573  33.122  1.00  0.00    +0.000 F 
ENDBRANCH   52   53
BRANCH   67   68
ATOM     68  C50 UNL A   1       6.450   6.673  37.990  1.00  0.00    +0.000 C 
ATOM     69  C51 UNL A   1       7.535   6.992  37.162  1.00  0.00    +0.000 C 
ATOM     70  F11 UNL A   1       7.328   7.633  36.003  1.00  0.00    +0.000 F 
ATOM     71  C52 UNL A   1       8.834   6.621  37.504  1.00  0.00    +0.000 C 
ATOM     72  F12 UNL A   1       9.849   6.906  36.677  1.00  0.00    +0.000 F 
ATOM     73  C53 UNL A   1       9.075   5.947  38.692  1.00  0.00    +0.000 C 
ATOM     74  F13 UNL A   1      10.327   5.603  39.027  1.00  0.00    +0.000 F 
ATOM     75  C54 UNL A   1       8.018   5.625  39.529  1.00  0.00    +0.000 C 
ATOM     76  F14 UNL A   1       8.248   4.986  40.684  1.00  0.00    +0.000 F 
ATOM     77  C55 UNL A   1       6.716   5.970  39.174  1.00  0.00    +0.000 C 
ATOM     78  F15 UNL A   1       5.711   5.632  39.995  1.00  0.00    +0.000 F 
ENDBRANCH   67   68
TORSDOF 19
ENDMDL
MODEL 3
REMARK VINA RESULT:      -9.7      2.814      7.205
ROOT
ATOM    129  H32 UNL A   1      13.158  46.442   2.934  1.00  0.00    +0.000 H 
ATOM    130  H33 UNL A   1      14.858  46.643   0.969  1.00  0.00    +0.000 H 
ATOM    131  H34 UNL A   1      14.529  50.346   2.796  1.00  0.00    +0.000 H 
ATOM    132  H35 UNL A   1      15.958  56.533   3.080  1.00  0.00    +0.000 H 
ATOM    133  H36 UNL A   1      14.617  56.262   5.218  1.00  0.00    +0.000 H 
ATOM    134  H37 UNL A   1      14.685  52.586   3.280  1.00  0.00    +0.000 H 
ATOM    135  H38 UNL A   1      17.977  53.202  -0.537  1.00  0.00    +0.000 H 
ATOM    136  H39 UNL A   1      17.628  50.734  -1.120  1.00  0.00    +0.000 H 
ATOM    137  H40 UNL A   1      11.287  49.821   6.617  1.00  0.00    +0.000 H 
ATOM    138  H41 UNL A   1      11.457  52.331   7.084  1.00  0.00    +0.000 H 
ATOM     31  C26 UNL A   1      13.489  53.664   5.575  1.00  0.00    +0.000 C 
ATOM     32  C27 UNL A   1      13.036  52.220   5.462  1.00  0.00    +0.000 C 
ATOM     33  N4  UNL A   1      13.447  51.277   4.646  1.00  0.00    +0.000 N 
ATOM     34  C28 UNL A   1      12.742  50.129   4.995  1.00  0.00    +0.000 C 
ATOM     35  C29 UNL A   1      12.784  48.893   4.437  1.00  0.00    +0.000 C 
ATOM     47  C36 UNL A   1      13.577  48.529   3.290  1.00  0.00    +0.000 C 
ATOM     48  C37 UNL A   1      13.668  47.296   2.663  1.00  0.00    +0.000 C 
ATOM     49  C38 UNL A   1      14.569  47.407   1.600  1.00  0.00    +0.000 C 
ATOM     50  C39 UNL A   1      15.004  48.719   1.537  1.00  0.00    +0.000 C 
ATOM     51  N5  UNL A   1      14.397  49.394   2.585  1.00  0.00    +0.000 N 
ATOM     52  C40 UNL A   1      15.914  49.320   0.596  1.00  0.00    +0.000 C 
ATOM     64  C47 UNL A   1      16.256  50.631   0.597  1.00  0.00    +0.000 C 
ATOM     65  N6  UNL A   1      15.831  51.636   1.456  1.00  0.00    +0.000 N 
ATOM     66  C48 UNL A   1      16.452  52.723   1.073  1.00  0.00    +0.000 C 
ATOM     67  C49 UNL A   1      16.373  54.115   1.640  1.00  0.00    +0.000 C 
ATOM     79  C56 UNL A   1      15.631  54.360   2.738  1.00  0.00    +0.000 C 
ATOM     80  C57 UNL A   1      15.532  55.653   3.412  1.00  0.00    +0.000 C 
ATOM     81  C58 UNL A   1      14.799  55.517   4.528  1.00  0.00    +0.000 C 
ATOM     82  C59 UNL A   1      14.302  54.146   4.612  1.00  0.00    +0.000 C 
ATOM     83  N7  UNL A   1      14.845  53.531   3.503  1.00  0.00    +0.000 N 
ATOM     84  C60 UNL A   1      17.359  52.521  -0.070  1.00  0.00    +0.000 C 
ATOM     85  C61 UNL A   1      17.174  51.236  -0.341  1.00  0.00    +0.000 C 
ATOM     86  C62 UNL A   1      11.890  50.486   6.109  1.00  0.00    +0.000 C 
ATOM     87  C63 UNL A   1      11.985  51.778   6.391  1.00  0.00    +0.000 C 
ENDROOT
BRANCH   31   30
ATOM    139  H42 UNL A   1      14.688  54.250   7.948  1.00  0.00    +0.000 H 
ATOM    140  H43 UNL A   1      13.719  55.295   9.912  1.00  0.00    +0.000 H 
ATOM     88  C64 UNL A   1      13.732  54.636   7.901  1.00  0.00    +0.000 C 
ATOM     89  C65 UNL A   1      13.180  55.260   9.032  1.00  0.00    +0.000 C 
ATOM     27  C22 UNL A   1      11.907  55.832   8.973  1.00  0.00    +0.000 C 
ATOM     28  C23 UNL A   1      11.248  55.883   7.748  1.00  0.00    +0.000 C 
ATOM     29  C24 UNL A   1      11.767  55.196   6.641  1.00  0.00    +0.000 C 
ATOM     30  C25 UNL A   1      13.001  54.527   6.705  1.00  0.00    +0.000 C 
ATOM    127  H30 UNL A   1      10.376  56.427   7.656  1.00  0.00    +0.000 H 
ATOM    128  H31 UNL A   1      11.230  55.182   5.759  1.00  0.00    +0.000 H 
BRANCH   27   25
ATOM     25  C21 UNL A   1      11.306  56.389  10.211  1.00  0.00    +0.000 C 
ATOM     26  O2  UNL A   1      10.812  57.513  10.176  1.00  0.00    +0.000 O 
BRANCH   25   24
ATOM    126  H29 UNL A   1      11.820  56.144  12.137  1.00  0.00    +0.000 H 
ATOM     24  N3  UNL A   1      11.344  55.692  11.404  1.00  0.00    +0.000 N 
BRANCH   24   23
ATOM    124  H27 UNL A   1       9.723  54.472  11.719  1.00  0.00    +0.000 H 
ATOM    125  H28 UNL A   1      11.180  53.708  11.014  1.00  0.00    +0.000 H 
ATOM     23  C20 UNL A   1      10.790  54.392  11.739  1.00  0.00    +0.000 C 
BRANCH   23   22
ATOM    122  H25 UNL A   1      12.169  54.230  13.330  1.00  0.00    +0.000 H 
ATOM    123  H26 UNL A   1      10.412  54.148  13.764  1.00  0.00    +0.000 H 
ATOM     22  C19 UNL A   1      11.198  53.840  13.106  1.00  0.00    +0.000 C 
BRANCH   22   21
ATOM    121  H24 UNL A   1      11.203  51.944  12.276  1.00  0.00    +0.000 H 
ATOM     21  C18 UNL A   1      11.266  52.321  13.275  1.00  0.00    +0.000 C 
ATOM    120  H23 UNL A   1      10.473  52.042  13.937  1.00  0.00    +0.000 H 
BRANCH   21   20
ATOM     20  C17 UNL A   1      12.553  51.699  13.828  1.00  0.00    +0.000 C 
ATOM    118  H21 UNL A   1      12.470  51.709  14.894  1.00  0.00    +0.000 H 
ATOM    119  H22 UNL A   1      12.593  50.743  13.351  1.00  0.00    +0.000 H 
BRANCH   20   19
ATOM     19  C16 UNL A   1      13.908  52.326  13.484  1.00  0.00    +0.000 C 
ATOM    116  H19 UNL A   1      13.800  52.791  12.527  1.00  0.00    +0.000 H 
ATOM    117  H20 UNL A   1      14.104  52.967  14.319  1.00  0.00    +0.000 H 
BRANCH   19   18
ATOM     18  C15 UNL A   1      15.153  51.447  13.413  1.00  0.00    +0.000 C 
ATOM    115  H18 UNL A   1      14.806  50.503  13.046  1.00  0.00    +0.000 H 
ATOM    114  H17 UNL A   1      15.587  51.420  14.390  1.00  0.00    +0.000 H 
BRANCH   18   17
ATOM     17  N2  UNL A   1      16.182  51.848  12.493  1.00  0.00    +0.000 N 
ATOM    113  H16 UNL A   1      16.467  52.786  12.586  1.00  0.00    +0.000 H 
BRANCH   17   15
ATOM     15  C14 UNL A   1      16.840  51.151  11.506  1.00  0.00    +0.000 C 
ATOM     16  O1  UNL A   1      17.852  50.543  11.876  1.00  0.00    +0.000 O 
BRANCH   15   14
ATOM      9  C8  UNL A   1      15.275  51.434   9.392  1.00  0.00    +0.000 C 
ATOM     10  C9  UNL A   1      15.223  51.335   7.976  1.00  0.00    +0.000 C 
ATOM     11  C10 UNL A   1      16.251  50.772   7.227  1.00  0.00    +0.000 C 
ATOM     12  C11 UNL A   1      17.373  50.298   7.881  1.00  0.00    +0.000 C 
ATOM    109  H12 UNL A   1      14.391  51.695   7.483  1.00  0.00    +0.000 H 
ATOM     14  C13 UNL A   1      16.436  50.993  10.064  1.00  0.00    +0.000 C 
ATOM     13  C12 UNL A   1      17.468  50.423   9.272  1.00  0.00    +0.000 C 
ATOM    110  H13 UNL A   1      16.177  50.710   6.200  1.00  0.00    +0.000 H 
ATOM    112  H15 UNL A   1      18.324  50.088   9.741  1.00  0.00    +0.000 H 
ATOM    111  H14 UNL A   1      18.136  49.853   7.347  1.00  0.00    +0.000 H 
BRANCH    9    8
ATOM    108  H11 UNL A   1      14.005  52.763  10.355  1.00  0.00    +0.000 H 
ATOM      8  N1  UNL A   1      14.063  51.845  10.003  1.00  0.00    +0.000 N 
BRANCH    8    7
ATOM      1  C1  UNL A   1       8.136  50.315   8.927  1.00  0.00    +0.000 C 
ATOM      2  C2  UNL A   1       9.072  51.301   9.660  1.00  0.00    +0.000 C 
ATOM      3  C3  UNL A   1       9.121  52.572   8.784  1.00  0.00    +0.000 C 
ATOM      4  C4  UNL A   1       8.448  51.642  11.027  1.00  0.00    +0.000 C 
ATOM      5  C5  UNL A   1      10.465  50.721   9.935  1.00  0.00    +0.000 C 
ATOM      6  C6  UNL A   1      11.655  51.461   9.718  1.00  0.00    +0.000 C 
ATOM      7  C7  UNL A   1      12.921  50.996  10.133  1.00  0.00    +0.000 C 
ATOM    141  H44 UNL A   1      13.930  49.316  10.929  1.00  0.00    +0.000 H 
ATOM    142  H45 UNL A   1       9.963  46.612  10.704  1.00  0.00    +0.000 H 
ATOM    143  H46 UNL A   1       9.827  47.215  12.343  1.00  0.00    +0.000 H 
ATOM     90  C66 UNL A   1      13.010  49.707  10.672  1.00  0.00    +0.000 C 
ATOM     91  C67 UNL A   1      11.862  48.957  10.860  1.00  0.00    +0.000 C 
ATOM     92  C68 UNL A   1      10.624  49.467  10.523  1.00  0.00    +0.000 C 
ATOM     93  O3  UNL A   1       9.594  48.634  10.868  1.00  0.00    +0.000 O 
ATOM     94  C69 UNL A   1      10.202  47.422  11.362  1.00  0.00    +0.000 C 
ATOM     95  C70 UNL A   1      11.733  47.587  11.430  1.00  0.00    +0.000 C 
ATOM     98  H1  UNL A   1       7.185  50.780   8.765  1.00  0.00    +0.000 H 
ATOM     99  H2  UNL A   1       8.006  49.436   9.522  1.00  0.00    +0.000 H 
ATOM    100  H3  UNL A   1       8.566  50.049   7.984  1.00  0.00    +0.000 H 
ATOM    101  H4  UNL A   1       8.126  52.932   8.624  1.00  0.00    +0.000 H 
ATOM    102  H5  UNL A   1       9.572  52.339   7.842  1.00  0.00    +0.000 H 
ATOM    103  H6  UNL A   1       9.697  53.325   9.280  1.00  0.00    +0.000 H 
ATOM    104  H7  UNL A   1       7.471  52.052  10.880  1.00  0.00    +0.000 H 
ATOM    105  H8  UNL A   1       9.063  52.359  11.530  1.00  0.00    +0.000 H 
ATOM    106  H9  UNL A   1       8.377  50.755  11.619  1.00  0.00    +0.000 H 
ATOM    107  H10 UNL A   1      11.593  52.373   9.239  1.00  0.00    +0.000 H 
BRANCH   95   96
ATOM    145  H48 UNL A   1      13.502  46.647  10.676  1.00  0.00    +0.000 H 
ATOM    146  H49 UNL A   1      12.194  46.735   9.521  1.00  0.00    +0.000 H 
ATOM    144  H47 UNL A   1      12.132  45.573  10.825  1.00  0.00    +0.000 H 
ATOM     96  C71 UNL A   1      12.444  46.558  10.547  1.00  0.00    +0.000 C 
ENDBRANCH   95   96
BRANCH   95   97
ATOM     97  C72 UNL A   1      12.242  47.503  12.872  1.00  0.00    +0.000 C 
ATOM    147  H50 UNL A   1      11.847  46.625  13.339  1.00  0.00    +0.000 H 
ATOM    148  H51 UNL A   1      11.923  48.368  13.414  1.00  0.00    +0.000 H 
ATOM    149  H52 UNL A   1      13.311  47.457  12.871  1.00  0.00    +0.000 H 
ENDBRANCH   95   97
ENDBRANCH    8    7
ENDBRANCH    9    8
ENDBRANCH   15   14
ENDBRANCH   17   15
ENDBRANCH   18   17
ENDBRANCH   19   18
ENDBRANCH   20   19
ENDBRANCH   21   20
ENDBRANCH   22   21
ENDBRANCH   23   22
ENDBRANCH   24   23
ENDBRANCH   25   24
ENDBRANCH   27   25
ENDBRANCH   31   30
BRANCH   35   36
ATOM     36  C30 UNL A   1      11.943  47.813   5.057  1.00  0.00    +0.000 C 
ATOM     37  C31 UNL A   1      10.656  47.520   4.586  1.00  0.00    +0.000 C 
ATOM     38  F1  UNL A   1      10.105  48.268   3.619  1.00  0.00    +0.000 F 
ATOM     39  C32 UNL A   1       9.919  46.467   5.124  1.00  0.00    +0.000 C 
ATOM     40  F2  UNL A   1       8.678  46.226   4.681  1.00  0.00    +0.000 F 
ATOM     41  C33 UNL A   1      10.466  45.670   6.119  1.00  0.00    +0.000 C 
ATOM     42  F3  UNL A   1       9.763  44.646   6.623  1.00  0.00    +0.000 F 
ATOM     43  C34 UNL A   1      11.741  45.935   6.593  1.00  0.00    +0.000 C 
ATOM     44  F4  UNL A   1      12.279  45.155   7.542  1.00  0.00    +0.000 F 
ATOM     45  C35 UNL A   1      12.469  47.004   6.078  1.00  0.00    +0.000 C 
ATOM     46  F5  UNL A   1      13.703  47.234   6.555  1.00  0.00    +0.000 F 
ENDBRANCH   35   36
BRANCH   52   53
ATOM     53  C41 UNL A   1      16.510  48.439  -0.464  1.00  0.00    +0.000 C 
ATOM     54  C42 UNL A   1      17.793  47.891  -0.324  1.00  0.00    +0.000 C 
ATOM     55  F6  UNL A   1      18.549  48.204   0.738  1.00  0.00    +0.000 F 
ATOM     56  C43 UNL A   1      18.316  47.035  -1.292  1.00  0.00    +0.000 C 
ATOM     57  F7  UNL A   1      19.557  46.549  -1.154  1.00  0.00    +0.000 F 
ATOM     58  C44 UNL A   1      17.557  46.691  -2.401  1.00  0.00    +0.000 C 
ATOM     59  F8  UNL A   1      18.056  45.858  -3.324  1.00  0.00    +0.000 F 
ATOM     60  C45 UNL A   1      16.282  47.213  -2.554  1.00  0.00    +0.000 C 
ATOM     61  F9  UNL A   1      15.543  46.872  -3.619  1.00  0.00    +0.000 F 
ATOM     62  C46 UNL A   1      15.766  48.089  -1.601  1.00  0.00    +0.000 C 
ATOM     63  F10 UNL A   1      14.531  48.580  -1.780  1.00  0.00    +0.000 F 
ENDBRANCH   52   53
BRANCH   67   68
ATOM     68  C50 UNL A   1      17.124  55.226   0.995  1.00  0.00    +0.000 C 
ATOM     69  C51 UNL A   1      18.421  55.552   1.415  1.00  0.00    +0.000 C 
ATOM     70  F11 UNL A   1      18.985  54.883   2.431  1.00  0.00    +0.000 F 
ATOM     71  C52 UNL A   1      19.132  56.591   0.816  1.00  0.00    +0.000 C 
ATOM     72  F12 UNL A   1      20.356  56.906   1.261  1.00  0.00    +0.000 F 
ATOM     73  C53 UNL A   1      18.568  57.306  -0.230  1.00  0.00    +0.000 C 
ATOM     74  F13 UNL A   1      19.256  58.297  -0.815  1.00  0.00    +0.000 F 
ATOM     75  C54 UNL A   1      17.288  56.998  -0.665  1.00  0.00    +0.000 C 
ATOM     76  F14 UNL A   1      16.745  57.679  -1.684  1.00  0.00    +0.000 F 
ATOM     77  C55 UNL A   1      16.566  55.979  -0.048  1.00  0.00    +0.000 C 
ATOM     78  F15 UNL A   1      15.325  55.714  -0.479  1.00  0.00    +0.000 F 
ENDBRANCH   67   68
TORSDOF 19
ENDMDL
MODEL 4
REMARK VINA RESULT:      -9.6      2.634      6.792
ROOT
ATOM    129  H32 UNL A   1      13.500  46.602   2.468  1.00  0.00    +0.000 H 
ATOM    130  H33 UNL A   1      15.185  46.899   0.502  1.00  0.00    +0.000 H 
ATOM    131  H34 UNL A   1      14.963  50.473   2.585  1.00  0.00    +0.000 H 
ATOM    132  H35 UNL A   1      16.545  56.590   3.280  1.00  0.00    +0.000 H 
ATOM    133  H36 UNL A   1      15.219  56.203   5.409  1.00  0.00    +0.000 H 
ATOM    134  H37 UNL A   1      15.179  52.669   3.221  1.00  0.00    +0.000 H 
ATOM    135  H38 UNL A   1      18.447  53.471  -0.582  1.00  0.00    +0.000 H 
ATOM    136  H39 UNL A   1      18.033  51.059  -1.330  1.00  0.00    +0.000 H 
ATOM    137  H40 UNL A   1      11.746  49.761   6.397  1.00  0.00    +0.000 H 
ATOM    138  H41 UNL A   1      11.983  52.228   7.035  1.00  0.00    +0.000 H 
ATOM     31  C26 UNL A   1      14.031  53.613   5.598  1.00  0.00    +0.000 C 
ATOM     32  C27 UNL A   1      13.542  52.192   5.390  1.00  0.00    +0.000 C 
ATOM     33  N4  UNL A   1      13.922  51.299   4.506  1.00  0.00    +0.000 N 
ATOM     34  C28 UNL A   1      13.193  50.146   4.783  1.00  0.00    +0.000 C 
ATOM     35  C29 UNL A   1      13.200  48.951   4.141  1.00  0.00    +0.000 C 
ATOM     47  C36 UNL A   1      13.972  48.648   2.963  1.00  0.00    +0.000 C 
ATOM     48  C37 UNL A   1      14.028  47.461   2.250  1.00  0.00    +0.000 C 
ATOM     49  C38 UNL A   1      14.921  47.624   1.187  1.00  0.00    +0.000 C 
ATOM     50  C39 UNL A   1      15.387  48.927   1.210  1.00  0.00    +0.000 C 
ATOM     51  N5  UNL A   1      14.806  49.542   2.309  1.00  0.00    +0.000 N 
ATOM     52  C40 UNL A   1      16.301  49.570   0.303  1.00  0.00    +0.000 C 
ATOM     64  C47 UNL A   1      16.675  50.869   0.391  1.00  0.00    +0.000 C 
ATOM     65  N6  UNL A   1      16.283  51.822   1.322  1.00  0.00    +0.000 N 
ATOM     66  C48 UNL A   1      16.927  52.918   1.008  1.00  0.00    +0.000 C 
ATOM     67  C49 UNL A   1      16.888  54.269   1.671  1.00  0.00    +0.000 C 
ATOM     79  C56 UNL A   1      16.162  54.454   2.792  1.00  0.00    +0.000 C 
ATOM     80  C57 UNL A   1      16.101  55.700   3.555  1.00  0.00    +0.000 C 
ATOM     81  C58 UNL A   1      15.376  55.503   4.666  1.00  0.00    +0.000 C 
ATOM     82  C59 UNL A   1      14.846  54.141   4.661  1.00  0.00    +0.000 C 
ATOM     83  N7  UNL A   1      15.364  53.593   3.507  1.00  0.00    +0.000 N 
ATOM     84  C60 UNL A   1      17.817  52.774  -0.156  1.00  0.00    +0.000 C 
ATOM     85  C61 UNL A   1      17.599  51.516  -0.513  1.00  0.00    +0.000 C 
ATOM     86  C62 UNL A   1      12.361  50.445   5.929  1.00  0.00    +0.000 C 
ATOM     87  C63 UNL A   1      12.490  51.712   6.298  1.00  0.00    +0.000 C 
ENDROOT
BRANCH   31   30
ATOM    139  H42 UNL A   1      15.113  53.767   8.092  1.00  0.00    +0.000 H 
ATOM    140  H43 UNL A   1      14.143  54.715  10.103  1.00  0.00    +0.000 H 
ATOM     88  C64 UNL A   1      14.222  54.283   8.033  1.00  0.00    +0.000 C 
ATOM     89  C65 UNL A   1      13.672  54.850   9.194  1.00  0.00    +0.000 C 
ATOM     27  C22 UNL A   1      12.492  55.596   9.127  1.00  0.00    +0.000 C 
ATOM     28  C23 UNL A   1      11.940  55.870   7.879  1.00  0.00    +0.000 C 
ATOM     29  C24 UNL A   1      12.447  55.242   6.731  1.00  0.00    +0.000 C 
ATOM     30  C25 UNL A   1      13.576  54.407   6.791  1.00  0.00    +0.000 C 
ATOM    127  H30 UNL A   1      11.156  56.536   7.798  1.00  0.00    +0.000 H 
ATOM    128  H31 UNL A   1      11.982  55.399   5.823  1.00  0.00    +0.000 H 
BRANCH   27   25
ATOM     25  C21 UNL A   1      11.876  56.092  10.383  1.00  0.00    +0.000 C 
ATOM     26  O2  UNL A   1      11.382  57.217  10.397  1.00  0.00    +0.000 O 
BRANCH   25   24
ATOM    126  H29 UNL A   1      12.360  54.470  11.464  1.00  0.00    +0.000 H 
ATOM     24  N3  UNL A   1      11.901  55.338  11.541  1.00  0.00    +0.000 N 
BRANCH   24   23
ATOM    124  H27 UNL A   1      11.397  56.689  13.001  1.00  0.00    +0.000 H 
ATOM    125  H28 UNL A   1      10.355  55.242  12.850  1.00  0.00    +0.000 H 
ATOM     23  C20 UNL A   1      11.352  55.631  12.853  1.00  0.00    +0.000 C 
BRANCH   23   22
ATOM    122  H25 UNL A   1      13.118  55.032  13.844  1.00  0.00    +0.000 H 
ATOM    123  H26 UNL A   1      11.708  55.476  14.891  1.00  0.00    +0.000 H 
ATOM     22  C19 UNL A   1      12.067  54.957  14.026  1.00  0.00    +0.000 C 
BRANCH   22   21
ATOM    121  H24 UNL A   1      10.919  53.272  13.675  1.00  0.00    +0.000 H 
ATOM     21  C18 UNL A   1      11.756  53.485  14.306  1.00  0.00    +0.000 C 
ATOM    120  H23 UNL A   1      11.589  53.394  15.360  1.00  0.00    +0.000 H 
BRANCH   21   20
ATOM     20  C17 UNL A   1      12.795  52.427  13.921  1.00  0.00    +0.000 C 
ATOM    118  H21 UNL A   1      13.547  52.440  14.680  1.00  0.00    +0.000 H 
ATOM    119  H22 UNL A   1      12.216  51.534  13.822  1.00  0.00    +0.000 H 
BRANCH   20   19
ATOM     19  C16 UNL A   1      13.521  52.531  12.576  1.00  0.00    +0.000 C 
ATOM    116  H19 UNL A   1      13.212  51.690  11.991  1.00  0.00    +0.000 H 
ATOM    117  H20 UNL A   1      13.245  53.502  12.219  1.00  0.00    +0.000 H 
BRANCH   19   18
ATOM     18  C15 UNL A   1      15.046  52.561  12.539  1.00  0.00    +0.000 C 
ATOM    115  H18 UNL A   1      15.344  52.828  13.532  1.00  0.00    +0.000 H 
ATOM    114  H17 UNL A   1      15.338  53.254  11.778  1.00  0.00    +0.000 H 
BRANCH   18   17
ATOM     17  N2  UNL A   1      15.716  51.318  12.271  1.00  0.00    +0.000 N 
ATOM    113  H16 UNL A   1      15.452  50.578  12.864  1.00  0.00    +0.000 H 
BRANCH   17   15
ATOM     15  C14 UNL A   1      16.662  50.980  11.329  1.00  0.00    +0.000 C 
ATOM     16  O1  UNL A   1      17.836  51.082  11.704  1.00  0.00    +0.000 O 
BRANCH   15   14
ATOM      9  C8  UNL A   1      15.411  49.600   9.451  1.00  0.00    +0.000 C 
ATOM     10  C9  UNL A   1      15.297  49.404   8.049  1.00  0.00    +0.000 C 
ATOM     11  C10 UNL A   1      16.184  49.972   7.140  1.00  0.00    +0.000 C 
ATOM     12  C11 UNL A   1      17.212  50.766   7.615  1.00  0.00    +0.000 C 
ATOM    109  H12 UNL A   1      14.527  48.818   7.690  1.00  0.00    +0.000 H 
ATOM     14  C13 UNL A   1      16.429  50.447   9.941  1.00  0.00    +0.000 C 
ATOM     13  C12 UNL A   1      17.319  51.011   8.988  1.00  0.00    +0.000 C 
ATOM    110  H13 UNL A   1      16.077  49.802   6.128  1.00  0.00    +0.000 H 
ATOM    112  H15 UNL A   1      18.075  51.628   9.323  1.00  0.00    +0.000 H 
ATOM    111  H14 UNL A   1      17.896  51.176   6.959  1.00  0.00    +0.000 H 
BRANCH    9    8
ATOM    108  H11 UNL A   1      14.835  47.868  10.439  1.00  0.00    +0.000 H 
ATOM      8  N1  UNL A   1      14.552  48.789  10.235  1.00  0.00    +0.000 N 
BRANCH    8    7
ATOM      1  C1  UNL A   1      10.427  49.722  14.790  1.00  0.00    +0.000 C 
ATOM      2  C2  UNL A   1      11.135  48.655  13.927  1.00  0.00    +0.000 C 
ATOM      3  C3  UNL A   1      12.283  48.097  14.797  1.00  0.00    +0.000 C 
ATOM      4  C4  UNL A   1      10.129  47.529  13.621  1.00  0.00    +0.000 C 
ATOM      5  C5  UNL A   1      11.626  49.195  12.579  1.00  0.00    +0.000 C 
ATOM      6  C6  UNL A   1      12.909  48.889  12.057  1.00  0.00    +0.000 C 
ATOM      7  C7  UNL A   1      13.296  49.240  10.746  1.00  0.00    +0.000 C 
ATOM    141  H44 UNL A   1      12.697  50.340   9.041  1.00  0.00    +0.000 H 
ATOM    142  H45 UNL A   1       8.830  52.075  11.308  1.00  0.00    +0.000 H 
ATOM    143  H46 UNL A   1       8.129  50.659  10.550  1.00  0.00    +0.000 H 
ATOM     90  C66 UNL A   1      12.418  50.018   9.981  1.00  0.00    +0.000 C 
ATOM     91  C67 UNL A   1      11.175  50.354  10.488  1.00  0.00    +0.000 C 
ATOM     92  C68 UNL A   1      10.786  49.929  11.743  1.00  0.00    +0.000 C 
ATOM     93  O3  UNL A   1       9.493  50.265  12.041  1.00  0.00    +0.000 O 
ATOM     94  C69 UNL A   1       9.026  51.085  10.949  1.00  0.00    +0.000 C 
ATOM     95  C70 UNL A   1      10.094  51.148   9.840  1.00  0.00    +0.000 C 
ATOM     98  H1  UNL A   1      10.111  49.282  15.713  1.00  0.00    +0.000 H 
ATOM     99  H2  UNL A   1       9.575  50.099  14.264  1.00  0.00    +0.000 H 
ATOM    100  H3  UNL A   1      11.106  50.525  14.993  1.00  0.00    +0.000 H 
ATOM    101  H4  UNL A   1      11.884  47.735  15.722  1.00  0.00    +0.000 H 
ATOM    102  H5  UNL A   1      12.991  48.874  14.994  1.00  0.00    +0.000 H 
ATOM    103  H6  UNL A   1      12.765  47.295  14.279  1.00  0.00    +0.000 H 
ATOM    104  H7  UNL A   1       9.759  47.121  14.538  1.00  0.00    +0.000 H 
ATOM    105  H8  UNL A   1      10.616  46.758  13.060  1.00  0.00    +0.000 H 
ATOM    106  H9  UNL A   1       9.313  47.923  13.052  1.00  0.00    +0.000 H 
ATOM    107  H10 UNL A   1      13.585  48.393  12.658  1.00  0.00    +0.000 H 
BRANCH   95   96
ATOM    145  H48 UNL A   1      10.288  53.197  10.425  1.00  0.00    +0.000 H 
ATOM    146  H49 UNL A   1      10.070  52.964   8.708  1.00  0.00    +0.000 H 
ATOM    144  H47 UNL A   1      11.611  52.606   9.450  1.00  0.00    +0.000 H 
ATOM     96  C71 UNL A   1      10.550  52.587   9.587  1.00  0.00    +0.000 C 
ENDBRANCH   95   96
BRANCH   95   97
ATOM     97  C72 UNL A   1       9.593  50.505   8.543  1.00  0.00    +0.000 C 
ATOM    147  H50 UNL A   1       9.059  51.232   7.968  1.00  0.00    +0.000 H 
ATOM    148  H51 UNL A   1       8.943  49.688   8.777  1.00  0.00    +0.000 H 
ATOM    149  H52 UNL A   1      10.428  50.146   7.977  1.00  0.00    +0.000 H 
ENDBRANCH   95   97
ENDBRANCH    8    7
ENDBRANCH    9    8
ENDBRANCH   15   14
ENDBRANCH   17   15
ENDBRANCH   18   17
ENDBRANCH   19   18
ENDBRANCH   20   19
ENDBRANCH   21   20
ENDBRANCH   22   21
ENDBRANCH   23   22
ENDBRANCH   24   23
ENDBRANCH   25   24
ENDBRANCH   27   25
ENDBRANCH   31   30
BRANCH   35   36
ATOM     36  C30 UNL A   1      12.339  47.850   4.694  1.00  0.00    +0.000 C 
ATOM     37  C31 UNL A   1      11.044  47.614   4.211  1.00  0.00    +0.000 C 
ATOM     38  F1  UNL A   1      10.506  48.434   3.296  1.00  0.00    +0.000 F 
ATOM     39  C32 UNL A   1      10.288  46.544   4.684  1.00  0.00    +0.000 C 
ATOM     40  F2  UNL A   1       9.042  46.357   4.231  1.00  0.00    +0.000 F 
ATOM     41  C33 UNL A   1      10.822  45.674   5.624  1.00  0.00    +0.000 C 
ATOM     42  F3  UNL A   1      10.099  44.634   6.063  1.00  0.00    +0.000 F 
ATOM     43  C34 UNL A   1      12.103  45.883   6.108  1.00  0.00    +0.000 C 
ATOM     44  F4  UNL A   1      12.628  45.033   7.003  1.00  0.00    +0.000 F 
ATOM     45  C35 UNL A   1      12.852  46.968   5.658  1.00  0.00    +0.000 C 
ATOM     46  F5  UNL A   1      14.091  47.142   6.145  1.00  0.00    +0.000 F 
ENDBRANCH   35   36
BRANCH   52   53
ATOM     53  C41 UNL A   1      16.866  48.751  -0.822  1.00  0.00    +0.000 C 
ATOM     54  C42 UNL A   1      18.068  48.043  -0.681  1.00  0.00    +0.000 C 
ATOM     55  F6  UNL A   1      18.782  48.142   0.450  1.00  0.00    +0.000 F 
ATOM     56  C43 UNL A   1      18.556  47.247  -1.716  1.00  0.00    +0.000 C 
ATOM     57  F7  UNL A   1      19.724  46.605  -1.571  1.00  0.00    +0.000 F 
ATOM     58  C44 UNL A   1      17.839  47.122  -2.897  1.00  0.00    +0.000 C 
ATOM     59  F8  UNL A   1      18.304  46.347  -3.886  1.00  0.00    +0.000 F 
ATOM     60  C45 UNL A   1      16.644  47.805  -3.054  1.00  0.00    +0.000 C 
ATOM     61  F9  UNL A   1      15.944  47.677  -4.190  1.00  0.00    +0.000 F 
ATOM     62  C46 UNL A   1      16.166  48.622  -2.031  1.00  0.00    +0.000 C 
ATOM     63  F10 UNL A   1      15.007  49.272  -2.215  1.00  0.00    +0.000 F 
ENDBRANCH   52   53
BRANCH   67   68
ATOM     68  C50 UNL A   1      17.659  55.404   1.096  1.00  0.00    +0.000 C 
ATOM     69  C51 UNL A   1      18.945  55.706   1.565  1.00  0.00    +0.000 C 
ATOM     70  F11 UNL A   1      19.478  54.991   2.566  1.00  0.00    +0.000 F 
ATOM     71  C52 UNL A   1      19.674  56.767   1.032  1.00  0.00    +0.000 C 
ATOM     72  F12 UNL A   1      20.886  57.058   1.524  1.00  0.00    +0.000 F 
ATOM     73  C53 UNL A   1      19.141  57.530   0.003  1.00  0.00    +0.000 C 
ATOM     74  F13 UNL A   1      19.848  58.542  -0.519  1.00  0.00    +0.000 F 
ATOM     75  C54 UNL A   1      17.873  57.246  -0.480  1.00  0.00    +0.000 C 
ATOM     76  F14 UNL A   1      17.361  57.972  -1.483  1.00  0.00    +0.000 F 
ATOM     77  C55 UNL A   1      17.132  56.204   0.072  1.00  0.00    +0.000 C 
ATOM     78  F15 UNL A   1      15.903  55.962  -0.405  1.00  0.00    +0.000 F 
ENDBRANCH   67   68
TORSDOF 19
ENDMDL
MODEL 5
REMARK VINA RESULT:      -9.6      2.833      7.286
ROOT
ATOM    129  H32 UNL A   1      13.653  46.662   2.214  1.00  0.00    +0.000 H 
ATOM    130  H33 UNL A   1      15.361  47.083   0.291  1.00  0.00    +0.000 H 
ATOM    131  H34 UNL A   1      14.999  50.567   2.504  1.00  0.00    +0.000 H 
ATOM    132  H35 UNL A   1      16.389  56.695   3.459  1.00  0.00    +0.000 H 
ATOM    133  H36 UNL A   1      15.040  56.188   5.548  1.00  0.00    +0.000 H 
ATOM    134  H37 UNL A   1      15.140  52.741   3.227  1.00  0.00    +0.000 H 
ATOM    135  H38 UNL A   1      18.446  53.783  -0.485  1.00  0.00    +0.000 H 
ATOM    136  H39 UNL A   1      18.115  51.391  -1.332  1.00  0.00    +0.000 H 
ATOM    137  H40 UNL A   1      11.743  49.615   6.229  1.00  0.00    +0.000 H 
ATOM    138  H41 UNL A   1      11.896  52.061   6.964  1.00  0.00    +0.000 H 
ATOM     31  C26 UNL A   1      13.926  53.560   5.618  1.00  0.00    +0.000 C 
ATOM     32  C27 UNL A   1      13.483  52.134   5.347  1.00  0.00    +0.000 C 
ATOM     33  N4  UNL A   1      13.903  51.287   4.437  1.00  0.00    +0.000 N 
ATOM     34  C28 UNL A   1      13.204  50.104   4.657  1.00  0.00    +0.000 C 
ATOM     35  C29 UNL A   1      13.256  48.935   3.970  1.00  0.00    +0.000 C 
ATOM     47  C36 UNL A   1      14.057  48.701   2.795  1.00  0.00    +0.000 C 
ATOM     48  C37 UNL A   1      14.159  47.543   2.039  1.00  0.00    +0.000 C 
ATOM     49  C38 UNL A   1      15.064  47.773   0.998  1.00  0.00    +0.000 C 
ATOM     50  C39 UNL A   1      15.491  49.087   1.079  1.00  0.00    +0.000 C 
ATOM     51  N5  UNL A   1      14.875  49.642   2.191  1.00  0.00    +0.000 N 
ATOM     52  C40 UNL A   1      16.401  49.790   0.213  1.00  0.00    +0.000 C 
ATOM     64  C47 UNL A   1      16.735  51.095   0.357  1.00  0.00    +0.000 C 
ATOM     65  N6  UNL A   1      16.300  52.000   1.317  1.00  0.00    +0.000 N 
ATOM     66  C48 UNL A   1      16.917  53.126   1.056  1.00  0.00    +0.000 C 
ATOM     67  C49 UNL A   1      16.826  54.448   1.769  1.00  0.00    +0.000 C 
ATOM     79  C56 UNL A   1      16.077  54.570   2.884  1.00  0.00    +0.000 C 
ATOM     80  C57 UNL A   1      15.967  55.782   3.692  1.00  0.00    +0.000 C 
ATOM     81  C58 UNL A   1      15.230  55.523   4.782  1.00  0.00    +0.000 C 
ATOM     82  C59 UNL A   1      14.741  54.147   4.716  1.00  0.00    +0.000 C 
ATOM     83  N7  UNL A   1      15.293  53.659   3.551  1.00  0.00    +0.000 N 
ATOM     84  C60 UNL A   1      17.829  53.052  -0.097  1.00  0.00    +0.000 C 
ATOM     85  C61 UNL A   1      17.654  51.803  -0.505  1.00  0.00    +0.000 C 
ATOM     86  C62 UNL A   1      12.345  50.335   5.798  1.00  0.00    +0.000 C 
ATOM     87  C63 UNL A   1      12.431  51.589   6.218  1.00  0.00    +0.000 C 
ENDROOT
BRANCH   31   30
ATOM    139  H42 UNL A   1      14.978  53.672   8.127  1.00  0.00    +0.000 H 
ATOM    140  H43 UNL A   1      13.952  54.511  10.158  1.00  0.00    +0.000 H 
ATOM     88  C64 UNL A   1      14.067  54.154   8.075  1.00  0.00    +0.000 C 
ATOM     89  C65 UNL A   1      13.484  54.659   9.250  1.00  0.00    +0.000 C 
ATOM     27  C22 UNL A   1      12.276  55.358   9.195  1.00  0.00    +0.000 C 
ATOM     28  C23 UNL A   1      11.724  55.652   7.951  1.00  0.00    +0.000 C 
ATOM     29  C24 UNL A   1      12.267  55.084   6.788  1.00  0.00    +0.000 C 
ATOM     30  C25 UNL A   1      13.428  54.294   6.832  1.00  0.00    +0.000 C 
ATOM    127  H30 UNL A   1      10.915  56.288   7.885  1.00  0.00    +0.000 H 
ATOM    128  H31 UNL A   1      11.804  55.253   5.882  1.00  0.00    +0.000 H 
BRANCH   27   25
ATOM     25  C21 UNL A   1      11.629  55.785  10.460  1.00  0.00    +0.000 C 
ATOM     26  O2  UNL A   1      11.084  56.886  10.505  1.00  0.00    +0.000 O 
BRANCH   25   24
ATOM    126  H29 UNL A   1      12.531  55.031  12.088  1.00  0.00    +0.000 H 
ATOM     24  N3  UNL A   1      11.680  54.997  11.594  1.00  0.00    +0.000 N 
BRANCH   24   23
ATOM    124  H27 UNL A   1      11.119  53.579  12.969  1.00  0.00    +0.000 H 
ATOM    125  H28 UNL A   1       9.871  54.765  12.481  1.00  0.00    +0.000 H 
ATOM     23  C20 UNL A   1      10.669  54.126  12.167  1.00  0.00    +0.000 C 
BRANCH   23   22
ATOM    122  H25 UNL A   1      10.774  52.921  10.436  1.00  0.00    +0.000 H 
ATOM    123  H26 UNL A   1       9.783  52.284  11.812  1.00  0.00    +0.000 H 
ATOM     22  C19 UNL A   1      10.048  53.119  11.197  1.00  0.00    +0.000 C 
BRANCH   22   21
ATOM    121  H24 UNL A   1       8.478  54.442  10.942  1.00  0.00    +0.000 H 
ATOM     21  C18 UNL A   1       8.745  53.507  10.495  1.00  0.00    +0.000 C 
ATOM    120  H23 UNL A   1       8.057  52.700  10.638  1.00  0.00    +0.000 H 
BRANCH   21   20
ATOM     20  C17 UNL A   1       8.780  53.808   8.993  1.00  0.00    +0.000 C 
ATOM    118  H21 UNL A   1       7.766  53.939   8.679  1.00  0.00    +0.000 H 
ATOM    119  H22 UNL A   1       9.426  54.658   8.924  1.00  0.00    +0.000 H 
BRANCH   20   19
ATOM     19  C16 UNL A   1       9.415  52.799   8.031  1.00  0.00    +0.000 C 
ATOM    116  H19 UNL A   1       9.940  53.365   7.290  1.00  0.00    +0.000 H 
ATOM    117  H20 UNL A   1      10.000  52.176   8.676  1.00  0.00    +0.000 H 
BRANCH   19   18
ATOM     18  C15 UNL A   1       8.530  51.805   7.285  1.00  0.00    +0.000 C 
ATOM    115  H18 UNL A   1       9.033  51.628   6.356  1.00  0.00    +0.000 H 
ATOM    114  H17 UNL A   1       7.557  52.241   7.195  1.00  0.00    +0.000 H 
BRANCH   18   17
ATOM     17  N2  UNL A   1       8.370  50.504   7.874  1.00  0.00    +0.000 N 
ATOM    113  H16 UNL A   1       7.693  50.463   8.588  1.00  0.00    +0.000 H 
BRANCH   17   15
ATOM     15  C14 UNL A   1       8.995  49.305   7.615  1.00  0.00    +0.000 C 
ATOM     16  O1  UNL A   1       8.782  48.833   6.493  1.00  0.00    +0.000 O 
BRANCH   15   14
ATOM      9  C8  UNL A   1      10.949  49.032   9.378  1.00  0.00    +0.000 C 
ATOM     10  C9  UNL A   1      11.579  48.120  10.266  1.00  0.00    +0.000 C 
ATOM     11  C10 UNL A   1      11.286  46.760  10.274  1.00  0.00    +0.000 C 
ATOM     12  C11 UNL A   1      10.338  46.274   9.392  1.00  0.00    +0.000 C 
ATOM    109  H12 UNL A   1      12.282  48.479  10.931  1.00  0.00    +0.000 H 
ATOM     14  C13 UNL A   1       9.947  48.552   8.506  1.00  0.00    +0.000 C 
ATOM     13  C12 UNL A   1       9.671  47.159   8.538  1.00  0.00    +0.000 C 
ATOM    110  H13 UNL A   1      11.769  46.124  10.927  1.00  0.00    +0.000 H 
ATOM    112  H15 UNL A   1       8.947  46.784   7.905  1.00  0.00    +0.000 H 
ATOM    111  H14 UNL A   1      10.124  45.265   9.364  1.00  0.00    +0.000 H 
BRANCH    9    8
ATOM    108  H11 UNL A   1      10.945  51.085   9.072  1.00  0.00    +0.000 H 
ATOM      8  N1  UNL A   1      11.511  50.334   9.367  1.00  0.00    +0.000 N 
BRANCH    8    7
ATOM      1  C1  UNL A   1      17.609  50.881   8.299  1.00  0.00    +0.000 C 
ATOM      2  C2  UNL A   1      16.432  49.888   8.419  1.00  0.00    +0.000 C 
ATOM      3  C3  UNL A   1      15.996  49.570   6.971  1.00  0.00    +0.000 C 
ATOM      4  C4  UNL A   1      16.946  48.602   9.094  1.00  0.00    +0.000 C 
ATOM      5  C5  UNL A   1      15.279  50.417   9.280  1.00  0.00    +0.000 C 
ATOM      6  C6  UNL A   1      13.920  50.285   8.897  1.00  0.00    +0.000 C 
ATOM      7  C7  UNL A   1      12.855  50.612   9.763  1.00  0.00    +0.000 C 
ATOM    141  H44 UNL A   1      12.402  51.500  11.628  1.00  0.00    +0.000 H 
ATOM    142  H45 UNL A   1      16.989  52.741  12.345  1.00  0.00    +0.000 H 
ATOM    143  H46 UNL A   1      16.963  51.190  13.160  1.00  0.00    +0.000 H 
ATOM     90  C66 UNL A   1      13.160  51.195  10.999  1.00  0.00    +0.000 C 
ATOM     91  C67 UNL A   1      14.482  51.362  11.374  1.00  0.00    +0.000 C 
ATOM     92  C68 UNL A   1      15.508  50.958  10.544  1.00  0.00    +0.000 C 
ATOM     93  O3  UNL A   1      16.743  51.105  11.114  1.00  0.00    +0.000 O 
ATOM     94  C69 UNL A   1      16.530  51.775  12.375  1.00  0.00    +0.000 C 
ATOM     95  C70 UNL A   1      15.020  51.937  12.639  1.00  0.00    +0.000 C 
ATOM     98  H1  UNL A   1      18.377  50.453   7.688  1.00  0.00    +0.000 H 
ATOM     99  H2  UNL A   1      18.002  51.088   9.272  1.00  0.00    +0.000 H 
ATOM    100  H3  UNL A   1      17.264  51.791   7.853  1.00  0.00    +0.000 H 
ATOM    101  H4  UNL A   1      16.837  49.207   6.418  1.00  0.00    +0.000 H 
ATOM    102  H5  UNL A   1      15.622  50.459   6.508  1.00  0.00    +0.000 H 
ATOM    103  H6  UNL A   1      15.229  48.824   6.986  1.00  0.00    +0.000 H 
ATOM    104  H7  UNL A   1      17.755  48.197   8.523  1.00  0.00    +0.000 H 
ATOM    105  H8  UNL A   1      16.153  47.885   9.145  1.00  0.00    +0.000 H 
ATOM    106  H9  UNL A   1      17.285  48.829  10.083  1.00  0.00    +0.000 H 
ATOM    107  H10 UNL A   1      13.702  49.937   7.950  1.00  0.00    +0.000 H 
BRANCH   95   96
ATOM    145  H48 UNL A   1      15.101  53.824  13.647  1.00  0.00    +0.000 H 
ATOM    146  H49 UNL A   1      13.572  53.496  12.868  1.00  0.00    +0.000 H 
ATOM    144  H47 UNL A   1      14.962  53.948  11.910  1.00  0.00    +0.000 H 
ATOM     96  C71 UNL A   1      14.635  53.412  12.777  1.00  0.00    +0.000 C 
ENDBRANCH   95   96
BRANCH   95   97
ATOM     97  C72 UNL A   1      14.579  51.146  13.874  1.00  0.00    +0.000 C 
ATOM    147  H50 UNL A   1      14.303  50.155  13.583  1.00  0.00    +0.000 H 
ATOM    148  H51 UNL A   1      13.741  51.631  14.328  1.00  0.00    +0.000 H 
ATOM    149  H52 UNL A   1      15.387  51.100  14.575  1.00  0.00    +0.000 H 
ENDBRANCH   95   97
ENDBRANCH    8    7
ENDBRANCH    9    8
ENDBRANCH   15   14
ENDBRANCH   17   15
ENDBRANCH   18   17
ENDBRANCH   19   18
ENDBRANCH   20   19
ENDBRANCH   21   20
ENDBRANCH   22   21
ENDBRANCH   23   22
ENDBRANCH   24   23
ENDBRANCH   25   24
ENDBRANCH   27   25
ENDBRANCH   31   30
BRANCH   35   36
ATOM     36  C30 UNL A   1      12.419  47.790   4.465  1.00  0.00    +0.000 C 
ATOM     37  C31 UNL A   1      12.832  46.986   5.537  1.00  0.00    +0.000 C 
ATOM     38  F1  UNL A   1      14.040  47.168   6.090  1.00  0.00    +0.000 F 
ATOM     39  C32 UNL A   1      12.011  45.975   6.031  1.00  0.00    +0.000 C 
ATOM     40  F2  UNL A   1      12.439  45.198   7.034  1.00  0.00    +0.000 F 
ATOM     41  C33 UNL A   1      10.752  45.769   5.484  1.00  0.00    +0.000 C 
ATOM     42  F3  UNL A   1       9.956  44.808   5.973  1.00  0.00    +0.000 F 
ATOM     43  C34 UNL A   1      10.319  46.558   4.431  1.00  0.00    +0.000 C 
ATOM     44  F4  UNL A   1       9.097  46.373   3.913  1.00  0.00    +0.000 F 
ATOM     45  C35 UNL A   1      11.149  47.551   3.916  1.00  0.00    +0.000 C 
ATOM     46  F5  UNL A   1      10.701  48.301   2.897  1.00  0.00    +0.000 F 
ENDBRANCH   35   36
BRANCH   52   53
ATOM     53  C41 UNL A   1      17.007  49.032  -0.932  1.00  0.00    +0.000 C 
ATOM     54  C42 UNL A   1      18.157  48.247  -0.764  1.00  0.00    +0.000 C 
ATOM     55  F6  UNL A   1      18.786  48.215   0.421  1.00  0.00    +0.000 F 
ATOM     56  C43 UNL A   1      18.682  47.508  -1.822  1.00  0.00    +0.000 C 
ATOM     57  F7  UNL A   1      19.801  46.791  -1.647  1.00  0.00    +0.000 F 
ATOM     58  C44 UNL A   1      18.053  47.520  -3.059  1.00  0.00    +0.000 C 
ATOM     59  F8  UNL A   1      18.552  46.799  -4.073  1.00  0.00    +0.000 F 
ATOM     60  C45 UNL A   1      16.910  48.281  -3.245  1.00  0.00    +0.000 C 
ATOM     61  F9  UNL A   1      16.295  48.284  -4.436  1.00  0.00    +0.000 F 
ATOM     62  C46 UNL A   1      16.398  49.040  -2.196  1.00  0.00    +0.000 C 
ATOM     63  F10 UNL A   1      15.292  49.769  -2.408  1.00  0.00    +0.000 F 
ENDBRANCH   52   53
BRANCH   67   68
ATOM     68  C50 UNL A   1      17.573  55.626   1.251  1.00  0.00    +0.000 C 
ATOM     69  C51 UNL A   1      16.946  56.562   0.418  1.00  0.00    +0.000 C 
ATOM     70  F11 UNL A   1      15.669  56.382   0.050  1.00  0.00    +0.000 F 
ATOM     71  C52 UNL A   1      17.638  57.668  -0.071  1.00  0.00    +0.000 C 
ATOM     72  F12 UNL A   1      17.025  58.528  -0.896  1.00  0.00    +0.000 F 
ATOM     73  C53 UNL A   1      18.962  57.872   0.284  1.00  0.00    +0.000 C 
ATOM     74  F13 UNL A   1      19.624  58.944  -0.175  1.00  0.00    +0.000 F 
ATOM     75  C54 UNL A   1      19.603  56.962   1.112  1.00  0.00    +0.000 C 
ATOM     76  F14 UNL A   1      20.879  57.163   1.468  1.00  0.00    +0.000 F 
ATOM     77  C55 UNL A   1      18.920  55.841   1.577  1.00  0.00    +0.000 C 
ATOM     78  F15 UNL A   1      19.569  54.970   2.363  1.00  0.00    +0.000 F 
ENDBRANCH   67   68
TORSDOF 19
ENDMDL
MODEL 6
REMARK VINA RESULT:      -9.5      2.856      7.418
ROOT
ATOM    129  H32 UNL A   1      13.233  46.397   2.768  1.00  0.00    +0.000 H 
ATOM    130  H33 UNL A   1      14.914  46.810   0.820  1.00  0.00    +0.000 H 
ATOM    131  H34 UNL A   1      14.598  50.297   3.034  1.00  0.00    +0.000 H 
ATOM    132  H35 UNL A   1      16.023  56.421   3.963  1.00  0.00    +0.000 H 
ATOM    133  H36 UNL A   1      14.703  55.921   6.072  1.00  0.00    +0.000 H 
ATOM    134  H37 UNL A   1      14.756  52.472   3.753  1.00  0.00    +0.000 H 
ATOM    135  H38 UNL A   1      18.011  53.499  -0.008  1.00  0.00    +0.000 H 
ATOM    136  H39 UNL A   1      17.659  51.107  -0.847  1.00  0.00    +0.000 H 
ATOM    137  H40 UNL A   1      11.393  49.360   6.807  1.00  0.00    +0.000 H 
ATOM    138  H41 UNL A   1      11.565  51.807   7.538  1.00  0.00    +0.000 H 
ATOM     31  C26 UNL A   1      13.581  53.297   6.161  1.00  0.00    +0.000 C 
ATOM     32  C27 UNL A   1      13.128  51.872   5.898  1.00  0.00    +0.000 C 
ATOM     33  N4  UNL A   1      13.532  51.023   4.983  1.00  0.00    +0.000 N 
ATOM     34  C28 UNL A   1      12.832  49.843   5.213  1.00  0.00    +0.000 C 
ATOM     35  C29 UNL A   1      12.870  48.673   4.527  1.00  0.00    +0.000 C 
ATOM     47  C36 UNL A   1      13.653  48.435   3.341  1.00  0.00    +0.000 C 
ATOM     48  C37 UNL A   1      13.740  47.277   2.584  1.00  0.00    +0.000 C 
ATOM     49  C38 UNL A   1      14.630  47.502   1.530  1.00  0.00    +0.000 C 
ATOM     50  C39 UNL A   1      15.063  48.815   1.604  1.00  0.00    +0.000 C 
ATOM     51  N5  UNL A   1      14.465  49.373   2.724  1.00  0.00    +0.000 N 
ATOM     52  C40 UNL A   1      15.963  49.514   0.724  1.00  0.00    +0.000 C 
ATOM     64  C47 UNL A   1      16.303  50.818   0.862  1.00  0.00    +0.000 C 
ATOM     65  N6  UNL A   1      15.885  51.725   1.827  1.00  0.00    +0.000 N 
ATOM     66  C48 UNL A   1      16.502  52.848   1.556  1.00  0.00    +0.000 C 
ATOM     67  C49 UNL A   1      16.427  54.172   2.269  1.00  0.00    +0.000 C 
ATOM     79  C56 UNL A   1      15.695  54.297   3.395  1.00  0.00    +0.000 C 
ATOM     80  C57 UNL A   1      15.601  55.510   4.203  1.00  0.00    +0.000 C 
ATOM     81  C58 UNL A   1      14.879  55.254   5.305  1.00  0.00    +0.000 C 
ATOM     82  C59 UNL A   1      14.384  53.880   5.247  1.00  0.00    +0.000 C 
ATOM     83  N7  UNL A   1      14.918  53.389   4.074  1.00  0.00    +0.000 N 
ATOM     84  C60 UNL A   1      17.398  52.771   0.390  1.00  0.00    +0.000 C 
ATOM     85  C61 UNL A   1      17.212  51.522  -0.015  1.00  0.00    +0.000 C 
ATOM     86  C62 UNL A   1      11.991  50.077   6.368  1.00  0.00    +0.000 C 
ATOM     87  C63 UNL A   1      12.087  51.332   6.785  1.00  0.00    +0.000 C 
ENDROOT
BRANCH   31   30
ATOM    139  H42 UNL A   1      14.596  53.304   8.687  1.00  0.00    +0.000 H 
ATOM    140  H43 UNL A   1      13.582  54.159  10.719  1.00  0.00    +0.000 H 
ATOM     88  C64 UNL A   1      13.713  53.835   8.632  1.00  0.00    +0.000 C 
ATOM     89  C65 UNL A   1      13.138  54.349   9.807  1.00  0.00    +0.000 C 
ATOM     27  C22 UNL A   1      11.971  55.113   9.747  1.00  0.00    +0.000 C 
ATOM     28  C23 UNL A   1      11.457  55.461   8.501  1.00  0.00    +0.000 C 
ATOM     29  C24 UNL A   1      11.988  54.887   7.336  1.00  0.00    +0.000 C 
ATOM     30  C25 UNL A   1      13.103  54.033   7.381  1.00  0.00    +0.000 C 
ATOM    127  H30 UNL A   1      10.684  56.141   8.435  1.00  0.00    +0.000 H 
ATOM    128  H31 UNL A   1      11.549  55.097   6.425  1.00  0.00    +0.000 H 
BRANCH   27   25
ATOM     25  C21 UNL A   1      11.327  55.552  11.011  1.00  0.00    +0.000 C 
ATOM     26  O2  UNL A   1      10.502  56.461  10.971  1.00  0.00    +0.000 O 
BRANCH   25   24
ATOM    126  H29 UNL A   1      12.441  55.432  12.677  1.00  0.00    +0.000 H 
ATOM     24  N3  UNL A   1      11.681  54.998  12.226  1.00  0.00    +0.000 N 
BRANCH   24   23
ATOM    124  H27 UNL A   1      10.079  53.784  12.644  1.00  0.00    +0.000 H 
ATOM    125  H28 UNL A   1      11.697  53.019  12.674  1.00  0.00    +0.000 H 
ATOM     23  C20 UNL A   1      11.105  53.870  12.938  1.00  0.00    +0.000 C 
BRANCH   23   22
ATOM    122  H25 UNL A   1      11.883  54.708  14.713  1.00  0.00    +0.000 H 
ATOM    123  H26 UNL A   1      10.147  54.190  14.750  1.00  0.00    +0.000 H 
ATOM     22  C19 UNL A   1      11.154  53.966  14.464  1.00  0.00    +0.000 C 
BRANCH   22   21
ATOM    121  H24 UNL A   1      11.264  52.950  16.263  1.00  0.00    +0.000 H 
ATOM     21  C18 UNL A   1      11.504  52.701  15.251  1.00  0.00    +0.000 C 
ATOM    120  H23 UNL A   1      12.531  52.478  15.048  1.00  0.00    +0.000 H 
BRANCH   21   20
ATOM     20  C17 UNL A   1      10.704  51.423  14.981  1.00  0.00    +0.000 C 
ATOM    118  H21 UNL A   1       9.976  51.341  15.760  1.00  0.00    +0.000 H 
ATOM    119  H22 UNL A   1      10.339  51.562  13.985  1.00  0.00    +0.000 H 
BRANCH   20   19
ATOM     19  C16 UNL A   1      11.428  50.075  14.909  1.00  0.00    +0.000 C 
ATOM    116  H19 UNL A   1      12.190  50.172  14.164  1.00  0.00    +0.000 H 
ATOM    117  H20 UNL A   1      11.749  49.911  15.917  1.00  0.00    +0.000 H 
BRANCH   19   18
ATOM     18  C15 UNL A   1      10.643  48.810  14.577  1.00  0.00    +0.000 C 
ATOM    115  H18 UNL A   1       9.706  48.923  15.082  1.00  0.00    +0.000 H 
ATOM    114  H17 UNL A   1      11.229  47.973  14.894  1.00  0.00    +0.000 H 
BRANCH   18   17
ATOM     17  N2  UNL A   1      10.299  48.599  13.197  1.00  0.00    +0.000 N 
ATOM    113  H16 UNL A   1      10.848  47.920  12.741  1.00  0.00    +0.000 H 
BRANCH   17   15
ATOM     15  C14 UNL A   1       9.336  49.178  12.402  1.00  0.00    +0.000 C 
ATOM     16  O1  UNL A   1       8.222  48.644  12.452  1.00  0.00    +0.000 O 
BRANCH   15   14
ATOM      9  C8  UNL A   1      10.284  50.648  10.418  1.00  0.00    +0.000 C 
ATOM     10  C9  UNL A   1      10.076  51.830   9.659  1.00  0.00    +0.000 C 
ATOM     11  C10 UNL A   1       9.134  52.791  10.013  1.00  0.00    +0.000 C 
ATOM     12  C11 UNL A   1       8.361  52.585  11.142  1.00  0.00    +0.000 C 
ATOM    109  H12 UNL A   1      10.645  51.984   8.812  1.00  0.00    +0.000 H 
ATOM     14  C13 UNL A   1       9.469  50.409  11.545  1.00  0.00    +0.000 C 
ATOM     13  C12 UNL A   1       8.516  51.408  11.881  1.00  0.00    +0.000 C 
ATOM    110  H13 UNL A   1       9.014  53.642   9.443  1.00  0.00    +0.000 H 
ATOM    112  H15 UNL A   1       7.913  51.258  12.705  1.00  0.00    +0.000 H 
ATOM    111  H14 UNL A   1       7.674  53.297  11.436  1.00  0.00    +0.000 H 
BRANCH    9    8
ATOM    108  H11 UNL A   1      11.266  49.042   9.545  1.00  0.00    +0.000 H 
ATOM      8  N1  UNL A   1      11.415  49.886  10.030  1.00  0.00    +0.000 N 
BRANCH    8    7
ATOM      1  C1  UNL A   1      17.357  50.815   8.458  1.00  0.00    +0.000 C 
ATOM      2  C2  UNL A   1      16.271  49.747   8.717  1.00  0.00    +0.000 C 
ATOM      3  C3  UNL A   1      15.752  49.322   7.325  1.00  0.00    +0.000 C 
ATOM      4  C4  UNL A   1      16.930  48.539   9.410  1.00  0.00    +0.000 C 
ATOM      5  C5  UNL A   1      15.149  50.236   9.640  1.00  0.00    +0.000 C 
ATOM      6  C6  UNL A   1      13.779  49.986   9.373  1.00  0.00    +0.000 C 
ATOM      7  C7  UNL A   1      12.760  50.281  10.304  1.00  0.00    +0.000 C 
ATOM    141  H44 UNL A   1      12.384  51.232  12.156  1.00  0.00    +0.000 H 
ATOM    142  H45 UNL A   1      16.904  52.836  12.448  1.00  0.00    +0.000 H 
ATOM    143  H46 UNL A   1      17.058  51.333  13.334  1.00  0.00    +0.000 H 
ATOM     90  C66 UNL A   1      13.113  50.950  11.483  1.00  0.00    +0.000 C 
ATOM     91  C67 UNL A   1      14.443  51.231  11.744  1.00  0.00    +0.000 C 
ATOM     92  C68 UNL A   1      15.431  50.859  10.855  1.00  0.00    +0.000 C 
ATOM     93  O3  UNL A   1      16.691  51.124  11.319  1.00  0.00    +0.000 O 
ATOM     94  C69 UNL A   1      16.523  51.842  12.559  1.00  0.00    +0.000 C 
ATOM     95  C70 UNL A   1      15.030  51.909  12.934  1.00  0.00    +0.000 C 
ATOM     98  H1  UNL A   1      18.106  50.411   7.808  1.00  0.00    +0.000 H 
ATOM     99  H2  UNL A   1      17.805  51.100   9.386  1.00  0.00    +0.000 H 
ATOM    100  H3  UNL A   1      16.911  51.672   7.997  1.00  0.00    +0.000 H 
ATOM    101  H4  UNL A   1      16.574  48.991   6.725  1.00  0.00    +0.000 H 
ATOM    102  H5  UNL A   1      15.277  50.156   6.852  1.00  0.00    +0.000 H 
ATOM    103  H6  UNL A   1      15.047  48.525   7.436  1.00  0.00    +0.000 H 
ATOM    104  H7  UNL A   1      17.723  48.164   8.796  1.00  0.00    +0.000 H 
ATOM    105  H8  UNL A   1      16.200  47.770   9.556  1.00  0.00    +0.000 H 
ATOM    106  H9  UNL A   1      17.325  48.841  10.356  1.00  0.00    +0.000 H 
ATOM    107  H10 UNL A   1      13.517  49.574   8.464  1.00  0.00    +0.000 H 
BRANCH   95   96
ATOM    145  H48 UNL A   1      13.479  53.384  12.952  1.00  0.00    +0.000 H 
ATOM    146  H49 UNL A   1      14.976  53.933  12.239  1.00  0.00    +0.000 H 
ATOM    144  H47 UNL A   1      14.842  53.771  13.974  1.00  0.00    +0.000 H 
ATOM     96  C71 UNL A   1      14.545  53.358  13.032  1.00  0.00    +0.000 C 
ENDBRANCH   95   96
BRANCH   95   97
ATOM     97  C72 UNL A   1      14.745  51.155  14.236  1.00  0.00    +0.000 C 
ATOM    147  H50 UNL A   1      15.655  51.037  14.786  1.00  0.00    +0.000 H 
ATOM    148  H51 UNL A   1      14.339  50.193  14.010  1.00  0.00    +0.000 H 
ATOM    149  H52 UNL A   1      14.044  51.711  14.824  1.00  0.00    +0.000 H 
ENDBRANCH   95   97
ENDBRANCH    8    7
ENDBRANCH    9    8
ENDBRANCH   15   14
ENDBRANCH   17   15
ENDBRANCH   18   17
ENDBRANCH   19   18
ENDBRANCH   20   19
ENDBRANCH   21   20
ENDBRANCH   22   21
ENDBRANCH   23   22
ENDBRANCH   24   23
ENDBRANCH   25   24
ENDBRANCH   27   25
ENDBRANCH   31   30
BRANCH   35   36
ATOM     36  C30 UNL A   1      12.037  47.531   5.036  1.00  0.00    +0.000 C 
ATOM     37  C31 UNL A   1      12.475  46.708   6.083  1.00  0.00    +0.000 C 
ATOM     38  F1  UNL A   1      13.703  46.869   6.598  1.00  0.00    +0.000 F 
ATOM     39  C32 UNL A   1      11.659  45.701   6.591  1.00  0.00    +0.000 C 
ATOM     40  F2  UNL A   1      12.111  44.906   7.570  1.00  0.00    +0.000 F 
ATOM     41  C33 UNL A   1      10.381  45.516   6.084  1.00  0.00    +0.000 C 
ATOM     42  F3  UNL A   1       9.590  44.558   6.588  1.00  0.00    +0.000 F 
ATOM     43  C34 UNL A   1       9.922  46.324   5.056  1.00  0.00    +0.000 C 
ATOM     44  F4  UNL A   1       8.681  46.160   4.577  1.00  0.00    +0.000 F 
ATOM     45  C35 UNL A   1      10.746  47.314   4.526  1.00  0.00    +0.000 C 
ATOM     46  F5  UNL A   1      10.273  48.082   3.532  1.00  0.00    +0.000 F 
ENDBRANCH   35   36
BRANCH   52   53
ATOM     53  C41 UNL A   1      16.550  48.753  -0.429  1.00  0.00    +0.000 C 
ATOM     54  C42 UNL A   1      17.815  48.154  -0.344  1.00  0.00    +0.000 C 
ATOM     55  F6  UNL A   1      18.564  48.313   0.758  1.00  0.00    +0.000 F 
ATOM     56  C43 UNL A   1      18.328  47.408  -1.403  1.00  0.00    +0.000 C 
ATOM     57  F7  UNL A   1      19.554  46.873  -1.312  1.00  0.00    +0.000 F 
ATOM     58  C44 UNL A   1      17.576  47.225  -2.554  1.00  0.00    +0.000 C 
ATOM     59  F8  UNL A   1      18.066  46.497  -3.568  1.00  0.00    +0.000 F 
ATOM     60  C45 UNL A   1      16.319  47.799  -2.657  1.00  0.00    +0.000 C 
ATOM     61  F9  UNL A   1      15.586  47.613  -3.763  1.00  0.00    +0.000 F 
ATOM     62  C46 UNL A   1      15.814  48.566  -1.609  1.00  0.00    +0.000 C 
ATOM     63  F10 UNL A   1      14.595  49.111  -1.740  1.00  0.00    +0.000 F 
ENDBRANCH   52   53
BRANCH   67   68
ATOM     68  C50 UNL A   1      17.171  55.346   1.740  1.00  0.00    +0.000 C 
ATOM     69  C51 UNL A   1      18.531  55.521   2.027  1.00  0.00    +0.000 C 
ATOM     70  F11 UNL A   1      19.168  54.644   2.815  1.00  0.00    +0.000 F 
ATOM     71  C52 UNL A   1      19.235  56.619   1.535  1.00  0.00    +0.000 C 
ATOM     72  F12 UNL A   1      20.526  56.782   1.854  1.00  0.00    +0.000 F 
ATOM     73  C53 UNL A   1      18.598  57.548   0.726  1.00  0.00    +0.000 C 
ATOM     74  F13 UNL A   1      19.278  58.596   0.241  1.00  0.00    +0.000 F 
ATOM     75  C54 UNL A   1      17.253  57.393   0.425  1.00  0.00    +0.000 C 
ATOM     76  F14 UNL A   1      16.637  58.281  -0.367  1.00  0.00    +0.000 F 
ATOM     77  C55 UNL A   1      16.542  56.312   0.940  1.00  0.00    +0.000 C 
ATOM     78  F15 UNL A   1      15.239  56.195   0.645  1.00  0.00    +0.000 F 
ENDBRANCH   67   68
TORSDOF 19
ENDMDL
MODEL 7
REMARK VINA RESULT:      -9.5      2.872      7.281
ROOT
ATOM    129  H32 UNL A   1      13.645  46.505   2.405  1.00  0.00    +0.000 H 
ATOM    130  H33 UNL A   1      15.316  46.908   0.446  1.00  0.00    +0.000 H 
ATOM    131  H34 UNL A   1      14.987  50.416   2.623  1.00  0.00    +0.000 H 
ATOM    132  H35 UNL A   1      16.378  56.559   3.480  1.00  0.00    +0.000 H 
ATOM    133  H36 UNL A   1      15.070  56.074   5.599  1.00  0.00    +0.000 H 
ATOM    134  H37 UNL A   1      15.135  52.600   3.318  1.00  0.00    +0.000 H 
ATOM    135  H38 UNL A   1      18.368  53.606  -0.467  1.00  0.00    +0.000 H 
ATOM    136  H39 UNL A   1      18.028  51.202  -1.279  1.00  0.00    +0.000 H 
ATOM    137  H40 UNL A   1      11.803  49.502   6.419  1.00  0.00    +0.000 H 
ATOM    138  H41 UNL A   1      11.963  51.957   7.123  1.00  0.00    +0.000 H 
ATOM     31  C26 UNL A   1      13.964  53.444   5.721  1.00  0.00    +0.000 C 
ATOM     32  C27 UNL A   1      13.519  52.014   5.476  1.00  0.00    +0.000 C 
ATOM     33  N4  UNL A   1      13.925  51.157   4.568  1.00  0.00    +0.000 N 
ATOM     34  C28 UNL A   1      13.233  49.975   4.814  1.00  0.00    +0.000 C 
ATOM     35  C29 UNL A   1      13.276  48.799   4.141  1.00  0.00    +0.000 C 
ATOM     47  C36 UNL A   1      14.054  48.552   2.954  1.00  0.00    +0.000 C 
ATOM     48  C37 UNL A   1      14.145  47.386   2.210  1.00  0.00    +0.000 C 
ATOM     49  C38 UNL A   1      15.030  47.606   1.150  1.00  0.00    +0.000 C 
ATOM     50  C39 UNL A   1      15.456  48.921   1.207  1.00  0.00    +0.000 C 
ATOM     51  N5  UNL A   1      14.859  49.488   2.323  1.00  0.00    +0.000 N 
ATOM     52  C40 UNL A   1      16.347  49.616   0.316  1.00  0.00    +0.000 C 
ATOM     64  C47 UNL A   1      16.681  50.924   0.438  1.00  0.00    +0.000 C 
ATOM     65  N6  UNL A   1      16.261  51.839   1.396  1.00  0.00    +0.000 N 
ATOM     66  C48 UNL A   1      16.870  52.963   1.110  1.00  0.00    +0.000 C 
ATOM     67  C49 UNL A   1      16.790  54.293   1.808  1.00  0.00    +0.000 C 
ATOM     79  C56 UNL A   1      16.061  54.426   2.936  1.00  0.00    +0.000 C 
ATOM     80  C57 UNL A   1      15.963  55.648   3.731  1.00  0.00    +0.000 C 
ATOM     81  C58 UNL A   1      15.247  55.400   4.838  1.00  0.00    +0.000 C 
ATOM     82  C59 UNL A   1      14.760  54.022   4.797  1.00  0.00    +0.000 C 
ATOM     83  N7  UNL A   1      15.292  53.521   3.628  1.00  0.00    +0.000 N 
ATOM     84  C60 UNL A   1      17.761  52.878  -0.059  1.00  0.00    +0.000 C 
ATOM     85  C61 UNL A   1      17.582  51.624  -0.449  1.00  0.00    +0.000 C 
ATOM     86  C62 UNL A   1      12.394  50.217   5.969  1.00  0.00    +0.000 C 
ATOM     87  C63 UNL A   1      12.485  51.477   6.372  1.00  0.00    +0.000 C 
ENDROOT
BRANCH   31   30
ATOM    139  H42 UNL A   1      14.914  53.390   8.272  1.00  0.00    +0.000 H 
ATOM    140  H43 UNL A   1      13.886  54.272  10.285  1.00  0.00    +0.000 H 
ATOM     88  C64 UNL A   1      14.056  53.959   8.199  1.00  0.00    +0.000 C 
ATOM     89  C65 UNL A   1      13.474  54.487   9.363  1.00  0.00    +0.000 C 
ATOM     27  C22 UNL A   1      12.341  55.300   9.281  1.00  0.00    +0.000 C 
ATOM     28  C23 UNL A   1      11.874  55.678   8.025  1.00  0.00    +0.000 C 
ATOM     29  C24 UNL A   1      12.410  55.091   6.869  1.00  0.00    +0.000 C 
ATOM     30  C25 UNL A   1      13.487  54.191   6.935  1.00  0.00    +0.000 C 
ATOM    127  H30 UNL A   1      11.132  56.391   7.946  1.00  0.00    +0.000 H 
ATOM    128  H31 UNL A   1      12.003  55.326   5.950  1.00  0.00    +0.000 H 
BRANCH   27   25
ATOM     25  C21 UNL A   1      11.685  55.756  10.532  1.00  0.00    +0.000 C 
ATOM     26  O2  UNL A   1      11.295  56.919  10.607  1.00  0.00    +0.000 O 
BRANCH   25   24
ATOM    126  H29 UNL A   1      12.342  54.883  12.216  1.00  0.00    +0.000 H 
ATOM     24  N3  UNL A   1      11.558  54.917  11.622  1.00  0.00    +0.000 N 
BRANCH   24   23
ATOM    124  H27 UNL A   1      10.786  53.424  12.801  1.00  0.00    +0.000 H 
ATOM    125  H28 UNL A   1       9.667  54.742  12.336  1.00  0.00    +0.000 H 
ATOM     23  C20 UNL A   1      10.444  54.075  12.024  1.00  0.00    +0.000 C 
BRANCH   23   22
ATOM    122  H25 UNL A   1      10.616  53.035  10.194  1.00  0.00    +0.000 H 
ATOM    123  H26 UNL A   1       9.472  52.346  11.419  1.00  0.00    +0.000 H 
ATOM     22  C19 UNL A   1       9.843  53.213  10.912  1.00  0.00    +0.000 C 
BRANCH   22   21
ATOM    121  H24 UNL A   1       8.519  54.756  10.530  1.00  0.00    +0.000 H 
ATOM     21  C18 UNL A   1       8.633  53.762  10.154  1.00  0.00    +0.000 C 
ATOM    120  H23 UNL A   1       7.818  53.091  10.334  1.00  0.00    +0.000 H 
BRANCH   21   20
ATOM     20  C17 UNL A   1       8.737  53.946   8.636  1.00  0.00    +0.000 C 
ATOM    118  H21 UNL A   1       7.753  54.168   8.282  1.00  0.00    +0.000 H 
ATOM    119  H22 UNL A   1       9.478  54.710   8.528  1.00  0.00    +0.000 H 
BRANCH   20   19
ATOM     19  C16 UNL A   1       9.274  52.804   7.768  1.00  0.00    +0.000 C 
ATOM    116  H19 UNL A   1       9.866  53.252   6.997  1.00  0.00    +0.000 H 
ATOM    117  H20 UNL A   1       9.782  52.176   8.470  1.00  0.00    +0.000 H 
BRANCH   19   18
ATOM     18  C15 UNL A   1       8.300  51.852   7.081  1.00  0.00    +0.000 C 
ATOM    115  H18 UNL A   1       8.693  51.714   6.095  1.00  0.00    +0.000 H 
ATOM    114  H17 UNL A   1       7.329  52.299   7.121  1.00  0.00    +0.000 H 
BRANCH   18   17
ATOM     17  N2  UNL A   1       8.189  50.527   7.626  1.00  0.00    +0.000 N 
ATOM    113  H16 UNL A   1       7.458  50.415   8.276  1.00  0.00    +0.000 H 
BRANCH   17   15
ATOM     15  C14 UNL A   1       8.926  49.386   7.398  1.00  0.00    +0.000 C 
ATOM     16  O1  UNL A   1       8.990  49.029   6.216  1.00  0.00    +0.000 O 
BRANCH   15   14
ATOM      9  C8  UNL A   1      10.612  48.995   9.398  1.00  0.00    +0.000 C 
ATOM     10  C9  UNL A   1      11.062  48.048  10.356  1.00  0.00    +0.000 C 
ATOM     11  C10 UNL A   1      10.685  46.710  10.320  1.00  0.00    +0.000 C 
ATOM     12  C11 UNL A   1       9.830  46.282   9.320  1.00  0.00    +0.000 C 
ATOM    109  H12 UNL A   1      11.695  48.364  11.108  1.00  0.00    +0.000 H 
ATOM     14  C13 UNL A   1       9.704  48.577   8.402  1.00  0.00    +0.000 C 
ATOM     13  C12 UNL A   1       9.338  47.205   8.390  1.00  0.00    +0.000 C 
ATOM    110  H13 UNL A   1      11.037  46.047  11.027  1.00  0.00    +0.000 H 
ATOM    112  H15 UNL A   1       8.679  46.875   7.668  1.00  0.00    +0.000 H 
ATOM    111  H14 UNL A   1       9.558  45.288   9.260  1.00  0.00    +0.000 H 
BRANCH    9    8
ATOM    108  H11 UNL A   1      10.758  51.051   9.155  1.00  0.00    +0.000 H 
ATOM      8  N1  UNL A   1      11.253  50.258   9.466  1.00  0.00    +0.000 N 
BRANCH    8    7
ATOM      1  C1  UNL A   1      15.372  51.533  13.943  1.00  0.00    +0.000 C 
ATOM      2  C2  UNL A   1      14.265  52.122  13.040  1.00  0.00    +0.000 C 
ATOM      3  C3  UNL A   1      12.990  52.173  13.911  1.00  0.00    +0.000 C 
ATOM      4  C4  UNL A   1      14.672  53.553  12.640  1.00  0.00    +0.000 C 
ATOM      5  C5  UNL A   1      14.061  51.334  11.741  1.00  0.00    +0.000 C 
ATOM      6  C6  UNL A   1      12.774  51.009  11.241  1.00  0.00    +0.000 C 
ATOM      7  C7  UNL A   1      12.579  50.440   9.965  1.00  0.00    +0.000 C 
ATOM    141  H44 UNL A   1      13.600  49.607   8.310  1.00  0.00    +0.000 H 
ATOM    142  H45 UNL A   1      17.838  49.901  10.557  1.00  0.00    +0.000 H 
ATOM    143  H46 UNL A   1      17.843  51.428   9.697  1.00  0.00    +0.000 H 
ATOM     90  C66 UNL A   1      13.710  50.079   9.220  1.00  0.00    +0.000 C 
ATOM     91  C67 UNL A   1      14.974  50.358   9.709  1.00  0.00    +0.000 C 
ATOM     92  C68 UNL A   1      15.138  50.992  10.925  1.00  0.00    +0.000 C 
ATOM     93  O3  UNL A   1      16.446  51.278  11.203  1.00  0.00    +0.000 O 
ATOM     94  C69 UNL A   1      17.226  50.678  10.147  1.00  0.00    +0.000 C 
ATOM     95  C70 UNL A   1      16.294  50.080   9.076  1.00  0.00    +0.000 C 
ATOM     98  H1  UNL A   1      15.463  52.127  14.829  1.00  0.00    +0.000 H 
ATOM     99  H2  UNL A   1      16.302  51.536  13.415  1.00  0.00    +0.000 H 
ATOM    100  H3  UNL A   1      15.117  50.529  14.212  1.00  0.00    +0.000 H 
ATOM    101  H4  UNL A   1      13.189  52.733  14.801  1.00  0.00    +0.000 H 
ATOM    102  H5  UNL A   1      12.697  51.178  14.173  1.00  0.00    +0.000 H 
ATOM    103  H6  UNL A   1      12.203  52.645  13.361  1.00  0.00    +0.000 H 
ATOM    104  H7  UNL A   1      14.825  54.141  13.521  1.00  0.00    +0.000 H 
ATOM    105  H8  UNL A   1      13.894  53.993  12.050  1.00  0.00    +0.000 H 
ATOM    106  H9  UNL A   1      15.577  53.521  12.071  1.00  0.00    +0.000 H 
ATOM    107  H10 UNL A   1      11.949  51.196  11.833  1.00  0.00    +0.000 H 
BRANCH   95   96
ATOM    145  H48 UNL A   1      17.560  48.355   9.027  1.00  0.00    +0.000 H 
ATOM    146  H49 UNL A   1      16.186  48.261   7.953  1.00  0.00    +0.000 H 
ATOM    144  H47 UNL A   1      15.966  48.051   9.674  1.00  0.00    +0.000 H 
ATOM     96  C71 UNL A   1      16.519  48.574   8.921  1.00  0.00    +0.000 C 
ENDBRANCH   95   96
BRANCH   95   97
ATOM     97  C72 UNL A   1      16.458  50.792   7.730  1.00  0.00    +0.000 C 
ATOM    147  H50 UNL A   1      17.102  50.216   7.099  1.00  0.00    +0.000 H 
ATOM    148  H51 UNL A   1      16.886  51.759   7.887  1.00  0.00    +0.000 H 
ATOM    149  H52 UNL A   1      15.501  50.896   7.262  1.00  0.00    +0.000 H 
ENDBRANCH   95   97
ENDBRANCH    8    7
ENDBRANCH    9    8
ENDBRANCH   15   14
ENDBRANCH   17   15
ENDBRANCH   18   17
ENDBRANCH   19   18
ENDBRANCH   20   19
ENDBRANCH   21   20
ENDBRANCH   22   21
ENDBRANCH   23   22
ENDBRANCH   24   23
ENDBRANCH   25   24
ENDBRANCH   27   25
ENDBRANCH   31   30
BRANCH   35   36
ATOM     36  C30 UNL A   1      12.451  47.657   4.665  1.00  0.00    +0.000 C 
ATOM     37  C31 UNL A   1      12.839  46.928   5.798  1.00  0.00    +0.000 C 
ATOM     38  F1  UNL A   1      14.015  47.179   6.392  1.00  0.00    +0.000 F 
ATOM     39  C32 UNL A   1      12.026  45.921   6.314  1.00  0.00    +0.000 C 
ATOM     40  F2  UNL A   1      12.431  45.216   7.379  1.00  0.00    +0.000 F 
ATOM     41  C33 UNL A   1      10.800  45.645   5.727  1.00  0.00    +0.000 C 
ATOM     42  F3  UNL A   1      10.011  44.689   6.236  1.00  0.00    +0.000 F 
ATOM     43  C34 UNL A   1      10.391  46.360   4.612  1.00  0.00    +0.000 C 
ATOM     44  F4  UNL A   1       9.199  46.107   4.053  1.00  0.00    +0.000 F 
ATOM     45  C35 UNL A   1      11.214  47.348   4.077  1.00  0.00    +0.000 C 
ATOM     46  F5  UNL A   1      10.790  48.024   2.998  1.00  0.00    +0.000 F 
ENDBRANCH   35   36
BRANCH   52   53
ATOM     53  C41 UNL A   1      16.934  48.846  -0.831  1.00  0.00    +0.000 C 
ATOM     54  C42 UNL A   1      18.125  48.117  -0.692  1.00  0.00    +0.000 C 
ATOM     55  F6  UNL A   1      18.807  48.154   0.463  1.00  0.00    +0.000 F 
ATOM     56  C43 UNL A   1      18.633  47.366  -1.749  1.00  0.00    +0.000 C 
ATOM     57  F7  UNL A   1      19.790  46.704  -1.604  1.00  0.00    +0.000 F 
ATOM     58  C44 UNL A   1      17.949  47.308  -2.954  1.00  0.00    +0.000 C 
ATOM     59  F8  UNL A   1      18.433  46.575  -3.967  1.00  0.00    +0.000 F 
ATOM     60  C45 UNL A   1      16.766  48.012  -3.112  1.00  0.00    +0.000 C 
ATOM     61  F9  UNL A   1      16.097  47.947  -4.271  1.00  0.00    +0.000 F 
ATOM     62  C46 UNL A   1      16.268  48.784  -2.064  1.00  0.00    +0.000 C 
ATOM     63  F10 UNL A   1      15.122  49.457  -2.248  1.00  0.00    +0.000 F 
ENDBRANCH   52   53
BRANCH   67   68
ATOM     68  C50 UNL A   1      17.524  55.467   1.263  1.00  0.00    +0.000 C 
ATOM     69  C51 UNL A   1      18.850  55.719   1.639  1.00  0.00    +0.000 C 
ATOM     70  F11 UNL A   1      19.460  54.919   2.526  1.00  0.00    +0.000 F 
ATOM     71  C52 UNL A   1      19.545  56.816   1.133  1.00  0.00    +0.000 C 
ATOM     72  F12 UNL A   1      20.800  57.056   1.537  1.00  0.00    +0.000 F 
ATOM     73  C53 UNL A   1      18.935  57.666   0.222  1.00  0.00    +0.000 C 
ATOM     74  F13 UNL A   1      19.608  58.713  -0.275  1.00  0.00    +0.000 F 
ATOM     75  C54 UNL A   1      17.625  57.433  -0.168  1.00  0.00    +0.000 C 
ATOM     76  F14 UNL A   1      17.037  58.244  -1.057  1.00  0.00    +0.000 F 
ATOM     77  C55 UNL A   1      16.920  56.354   0.360  1.00  0.00    +0.000 C 
ATOM     78  F15 UNL A   1      15.650  56.162  -0.023  1.00  0.00    +0.000 F 
ENDBRANCH   67   68
TORSDOF 19
ENDMDL
MODEL 8
REMARK VINA RESULT:      -9.4      0.615      2.038
ROOT
ATOM    129  H32 UNL A   1      18.084  50.967  -2.482  1.00  0.00    +0.000 H 
ATOM    130  H33 UNL A   1      18.496  53.535  -2.320  1.00  0.00    +0.000 H 
ATOM    131  H34 UNL A   1      16.543  52.306   1.121  1.00  0.00    +0.000 H 
ATOM    132  H35 UNL A   1      13.750  53.617   6.678  1.00  0.00    +0.000 H 
ATOM    133  H36 UNL A   1      13.691  51.080   6.710  1.00  0.00    +0.000 H 
ATOM    134  H37 UNL A   1      15.406  52.271   3.116  1.00  0.00    +0.000 H 
ATOM    135  H38 UNL A   1      16.058  57.284   3.598  1.00  0.00    +0.000 H 
ATOM    136  H39 UNL A   1      17.171  57.273   1.293  1.00  0.00    +0.000 H 
ATOM    137  H40 UNL A   1      15.871  47.327   0.734  1.00  0.00    +0.000 H 
ATOM    138  H41 UNL A   1      14.567  47.350   2.936  1.00  0.00    +0.000 H 
ATOM     31  C26 UNL A   1      14.652  49.853   4.318  1.00  0.00    +0.000 C 
ATOM     32  C27 UNL A   1      15.205  49.525   2.942  1.00  0.00    +0.000 C 
ATOM     33  N4  UNL A   1      15.814  50.304   2.080  1.00  0.00    +0.000 N 
ATOM     34  C28 UNL A   1      16.158  49.493   1.002  1.00  0.00    +0.000 C 
ATOM     35  C29 UNL A   1      16.779  49.824  -0.158  1.00  0.00    +0.000 C 
ATOM     47  C36 UNL A   1      17.183  51.157  -0.530  1.00  0.00    +0.000 C 
ATOM     48  C37 UNL A   1      17.814  51.573  -1.692  1.00  0.00    +0.000 C 
ATOM     49  C38 UNL A   1      18.022  52.953  -1.612  1.00  0.00    +0.000 C 
ATOM     50  C39 UNL A   1      17.481  53.403  -0.420  1.00  0.00    +0.000 C 
ATOM     51  N5  UNL A   1      16.979  52.291   0.239  1.00  0.00    +0.000 N 
ATOM     52  C40 UNL A   1      17.428  54.749   0.090  1.00  0.00    +0.000 C 
ATOM     64  C47 UNL A   1      16.844  55.097   1.262  1.00  0.00    +0.000 C 
ATOM     65  N6  UNL A   1      16.200  54.282   2.184  1.00  0.00    +0.000 N 
ATOM     66  C48 UNL A   1      15.825  55.071   3.160  1.00  0.00    +0.000 C 
ATOM     67  C49 UNL A   1      15.083  54.733   4.425  1.00  0.00    +0.000 C 
ATOM     79  C56 UNL A   1      14.773  53.451   4.710  1.00  0.00    +0.000 C 
ATOM     80  C57 UNL A   1      14.115  53.001   5.934  1.00  0.00    +0.000 C 
ATOM     81  C58 UNL A   1      14.058  51.660   5.939  1.00  0.00    +0.000 C 
ATOM     82  C59 UNL A   1      14.599  51.152   4.680  1.00  0.00    +0.000 C 
ATOM     83  N7  UNL A   1      14.998  52.289   4.012  1.00  0.00    +0.000 N 
ATOM     84  C60 UNL A   1      16.208  56.479   2.970  1.00  0.00    +0.000 C 
ATOM     85  C61 UNL A   1      16.796  56.445   1.782  1.00  0.00    +0.000 C 
ATOM     86  C62 UNL A   1      15.707  48.157   1.326  1.00  0.00    +0.000 C 
ATOM     87  C63 UNL A   1      15.055  48.137   2.480  1.00  0.00    +0.000 C 
ENDROOT
BRANCH   31   30
ATOM    139  H42 UNL A   1      12.251  48.571   4.294  1.00  0.00    +0.000 H 
ATOM    140  H43 UNL A   1      11.299  47.115   5.985  1.00  0.00    +0.000 H 
ATOM     88  C64 UNL A   1      12.827  48.282   5.100  1.00  0.00    +0.000 C 
ATOM     89  C65 UNL A   1      12.282  47.421   6.068  1.00  0.00    +0.000 C 
ATOM     27  C22 UNL A   1      13.061  46.979   7.139  1.00  0.00    +0.000 C 
ATOM     28  C23 UNL A   1      14.415  47.304   7.167  1.00  0.00    +0.000 C 
ATOM     29  C24 UNL A   1      14.937  48.222   6.242  1.00  0.00    +0.000 C 
ATOM     30  C25 UNL A   1      14.144  48.758   5.213  1.00  0.00    +0.000 C 
ATOM    127  H30 UNL A   1      15.034  46.869   7.867  1.00  0.00    +0.000 H 
ATOM    128  H31 UNL A   1      15.925  48.509   6.321  1.00  0.00    +0.000 H 
BRANCH   27   25
ATOM     25  C21 UNL A   1      12.430  46.159   8.203  1.00  0.00    +0.000 C 
ATOM     26  O2  UNL A   1      11.805  45.151   7.882  1.00  0.00    +0.000 O 
BRANCH   25   24
ATOM    126  H29 UNL A   1      13.393  46.616   9.905  1.00  0.00    +0.000 H 
ATOM     24  N3  UNL A   1      12.486  46.539   9.530  1.00  0.00    +0.000 N 
BRANCH   24   23
ATOM    124  H27 UNL A   1      11.160  45.938  10.978  1.00  0.00    +0.000 H 
ATOM    125  H28 UNL A   1      11.776  47.615  11.097  1.00  0.00    +0.000 H 
ATOM     23  C20 UNL A   1      11.409  46.839  10.457  1.00  0.00    +0.000 C 
BRANCH   23   22
ATOM    122  H25 UNL A   1      10.061  46.969   8.836  1.00  0.00    +0.000 H 
ATOM    123  H26 UNL A   1       9.352  47.106  10.498  1.00  0.00    +0.000 H 
ATOM     22  C19 UNL A   1      10.130  47.386   9.819  1.00  0.00    +0.000 C 
BRANCH   22   21
ATOM    121  H24 UNL A   1      10.448  49.289  10.567  1.00  0.00    +0.000 H 
ATOM     21  C18 UNL A   1       9.990  48.904   9.680  1.00  0.00    +0.000 C 
ATOM    120  H23 UNL A   1       8.948  49.114   9.555  1.00  0.00    +0.000 H 
BRANCH   21   20
ATOM     20  C17 UNL A   1      10.732  49.610   8.540  1.00  0.00    +0.000 C 
ATOM    118  H21 UNL A   1      10.750  48.931   7.714  1.00  0.00    +0.000 H 
ATOM    119  H22 UNL A   1      10.184  50.520   8.412  1.00  0.00    +0.000 H 
BRANCH   20   19
ATOM     19  C16 UNL A   1      12.171  50.088   8.752  1.00  0.00    +0.000 C 
ATOM    116  H19 UNL A   1      12.767  49.215   8.917  1.00  0.00    +0.000 H 
ATOM    117  H20 UNL A   1      12.376  50.659   7.870  1.00  0.00    +0.000 H 
BRANCH   19   18
ATOM     18  C15 UNL A   1      12.488  51.060   9.885  1.00  0.00    +0.000 C 
ATOM    115  H18 UNL A   1      13.193  50.546  10.504  1.00  0.00    +0.000 H 
ATOM    114  H17 UNL A   1      11.564  51.310  10.364  1.00  0.00    +0.000 H 
BRANCH   18   17
ATOM     17  N2  UNL A   1      13.136  52.292   9.525  1.00  0.00    +0.000 N 
ATOM    113  H16 UNL A   1      12.525  52.992   9.200  1.00  0.00    +0.000 H 
BRANCH   17   15
ATOM     15  C14 UNL A   1      14.461  52.664   9.557  1.00  0.00    +0.000 C 
ATOM     16  O1  UNL A   1      14.683  53.842   9.252  1.00  0.00    +0.000 O 
BRANCH   15   14
ATOM      9  C8  UNL A   1      16.130  51.532  11.268  1.00  0.00    +0.000 C 
ATOM     10  C9  UNL A   1      17.146  50.550  11.407  1.00  0.00    +0.000 C 
ATOM     11  C10 UNL A   1      17.719  49.907  10.315  1.00  0.00    +0.000 C 
ATOM     12  C11 UNL A   1      17.277  50.225   9.043  1.00  0.00    +0.000 C 
ATOM    109  H12 UNL A   1      17.474  50.304  12.354  1.00  0.00    +0.000 H 
ATOM     14  C13 UNL A   1      15.641  51.830   9.978  1.00  0.00    +0.000 C 
ATOM     13  C12 UNL A   1      16.246  51.157   8.883  1.00  0.00    +0.000 C 
ATOM    110  H13 UNL A   1      18.462  49.204  10.451  1.00  0.00    +0.000 H 
ATOM    112  H15 UNL A   1      15.910  51.363   7.929  1.00  0.00    +0.000 H 
ATOM    111  H14 UNL A   1      17.707  49.778   8.218  1.00  0.00    +0.000 H 
BRANCH    9    8
ATOM    108  H11 UNL A   1      16.540  52.641  12.974  1.00  0.00    +0.000 H 
ATOM      8  N1  UNL A   1      15.808  52.225  12.463  1.00  0.00    +0.000 N 
BRANCH    8    7
ATOM      1  C1  UNL A   1      10.840  50.201  15.602  1.00  0.00    +0.000 C 
ATOM      2  C2  UNL A   1      11.707  49.995  14.341  1.00  0.00    +0.000 C 
ATOM      3  C3  UNL A   1      12.651  48.815  14.662  1.00  0.00    +0.000 C 
ATOM      4  C4  UNL A   1      10.782  49.608  13.171  1.00  0.00    +0.000 C 
ATOM      5  C5  UNL A   1      12.466  51.257  13.914  1.00  0.00    +0.000 C 
ATOM      6  C6  UNL A   1      13.827  51.230  13.518  1.00  0.00    +0.000 C 
ATOM      7  C7  UNL A   1      14.475  52.353  12.962  1.00  0.00    +0.000 C 
ATOM    141  H44 UNL A   1      14.241  54.417  12.563  1.00  0.00    +0.000 H 
ATOM    142  H45 UNL A   1       9.997  54.546  14.813  1.00  0.00    +0.000 H 
ATOM    143  H46 UNL A   1       9.462  54.243  13.172  1.00  0.00    +0.000 H 
ATOM     90  C66 UNL A   1      13.775  53.565  12.909  1.00  0.00    +0.000 C 
ATOM     91  C67 UNL A   1      12.455  53.616  13.323  1.00  0.00    +0.000 C 
ATOM     92  C68 UNL A   1      11.816  52.484  13.787  1.00  0.00    +0.000 C 
ATOM     93  O3  UNL A   1      10.491  52.693  14.055  1.00  0.00    +0.000 O 
ATOM     94  C69 UNL A   1      10.259  54.106  13.873  1.00  0.00    +0.000 C 
ATOM     95  C70 UNL A   1      11.531  54.785  13.331  1.00  0.00    +0.000 C 
ATOM     98  H1  UNL A   1      10.340  49.286  15.845  1.00  0.00    +0.000 H 
ATOM     99  H2  UNL A   1      10.115  50.965  15.416  1.00  0.00    +0.000 H 
ATOM    100  H3  UNL A   1      11.465  50.494  16.420  1.00  0.00    +0.000 H 
ATOM    101  H4  UNL A   1      12.070  47.964  14.953  1.00  0.00    +0.000 H 
ATOM    102  H5  UNL A   1      13.306  49.090  15.462  1.00  0.00    +0.000 H 
ATOM    103  H6  UNL A   1      13.227  48.573  13.794  1.00  0.00    +0.000 H 
ATOM    104  H7  UNL A   1      10.231  48.727  13.427  1.00  0.00    +0.000 H 
ATOM    105  H8  UNL A   1      11.371  49.417  12.298  1.00  0.00    +0.000 H 
ATOM    106  H9  UNL A   1      10.101  50.409  12.974  1.00  0.00    +0.000 H 
ATOM    107  H10 UNL A   1      14.364  50.358  13.643  1.00  0.00    +0.000 H 
BRANCH   95   96
ATOM    145  H48 UNL A   1      11.781  56.834  13.897  1.00  0.00    +0.000 H 
ATOM    146  H49 UNL A   1      13.096  55.794  14.387  1.00  0.00    +0.000 H 
ATOM    144  H47 UNL A   1      11.574  55.742  15.245  1.00  0.00    +0.000 H 
ATOM     96  C71 UNL A   1      12.033  55.871  14.287  1.00  0.00    +0.000 C 
ENDBRANCH   95   96
BRANCH   95   97
ATOM     97  C72 UNL A   1      11.305  55.362  11.930  1.00  0.00    +0.000 C 
ATOM    147  H50 UNL A   1      11.698  54.687  11.199  1.00  0.00    +0.000 H 
ATOM    148  H51 UNL A   1      11.803  56.305  11.848  1.00  0.00    +0.000 H 
ATOM    149  H52 UNL A   1      10.256  55.495  11.765  1.00  0.00    +0.000 H 
ENDBRANCH   95   97
ENDBRANCH    8    7
ENDBRANCH    9    8
ENDBRANCH   15   14
ENDBRANCH   17   15
ENDBRANCH   18   17
ENDBRANCH   19   18
ENDBRANCH   20   19
ENDBRANCH   21   20
ENDBRANCH   22   21
ENDBRANCH   23   22
ENDBRANCH   24   23
ENDBRANCH   25   24
ENDBRANCH   27   25
ENDBRANCH   31   30
BRANCH   35   36
ATOM     36  C30 UNL A   1      17.075  48.723  -1.136  1.00  0.00    +0.000 C 
ATOM     37  C31 UNL A   1      18.148  47.840  -0.950  1.00  0.00    +0.000 C 
ATOM     38  F1  UNL A   1      18.998  48.018   0.072  1.00  0.00    +0.000 F 
ATOM     39  C32 UNL A   1      18.364  46.780  -1.827  1.00  0.00    +0.000 C 
ATOM     40  F2  UNL A   1      19.413  45.968  -1.648  1.00  0.00    +0.000 F 
ATOM     41  C33 UNL A   1      17.496  46.566  -2.889  1.00  0.00    +0.000 C 
ATOM     42  F3  UNL A   1      17.694  45.534  -3.721  1.00  0.00    +0.000 F 
ATOM     43  C34 UNL A   1      16.423  47.420  -3.087  1.00  0.00    +0.000 C 
ATOM     44  F4  UNL A   1      15.573  47.204  -4.101  1.00  0.00    +0.000 F 
ATOM     45  C35 UNL A   1      16.221  48.497  -2.228  1.00  0.00    +0.000 C 
ATOM     46  F5  UNL A   1      15.172  49.306  -2.445  1.00  0.00    +0.000 F 
ENDBRANCH   35   36
BRANCH   52   53
ATOM     53  C41 UNL A   1      18.048  55.837  -0.736  1.00  0.00    +0.000 C 
ATOM     54  C42 UNL A   1      19.402  56.179  -0.603  1.00  0.00    +0.000 C 
ATOM     55  F6  UNL A   1      20.160  55.581   0.327  1.00  0.00    +0.000 F 
ATOM     56  C43 UNL A   1      19.977  57.158  -1.411  1.00  0.00    +0.000 C 
ATOM     57  F7  UNL A   1      21.264  57.491  -1.244  1.00  0.00    +0.000 F 
ATOM     58  C44 UNL A   1      19.218  57.793  -2.384  1.00  0.00    +0.000 C 
ATOM     59  F8  UNL A   1      19.776  58.725  -3.168  1.00  0.00    +0.000 F 
ATOM     60  C45 UNL A   1      17.881  57.464  -2.540  1.00  0.00    +0.000 C 
ATOM     61  F9  UNL A   1      17.149  58.068  -3.487  1.00  0.00    +0.000 F 
ATOM     62  C46 UNL A   1      17.297  56.504  -1.717  1.00  0.00    +0.000 C 
ATOM     63  F10 UNL A   1      16.000  56.211  -1.890  1.00  0.00    +0.000 F 
ENDBRANCH   52   53
BRANCH   67   68
ATOM     68  C50 UNL A   1      14.696  55.813   5.373  1.00  0.00    +0.000 C 
ATOM     69  C51 UNL A   1      13.365  56.240   5.467  1.00  0.00    +0.000 C 
ATOM     70  F11 UNL A   1      12.429  55.699   4.673  1.00  0.00    +0.000 F 
ATOM     71  C52 UNL A   1      12.994  57.250   6.353  1.00  0.00    +0.000 C 
ATOM     72  F12 UNL A   1      11.721  57.666   6.396  1.00  0.00    +0.000 F 
ATOM     73  C53 UNL A   1      13.943  57.834   7.178  1.00  0.00    +0.000 C 
ATOM     74  F13 UNL A   1      13.584  58.797   8.039  1.00  0.00    +0.000 F 
ATOM     75  C54 UNL A   1      15.266  57.424   7.106  1.00  0.00    +0.000 C 
ATOM     76  F14 UNL A   1      16.183  57.977   7.911  1.00  0.00    +0.000 F 
ATOM     77  C55 UNL A   1      15.642  56.435   6.201  1.00  0.00    +0.000 C 
ATOM     78  F15 UNL A   1      16.930  56.069   6.142  1.00  0.00    +0.000 F 
ENDBRANCH   67   68
TORSDOF 19
ENDMDL
MODEL 9
REMARK VINA RESULT:      -9.4      2.626      7.983
ROOT
ATOM    129  H32 UNL A   1      13.728  47.067   2.850  1.00  0.00    +0.000 H 
ATOM    130  H33 UNL A   1      15.290  46.928   0.768  1.00  0.00    +0.000 H 
ATOM    131  H34 UNL A   1      15.222  50.854   2.091  1.00  0.00    +0.000 H 
ATOM    132  H35 UNL A   1      16.884  56.953   1.433  1.00  0.00    +0.000 H 
ATOM    133  H36 UNL A   1      15.691  57.030   3.672  1.00  0.00    +0.000 H 
ATOM    134  H37 UNL A   1      15.491  53.128   2.253  1.00  0.00    +0.000 H 
ATOM    135  H38 UNL A   1      18.521  53.082  -1.822  1.00  0.00    +0.000 H 
ATOM    136  H39 UNL A   1      18.045  50.576  -2.038  1.00  0.00    +0.000 H 
ATOM    137  H40 UNL A   1      12.244  50.989   6.153  1.00  0.00    +0.000 H 
ATOM    138  H41 UNL A   1      12.536  53.529   6.261  1.00  0.00    +0.000 H 
ATOM     31  C26 UNL A   1      14.500  54.556   4.454  1.00  0.00    +0.000 C 
ATOM     32  C27 UNL A   1      13.990  53.131   4.568  1.00  0.00    +0.000 C 
ATOM     33  N4  UNL A   1      14.308  52.071   3.863  1.00  0.00    +0.000 N 
ATOM     34  C28 UNL A   1      13.590  51.012   4.411  1.00  0.00    +0.000 C 
ATOM     35  C29 UNL A   1      13.549  49.712   4.026  1.00  0.00    +0.000 C 
ATOM     47  C36 UNL A   1      14.244  49.163   2.890  1.00  0.00    +0.000 C 
ATOM     48  C37 UNL A   1      14.247  47.855   2.432  1.00  0.00    +0.000 C 
ATOM     49  C38 UNL A   1      15.073  47.782   1.306  1.00  0.00    +0.000 C 
ATOM     50  C39 UNL A   1      15.548  49.054   1.036  1.00  0.00    +0.000 C 
ATOM     51  N5  UNL A   1      15.042  49.889   2.020  1.00  0.00    +0.000 N 
ATOM     52  C40 UNL A   1      16.409  49.482  -0.036  1.00  0.00    +0.000 C 
ATOM     64  C47 UNL A   1      16.796  50.764  -0.236  1.00  0.00    +0.000 C 
ATOM     65  N6  UNL A   1      16.469  51.894   0.504  1.00  0.00    +0.000 N 
ATOM     66  C48 UNL A   1      17.100  52.891  -0.064  1.00  0.00    +0.000 C 
ATOM     67  C49 UNL A   1      17.110  54.348   0.312  1.00  0.00    +0.000 C 
ATOM     79  C56 UNL A   1      16.457  54.771   1.413  1.00  0.00    +0.000 C 
ATOM     80  C57 UNL A   1      16.452  56.146   1.909  1.00  0.00    +0.000 C 
ATOM     81  C58 UNL A   1      15.797  56.192   3.079  1.00  0.00    +0.000 C 
ATOM     82  C59 UNL A   1      15.259  54.868   3.382  1.00  0.00    +0.000 C 
ATOM     83  N7  UNL A   1      15.700  54.087   2.334  1.00  0.00    +0.000 N 
ATOM     84  C60 UNL A   1      17.914  52.497  -1.225  1.00  0.00    +0.000 C 
ATOM     85  C61 UNL A   1      17.666  51.198  -1.306  1.00  0.00    +0.000 C 
ATOM     86  C62 UNL A   1      12.833  51.553   5.520  1.00  0.00    +0.000 C 
ATOM     87  C63 UNL A   1      12.993  52.865   5.616  1.00  0.00    +0.000 C 
ENDROOT
BRANCH   31   30
ATOM    139  H42 UNL A   1      12.183  55.957   4.741  1.00  0.00    +0.000 H 
ATOM    140  H43 UNL A   1      11.751  57.889   6.143  1.00  0.00    +0.000 H 
ATOM     88  C64 UNL A   1      12.901  56.270   5.413  1.00  0.00    +0.000 C 
ATOM     89  C65 UNL A   1      12.641  57.375   6.240  1.00  0.00    +0.000 C 
ATOM     27  C22 UNL A   1      13.580  57.783   7.190  1.00  0.00    +0.000 C 
ATOM     28  C23 UNL A   1      14.718  57.006   7.390  1.00  0.00    +0.000 C 
ATOM     29  C24 UNL A   1      15.010  55.949   6.514  1.00  0.00    +0.000 C 
ATOM     30  C25 UNL A   1      14.125  55.583   5.485  1.00  0.00    +0.000 C 
ATOM    127  H30 UNL A   1      15.347  57.209   8.182  1.00  0.00    +0.000 H 
ATOM    128  H31 UNL A   1      15.893  55.428   6.630  1.00  0.00    +0.000 H 
BRANCH   27   25
ATOM     25  C21 UNL A   1      13.326  59.017   7.975  1.00  0.00    +0.000 C 
ATOM     26  O2  UNL A   1      13.956  60.035   7.699  1.00  0.00    +0.000 O 
BRANCH   25   24
ATOM    126  H29 UNL A   1      12.602  59.724   9.709  1.00  0.00    +0.000 H 
ATOM     24  N3  UNL A   1      12.443  59.022   9.038  1.00  0.00    +0.000 N 
BRANCH   24   23
ATOM    124  H27 UNL A   1      10.685  58.639  10.027  1.00  0.00    +0.000 H 
ATOM    125  H28 UNL A   1      10.840  57.971   8.374  1.00  0.00    +0.000 H 
ATOM     23  C20 UNL A   1      11.316  58.149   9.316  1.00  0.00    +0.000 C 
BRANCH   23   22
ATOM    122  H25 UNL A   1      12.744  56.738   9.973  1.00  0.00    +0.000 H 
ATOM    123  H26 UNL A   1      11.126  56.699  10.787  1.00  0.00    +0.000 H 
ATOM     22  C19 UNL A   1      11.680  56.771   9.874  1.00  0.00    +0.000 C 
BRANCH   22   21
ATOM    121  H24 UNL A   1      11.282  55.868   8.055  1.00  0.00    +0.000 H 
ATOM     21  C18 UNL A   1      11.258  55.538   9.072  1.00  0.00    +0.000 C 
ATOM    120  H23 UNL A   1      10.304  55.230   9.447  1.00  0.00    +0.000 H 
BRANCH   21   20
ATOM     20  C17 UNL A   1      12.167  54.305   9.087  1.00  0.00    +0.000 C 
ATOM    118  H21 UNL A   1      11.729  53.605   9.766  1.00  0.00    +0.000 H 
ATOM    119  H22 UNL A   1      12.216  54.020   8.057  1.00  0.00    +0.000 H 
BRANCH   20   19
ATOM     19  C16 UNL A   1      13.638  54.451   9.487  1.00  0.00    +0.000 C 
ATOM    116  H19 UNL A   1      14.212  53.920   8.757  1.00  0.00    +0.000 H 
ATOM    117  H20 UNL A   1      13.777  55.511   9.541  1.00  0.00    +0.000 H 
BRANCH   19   18
ATOM     18  C15 UNL A   1      14.102  53.963  10.856  1.00  0.00    +0.000 C 
ATOM    115  H18 UNL A   1      13.670  54.646  11.557  1.00  0.00    +0.000 H 
ATOM    114  H17 UNL A   1      15.172  53.943  10.846  1.00  0.00    +0.000 H 
BRANCH   18   17
ATOM     17  N2  UNL A   1      13.650  52.664  11.273  1.00  0.00    +0.000 N 
ATOM    113  H16 UNL A   1      12.671  52.561  11.289  1.00  0.00    +0.000 H 
BRANCH   17   15
ATOM     15  C14 UNL A   1      14.345  51.539  11.655  1.00  0.00    +0.000 C 
ATOM     16  O1  UNL A   1      13.916  50.974  12.668  1.00  0.00    +0.000 O 
BRANCH   15   14
ATOM      9  C8  UNL A   1      15.639  50.469   9.612  1.00  0.00    +0.000 C 
ATOM     10  C9  UNL A   1      16.918  50.071   9.139  1.00  0.00    +0.000 C 
ATOM     11  C10 UNL A   1      18.040  50.032   9.961  1.00  0.00    +0.000 C 
ATOM     12  C11 UNL A   1      17.912  50.405  11.287  1.00  0.00    +0.000 C 
ATOM    109  H12 UNL A   1      17.020  49.800   8.149  1.00  0.00    +0.000 H 
ATOM     14  C13 UNL A   1      15.509  50.894  10.951  1.00  0.00    +0.000 C 
ATOM     13  C12 UNL A   1      16.672  50.842  11.765  1.00  0.00    +0.000 C 
ATOM    110  H13 UNL A   1      18.953  49.731   9.587  1.00  0.00    +0.000 H 
ATOM    112  H15 UNL A   1      16.600  51.142  12.750  1.00  0.00    +0.000 H 
ATOM    111  H14 UNL A   1      18.726  50.359  11.919  1.00  0.00    +0.000 H 
BRANCH    9    8
ATOM    108  H11 UNL A   1      14.704  50.527   7.760  1.00  0.00    +0.000 H 
ATOM      8  N1  UNL A   1      14.576  50.255   8.697  1.00  0.00    +0.000 N 
BRANCH    8    7
ATOM      1  C1  UNL A   1       8.421  49.529   8.227  1.00  0.00    +0.000 C 
ATOM      2  C2  UNL A   1       9.550  50.487   8.669  1.00  0.00    +0.000 C 
ATOM      3  C3  UNL A   1       9.729  51.494   7.512  1.00  0.00    +0.000 C 
ATOM      4  C4  UNL A   1       9.088  51.235   9.934  1.00  0.00    +0.000 C 
ATOM      5  C5  UNL A   1      10.853  49.762   9.027  1.00  0.00    +0.000 C 
ATOM      6  C6  UNL A   1      12.124  50.223   8.597  1.00  0.00    +0.000 C 
ATOM      7  C7  UNL A   1      13.330  49.662   9.067  1.00  0.00    +0.000 C 
ATOM    141  H44 UNL A   1      14.124  48.068  10.208  1.00  0.00    +0.000 H 
ATOM    142  H45 UNL A   1       9.783  46.086  10.778  1.00  0.00    +0.000 H 
ATOM    143  H46 UNL A   1       9.862  47.067  12.227  1.00  0.00    +0.000 H 
ATOM     90  C66 UNL A   1      13.259  48.536   9.897  1.00  0.00    +0.000 C 
ATOM     91  C67 UNL A   1      12.026  48.053  10.299  1.00  0.00    +0.000 C 
ATOM     92  C68 UNL A   1      10.859  48.670   9.893  1.00  0.00    +0.000 C 
ATOM     93  O3  UNL A   1       9.742  48.124  10.464  1.00  0.00    +0.000 O 
ATOM     94  C69 UNL A   1      10.191  46.975  11.213  1.00  0.00    +0.000 C 
ATOM     95  C70 UNL A   1      11.730  46.894  11.187  1.00  0.00    +0.000 C 
ATOM     98  H1  UNL A   1       7.544  50.096   7.992  1.00  0.00    +0.000 H 
ATOM     99  H2  UNL A   1       8.202  48.846   9.020  1.00  0.00    +0.000 H 
ATOM    100  H3  UNL A   1       8.735  48.983   7.361  1.00  0.00    +0.000 H 
ATOM    101  H4  UNL A   1       8.792  51.969   7.304  1.00  0.00    +0.000 H 
ATOM    102  H5  UNL A   1      10.068  50.978   6.638  1.00  0.00    +0.000 H 
ATOM    103  H6  UNL A   1      10.449  52.234   7.792  1.00  0.00    +0.000 H 
ATOM    104  H7  UNL A   1       8.177  51.757   9.728  1.00  0.00    +0.000 H 
ATOM    105  H8  UNL A   1       9.841  51.936  10.229  1.00  0.00    +0.000 H 
ATOM    106  H9  UNL A   1       8.925  50.533  10.724  1.00  0.00    +0.000 H 
ATOM    107  H10 UNL A   1      12.167  50.996   7.915  1.00  0.00    +0.000 H 
BRANCH   95   96
ATOM    145  H48 UNL A   1      11.627  44.771  10.933  1.00  0.00    +0.000 H 
ATOM    146  H49 UNL A   1      13.239  45.428  10.789  1.00  0.00    +0.000 H 
ATOM    144  H47 UNL A   1      12.090  45.639   9.490  1.00  0.00    +0.000 H 
ATOM     96  C71 UNL A   1      12.207  45.585  10.552  1.00  0.00    +0.000 C 
ENDBRANCH   95   96
BRANCH   95   97
ATOM     97  C72 UNL A   1      12.324  47.063  12.588  1.00  0.00    +0.000 C 
ATOM    147  H50 UNL A   1      11.538  47.040  13.313  1.00  0.00    +0.000 H 
ATOM    148  H51 UNL A   1      12.837  47.999  12.648  1.00  0.00    +0.000 H 
ATOM    149  H52 UNL A   1      13.012  46.266  12.782  1.00  0.00    +0.000 H 
ENDBRANCH   95   97
ENDBRANCH    8    7
ENDBRANCH    9    8
ENDBRANCH   15   14
ENDBRANCH   17   15
ENDBRANCH   18   17
ENDBRANCH   19   18
ENDBRANCH   20   19
ENDBRANCH   21   20
ENDBRANCH   22   21
ENDBRANCH   23   22
ENDBRANCH   24   23
ENDBRANCH   25   24
ENDBRANCH   27   25
ENDBRANCH   31   30
BRANCH   35   36
ATOM     36  C30 UNL A   1      12.717  48.763   4.842  1.00  0.00    +0.000 C 
ATOM     37  C31 UNL A   1      13.288  47.936   5.819  1.00  0.00    +0.000 C 
ATOM     38  F1  UNL A   1      14.618  47.909   5.986  1.00  0.00    +0.000 F 
ATOM     39  C32 UNL A   1      12.493  47.116   6.616  1.00  0.00    +0.000 C 
ATOM     40  F2  UNL A   1      13.063  46.311   7.522  1.00  0.00    +0.000 F 
ATOM     41  C33 UNL A   1      11.113  47.129   6.473  1.00  0.00    +0.000 C 
ATOM     42  F3  UNL A   1      10.349  46.352   7.254  1.00  0.00    +0.000 F 
ATOM     43  C34 UNL A   1      10.526  47.945   5.519  1.00  0.00    +0.000 C 
ATOM     44  F4  UNL A   1       9.192  47.973   5.391  1.00  0.00    +0.000 F 
ATOM     45  C35 UNL A   1      11.320  48.746   4.701  1.00  0.00    +0.000 C 
ATOM     46  F5  UNL A   1      10.721  49.527   3.789  1.00  0.00    +0.000 F 
ENDBRANCH   35   36
BRANCH   52   53
ATOM     53  C41 UNL A   1      16.896  48.442  -1.002  1.00  0.00    +0.000 C 
ATOM     54  C42 UNL A   1      18.059  47.698  -0.754  1.00  0.00    +0.000 C 
ATOM     55  F6  UNL A   1      18.806  47.955   0.330  1.00  0.00    +0.000 F 
ATOM     56  C43 UNL A   1      18.474  46.701  -1.634  1.00  0.00    +0.000 C 
ATOM     57  F7  UNL A   1      19.607  46.026  -1.394  1.00  0.00    +0.000 F 
ATOM     58  C44 UNL A   1      17.722  46.411  -2.763  1.00  0.00    +0.000 C 
ATOM     59  F8  UNL A   1      18.116  45.444  -3.603  1.00  0.00    +0.000 F 
ATOM     60  C45 UNL A   1      16.564  47.127  -3.024  1.00  0.00    +0.000 C 
ATOM     61  F9  UNL A   1      15.829  46.840  -4.108  1.00  0.00    +0.000 F 
ATOM     62  C46 UNL A   1      16.160  48.141  -2.158  1.00  0.00    +0.000 C 
ATOM     63  F10 UNL A   1      15.037  48.818  -2.439  1.00  0.00    +0.000 F 
ENDBRANCH   52   53
BRANCH   67   68
ATOM     68  C50 UNL A   1      17.852  55.329  -0.527  1.00  0.00    +0.000 C 
ATOM     69  C51 UNL A   1      17.233  55.945  -1.623  1.00  0.00    +0.000 C 
ATOM     70  F11 UNL A   1      15.971  55.628  -1.947  1.00  0.00    +0.000 F 
ATOM     71  C52 UNL A   1      17.920  56.865  -2.414  1.00  0.00    +0.000 C 
ATOM     72  F12 UNL A   1      17.317  57.413  -3.478  1.00  0.00    +0.000 F 
ATOM     73  C53 UNL A   1      19.230  57.203  -2.107  1.00  0.00    +0.000 C 
ATOM     74  F13 UNL A   1      19.886  58.097  -2.860  1.00  0.00    +0.000 F 
ATOM     75  C54 UNL A   1      19.861  56.609  -1.025  1.00  0.00    +0.000 C 
ATOM     76  F14 UNL A   1      21.122  56.943  -0.718  1.00  0.00    +0.000 F 
ATOM     77  C55 UNL A   1      19.184  55.669  -0.252  1.00  0.00    +0.000 C 
ATOM     78  F15 UNL A   1      19.824  55.099   0.779  1.00  0.00    +0.000 F 
ENDBRANCH   67   68
TORSDOF 19
ENDMDL
MODEL 10
REMARK VINA RESULT:      -9.4      2.771      8.036
ROOT
ATOM    129  H32 UNL A   1      18.322  53.412  -0.766  1.00  0.00    +0.000 H 
ATOM    130  H33 UNL A   1      17.945  50.892  -1.311  1.00  0.00    +0.000 H 
ATOM    131  H34 UNL A   1      15.796  51.825   2.105  1.00  0.00    +0.000 H 
ATOM    132  H35 UNL A   1      12.105  50.086   6.979  1.00  0.00    +0.000 H 
ATOM    133  H36 UNL A   1      12.147  52.603   7.296  1.00  0.00    +0.000 H 
ATOM    134  H37 UNL A   1      14.542  51.690   4.024  1.00  0.00    +0.000 H 
ATOM    135  H38 UNL A   1      13.729  46.751   3.171  1.00  0.00    +0.000 H 
ATOM    136  H39 UNL A   1      15.271  46.938   1.137  1.00  0.00    +0.000 H 
ATOM    137  H40 UNL A   1      16.534  56.725   3.017  1.00  0.00    +0.000 H 
ATOM    138  H41 UNL A   1      15.169  56.512   5.172  1.00  0.00    +0.000 H 
ATOM     31  C26 UNL A   1      13.858  53.988   5.478  1.00  0.00    +0.000 C 
ATOM     32  C27 UNL A   1      14.835  54.409   4.395  1.00  0.00    +0.000 C 
ATOM     33  N4  UNL A   1      15.311  53.718   3.385  1.00  0.00    +0.000 N 
ATOM     34  C28 UNL A   1      16.127  54.590   2.671  1.00  0.00    +0.000 C 
ATOM     35  C29 UNL A   1      16.869  54.354   1.560  1.00  0.00    +0.000 C 
ATOM     47  C36 UNL A   1      16.993  53.079   0.901  1.00  0.00    +0.000 C 
ATOM     48  C37 UNL A   1      17.732  52.760  -0.227  1.00  0.00    +0.000 C 
ATOM     49  C38 UNL A   1      17.542  51.404  -0.512  1.00  0.00    +0.000 C 
ATOM     50  C39 UNL A   1      16.721  50.869   0.465  1.00  0.00    +0.000 C 
ATOM     51  N5  UNL A   1      16.382  51.907   1.319  1.00  0.00    +0.000 N 
ATOM     52  C40 UNL A   1      16.267  49.510   0.611  1.00  0.00    +0.000 C 
ATOM     64  C47 UNL A   1      15.486  49.072   1.627  1.00  0.00    +0.000 C 
ATOM     65  N6  UNL A   1      14.973  49.794   2.698  1.00  0.00    +0.000 N 
ATOM     66  C48 UNL A   1      14.262  48.944   3.396  1.00  0.00    +0.000 C 
ATOM     67  C49 UNL A   1      13.481  49.171   4.663  1.00  0.00    +0.000 C 
ATOM     79  C56 UNL A   1      13.391  50.407   5.194  1.00  0.00    +0.000 C 
ATOM     80  C57 UNL A   1      12.610  50.756   6.378  1.00  0.00    +0.000 C 
ATOM     81  C58 UNL A   1      12.655  52.084   6.564  1.00  0.00    +0.000 C 
ATOM     82  C59 UNL A   1      13.537  52.680   5.562  1.00  0.00    +0.000 C 
ATOM     83  N7  UNL A   1      13.930  51.606   4.791  1.00  0.00    +0.000 N 
ATOM     84  C60 UNL A   1      14.233  47.585   2.831  1.00  0.00    +0.000 C 
ATOM     85  C61 UNL A   1      15.021  47.711   1.773  1.00  0.00    +0.000 C 
ATOM     86  C62 UNL A   1      16.068  55.866   3.350  1.00  0.00    +0.000 C 
ATOM     87  C63 UNL A   1      15.339  55.789   4.455  1.00  0.00    +0.000 C 
ENDROOT
BRANCH   31   30
ATOM    139  H42 UNL A   1      11.584  55.478   5.324  1.00  0.00    +0.000 H 
ATOM    140  H43 UNL A   1      10.937  57.388   6.673  1.00  0.00    +0.000 H 
ATOM     88  C64 UNL A   1      12.156  55.742   6.142  1.00  0.00    +0.000 C 
ATOM     89  C65 UNL A   1      11.768  56.834   6.935  1.00  0.00    +0.000 C 
ATOM     27  C22 UNL A   1      12.500  57.175   8.075  1.00  0.00    +0.000 C 
ATOM     28  C23 UNL A   1      13.542  56.346   8.480  1.00  0.00    +0.000 C 
ATOM     29  C24 UNL A   1      13.973  55.301   7.648  1.00  0.00    +0.000 C 
ATOM     30  C25 UNL A   1      13.312  55.002   6.444  1.00  0.00    +0.000 C 
ATOM    127  H30 UNL A   1      13.997  56.500   9.392  1.00  0.00    +0.000 H 
ATOM    128  H31 UNL A   1      14.793  54.740   7.927  1.00  0.00    +0.000 H 
BRANCH   27   25
ATOM     25  C21 UNL A   1      12.131  58.397   8.833  1.00  0.00    +0.000 C 
ATOM     26  O2  UNL A   1      12.841  59.395   8.731  1.00  0.00    +0.000 O 
BRANCH   25   24
ATOM    126  H29 UNL A   1      10.279  58.947   9.379  1.00  0.00    +0.000 H 
ATOM     24  N3  UNL A   1      11.045  58.412   9.687  1.00  0.00    +0.000 N 
BRANCH   24   23
ATOM    124  H27 UNL A   1      11.699  58.008  11.590  1.00  0.00    +0.000 H 
ATOM    125  H28 UNL A   1       9.928  58.112  11.354  1.00  0.00    +0.000 H 
ATOM     23  C20 UNL A   1      10.863  57.758  10.971  1.00  0.00    +0.000 C 
BRANCH   23   22
ATOM    122  H25 UNL A   1       9.901  55.997  10.313  1.00  0.00    +0.000 H 
ATOM    123  H26 UNL A   1      11.697  55.909  10.537  1.00  0.00    +0.000 H 
ATOM     22  C19 UNL A   1      10.751  56.233  10.919  1.00  0.00    +0.000 C 
BRANCH   22   21
ATOM    121  H24 UNL A   1      10.656  54.449  11.963  1.00  0.00    +0.000 H 
ATOM     21  C18 UNL A   1      10.593  55.480  12.241  1.00  0.00    +0.000 C 
ATOM    120  H23 UNL A   1       9.667  55.797  12.675  1.00  0.00    +0.000 H 
BRANCH   21   20
ATOM     20  C17 UNL A   1      11.673  55.644  13.316  1.00  0.00    +0.000 C 
ATOM    118  H21 UNL A   1      12.127  56.599  13.155  1.00  0.00    +0.000 H 
ATOM    119  H22 UNL A   1      11.137  55.507  14.231  1.00  0.00    +0.000 H 
BRANCH   20   19
ATOM     19  C16 UNL A   1      12.810  54.623  13.412  1.00  0.00    +0.000 C 
ATOM    116  H19 UNL A   1      13.715  55.178  13.542  1.00  0.00    +0.000 H 
ATOM    117  H20 UNL A   1      12.506  53.988  14.218  1.00  0.00    +0.000 H 
BRANCH   19   18
ATOM     18  C15 UNL A   1      13.050  53.647  12.264  1.00  0.00    +0.000 C 
ATOM    115  H18 UNL A   1      12.652  54.132  11.397  1.00  0.00    +0.000 H 
ATOM    114  H17 UNL A   1      12.576  52.722  12.521  1.00  0.00    +0.000 H 
BRANCH   18   17
ATOM     17  N2  UNL A   1      14.417  53.354  11.932  1.00  0.00    +0.000 N 
ATOM    113  H16 UNL A   1      14.847  54.025  11.354  1.00  0.00    +0.000 H 
BRANCH   17   15
ATOM     15  C14 UNL A   1      15.231  52.300  12.281  1.00  0.00    +0.000 C 
ATOM     16  O1  UNL A   1      15.496  52.217  13.486  1.00  0.00    +0.000 O 
BRANCH   15   14
ATOM      9  C8  UNL A   1      15.181  50.583  10.270  1.00  0.00    +0.000 C 
ATOM     10  C9  UNL A   1      15.981  49.729   9.464  1.00  0.00    +0.000 C 
ATOM     11  C10 UNL A   1      17.310  49.449   9.762  1.00  0.00    +0.000 C 
ATOM     12  C11 UNL A   1      17.883  50.032  10.878  1.00  0.00    +0.000 C 
ATOM    109  H12 UNL A   1      15.560  49.298   8.626  1.00  0.00    +0.000 H 
ATOM     14  C13 UNL A   1      15.770  51.217  11.384  1.00  0.00    +0.000 C 
ATOM     13  C12 UNL A   1      17.129  50.912  11.662  1.00  0.00    +0.000 C 
ATOM    110  H13 UNL A   1      17.861  48.818   9.159  1.00  0.00    +0.000 H 
ATOM    112  H15 UNL A   1      17.581  51.359  12.476  1.00  0.00    +0.000 H 
ATOM    111  H14 UNL A   1      18.861  49.818  11.130  1.00  0.00    +0.000 H 
BRANCH    9    8
ATOM    108  H11 UNL A   1      13.468  51.312   9.352  1.00  0.00    +0.000 H 
ATOM      8  N1  UNL A   1      13.803  50.593   9.936  1.00  0.00    +0.000 N 
BRANCH    8    7
ATOM      1  C1  UNL A   1       8.997  46.717   9.218  1.00  0.00    +0.000 C 
ATOM      2  C2  UNL A   1       9.422  48.200   9.299  1.00  0.00    +0.000 C 
ATOM      3  C3  UNL A   1       9.506  48.699   7.840  1.00  0.00    +0.000 C 
ATOM      4  C4  UNL A   1       8.325  48.982  10.047  1.00  0.00    +0.000 C 
ATOM      5  C5  UNL A   1      10.729  48.413  10.072  1.00  0.00    +0.000 C 
ATOM      6  C6  UNL A   1      11.753  49.281   9.613  1.00  0.00    +0.000 C 
ATOM      7  C7  UNL A   1      12.875  49.612  10.402  1.00  0.00    +0.000 C 
ATOM    141  H44 UNL A   1      13.872  49.141  12.207  1.00  0.00    +0.000 H 
ATOM    142  H45 UNL A   1      10.824  45.548  13.155  1.00  0.00    +0.000 H 
ATOM    143  H46 UNL A   1      10.035  46.853  14.018  1.00  0.00    +0.000 H 
ATOM     90  C66 UNL A   1      13.033  48.965  11.634  1.00  0.00    +0.000 C 
ATOM     91  C67 UNL A   1      12.059  48.088  12.082  1.00  0.00    +0.000 C 
ATOM     92  C68 UNL A   1      10.929  47.844  11.328  1.00  0.00    +0.000 C 
ATOM     93  O3  UNL A   1      10.029  47.034  11.967  1.00  0.00    +0.000 O 
ATOM     94  C69 UNL A   1      10.666  46.606  13.189  1.00  0.00    +0.000 C 
ATOM     95  C70 UNL A   1      12.022  47.319  13.357  1.00  0.00    +0.000 C 
ATOM     98  H1  UNL A   1       8.082  46.638   8.668  1.00  0.00    +0.000 H 
ATOM     99  H2  UNL A   1       8.854  46.332  10.205  1.00  0.00    +0.000 H 
ATOM    100  H3  UNL A   1       9.760  46.154   8.721  1.00  0.00    +0.000 H 
ATOM    101  H4  UNL A   1       8.571  48.526   7.350  1.00  0.00    +0.000 H 
ATOM    102  H5  UNL A   1      10.281  48.169   7.326  1.00  0.00    +0.000 H 
ATOM    103  H6  UNL A   1       9.724  49.746   7.833  1.00  0.00    +0.000 H 
ATOM    104  H7  UNL A   1       7.391  48.861   9.539  1.00  0.00    +0.000 H 
ATOM    105  H8  UNL A   1       8.582  50.021  10.073  1.00  0.00    +0.000 H 
ATOM    106  H9  UNL A   1       8.238  48.610  11.045  1.00  0.00    +0.000 H 
ATOM    107  H10 UNL A   1      11.674  49.686   8.667  1.00  0.00    +0.000 H 
BRANCH   95   96
ATOM    145  H48 UNL A   1      13.040  45.566  12.669  1.00  0.00    +0.000 H 
ATOM    146  H49 UNL A   1      13.189  45.849  14.386  1.00  0.00    +0.000 H 
ATOM    144  H47 UNL A   1      14.102  46.822  13.258  1.00  0.00    +0.000 H 
ATOM     96  C71 UNL A   1      13.175  46.313  13.422  1.00  0.00    +0.000 C 
ENDBRANCH   95   96
BRANCH   95   97
ATOM     97  C72 UNL A   1      12.028  48.228  14.589  1.00  0.00    +0.000 C 
ATOM    147  H50 UNL A   1      12.866  48.892  14.538  1.00  0.00    +0.000 H 
ATOM    148  H51 UNL A   1      12.101  47.631  15.473  1.00  0.00    +0.000 H 
ATOM    149  H52 UNL A   1      11.123  48.798  14.617  1.00  0.00    +0.000 H 
ENDBRANCH   95   97
ENDBRANCH    8    7
ENDBRANCH    9    8
ENDBRANCH   15   14
ENDBRANCH   17   15
ENDBRANCH   18   17
ENDBRANCH   19   18
ENDBRANCH   20   19
ENDBRANCH   21   20
ENDBRANCH   22   21
ENDBRANCH   23   22
ENDBRANCH   24   23
ENDBRANCH   25   24
ENDBRANCH   27   25
ENDBRANCH   31   30
BRANCH   35   36
ATOM     36  C30 UNL A   1      17.624  55.508   0.961  1.00  0.00    +0.000 C 
ATOM     37  C31 UNL A   1      18.931  55.820   1.362  1.00  0.00    +0.000 C 
ATOM     38  F1  UNL A   1      19.508  55.144   2.365  1.00  0.00    +0.000 F 
ATOM     39  C32 UNL A   1      19.642  56.847   0.745  1.00  0.00    +0.000 C 
ATOM     40  F2  UNL A   1      20.877  57.149   1.166  1.00  0.00    +0.000 F 
ATOM     41  C33 UNL A   1      19.074  57.558  -0.302  1.00  0.00    +0.000 C 
ATOM     42  F3  UNL A   1      19.768  58.533  -0.907  1.00  0.00    +0.000 F 
ATOM     43  C34 UNL A   1      17.787  57.260  -0.721  1.00  0.00    +0.000 C 
ATOM     44  F4  UNL A   1      17.243  57.934  -1.745  1.00  0.00    +0.000 F 
ATOM     45  C35 UNL A   1      17.062  56.253  -0.088  1.00  0.00    +0.000 C 
ATOM     46  F5  UNL A   1      15.819  55.986  -0.519  1.00  0.00    +0.000 F 
ENDBRANCH   35   36
BRANCH   52   53
ATOM     53  C41 UNL A   1      16.701  48.511  -0.422  1.00  0.00    +0.000 C 
ATOM     54  C42 UNL A   1      15.880  48.175  -1.508  1.00  0.00    +0.000 C 
ATOM     55  F6  UNL A   1      14.647  48.694  -1.607  1.00  0.00    +0.000 F 
ATOM     56  C43 UNL A   1      16.315  47.284  -2.487  1.00  0.00    +0.000 C 
ATOM     57  F7  UNL A   1      15.500  46.952  -3.498  1.00  0.00    +0.000 F 
ATOM     58  C44 UNL A   1      17.585  46.732  -2.412  1.00  0.00    +0.000 C 
ATOM     59  F8  UNL A   1      18.007  45.884  -3.361  1.00  0.00    +0.000 F 
ATOM     60  C45 UNL A   1      18.418  47.057  -1.353  1.00  0.00    +0.000 C 
ATOM     61  F9  UNL A   1      19.651  46.535  -1.286  1.00  0.00    +0.000 F 
ATOM     62  C46 UNL A   1      17.977  47.929  -0.360  1.00  0.00    +0.000 C 
ATOM     63  F10 UNL A   1      18.805  48.221   0.654  1.00  0.00    +0.000 F 
ENDBRANCH   52   53
BRANCH   67   68
ATOM     68  C50 UNL A   1      12.796  48.031   5.330  1.00  0.00    +0.000 C 
ATOM     69  C51 UNL A   1      13.296  47.494   6.524  1.00  0.00    +0.000 C 
ATOM     70  F11 UNL A   1      14.424  47.985   7.059  1.00  0.00    +0.000 F 
ATOM     71  C52 UNL A   1      12.660  46.427   7.156  1.00  0.00    +0.000 C 
ATOM     72  F12 UNL A   1      13.180  45.909   8.277  1.00  0.00    +0.000 F 
ATOM     73  C53 UNL A   1      11.498  45.894   6.618  1.00  0.00    +0.000 C 
ATOM     74  F13 UNL A   1      10.879  44.876   7.232  1.00  0.00    +0.000 F 
ATOM     75  C54 UNL A   1      10.982  46.412   5.440  1.00  0.00    +0.000 C 
ATOM     76  F14 UNL A   1       9.853  45.908   4.925  1.00  0.00    +0.000 F 
ATOM     77  C55 UNL A   1      11.633  47.459   4.793  1.00  0.00    +0.000 C 
ATOM     78  F15 UNL A   1      11.120  47.930   3.647  1.00  0.00    +0.000 F 
ENDBRANCH   67   68
TORSDOF 19
ENDMDL
