MODEL 1
REMARK VINA RESULT:     -10.1      0.000      0.000
ROOT
ATOM    129  H30 UNL A   1      24.786  25.790  57.114  1.00  0.00    +0.000 H 
ATOM    130  H31 UNL A   1      31.393  25.361  52.090  1.00  0.00    +0.000 H 
ATOM    131  H32 UNL A   1      29.706  27.039  51.224  1.00  0.00    +0.000 H 
ATOM    132  H33 UNL A   1      28.482  25.903  55.005  1.00  0.00    +0.000 H 
ATOM    133  H34 UNL A   1      31.344  26.316  57.131  1.00  0.00    +0.000 H 
ATOM    134  H35 UNL A   1      29.329  26.168  58.733  1.00  0.00    +0.000 H 
ATOM    135  H36 UNL A   1      23.804  29.755  54.629  1.00  0.00    +0.000 H 
ATOM    136  H37 UNL A   1      25.215  29.202  52.566  1.00  0.00    +0.000 H 
ATOM     29  C24 UNL A   1      27.698  27.851  53.091  1.00  0.00    +0.000 C 
ATOM     30  C25 UNL A   1      26.602  28.247  54.093  1.00  0.00    +0.000 C 
ATOM     31  N3  UNL A   1      26.537  28.123  55.391  1.00  0.00    +0.000 N 
ATOM     32  C26 UNL A   1      25.274  28.612  55.788  1.00  0.00    +0.000 C 
ATOM     33  C27 UNL A   1      24.686  28.387  57.000  1.00  0.00    +0.000 C 
ATOM     45  C34 UNL A   1      25.484  27.611  57.892  1.00  0.00    +0.000 C 
ATOM     46  C35 UNL A   1      26.266  27.803  59.006  1.00  0.00    +0.000 C 
ATOM     47  C36 UNL A   1      26.874  26.546  59.287  1.00  0.00    +0.000 C 
ATOM     48  C37 UNL A   1      26.566  25.706  58.225  1.00  0.00    +0.000 C 
ATOM     49  N4  UNL A   1      25.469  26.269  57.635  1.00  0.00    +0.000 N 
ATOM     50  C38 UNL A   1      27.167  24.605  57.533  1.00  0.00    +0.000 C 
ATOM     62  C45 UNL A   1      28.513  24.627  57.381  1.00  0.00    +0.000 C 
ATOM     63  N5  UNL A   1      29.134  23.939  56.360  1.00  0.00    +0.000 N 
ATOM     64  C46 UNL A   1      30.197  24.639  56.119  1.00  0.00    +0.000 C 
ATOM     65  C47 UNL A   1      30.970  24.594  54.868  1.00  0.00    +0.000 C 
ATOM     77  C54 UNL A   1      30.251  25.351  53.984  1.00  0.00    +0.000 C 
ATOM     78  C55 UNL A   1      30.588  25.724  52.624  1.00  0.00    +0.000 C 
ATOM     79  C56 UNL A   1      29.689  26.618  52.167  1.00  0.00    +0.000 C 
ATOM     80  C57 UNL A   1      28.677  26.911  53.197  1.00  0.00    +0.000 C 
ATOM     81  N6  UNL A   1      29.032  26.039  54.199  1.00  0.00    +0.000 N 
ATOM     82  C58 UNL A   1      30.525  25.690  57.082  1.00  0.00    +0.000 C 
ATOM     83  C59 UNL A   1      29.462  25.609  57.877  1.00  0.00    +0.000 C 
ATOM     84  C60 UNL A   1      24.680  29.209  54.627  1.00  0.00    +0.000 C 
ATOM     85  C61 UNL A   1      25.417  28.959  53.547  1.00  0.00    +0.000 C 
ATOM    127  H28 UNL A   1      26.388  28.682  59.533  1.00  0.00    +0.000 H 
ATOM    128  H29 UNL A   1      27.435  26.306  60.119  1.00  0.00    +0.000 H 
ENDROOT
BRANCH   29   28
ATOM    137  H38 UNL A   1      28.671  30.367  52.710  1.00  0.00    +0.000 H 
ATOM    138  H39 UNL A   1      28.857  31.575  50.608  1.00  0.00    +0.000 H 
ATOM     86  C62 UNL A   1      28.310  29.948  51.839  1.00  0.00    +0.000 C 
ATOM     87  C63 UNL A   1      28.422  30.639  50.630  1.00  0.00    +0.000 C 
ATOM     25  C20 UNL A   1      27.941  30.063  49.449  1.00  0.00    +0.000 C 
ATOM     26  C21 UNL A   1      27.304  28.814  49.490  1.00  0.00    +0.000 C 
ATOM     27  C22 UNL A   1      27.186  28.126  50.691  1.00  0.00    +0.000 C 
ATOM     28  C23 UNL A   1      27.707  28.683  51.864  1.00  0.00    +0.000 C 
ATOM    125  H26 UNL A   1      26.923  28.404  48.623  1.00  0.00    +0.000 H 
ATOM    126  H27 UNL A   1      26.716  27.208  50.718  1.00  0.00    +0.000 H 
BRANCH   25   23
ATOM     23  C19 UNL A   1      27.964  30.756  48.139  1.00  0.00    +0.000 C 
ATOM     24  O3  UNL A   1      29.034  31.058  47.636  1.00  0.00    +0.000 O 
BRANCH   23   22
ATOM    124  H25 UNL A   1      26.263  31.785  47.890  1.00  0.00    +0.000 H 
ATOM     22  N2  UNL A   1      26.811  31.081  47.472  1.00  0.00    +0.000 N 
BRANCH   22   21
ATOM    122  H23 UNL A   1      26.833  30.939  45.411  1.00  0.00    +0.000 H 
ATOM    123  H24 UNL A   1      26.389  29.467  46.261  1.00  0.00    +0.000 H 
ATOM     21  C18 UNL A   1      26.286  30.533  46.236  1.00  0.00    +0.000 C 
BRANCH   21   20
ATOM    121  H22 UNL A   1      24.693  31.259  45.080  1.00  0.00    +0.000 H 
ATOM     20  C17 UNL A   1      24.803  30.880  46.075  1.00  0.00    +0.000 C 
ATOM    120  H21 UNL A   1      24.545  31.591  46.832  1.00  0.00    +0.000 H 
BRANCH   20   19
ATOM     19  C16 UNL A   1      23.837  29.689  46.189  1.00  0.00    +0.000 C 
ATOM    118  H19 UNL A   1      23.961  29.081  45.318  1.00  0.00    +0.000 H 
ATOM    119  H20 UNL A   1      24.092  29.194  47.104  1.00  0.00    +0.000 H 
BRANCH   19   18
ATOM     18  C15 UNL A   1      22.353  30.042  46.308  1.00  0.00    +0.000 C 
ATOM    116  H17 UNL A   1      21.893  29.338  46.968  1.00  0.00    +0.000 H 
ATOM    117  H18 UNL A   1      22.308  31.047  46.671  1.00  0.00    +0.000 H 
BRANCH   18   17
ATOM     17  C14 UNL A   1      21.590  30.025  44.987  1.00  0.00    +0.000 C 
ATOM    114  H15 UNL A   1      21.792  30.941  44.475  1.00  0.00    +0.000 H 
ATOM    115  H16 UNL A   1      21.927  29.157  44.460  1.00  0.00    +0.000 H 
BRANCH   17   16
ATOM    113  H14 UNL A   1      19.757  30.356  46.020  1.00  0.00    +0.000 H 
ATOM    112  H13 UNL A   1      19.822  28.839  45.138  1.00  0.00    +0.000 H 
ATOM     16  C13 UNL A   1      20.074  29.879  45.116  1.00  0.00    +0.000 C 
BRANCH   16   15
ATOM    111  H12 UNL A   1      19.972  31.053  43.406  1.00  0.00    +0.000 H 
ATOM     15  N1  UNL A   1      19.402  30.508  43.995  1.00  0.00    +0.000 N 
BRANCH   15   13
ATOM     13  C12 UNL A   1      18.085  30.443  43.651  1.00  0.00    +0.000 C 
ATOM     14  O2  UNL A   1      17.502  29.363  43.756  1.00  0.00    +0.000 O 
BRANCH   13   12
ATOM     12  C11 UNL A   1      17.373  31.662  43.096  1.00  0.00    +0.000 C 
ATOM    109  H10 UNL A   1      17.012  31.431  42.115  1.00  0.00    +0.000 H 
ATOM    110  H11 UNL A   1      16.574  31.901  43.766  1.00  0.00    +0.000 H 
BRANCH   12   11
ATOM     11  C10 UNL A   1      18.282  32.888  43.006  1.00  0.00    +0.000 C 
ATOM    108  H9  UNL A   1      18.147  33.312  42.033  1.00  0.00    +0.000 H 
ATOM    107  H8  UNL A   1      19.292  32.575  43.172  1.00  0.00    +0.000 H 
BRANCH   11   10
ATOM      7  C6  UNL A   1      18.100  35.178  45.907  1.00  0.00    +0.000 C 
ATOM      8  C7  UNL A   1      16.838  35.376  45.363  1.00  0.00    +0.000 C 
ATOM      9  C8  UNL A   1      16.741  34.619  44.178  1.00  0.00    +0.000 C 
ATOM     10  C9  UNL A   1      17.940  33.956  44.011  1.00  0.00    +0.000 C 
ATOM    105  H6  UNL A   1      16.098  35.976  45.759  1.00  0.00    +0.000 H 
ATOM    106  H7  UNL A   1      15.923  34.569  43.552  1.00  0.00    +0.000 H 
ATOM     88  N7  UNL A   1      18.834  34.480  44.945  1.00  0.00    +0.000 N 
BRANCH    7    6
ATOM     98  C72 UNL A   1      19.230  35.079  48.125  1.00  0.00    +0.000 C 
ATOM      3  C2  UNL A   1      19.542  37.086  49.448  1.00  0.00    +0.000 C 
ATOM      4  C3  UNL A   1      18.933  37.831  48.438  1.00  0.00    +0.000 C 
ATOM      5  C4  UNL A   1      18.490  37.210  47.268  1.00  0.00    +0.000 C 
ATOM     99  C73 UNL A   1      19.684  35.706  49.294  1.00  0.00    +0.000 C 
ATOM    103  H4  UNL A   1      18.808  38.849  48.556  1.00  0.00    +0.000 H 
ATOM      6  C5  UNL A   1      18.638  35.830  47.102  1.00  0.00    +0.000 C 
ATOM    104  H5  UNL A   1      18.053  37.773  46.522  1.00  0.00    +0.000 H 
ATOM    146  H47 UNL A   1      19.335  34.059  48.016  1.00  0.00    +0.000 H 
ATOM    147  H48 UNL A   1      20.123  35.146  50.042  1.00  0.00    +0.000 H 
BRANCH    3    2
ATOM      2  O1  UNL A   1      19.903  37.794  50.560  1.00  0.00    +0.000 O 
BRANCH    2    1
ATOM      1  C1  UNL A   1      20.443  37.020  51.624  1.00  0.00    +0.000 C 
ATOM    100  H1  UNL A   1      21.362  37.457  51.955  1.00  0.00    +0.000 H 
ATOM    101  H2  UNL A   1      20.626  36.021  51.283  1.00  0.00    +0.000 H 
ATOM    102  H3  UNL A   1      19.748  36.996  52.437  1.00  0.00    +0.000 H 
ENDBRANCH    2    1
ENDBRANCH    3    2
ENDBRANCH    7    6
BRANCH   88   89
ATOM     97  C71 UNL A   1      21.094  33.547  45.194  1.00  0.00    +0.000 C 
ATOM    139  H40 UNL A   1      20.117  36.511  43.965  1.00  0.00    +0.000 H 
ATOM    140  H41 UNL A   1      22.512  36.868  43.887  1.00  0.00    +0.000 H 
ATOM    144  H45 UNL A   1      23.118  32.993  45.411  1.00  0.00    +0.000 H 
ATOM    145  H46 UNL A   1      20.714  32.657  45.553  1.00  0.00    +0.000 H 
ATOM     89  C64 UNL A   1      20.239  34.563  44.774  1.00  0.00    +0.000 C 
ATOM     90  C65 UNL A   1      20.758  35.769  44.289  1.00  0.00    +0.000 C 
ATOM     91  C66 UNL A   1      22.137  35.974  44.239  1.00  0.00    +0.000 C 
ATOM     92  C67 UNL A   1      23.010  34.971  44.668  1.00  0.00    +0.000 C 
ATOM     96  C70 UNL A   1      22.478  33.750  45.124  1.00  0.00    +0.000 C 
BRANCH   92   93
ATOM     93  C68 UNL A   1      24.495  35.142  44.681  1.00  0.00    +0.000 C 
ATOM     95  O4  UNL A   1      25.197  34.321  44.090  1.00  0.00    +0.000 O 
BRANCH   93   94
ATOM    143  H44 UNL A   1      24.649  36.422  46.366  1.00  0.00    +0.000 H 
ATOM    141  H42 UNL A   1      25.056  37.181  44.846  1.00  0.00    +0.000 H 
ATOM     94  C69 UNL A   1      25.141  36.286  45.425  1.00  0.00    +0.000 C 
ATOM    142  H43 UNL A   1      26.175  36.065  45.591  1.00  0.00    +0.000 H 
ENDBRANCH   93   94
ENDBRANCH   92   93
ENDBRANCH   88   89
ENDBRANCH   11   10
ENDBRANCH   12   11
ENDBRANCH   13   12
ENDBRANCH   15   13
ENDBRANCH   16   15
ENDBRANCH   17   16
ENDBRANCH   18   17
ENDBRANCH   19   18
ENDBRANCH   20   19
ENDBRANCH   21   20
ENDBRANCH   22   21
ENDBRANCH   23   22
ENDBRANCH   25   23
ENDBRANCH   29   28
BRANCH   33   34
ATOM     34  C28 UNL A   1      23.225  28.516  57.378  1.00  0.00    +0.000 C 
ATOM     35  C29 UNL A   1      22.876  29.357  58.462  1.00  0.00    +0.000 C 
ATOM     36  F1  UNL A   1      23.715  30.318  58.879  1.00  0.00    +0.000 F 
ATOM     37  C30 UNL A   1      21.703  29.174  59.194  1.00  0.00    +0.000 C 
ATOM     38  F2  UNL A   1      21.488  29.896  60.303  1.00  0.00    +0.000 F 
ATOM     39  C31 UNL A   1      20.796  28.203  58.817  1.00  0.00    +0.000 C 
ATOM     40  F3  UNL A   1      19.697  27.984  59.552  1.00  0.00    +0.000 F 
ATOM     41  C32 UNL A   1      21.053  27.432  57.697  1.00  0.00    +0.000 C 
ATOM     42  F4  UNL A   1      20.177  26.486  57.326  1.00  0.00    +0.000 F 
ATOM     43  C33 UNL A   1      22.259  27.566  57.001  1.00  0.00    +0.000 C 
ATOM     44  F5  UNL A   1      22.507  26.671  56.037  1.00  0.00    +0.000 F 
ENDBRANCH   33   34
BRANCH   50   51
ATOM     51  C39 UNL A   1      26.463  23.738  56.519  1.00  0.00    +0.000 C 
ATOM     52  C40 UNL A   1      26.027  24.248  55.296  1.00  0.00    +0.000 C 
ATOM     53  F6  UNL A   1      26.321  25.509  54.951  1.00  0.00    +0.000 F 
ATOM     54  C41 UNL A   1      25.282  23.458  54.415  1.00  0.00    +0.000 C 
ATOM     55  F7  UNL A   1      24.876  23.967  53.245  1.00  0.00    +0.000 F 
ATOM     56  C42 UNL A   1      24.959  22.144  54.735  1.00  0.00    +0.000 C 
ATOM     57  F8  UNL A   1      24.259  21.386  53.878  1.00  0.00    +0.000 F 
ATOM     58  C43 UNL A   1      25.373  21.616  55.938  1.00  0.00    +0.000 C 
ATOM     59  F9  UNL A   1      25.094  20.343  56.258  1.00  0.00    +0.000 F 
ATOM     60  C44 UNL A   1      26.100  22.408  56.818  1.00  0.00    +0.000 C 
ATOM     61  F10 UNL A   1      26.480  21.849  57.968  1.00  0.00    +0.000 F 
ENDBRANCH   50   51
BRANCH   65   66
ATOM     66  C48 UNL A   1      32.309  23.904  54.902  1.00  0.00    +0.000 C 
ATOM     67  C49 UNL A   1      32.517  22.518  54.889  1.00  0.00    +0.000 C 
ATOM     68  F11 UNL A   1      31.495  21.663  54.987  1.00  0.00    +0.000 F 
ATOM     69  C50 UNL A   1      33.804  21.954  54.808  1.00  0.00    +0.000 C 
ATOM     70  F12 UNL A   1      33.942  20.621  54.762  1.00  0.00    +0.000 F 
ATOM     71  C51 UNL A   1      34.933  22.752  54.772  1.00  0.00    +0.000 C 
ATOM     72  F13 UNL A   1      36.153  22.210  54.663  1.00  0.00    +0.000 F 
ATOM     73  C52 UNL A   1      34.783  24.115  54.862  1.00  0.00    +0.000 C 
ATOM     74  F14 UNL A   1      35.860  24.914  54.854  1.00  0.00    +0.000 F 
ATOM     75  C53 UNL A   1      33.506  24.674  54.944  1.00  0.00    +0.000 C 
ATOM     76  F15 UNL A   1      33.476  26.008  55.059  1.00  0.00    +0.000 F 
ENDBRANCH   65   66
TORSDOF 23
ENDMDL
MODEL 2
REMARK VINA RESULT:      -9.9     38.802     44.722
ROOT
ATOM    129  H30 UNL A   1      10.907  -0.208  26.342  1.00  0.00    +0.000 H 
ATOM    130  H31 UNL A   1       7.066  -3.436  19.716  1.00  0.00    +0.000 H 
ATOM    131  H32 UNL A   1       8.566  -1.510  19.043  1.00  0.00    +0.000 H 
ATOM    132  H33 UNL A   1       9.357  -2.357  23.010  1.00  0.00    +0.000 H 
ATOM    133  H34 UNL A   1       9.975  -5.889  23.157  1.00  0.00    +0.000 H 
ATOM    134  H35 UNL A   1      10.928  -4.946  25.360  1.00  0.00    +0.000 H 
ATOM    135  H36 UNL A   1      13.629   1.958  23.060  1.00  0.00    +0.000 H 
ATOM    136  H37 UNL A   1      11.996   1.754  21.099  1.00  0.00    +0.000 H 
ATOM     29  C24 UNL A   1      10.477  -0.686  21.003  1.00  0.00    +0.000 C 
ATOM     30  C25 UNL A   1      11.471  -0.228  22.082  1.00  0.00    +0.000 C 
ATOM     31  N3  UNL A   1      11.903  -0.822  23.162  1.00  0.00    +0.000 N 
ATOM     32  C26 UNL A   1      12.769   0.084  23.810  1.00  0.00    +0.000 C 
ATOM     33  C27 UNL A   1      13.189  -0.015  25.106  1.00  0.00    +0.000 C 
ATOM     45  C34 UNL A   1      12.692  -1.166  25.785  1.00  0.00    +0.000 C 
ATOM     46  C35 UNL A   1      13.148  -2.395  26.198  1.00  0.00    +0.000 C 
ATOM     47  C36 UNL A   1      12.015  -3.087  26.716  1.00  0.00    +0.000 C 
ATOM     48  C37 UNL A   1      10.903  -2.306  26.428  1.00  0.00    +0.000 C 
ATOM     49  N4  UNL A   1      11.398  -1.051  26.212  1.00  0.00    +0.000 N 
ATOM     50  C38 UNL A   1       9.515  -2.503  26.133  1.00  0.00    +0.000 C 
ATOM     62  C45 UNL A   1       9.184  -3.593  25.400  1.00  0.00    +0.000 C 
ATOM     63  N5  UNL A   1       8.025  -3.635  24.656  1.00  0.00    +0.000 N 
ATOM     64  C46 UNL A   1       8.321  -4.423  23.671  1.00  0.00    +0.000 C 
ATOM     65  C47 UNL A   1       7.605  -4.470  22.385  1.00  0.00    +0.000 C 
ATOM     77  C54 UNL A   1       8.072  -3.391  21.685  1.00  0.00    +0.000 C 
ATOM     78  C55 UNL A   1       7.779  -2.998  20.321  1.00  0.00    +0.000 C 
ATOM     79  C56 UNL A   1       8.579  -1.973  19.965  1.00  0.00    +0.000 C 
ATOM     80  C57 UNL A   1       9.476  -1.605  21.075  1.00  0.00    +0.000 C 
ATOM     81  N6  UNL A   1       9.033  -2.429  22.083  1.00  0.00    +0.000 N 
ATOM     82  C58 UNL A   1       9.576  -5.167  23.777  1.00  0.00    +0.000 C 
ATOM     83  C59 UNL A   1      10.054  -4.644  24.902  1.00  0.00    +0.000 C 
ATOM     84  C60 UNL A   1      12.955   1.189  22.915  1.00  0.00    +0.000 C 
ATOM     85  C61 UNL A   1      12.136   1.084  21.871  1.00  0.00    +0.000 C 
ATOM    127  H28 UNL A   1      14.116  -2.747  26.142  1.00  0.00    +0.000 H 
ATOM    128  H29 UNL A   1      12.020  -3.993  27.211  1.00  0.00    +0.000 H 
ENDROOT
BRANCH   29   28
ATOM    137  H38 UNL A   1      12.170  -1.451  19.010  1.00  0.00    +0.000 H 
ATOM    138  H39 UNL A   1      12.333  -0.515  16.772  1.00  0.00    +0.000 H 
ATOM     86  C62 UNL A   1      11.592  -0.637  18.746  1.00  0.00    +0.000 C 
ATOM     87  C63 UNL A   1      11.682  -0.102  17.459  1.00  0.00    +0.000 C 
ATOM     25  C20 UNL A   1      10.889   0.994  17.102  1.00  0.00    +0.000 C 
ATOM     26  C21 UNL A   1      10.043   1.584  18.051  1.00  0.00    +0.000 C 
ATOM     27  C22 UNL A   1       9.955   1.058  19.334  1.00  0.00    +0.000 C 
ATOM     28  C23 UNL A   1      10.715  -0.065  19.677  1.00  0.00    +0.000 C 
ATOM    125  H26 UNL A   1       9.482   2.411  17.795  1.00  0.00    +0.000 H 
ATOM    126  H27 UNL A   1       9.332   1.496  20.032  1.00  0.00    +0.000 H 
BRANCH   25   23
ATOM     23  C19 UNL A   1      10.971   1.658  15.779  1.00  0.00    +0.000 C 
ATOM     24  O3  UNL A   1      10.945   2.876  15.714  1.00  0.00    +0.000 O 
BRANCH   23   22
ATOM    124  H25 UNL A   1      11.916   1.031  14.127  1.00  0.00    +0.000 H 
ATOM     22  N2  UNL A   1      11.065   0.941  14.613  1.00  0.00    +0.000 N 
BRANCH   22   21
ATOM    122  H23 UNL A   1       9.115   0.299  14.386  1.00  0.00    +0.000 H 
ATOM    123  H24 UNL A   1      10.105   0.218  12.938  1.00  0.00    +0.000 H 
ATOM     21  C18 UNL A   1      10.084   0.068  13.998  1.00  0.00    +0.000 C 
BRANCH   21   20
ATOM    121  H22 UNL A   1      11.130  -1.393  15.081  1.00  0.00    +0.000 H 
ATOM     20  C17 UNL A   1      10.405  -1.401  14.294  1.00  0.00    +0.000 C 
ATOM    120  H21 UNL A   1      10.762  -1.851  13.391  1.00  0.00    +0.000 H 
BRANCH   20   19
ATOM     19  C16 UNL A   1       9.222  -2.237  14.810  1.00  0.00    +0.000 C 
ATOM    118  H19 UNL A   1       8.425  -2.152  14.100  1.00  0.00    +0.000 H 
ATOM    119  H20 UNL A   1       9.597  -3.233  14.924  1.00  0.00    +0.000 H 
BRANCH   19   18
ATOM     18  C15 UNL A   1       8.673  -1.840  16.181  1.00  0.00    +0.000 C 
ATOM    116  H17 UNL A   1       8.504  -2.733  16.745  1.00  0.00    +0.000 H 
ATOM    117  H18 UNL A   1       9.402  -1.196  16.626  1.00  0.00    +0.000 H 
BRANCH   18   17
ATOM     17  C14 UNL A   1       7.368  -1.051  16.138  1.00  0.00    +0.000 C 
ATOM    114  H15 UNL A   1       7.601  -0.017  16.275  1.00  0.00    +0.000 H 
ATOM    115  H16 UNL A   1       6.922  -1.266  15.190  1.00  0.00    +0.000 H 
BRANCH   17   16
ATOM    113  H14 UNL A   1       6.845  -1.858  18.037  1.00  0.00    +0.000 H 
ATOM    112  H13 UNL A   1       5.667  -2.173  16.774  1.00  0.00    +0.000 H 
ATOM     16  C13 UNL A   1       6.334  -1.448  17.192  1.00  0.00    +0.000 C 
BRANCH   16   15
ATOM    111  H12 UNL A   1       4.747  -0.110  17.114  1.00  0.00    +0.000 H 
ATOM     15  N1  UNL A   1       5.572  -0.291  17.622  1.00  0.00    +0.000 N 
BRANCH   15   13
ATOM     13  C12 UNL A   1       5.846   0.577  18.636  1.00  0.00    +0.000 C 
ATOM     14  O2  UNL A   1       6.413   1.637  18.365  1.00  0.00    +0.000 O 
BRANCH   13   12
ATOM     12  C11 UNL A   1       5.513   0.216  20.071  1.00  0.00    +0.000 C 
ATOM    109  H10 UNL A   1       4.530   0.573  20.294  1.00  0.00    +0.000 H 
ATOM    110  H11 UNL A   1       5.578  -0.849  20.157  1.00  0.00    +0.000 H 
BRANCH   12   11
ATOM     11  C10 UNL A   1       6.493   0.820  21.076  1.00  0.00    +0.000 C 
ATOM    108  H9  UNL A   1       7.365   1.117  20.530  1.00  0.00    +0.000 H 
ATOM    107  H8  UNL A   1       6.715   0.083  21.820  1.00  0.00    +0.000 H 
BRANCH   11   10
ATOM      7  C6  UNL A   1       5.993   3.955  22.979  1.00  0.00    +0.000 C 
ATOM      8  C7  UNL A   1       4.690   3.477  22.951  1.00  0.00    +0.000 C 
ATOM      9  C8  UNL A   1       4.667   2.292  22.190  1.00  0.00    +0.000 C 
ATOM     10  C9  UNL A   1       5.956   2.048  21.764  1.00  0.00    +0.000 C 
ATOM    105  H6  UNL A   1       3.877   3.916  23.411  1.00  0.00    +0.000 H 
ATOM    106  H7  UNL A   1       3.837   1.713  21.988  1.00  0.00    +0.000 H 
ATOM     88  N7  UNL A   1       6.710   3.183  22.060  1.00  0.00    +0.000 N 
BRANCH    7    6
ATOM     98  C72 UNL A   1       7.112   5.181  24.836  1.00  0.00    +0.000 C 
ATOM      3  C2  UNL A   1       7.185   7.604  24.855  1.00  0.00    +0.000 C 
ATOM      4  C3  UNL A   1       6.503   7.621  23.638  1.00  0.00    +0.000 C 
ATOM      5  C4  UNL A   1       6.141   6.427  23.011  1.00  0.00    +0.000 C 
ATOM     99  C73 UNL A   1       7.483   6.381  25.459  1.00  0.00    +0.000 C 
ATOM    103  H4  UNL A   1       6.263   8.523  23.198  1.00  0.00    +0.000 H 
ATOM      6  C5  UNL A   1       6.446   5.198  23.605  1.00  0.00    +0.000 C 
ATOM    104  H5  UNL A   1       5.649   6.451  22.105  1.00  0.00    +0.000 H 
ATOM    146  H47 UNL A   1       7.332   4.280  25.288  1.00  0.00    +0.000 H 
ATOM    147  H48 UNL A   1       7.977   6.361  26.365  1.00  0.00    +0.000 H 
BRANCH    3    2
ATOM      2  O1  UNL A   1       7.456   8.832  25.391  1.00  0.00    +0.000 O 
BRANCH    2    1
ATOM      1  C1  UNL A   1       7.224   9.937  24.524  1.00  0.00    +0.000 C 
ATOM    100  H1  UNL A   1       8.119  10.517  24.438  1.00  0.00    +0.000 H 
ATOM    101  H2  UNL A   1       6.441  10.547  24.924  1.00  0.00    +0.000 H 
ATOM    102  H3  UNL A   1       6.938   9.578  23.558  1.00  0.00    +0.000 H 
ENDBRANCH    2    1
ENDBRANCH    3    2
ENDBRANCH    7    6
BRANCH   88   89
ATOM     97  C71 UNL A   1       9.129   3.562  21.844  1.00  0.00    +0.000 C 
ATOM    139  H40 UNL A   1       6.640   4.308  19.723  1.00  0.00    +0.000 H 
ATOM    140  H41 UNL A   1       8.461   5.351  18.513  1.00  0.00    +0.000 H 
ATOM    144  H45 UNL A   1      11.144   4.077  21.494  1.00  0.00    +0.000 H 
ATOM    145  H46 UNL A   1       9.308   3.087  22.744  1.00  0.00    +0.000 H 
ATOM     89  C64 UNL A   1       7.838   3.630  21.326  1.00  0.00    +0.000 C 
ATOM     90  C65 UNL A   1       7.598   4.275  20.107  1.00  0.00    +0.000 C 
ATOM     91  C66 UNL A   1       8.647   4.872  19.407  1.00  0.00    +0.000 C 
ATOM     92  C67 UNL A   1       9.947   4.823  19.918  1.00  0.00    +0.000 C 
ATOM     96  C70 UNL A   1      10.181   4.145  21.128  1.00  0.00    +0.000 C 
BRANCH   92   93
ATOM     93  C68 UNL A   1      11.107   5.479  19.240  1.00  0.00    +0.000 C 
ATOM     95  O4  UNL A   1      11.197   6.707  19.262  1.00  0.00    +0.000 O 
BRANCH   93   94
ATOM    143  H44 UNL A   1      13.015   4.557  19.132  1.00  0.00    +0.000 H 
ATOM    141  H42 UNL A   1      12.417   5.156  17.603  1.00  0.00    +0.000 H 
ATOM     94  C69 UNL A   1      12.148   4.662  18.513  1.00  0.00    +0.000 C 
ATOM    142  H43 UNL A   1      11.749   3.694  18.289  1.00  0.00    +0.000 H 
ENDBRANCH   93   94
ENDBRANCH   92   93
ENDBRANCH   88   89
ENDBRANCH   11   10
ENDBRANCH   12   11
ENDBRANCH   13   12
ENDBRANCH   15   13
ENDBRANCH   16   15
ENDBRANCH   17   16
ENDBRANCH   18   17
ENDBRANCH   19   18
ENDBRANCH   20   19
ENDBRANCH   21   20
ENDBRANCH   22   21
ENDBRANCH   23   22
ENDBRANCH   25   23
ENDBRANCH   29   28
BRANCH   33   34
ATOM     34  C28 UNL A   1      13.771   1.065  25.995  1.00  0.00    +0.000 C 
ATOM     35  C29 UNL A   1      15.063   0.873  26.539  1.00  0.00    +0.000 C 
ATOM     36  F1  UNL A   1      15.915  -0.004  25.985  1.00  0.00    +0.000 F 
ATOM     37  C30 UNL A   1      15.476   1.509  27.710  1.00  0.00    +0.000 C 
ATOM     38  F2  UNL A   1      16.649   1.182  28.269  1.00  0.00    +0.000 F 
ATOM     39  C31 UNL A   1      14.647   2.423  28.330  1.00  0.00    +0.000 C 
ATOM     40  F3  UNL A   1      15.015   2.992  29.487  1.00  0.00    +0.000 F 
ATOM     41  C32 UNL A   1      13.418   2.717  27.767  1.00  0.00    +0.000 C 
ATOM     42  F4  UNL A   1      12.609   3.604  28.365  1.00  0.00    +0.000 F 
ATOM     43  C33 UNL A   1      12.973   2.032  26.632  1.00  0.00    +0.000 C 
ATOM     44  F5  UNL A   1      11.708   2.248  26.249  1.00  0.00    +0.000 F 
ENDBRANCH   33   34
BRANCH   50   51
ATOM     51  C39 UNL A   1       8.484  -1.404  26.073  1.00  0.00    +0.000 C 
ATOM     52  C40 UNL A   1       8.609  -0.330  25.193  1.00  0.00    +0.000 C 
ATOM     53  F6  UNL A   1       9.608  -0.306  24.299  1.00  0.00    +0.000 F 
ATOM     54  C41 UNL A   1       7.702   0.734  25.225  1.00  0.00    +0.000 C 
ATOM     55  F7  UNL A   1       7.839   1.754  24.369  1.00  0.00    +0.000 F 
ATOM     56  C42 UNL A   1       6.650   0.746  26.135  1.00  0.00    +0.000 C 
ATOM     57  F8  UNL A   1       5.773   1.759  26.150  1.00  0.00    +0.000 F 
ATOM     58  C43 UNL A   1       6.505  -0.301  27.020  1.00  0.00    +0.000 C 
ATOM     59  F9  UNL A   1       5.484  -0.323  27.890  1.00  0.00    +0.000 F 
ATOM     60  C44 UNL A   1       7.417  -1.349  26.994  1.00  0.00    +0.000 C 
ATOM     61  F10 UNL A   1       7.231  -2.339  27.868  1.00  0.00    +0.000 F 
ENDBRANCH   50   51
BRANCH   65   66
ATOM     66  C48 UNL A   1       6.720  -5.661  22.124  1.00  0.00    +0.000 C 
ATOM     67  C49 UNL A   1       6.984  -6.695  21.217  1.00  0.00    +0.000 C 
ATOM     68  F11 UNL A   1       8.021  -6.632  20.377  1.00  0.00    +0.000 F 
ATOM     69  C50 UNL A   1       6.160  -7.831  21.115  1.00  0.00    +0.000 C 
ATOM     70  F12 UNL A   1       6.480  -8.809  20.255  1.00  0.00    +0.000 F 
ATOM     71  C51 UNL A   1       5.022  -7.961  21.891  1.00  0.00    +0.000 C 
ATOM     72  F13 UNL A   1       4.259  -9.059  21.813  1.00  0.00    +0.000 F 
ATOM     73  C52 UNL A   1       4.679  -6.935  22.740  1.00  0.00    +0.000 C 
ATOM     74  F14 UNL A   1       3.569  -7.020  23.487  1.00  0.00    +0.000 F 
ATOM     75  C53 UNL A   1       5.497  -5.807  22.838  1.00  0.00    +0.000 C 
ATOM     76  F15 UNL A   1       5.053  -4.856  23.671  1.00  0.00    +0.000 F 
ENDBRANCH   65   66
TORSDOF 23
ENDMDL
MODEL 3
REMARK VINA RESULT:      -9.7     27.844     34.370
ROOT
ATOM    129  H30 UNL A   1       5.168   7.605  38.763  1.00  0.00    +0.000 H 
ATOM    130  H31 UNL A   1      -2.583   5.642  36.496  1.00  0.00    +0.000 H 
ATOM    131  H32 UNL A   1      -2.307   8.151  36.694  1.00  0.00    +0.000 H 
ATOM    132  H33 UNL A   1       1.455   6.469  37.018  1.00  0.00    +0.000 H 
ATOM    133  H34 UNL A   1       1.797   4.272  34.202  1.00  0.00    +0.000 H 
ATOM    134  H35 UNL A   1       4.199   4.643  35.063  1.00  0.00    +0.000 H 
ATOM    135  H36 UNL A   1       3.878  12.019  37.454  1.00  0.00    +0.000 H 
ATOM    136  H37 UNL A   1       1.346  11.679  37.617  1.00  0.00    +0.000 H 
ATOM     29  C24 UNL A   1       0.390   9.094  36.796  1.00  0.00    +0.000 C 
ATOM     30  C25 UNL A   1       1.844   9.583  36.891  1.00  0.00    +0.000 C 
ATOM     31  N3  UNL A   1       2.971   8.995  36.591  1.00  0.00    +0.000 N 
ATOM     32  C26 UNL A   1       4.005   9.894  36.928  1.00  0.00    +0.000 C 
ATOM     33  C27 UNL A   1       5.325   9.565  37.059  1.00  0.00    +0.000 C 
ATOM     45  C34 UNL A   1       5.605   8.192  36.794  1.00  0.00    +0.000 C 
ATOM     46  C35 UNL A   1       6.158   7.428  35.795  1.00  0.00    +0.000 C 
ATOM     47  C36 UNL A   1       5.981   6.070  36.186  1.00  0.00    +0.000 C 
ATOM     48  C37 UNL A   1       5.175   6.082  37.318  1.00  0.00    +0.000 C 
ATOM     49  N4  UNL A   1       5.291   7.347  37.822  1.00  0.00    +0.000 N 
ATOM     50  C38 UNL A   1       4.188   5.241  37.927  1.00  0.00    +0.000 C 
ATOM     62  C45 UNL A   1       3.357   4.560  37.101  1.00  0.00    +0.000 C 
ATOM     63  N5  UNL A   1       2.113   4.138  37.520  1.00  0.00    +0.000 N 
ATOM     64  C46 UNL A   1       1.407   4.138  36.433  1.00  0.00    +0.000 C 
ATOM     65  C47 UNL A   1      -0.063   4.185  36.383  1.00  0.00    +0.000 C 
ATOM     77  C54 UNL A   1      -0.379   5.497  36.608  1.00  0.00    +0.000 C 
ATOM     78  C55 UNL A   1      -1.681   6.135  36.582  1.00  0.00    +0.000 C 
ATOM     79  C56 UNL A   1      -1.530   7.471  36.686  1.00  0.00    +0.000 C 
ATOM     80  C57 UNL A   1      -0.104   7.826  36.789  1.00  0.00    +0.000 C 
ATOM     81  N6  UNL A   1       0.494   6.589  36.838  1.00  0.00    +0.000 N 
ATOM     82  C58 UNL A   1       2.135   4.307  35.176  1.00  0.00    +0.000 C 
ATOM     83  C59 UNL A   1       3.359   4.521  35.649  1.00  0.00    +0.000 C 
ATOM     84  C60 UNL A   1       3.377  11.135  37.275  1.00  0.00    +0.000 C 
ATOM     85  C61 UNL A   1       2.055  10.986  37.334  1.00  0.00    +0.000 C 
ATOM    127  H28 UNL A   1       6.609   7.771  34.932  1.00  0.00    +0.000 H 
ATOM    128  H29 UNL A   1       6.376   5.238  35.721  1.00  0.00    +0.000 H 
ENDROOT
BRANCH   29   28
ATOM    137  H38 UNL A   1      -0.141  10.602  34.590  1.00  0.00    +0.000 H 
ATOM    138  H39 UNL A   1      -1.929  12.226  34.307  1.00  0.00    +0.000 H 
ATOM     86  C62 UNL A   1      -0.769  10.822  35.379  1.00  0.00    +0.000 C 
ATOM     87  C63 UNL A   1      -1.800  11.751  35.215  1.00  0.00    +0.000 C 
ATOM     25  C20 UNL A   1      -2.657  12.038  36.283  1.00  0.00    +0.000 C 
ATOM     26  C21 UNL A   1      -2.448  11.431  37.530  1.00  0.00    +0.000 C 
ATOM     27  C22 UNL A   1      -1.421  10.511  37.698  1.00  0.00    +0.000 C 
ATOM     28  C23 UNL A   1      -0.592  10.191  36.617  1.00  0.00    +0.000 C 
ATOM    125  H26 UNL A   1      -3.062  11.667  38.325  1.00  0.00    +0.000 H 
ATOM    126  H27 UNL A   1      -1.269  10.066  38.617  1.00  0.00    +0.000 H 
BRANCH   25   23
ATOM     23  C19 UNL A   1      -3.733  13.055  36.210  1.00  0.00    +0.000 C 
ATOM     24  O3  UNL A   1      -4.844  12.730  35.828  1.00  0.00    +0.000 O 
BRANCH   23   22
ATOM    124  H25 UNL A   1      -3.271  14.963  35.809  1.00  0.00    +0.000 H 
ATOM     22  N2  UNL A   1      -3.515  14.366  36.552  1.00  0.00    +0.000 N 
BRANCH   22   21
ATOM    122  H23 UNL A   1      -3.896  16.012  37.740  1.00  0.00    +0.000 H 
ATOM    123  H24 UNL A   1      -4.307  14.461  38.453  1.00  0.00    +0.000 H 
ATOM     21  C18 UNL A   1      -3.594  14.993  37.857  1.00  0.00    +0.000 C 
BRANCH   21   20
ATOM    121  H22 UNL A   1      -2.144  13.966  38.972  1.00  0.00    +0.000 H 
ATOM     20  C17 UNL A   1      -2.235  14.950  38.562  1.00  0.00    +0.000 C 
ATOM    120  H21 UNL A   1      -2.221  15.723  39.303  1.00  0.00    +0.000 H 
BRANCH   20   19
ATOM     19  C16 UNL A   1      -1.016  15.146  37.644  1.00  0.00    +0.000 C 
ATOM    118  H19 UNL A   1      -1.366  15.164  36.634  1.00  0.00    +0.000 H 
ATOM    119  H20 UNL A   1      -0.557  16.060  37.962  1.00  0.00    +0.000 H 
BRANCH   19   18
ATOM     18  C15 UNL A   1       0.073  14.077  37.746  1.00  0.00    +0.000 C 
ATOM    116  H17 UNL A   1      -0.214  13.248  37.135  1.00  0.00    +0.000 H 
ATOM    117  H18 UNL A   1       0.983  14.539  37.424  1.00  0.00    +0.000 H 
BRANCH   18   17
ATOM     17  C14 UNL A   1       0.326  13.562  39.159  1.00  0.00    +0.000 C 
ATOM    114  H15 UNL A   1      -0.618  13.462  39.650  1.00  0.00    +0.000 H 
ATOM    115  H16 UNL A   1       0.850  12.635  39.048  1.00  0.00    +0.000 H 
BRANCH   17   16
ATOM    113  H14 UNL A   1       0.609  15.191  40.501  1.00  0.00    +0.000 H 
ATOM    112  H13 UNL A   1       1.953  14.921  39.404  1.00  0.00    +0.000 H 
ATOM     16  C13 UNL A   1       1.218  14.452  40.025  1.00  0.00    +0.000 C 
BRANCH   16   15
ATOM    111  H12 UNL A   1       1.765  13.980  41.972  1.00  0.00    +0.000 H 
ATOM     15  N1  UNL A   1       1.887  13.668  41.046  1.00  0.00    +0.000 N 
BRANCH   15   13
ATOM     13  C12 UNL A   1       2.660  12.557  40.892  1.00  0.00    +0.000 C 
ATOM     14  O2  UNL A   1       3.751  12.673  40.332  1.00  0.00    +0.000 O 
BRANCH   13   12
ATOM     12  C11 UNL A   1       2.158  11.200  41.348  1.00  0.00    +0.000 C 
ATOM    109  H10 UNL A   1       1.410  11.347  42.099  1.00  0.00    +0.000 H 
ATOM    110  H11 UNL A   1       1.766  10.697  40.489  1.00  0.00    +0.000 H 
BRANCH   12   11
ATOM     11  C10 UNL A   1       3.268  10.323  41.928  1.00  0.00    +0.000 C 
ATOM    108  H9  UNL A   1       4.192  10.842  41.782  1.00  0.00    +0.000 H 
ATOM    107  H8  UNL A   1       3.253   9.378  41.425  1.00  0.00    +0.000 H 
BRANCH   11   10
ATOM      7  C6  UNL A   1       3.585  10.235  45.615  1.00  0.00    +0.000 C 
ATOM      8  C7  UNL A   1       2.779   9.124  45.414  1.00  0.00    +0.000 C 
ATOM      9  C8  UNL A   1       2.484   9.030  44.040  1.00  0.00    +0.000 C 
ATOM     10  C9  UNL A   1       3.120  10.079  43.407  1.00  0.00    +0.000 C 
ATOM    105  H6  UNL A   1       2.452   8.476  46.148  1.00  0.00    +0.000 H 
ATOM    106  H7  UNL A   1       1.901   8.308  43.588  1.00  0.00    +0.000 H 
ATOM     88  N7  UNL A   1       3.597  10.931  44.402  1.00  0.00    +0.000 N 
BRANCH    7    6
ATOM     98  C72 UNL A   1       3.168  11.048  47.932  1.00  0.00    +0.000 C 
ATOM      3  C2  UNL A   1       4.997  11.821  49.322  1.00  0.00    +0.000 C 
ATOM      4  C3  UNL A   1       5.889  11.528  48.289  1.00  0.00    +0.000 C 
ATOM      5  C4  UNL A   1       5.429  10.981  47.090  1.00  0.00    +0.000 C 
ATOM     99  C73 UNL A   1       3.633  11.588  49.140  1.00  0.00    +0.000 C 
ATOM    103  H4  UNL A   1       6.896  11.718  48.413  1.00  0.00    +0.000 H 
ATOM      6  C5  UNL A   1       4.065  10.735  46.904  1.00  0.00    +0.000 C 
ATOM    104  H5  UNL A   1       6.098  10.756  46.338  1.00  0.00    +0.000 H 
ATOM    146  H47 UNL A   1       2.159  10.880  47.801  1.00  0.00    +0.000 H 
ATOM    147  H48 UNL A   1       2.966  11.813  49.895  1.00  0.00    +0.000 H 
BRANCH    3    2
ATOM      2  O1  UNL A   1       5.557  12.385  50.435  1.00  0.00    +0.000 O 
BRANCH    2    1
ATOM      1  C1  UNL A   1       6.942  12.116  50.621  1.00  0.00    +0.000 C 
ATOM    100  H1  UNL A   1       7.295  11.495  49.824  1.00  0.00    +0.000 H 
ATOM    101  H2  UNL A   1       7.087  11.615  51.556  1.00  0.00    +0.000 H 
ATOM    102  H3  UNL A   1       7.486  13.037  50.623  1.00  0.00    +0.000 H 
ENDBRANCH    2    1
ENDBRANCH    3    2
ENDBRANCH    7    6
BRANCH   88   89
ATOM     97  C71 UNL A   1       2.723  13.224  44.540  1.00  0.00    +0.000 C 
ATOM    139  H40 UNL A   1       5.730  12.128  43.535  1.00  0.00    +0.000 H 
ATOM    140  H41 UNL A   1       6.015  14.476  43.009  1.00  0.00    +0.000 H 
ATOM    144  H45 UNL A   1       2.149  15.252  44.478  1.00  0.00    +0.000 H 
ATOM    145  H46 UNL A   1       1.835  12.887  44.945  1.00  0.00    +0.000 H 
ATOM     89  C64 UNL A   1       3.759  12.334  44.269  1.00  0.00    +0.000 C 
ATOM     90  C65 UNL A   1       4.962  12.793  43.719  1.00  0.00    +0.000 C 
ATOM     91  C66 UNL A   1       5.128  14.145  43.420  1.00  0.00    +0.000 C 
ATOM     92  C67 UNL A   1       4.096  15.052  43.675  1.00  0.00    +0.000 C 
ATOM     96  C70 UNL A   1       2.903  14.583  44.257  1.00  0.00    +0.000 C 
BRANCH   92   93
ATOM     93  C68 UNL A   1       4.193  16.505  43.338  1.00  0.00    +0.000 C 
ATOM     95  O4  UNL A   1       4.294  17.325  44.251  1.00  0.00    +0.000 O 
BRANCH   93   94
ATOM    143  H44 UNL A   1       3.147  16.883  41.531  1.00  0.00    +0.000 H 
ATOM    141  H42 UNL A   1       4.806  16.382  41.311  1.00  0.00    +0.000 H 
ATOM     94  C69 UNL A   1       4.145  16.978  41.905  1.00  0.00    +0.000 C 
ATOM    142  H43 UNL A   1       4.449  18.003  41.857  1.00  0.00    +0.000 H 
ENDBRANCH   93   94
ENDBRANCH   92   93
ENDBRANCH   88   89
ENDBRANCH   11   10
ENDBRANCH   12   11
ENDBRANCH   13   12
ENDBRANCH   15   13
ENDBRANCH   16   15
ENDBRANCH   17   16
ENDBRANCH   18   17
ENDBRANCH   19   18
ENDBRANCH   20   19
ENDBRANCH   21   20
ENDBRANCH   22   21
ENDBRANCH   23   22
ENDBRANCH   25   23
ENDBRANCH   29   28
BRANCH   33   34
ATOM     34  C28 UNL A   1       6.419  10.326  37.779  1.00  0.00    +0.000 C 
ATOM     35  C29 UNL A   1       6.373  10.407  39.191  1.00  0.00    +0.000 C 
ATOM     36  F1  UNL A   1       5.656   9.525  39.903  1.00  0.00    +0.000 F 
ATOM     37  C30 UNL A   1       6.988  11.443  39.894  1.00  0.00    +0.000 C 
ATOM     38  F2  UNL A   1       6.792  11.563  41.215  1.00  0.00    +0.000 F 
ATOM     39  C31 UNL A   1       7.743  12.384  39.221  1.00  0.00    +0.000 C 
ATOM     40  F3  UNL A   1       8.286  13.414  39.885  1.00  0.00    +0.000 F 
ATOM     41  C32 UNL A   1       7.899  12.275  37.850  1.00  0.00    +0.000 C 
ATOM     42  F4  UNL A   1       8.630  13.187  37.191  1.00  0.00    +0.000 F 
ATOM     43  C33 UNL A   1       7.229  11.279  37.135  1.00  0.00    +0.000 C 
ATOM     44  F5  UNL A   1       7.293  11.343  35.799  1.00  0.00    +0.000 F 
ENDBRANCH   33   34
BRANCH   50   51
ATOM     51  C39 UNL A   1       3.627   5.437  39.313  1.00  0.00    +0.000 C 
ATOM     52  C40 UNL A   1       3.832   4.499  40.325  1.00  0.00    +0.000 C 
ATOM     53  F6  UNL A   1       4.628   3.442  40.111  1.00  0.00    +0.000 F 
ATOM     54  C41 UNL A   1       3.215   4.643  41.572  1.00  0.00    +0.000 C 
ATOM     55  F7  UNL A   1       3.428   3.732  42.530  1.00  0.00    +0.000 F 
ATOM     56  C42 UNL A   1       2.385   5.727  41.835  1.00  0.00    +0.000 C 
ATOM     57  F8  UNL A   1       1.810   5.869  43.038  1.00  0.00    +0.000 F 
ATOM     58  C43 UNL A   1       2.162   6.667  40.852  1.00  0.00    +0.000 C 
ATOM     59  F9  UNL A   1       1.383   7.733  41.091  1.00  0.00    +0.000 F 
ATOM     60  C44 UNL A   1       2.764   6.512  39.610  1.00  0.00    +0.000 C 
ATOM     61  F10 UNL A   1       2.519   7.451  38.694  1.00  0.00    +0.000 F 
ENDBRANCH   50   51
BRANCH   65   66
ATOM     66  C48 UNL A   1      -0.787   2.922  35.996  1.00  0.00    +0.000 C 
ATOM     67  C49 UNL A   1      -1.408   2.679  34.763  1.00  0.00    +0.000 C 
ATOM     68  F11 UNL A   1      -1.527   3.643  33.845  1.00  0.00    +0.000 F 
ATOM     69  C50 UNL A   1      -1.965   1.428  34.438  1.00  0.00    +0.000 C 
ATOM     70  F12 UNL A   1      -2.513   1.240  33.229  1.00  0.00    +0.000 F 
ATOM     71  C51 UNL A   1      -1.954   0.384  35.345  1.00  0.00    +0.000 C 
ATOM     72  F13 UNL A   1      -2.458  -0.814  35.019  1.00  0.00    +0.000 F 
ATOM     73  C52 UNL A   1      -1.427   0.599  36.596  1.00  0.00    +0.000 C 
ATOM     74  F14 UNL A   1      -1.424  -0.386  37.506  1.00  0.00    +0.000 F 
ATOM     75  C53 UNL A   1      -0.876   1.841  36.918  1.00  0.00    +0.000 C 
ATOM     76  F15 UNL A   1      -0.419   1.952  38.172  1.00  0.00    +0.000 F 
ENDBRANCH   65   66
TORSDOF 23
ENDMDL
MODEL 4
REMARK VINA RESULT:      -9.6     43.023     51.201
ROOT
ATOM    129  H30 UNL A   1      13.040  49.289  13.120  1.00  0.00    +0.000 H 
ATOM    130  H31 UNL A   1      11.255  54.178   6.641  1.00  0.00    +0.000 H 
ATOM    131  H32 UNL A   1       9.614  52.257   6.802  1.00  0.00    +0.000 H 
ATOM    132  H33 UNL A   1      11.902  52.215  10.244  1.00  0.00    +0.000 H 
ATOM    133  H34 UNL A   1      11.766  55.551  11.557  1.00  0.00    +0.000 H 
ATOM    134  H35 UNL A   1      12.595  54.091  13.514  1.00  0.00    +0.000 H 
ATOM    135  H36 UNL A   1       8.682  47.498  12.305  1.00  0.00    +0.000 H 
ATOM    136  H37 UNL A   1       8.463  48.272   9.875  1.00  0.00    +0.000 H 
ATOM     29  C24 UNL A   1       9.603  50.846   9.289  1.00  0.00    +0.000 C 
ATOM     30  C25 UNL A   1       9.637  50.073  10.617  1.00  0.00    +0.000 C 
ATOM     31  N3  UNL A   1      10.127  50.389  11.785  1.00  0.00    +0.000 N 
ATOM     32  C26 UNL A   1       9.922  49.277  12.630  1.00  0.00    +0.000 C 
ATOM     33  C27 UNL A   1      10.546  49.072  13.828  1.00  0.00    +0.000 C 
ATOM     45  C34 UNL A   1      11.441  50.119  14.198  1.00  0.00    +0.000 C 
ATOM     46  C35 UNL A   1      11.478  51.181  15.070  1.00  0.00    +0.000 C 
ATOM     47  C36 UNL A   1      12.682  51.888  14.785  1.00  0.00    +0.000 C 
ATOM     48  C37 UNL A   1      13.221  51.315  13.640  1.00  0.00    +0.000 C 
ATOM     49  N4  UNL A   1      12.649  50.077  13.561  1.00  0.00    +0.000 N 
ATOM     50  C38 UNL A   1      14.004  51.729  12.514  1.00  0.00    +0.000 C 
ATOM     62  C45 UNL A   1      13.780  52.973  12.025  1.00  0.00    +0.000 C 
ATOM     63  N5  UNL A   1      14.076  53.296  10.718  1.00  0.00    +0.000 N 
ATOM     64  C46 UNL A   1      13.215  54.220  10.428  1.00  0.00    +0.000 C 
ATOM     65  C47 UNL A   1      12.815  54.601   9.063  1.00  0.00    +0.000 C 
ATOM     77  C54 UNL A   1      11.932  53.632   8.674  1.00  0.00    +0.000 C 
ATOM     78  C55 UNL A   1      11.155  53.550   7.453  1.00  0.00    +0.000 C 
ATOM     79  C56 UNL A   1      10.281  52.527   7.542  1.00  0.00    +0.000 C 
ATOM     80  C57 UNL A   1      10.412  51.845   8.843  1.00  0.00    +0.000 C 
ATOM     81  N6  UNL A   1      11.481  52.504   9.402  1.00  0.00    +0.000 N 
ATOM     82  C58 UNL A   1      12.445  54.775  11.541  1.00  0.00    +0.000 C 
ATOM     83  C59 UNL A   1      12.872  53.990  12.525  1.00  0.00    +0.000 C 
ATOM     84  C60 UNL A   1       9.099  48.354  11.906  1.00  0.00    +0.000 C 
ATOM     85  C61 UNL A   1       8.946  48.757  10.646  1.00  0.00    +0.000 C 
ATOM    127  H28 UNL A   1      10.774  51.420  15.785  1.00  0.00    +0.000 H 
ATOM    128  H29 UNL A   1      13.078  52.673  15.326  1.00  0.00    +0.000 H 
ENDROOT
BRANCH   29   28
ATOM    137  H38 UNL A   1       6.997  51.633   9.405  1.00  0.00    +0.000 H 
ATOM    138  H39 UNL A   1       5.238  51.157   7.794  1.00  0.00    +0.000 H 
ATOM     86  C62 UNL A   1       7.190  51.027   8.592  1.00  0.00    +0.000 C 
ATOM     87  C63 UNL A   1       6.181  50.758   7.664  1.00  0.00    +0.000 C 
ATOM     25  C20 UNL A   1       6.451  49.946   6.557  1.00  0.00    +0.000 C 
ATOM     26  C21 UNL A   1       7.718  49.363   6.408  1.00  0.00    +0.000 C 
ATOM     27  C22 UNL A   1       8.721  49.624   7.332  1.00  0.00    +0.000 C 
ATOM     28  C23 UNL A   1       8.464  50.472   8.415  1.00  0.00    +0.000 C 
ATOM    125  H26 UNL A   1       7.905  48.740   5.608  1.00  0.00    +0.000 H 
ATOM    126  H27 UNL A   1       9.653  49.193   7.221  1.00  0.00    +0.000 H 
BRANCH   25   23
ATOM     23  C19 UNL A   1       5.421  49.562   5.562  1.00  0.00    +0.000 C 
ATOM     24  O3  UNL A   1       4.887  50.424   4.884  1.00  0.00    +0.000 O 
BRANCH   23   22
ATOM    124  H25 UNL A   1       5.557  47.749   4.719  1.00  0.00    +0.000 H 
ATOM     22  N2  UNL A   1       5.038  48.256   5.384  1.00  0.00    +0.000 N 
BRANCH   22   21
ATOM    122  H23 UNL A   1       3.079  47.605   5.460  1.00  0.00    +0.000 H 
ATOM    123  H24 UNL A   1       4.265  46.495   6.125  1.00  0.00    +0.000 H 
ATOM     21  C18 UNL A   1       3.973  47.521   6.040  1.00  0.00    +0.000 C 
BRANCH   21   20
ATOM    121  H22 UNL A   1       2.704  47.821   7.683  1.00  0.00    +0.000 H 
ATOM     20  C17 UNL A   1       3.716  48.077   7.444  1.00  0.00    +0.000 C 
ATOM    120  H21 UNL A   1       3.893  49.132   7.421  1.00  0.00    +0.000 H 
BRANCH   20   19
ATOM     19  C16 UNL A   1       4.587  47.470   8.557  1.00  0.00    +0.000 C 
ATOM    118  H19 UNL A   1       5.149  48.264   9.003  1.00  0.00    +0.000 H 
ATOM    119  H20 UNL A   1       3.906  46.989   9.228  1.00  0.00    +0.000 H 
BRANCH   19   18
ATOM     18  C15 UNL A   1       5.571  46.386   8.116  1.00  0.00    +0.000 C 
ATOM    116  H17 UNL A   1       5.177  45.437   8.410  1.00  0.00    +0.000 H 
ATOM    117  H18 UNL A   1       5.678  46.485   7.056  1.00  0.00    +0.000 H 
BRANCH   18   17
ATOM     17  C14 UNL A   1       6.972  46.523   8.707  1.00  0.00    +0.000 C 
ATOM    114  H15 UNL A   1       7.284  47.539   8.588  1.00  0.00    +0.000 H 
ATOM    115  H16 UNL A   1       6.894  46.217   9.729  1.00  0.00    +0.000 H 
BRANCH   17   16
ATOM    113  H14 UNL A   1       7.794  44.604   8.291  1.00  0.00    +0.000 H 
ATOM    112  H13 UNL A   1       8.992  45.874   8.480  1.00  0.00    +0.000 H 
ATOM     16  C13 UNL A   1       8.033  45.624   8.074  1.00  0.00    +0.000 C 
BRANCH   16   15
ATOM    111  H12 UNL A   1       7.190  45.782   6.183  1.00  0.00    +0.000 H 
ATOM     15  N1  UNL A   1       8.064  45.802   6.635  1.00  0.00    +0.000 N 
BRANCH   15   13
ATOM     13  C12 UNL A   1       9.145  45.994   5.827  1.00  0.00    +0.000 C 
ATOM     14  O2  UNL A   1       8.952  46.317   4.654  1.00  0.00    +0.000 O 
BRANCH   13   12
ATOM     12  C11 UNL A   1      10.549  45.755   6.350  1.00  0.00    +0.000 C 
ATOM    109  H10 UNL A   1      10.487  45.167   7.242  1.00  0.00    +0.000 H 
ATOM    110  H11 UNL A   1      11.097  45.253   5.580  1.00  0.00    +0.000 H 
BRANCH   12   11
ATOM     11  C10 UNL A   1      11.289  47.053   6.671  1.00  0.00    +0.000 C 
ATOM    108  H9  UNL A   1      11.505  47.044   7.719  1.00  0.00    +0.000 H 
ATOM    107  H8  UNL A   1      10.664  47.878   6.396  1.00  0.00    +0.000 H 
BRANCH   11   10
ATOM      7  C6  UNL A   1      14.014  47.534   4.213  1.00  0.00    +0.000 C 
ATOM      8  C7  UNL A   1      14.708  46.877   5.219  1.00  0.00    +0.000 C 
ATOM      9  C8  UNL A   1      13.830  46.664   6.300  1.00  0.00    +0.000 C 
ATOM     10  C9  UNL A   1      12.602  47.184   5.944  1.00  0.00    +0.000 C 
ATOM    105  H6  UNL A   1      15.699  46.593   5.180  1.00  0.00    +0.000 H 
ATOM    106  H7  UNL A   1      14.062  46.203   7.193  1.00  0.00    +0.000 H 
ATOM     88  N7  UNL A   1      12.787  47.909   4.768  1.00  0.00    +0.000 N 
BRANCH    7    6
ATOM     98  C72 UNL A   1      14.061  47.543   1.722  1.00  0.00    +0.000 C 
ATOM      3  C2  UNL A   1      15.739  48.814   0.519  1.00  0.00    +0.000 C 
ATOM      4  C3  UNL A   1      16.257  49.257   1.736  1.00  0.00    +0.000 C 
ATOM      5  C4  UNL A   1      15.673  48.862   2.942  1.00  0.00    +0.000 C 
ATOM     99  C73 UNL A   1      14.643  47.949   0.513  1.00  0.00    +0.000 C 
ATOM    103  H4  UNL A   1      17.080  49.880   1.746  1.00  0.00    +0.000 H 
ATOM      6  C5  UNL A   1      14.569  48.004   2.943  1.00  0.00    +0.000 C 
ATOM    104  H5  UNL A   1      16.057  49.206   3.835  1.00  0.00    +0.000 H 
ATOM    146  H47 UNL A   1      13.253  46.902   1.713  1.00  0.00    +0.000 H 
ATOM    147  H48 UNL A   1      14.260  47.608  -0.383  1.00  0.00    +0.000 H 
BRANCH    3    2
ATOM      2  O1  UNL A   1      16.413  49.237  -0.592  1.00  0.00    +0.000 O 
BRANCH    2    1
ATOM      1  C1  UNL A   1      15.647  50.010  -1.510  1.00  0.00    +0.000 C 
ATOM    100  H1  UNL A   1      15.638  49.526  -2.464  1.00  0.00    +0.000 H 
ATOM    101  H2  UNL A   1      16.081  50.984  -1.606  1.00  0.00    +0.000 H 
ATOM    102  H3  UNL A   1      14.644  50.102  -1.148  1.00  0.00    +0.000 H 
ENDBRANCH    2    1
ENDBRANCH    3    2
ENDBRANCH    7    6
BRANCH   88   89
ATOM     97  C71 UNL A   1      12.309  50.318   4.862  1.00  0.00    +0.000 C 
ATOM    139  H40 UNL A   1      10.701  47.872   3.226  1.00  0.00    +0.000 H 
ATOM    140  H41 UNL A   1       9.180  49.691   2.725  1.00  0.00    +0.000 H 
ATOM    144  H45 UNL A   1      11.654  52.323   4.883  1.00  0.00    +0.000 H 
ATOM    145  H46 UNL A   1      13.146  50.486   5.443  1.00  0.00    +0.000 H 
ATOM     89  C64 UNL A   1      12.029  49.043   4.378  1.00  0.00    +0.000 C 
ATOM     90  C65 UNL A   1      10.893  48.817   3.592  1.00  0.00    +0.000 C 
ATOM     91  C66 UNL A   1      10.019  49.865   3.300  1.00  0.00    +0.000 C 
ATOM     92  C67 UNL A   1      10.278  51.149   3.785  1.00  0.00    +0.000 C 
ATOM     96  C70 UNL A   1      11.440  51.371   4.549  1.00  0.00    +0.000 C 
BRANCH   92   93
ATOM     93  C68 UNL A   1       9.361  52.306   3.545  1.00  0.00    +0.000 C 
ATOM     95  O4  UNL A   1       9.589  53.064   2.603  1.00  0.00    +0.000 O 
BRANCH   93   94
ATOM    143  H44 UNL A   1       7.393  51.883   4.217  1.00  0.00    +0.000 H 
ATOM    141  H42 UNL A   1       7.839  53.570   4.311  1.00  0.00    +0.000 H 
ATOM     94  C69 UNL A   1       8.182  52.566   4.452  1.00  0.00    +0.000 C 
ATOM    142  H43 UNL A   1       8.480  52.431   5.471  1.00  0.00    +0.000 H 
ENDBRANCH   93   94
ENDBRANCH   92   93
ENDBRANCH   88   89
ENDBRANCH   11   10
ENDBRANCH   12   11
ENDBRANCH   13   12
ENDBRANCH   15   13
ENDBRANCH   16   15
ENDBRANCH   17   16
ENDBRANCH   18   17
ENDBRANCH   19   18
ENDBRANCH   20   19
ENDBRANCH   21   20
ENDBRANCH   22   21
ENDBRANCH   23   22
ENDBRANCH   25   23
ENDBRANCH   29   28
BRANCH   33   34
ATOM     34  C28 UNL A   1      10.703  47.778  14.600  1.00  0.00    +0.000 C 
ATOM     35  C29 UNL A   1       9.865  47.549  15.718  1.00  0.00    +0.000 C 
ATOM     36  F1  UNL A   1       8.712  48.223  15.857  1.00  0.00    +0.000 F 
ATOM     37  C30 UNL A   1      10.232  46.692  16.756  1.00  0.00    +0.000 C 
ATOM     38  F2  UNL A   1       9.478  46.623  17.862  1.00  0.00    +0.000 F 
ATOM     39  C31 UNL A   1      11.405  45.968  16.674  1.00  0.00    +0.000 C 
ATOM     40  F3  UNL A   1      11.790  45.190  17.694  1.00  0.00    +0.000 F 
ATOM     41  C32 UNL A   1      12.198  46.085  15.545  1.00  0.00    +0.000 C 
ATOM     42  F4  UNL A   1      13.339  45.386  15.461  1.00  0.00    +0.000 F 
ATOM     43  C33 UNL A   1      11.868  46.994  14.535  1.00  0.00    +0.000 C 
ATOM     44  F5  UNL A   1      12.770  47.173  13.562  1.00  0.00    +0.000 F 
ENDBRANCH   33   34
BRANCH   50   51
ATOM     51  C39 UNL A   1      14.628  50.793  11.510  1.00  0.00    +0.000 C 
ATOM     52  C40 UNL A   1      13.852  49.985  10.680  1.00  0.00    +0.000 C 
ATOM     53  F6  UNL A   1      12.516  50.102  10.686  1.00  0.00    +0.000 F 
ATOM     54  C41 UNL A   1      14.448  49.046   9.832  1.00  0.00    +0.000 C 
ATOM     55  F7  UNL A   1      13.683  48.283   9.041  1.00  0.00    +0.000 F 
ATOM     56  C42 UNL A   1      15.829  48.896   9.793  1.00  0.00    +0.000 C 
ATOM     57  F8  UNL A   1      16.396  48.007   8.965  1.00  0.00    +0.000 F 
ATOM     58  C43 UNL A   1      16.621  49.679  10.606  1.00  0.00    +0.000 C 
ATOM     59  F9  UNL A   1      17.957  49.568  10.569  1.00  0.00    +0.000 F 
ATOM     60  C44 UNL A   1      16.025  50.600  11.458  1.00  0.00    +0.000 C 
ATOM     61  F10 UNL A   1      16.835  51.334  12.222  1.00  0.00    +0.000 F 
ENDBRANCH   50   51
BRANCH   65   66
ATOM     66  C48 UNL A   1      13.323  55.916   8.531  1.00  0.00    +0.000 C 
ATOM     67  C49 UNL A   1      14.577  56.132   7.943  1.00  0.00    +0.000 C 
ATOM     68  F11 UNL A   1      15.511  55.177   7.932  1.00  0.00    +0.000 F 
ATOM     69  C50 UNL A   1      14.932  57.366   7.368  1.00  0.00    +0.000 C 
ATOM     70  F12 UNL A   1      16.131  57.506   6.785  1.00  0.00    +0.000 F 
ATOM     71  C51 UNL A   1      14.061  58.441   7.388  1.00  0.00    +0.000 C 
ATOM     72  F13 UNL A   1      14.392  59.604   6.811  1.00  0.00    +0.000 F 
ATOM     73  C52 UNL A   1      12.850  58.300   8.024  1.00  0.00    +0.000 C 
ATOM     74  F14 UNL A   1      11.995  59.332   8.082  1.00  0.00    +0.000 F 
ATOM     75  C53 UNL A   1      12.501  57.076   8.596  1.00  0.00    +0.000 C 
ATOM     76  F15 UNL A   1      11.313  57.058   9.216  1.00  0.00    +0.000 F 
ENDBRANCH   65   66
TORSDOF 23
ENDMDL
MODEL 5
REMARK VINA RESULT:      -9.6     51.600     56.802
ROOT
ATOM    129  H30 UNL A   1      58.782  16.832   5.982  1.00  0.00    +0.000 H 
ATOM    130  H31 UNL A   1      54.045  13.131   0.243  1.00  0.00    +0.000 H 
ATOM    131  H32 UNL A   1      52.634  13.994   2.160  1.00  0.00    +0.000 H 
ATOM    132  H33 UNL A   1      56.459  15.471   2.685  1.00  0.00    +0.000 H 
ATOM    133  H34 UNL A   1      57.369  16.979  -0.442  1.00  0.00    +0.000 H 
ATOM    134  H35 UNL A   1      59.038  17.932   1.277  1.00  0.00    +0.000 H 
ATOM    135  H36 UNL A   1      54.602  18.476   7.623  1.00  0.00    +0.000 H 
ATOM    136  H37 UNL A   1      53.106  16.714   6.522  1.00  0.00    +0.000 H 
ATOM     29  C24 UNL A   1      53.920  15.865   3.897  1.00  0.00    +0.000 C 
ATOM     30  C25 UNL A   1      54.638  16.839   4.846  1.00  0.00    +0.000 C 
ATOM     31  N3  UNL A   1      55.728  17.541   4.695  1.00  0.00    +0.000 N 
ATOM     32  C26 UNL A   1      55.949  18.223   5.910  1.00  0.00    +0.000 C 
ATOM     33  C27 UNL A   1      57.123  18.815   6.281  1.00  0.00    +0.000 C 
ATOM     45  C34 UNL A   1      58.153  18.716   5.299  1.00  0.00    +0.000 C 
ATOM     46  C35 UNL A   1      58.766  19.518   4.366  1.00  0.00    +0.000 C 
ATOM     47  C36 UNL A   1      59.649  18.674   3.634  1.00  0.00    +0.000 C 
ATOM     48  C37 UNL A   1      59.392  17.373   4.047  1.00  0.00    +0.000 C 
ATOM     49  N4  UNL A   1      58.777  17.501   5.260  1.00  0.00    +0.000 N 
ATOM     50  C38 UNL A   1      59.428  16.054   3.488  1.00  0.00    +0.000 C 
ATOM     62  C45 UNL A   1      59.071  15.921   2.187  1.00  0.00    +0.000 C 
ATOM     63  N5  UNL A   1      58.597  14.726   1.689  1.00  0.00    +0.000 N 
ATOM     64  C46 UNL A   1      57.805  15.085   0.730  1.00  0.00    +0.000 C 
ATOM     65  C47 UNL A   1      56.734  14.249   0.164  1.00  0.00    +0.000 C 
ATOM     77  C54 UNL A   1      55.709  14.334   1.066  1.00  0.00    +0.000 C 
ATOM     78  C55 UNL A   1      54.373  13.779   0.976  1.00  0.00    +0.000 C 
ATOM     79  C56 UNL A   1      53.623  14.242   1.997  1.00  0.00    +0.000 C 
ATOM     80  C57 UNL A   1      54.412  15.148   2.851  1.00  0.00    +0.000 C 
ATOM     81  N6  UNL A   1      55.660  15.061   2.281  1.00  0.00    +0.000 N 
ATOM     82  C58 UNL A   1      57.852  16.491   0.328  1.00  0.00    +0.000 C 
ATOM     83  C59 UNL A   1      58.695  16.960   1.243  1.00  0.00    +0.000 C 
ATOM     84  C60 UNL A   1      54.787  18.007   6.722  1.00  0.00    +0.000 C 
ATOM     85  C61 UNL A   1      53.980  17.116   6.150  1.00  0.00    +0.000 C 
ATOM    127  H28 UNL A   1      58.615  20.529   4.225  1.00  0.00    +0.000 H 
ATOM    128  H29 UNL A   1      60.345  18.971   2.932  1.00  0.00    +0.000 H 
ENDROOT
BRANCH   29   28
ATOM    137  H38 UNL A   1      52.400  13.678   4.472  1.00  0.00    +0.000 H 
ATOM    138  H39 UNL A   1      50.049  13.636   5.090  1.00  0.00    +0.000 H 
ATOM     86  C62 UNL A   1      51.853  14.553   4.485  1.00  0.00    +0.000 C 
ATOM     87  C63 UNL A   1      50.503  14.530   4.845  1.00  0.00    +0.000 C 
ATOM     25  C20 UNL A   1      49.768  15.720   4.873  1.00  0.00    +0.000 C 
ATOM     26  C21 UNL A   1      50.374  16.926   4.491  1.00  0.00    +0.000 C 
ATOM     27  C22 UNL A   1      51.714  16.952   4.127  1.00  0.00    +0.000 C 
ATOM     28  C23 UNL A   1      52.461  15.769   4.142  1.00  0.00    +0.000 C 
ATOM    125  H26 UNL A   1      49.822  17.797   4.482  1.00  0.00    +0.000 H 
ATOM    126  H27 UNL A   1      52.157  17.840   3.845  1.00  0.00    +0.000 H 
BRANCH   25   23
ATOM     23  C19 UNL A   1      48.319  15.772   5.182  1.00  0.00    +0.000 C 
ATOM     24  O3  UNL A   1      47.547  15.048   4.577  1.00  0.00    +0.000 O 
BRANCH   23   22
ATOM    124  H25 UNL A   1      48.168  16.506   7.040  1.00  0.00    +0.000 H 
ATOM     22  N2  UNL A   1      47.812  16.624   6.130  1.00  0.00    +0.000 N 
BRANCH   22   21
ATOM    122  H23 UNL A   1      45.962  17.278   5.484  1.00  0.00    +0.000 H 
ATOM    123  H24 UNL A   1      46.560  18.044   6.946  1.00  0.00    +0.000 H 
ATOM     21  C18 UNL A   1      46.824  17.675   5.977  1.00  0.00    +0.000 C 
BRANCH   21   20
ATOM    121  H22 UNL A   1      46.578  19.518   5.005  1.00  0.00    +0.000 H 
ATOM     20  C17 UNL A   1      47.388  18.832   5.146  1.00  0.00    +0.000 C 
ATOM    120  H21 UNL A   1      47.769  18.429   4.231  1.00  0.00    +0.000 H 
BRANCH   20   19
ATOM     19  C16 UNL A   1      48.515  19.632   5.822  1.00  0.00    +0.000 C 
ATOM    118  H19 UNL A   1      49.442  19.149   5.596  1.00  0.00    +0.000 H 
ATOM    119  H20 UNL A   1      48.437  20.627   5.435  1.00  0.00    +0.000 H 
BRANCH   19   18
ATOM     18  C15 UNL A   1      48.415  19.770   7.342  1.00  0.00    +0.000 C 
ATOM    116  H17 UNL A   1      47.913  20.688   7.563  1.00  0.00    +0.000 H 
ATOM    117  H18 UNL A   1      47.885  18.909   7.692  1.00  0.00    +0.000 H 
BRANCH   18   17
ATOM     17  C14 UNL A   1      49.757  19.775   8.068  1.00  0.00    +0.000 C 
ATOM    114  H15 UNL A   1      50.176  20.755   7.982  1.00  0.00    +0.000 H 
ATOM    115  H16 UNL A   1      49.551  19.486   9.077  1.00  0.00    +0.000 H 
BRANCH   17   16
ATOM    113  H14 UNL A   1      51.764  19.121   7.791  1.00  0.00    +0.000 H 
ATOM    112  H13 UNL A   1      50.680  18.690   6.479  1.00  0.00    +0.000 H 
ATOM     16  C13 UNL A   1      50.784  18.773   7.541  1.00  0.00    +0.000 C 
BRANCH   16   15
ATOM    111  H12 UNL A   1      49.786  16.976   7.838  1.00  0.00    +0.000 H 
ATOM     15  N1  UNL A   1      50.582  17.469   8.143  1.00  0.00    +0.000 N 
BRANCH   15   13
ATOM     13  C12 UNL A   1      51.350  16.837   9.075  1.00  0.00    +0.000 C 
ATOM     14  O2  UNL A   1      51.977  15.832   8.737  1.00  0.00    +0.000 O 
BRANCH   13   12
ATOM     12  C11 UNL A   1      51.382  17.330  10.509  1.00  0.00    +0.000 C 
ATOM    109  H10 UNL A   1      50.693  18.143  10.607  1.00  0.00    +0.000 H 
ATOM    110  H11 UNL A   1      51.116  16.506  11.138  1.00  0.00    +0.000 H 
BRANCH   12   11
ATOM     11  C10 UNL A   1      52.768  17.810  10.939  1.00  0.00    +0.000 C 
ATOM    108  H9  UNL A   1      53.476  17.083  10.597  1.00  0.00    +0.000 H 
ATOM    107  H8  UNL A   1      52.778  17.910  12.005  1.00  0.00    +0.000 H 
BRANCH   11   10
ATOM      7  C6  UNL A   1      53.008  21.334   9.834  1.00  0.00    +0.000 C 
ATOM      8  C7  UNL A   1      53.874  20.736   8.929  1.00  0.00    +0.000 C 
ATOM      9  C8  UNL A   1      53.970  19.366   9.243  1.00  0.00    +0.000 C 
ATOM     10  C9  UNL A   1      53.154  19.133  10.332  1.00  0.00    +0.000 C 
ATOM    105  H6  UNL A   1      54.364  21.215   8.158  1.00  0.00    +0.000 H 
ATOM    106  H7  UNL A   1      54.544  18.665   8.749  1.00  0.00    +0.000 H 
ATOM     88  N7  UNL A   1      52.752  20.375  10.819  1.00  0.00    +0.000 N 
BRANCH    7    6
ATOM     98  C72 UNL A   1      53.553  23.667  10.514  1.00  0.00    +0.000 C 
ATOM      3  C2  UNL A   1      51.968  25.465  10.156  1.00  0.00    +0.000 C 
ATOM      4  C3  UNL A   1      51.088  24.555   9.570  1.00  0.00    +0.000 C 
ATOM      5  C4  UNL A   1      51.442  23.211   9.437  1.00  0.00    +0.000 C 
ATOM     99  C73 UNL A   1      53.200  25.019  10.636  1.00  0.00    +0.000 C 
ATOM    103  H4  UNL A   1      50.167  24.877   9.231  1.00  0.00    +0.000 H 
ATOM      6  C5  UNL A   1      52.679  22.758   9.906  1.00  0.00    +0.000 C 
ATOM    104  H5  UNL A   1      50.789  22.549   8.990  1.00  0.00    +0.000 H 
ATOM    146  H47 UNL A   1      54.464  23.341  10.872  1.00  0.00    +0.000 H 
ATOM    147  H48 UNL A   1      53.851  25.684  11.082  1.00  0.00    +0.000 H 
BRANCH    3    2
ATOM      2  O1  UNL A   1      51.499  26.745  10.263  1.00  0.00    +0.000 O 
BRANCH    2    1
ATOM      1  C1  UNL A   1      50.936  27.286   9.074  1.00  0.00    +0.000 C 
ATOM    100  H1  UNL A   1      49.868  27.227   9.125  1.00  0.00    +0.000 H 
ATOM    101  H2  UNL A   1      51.284  26.730   8.228  1.00  0.00    +0.000 H 
ATOM    102  H3  UNL A   1      51.231  28.310   8.973  1.00  0.00    +0.000 H 
ENDBRANCH    2    1
ENDBRANCH    3    2
ENDBRANCH    7    6
BRANCH   88   89
ATOM     97  C71 UNL A   1      51.165  21.035  12.576  1.00  0.00    +0.000 C 
ATOM    139  H40 UNL A   1      54.452  20.400  12.779  1.00  0.00    +0.000 H 
ATOM    140  H41 UNL A   1      54.093  21.140  15.058  1.00  0.00    +0.000 H 
ATOM    144  H45 UNL A   1      50.008  21.692  14.213  1.00  0.00    +0.000 H 
ATOM    145  H46 UNL A   1      50.379  21.014  11.907  1.00  0.00    +0.000 H 
ATOM     89  C64 UNL A   1      52.445  20.662  12.174  1.00  0.00    +0.000 C 
ATOM     90  C65 UNL A   1      53.510  20.692  13.082  1.00  0.00    +0.000 C 
ATOM     91  C66 UNL A   1      53.303  21.114  14.396  1.00  0.00    +0.000 C 
ATOM     92  C67 UNL A   1      52.028  21.502  14.814  1.00  0.00    +0.000 C 
ATOM     96  C70 UNL A   1      50.959  21.438  13.901  1.00  0.00    +0.000 C 
BRANCH   92   93
ATOM     93  C68 UNL A   1      51.747  22.005  16.195  1.00  0.00    +0.000 C 
ATOM     95  O4  UNL A   1      52.316  21.477  17.150  1.00  0.00    +0.000 O 
BRANCH   93   94
ATOM    143  H44 UNL A   1      50.053  22.827  17.172  1.00  0.00    +0.000 H 
ATOM    141  H42 UNL A   1      50.253  23.350  15.517  1.00  0.00    +0.000 H 
ATOM     94  C69 UNL A   1      50.763  23.127  16.430  1.00  0.00    +0.000 C 
ATOM    142  H43 UNL A   1      51.289  23.996  16.768  1.00  0.00    +0.000 H 
ENDBRANCH   93   94
ENDBRANCH   92   93
ENDBRANCH   88   89
ENDBRANCH   11   10
ENDBRANCH   12   11
ENDBRANCH   13   12
ENDBRANCH   15   13
ENDBRANCH   16   15
ENDBRANCH   17   16
ENDBRANCH   18   17
ENDBRANCH   19   18
ENDBRANCH   20   19
ENDBRANCH   21   20
ENDBRANCH   22   21
ENDBRANCH   23   22
ENDBRANCH   25   23
ENDBRANCH   29   28
BRANCH   33   34
ATOM     34  C28 UNL A   1      57.583  19.211   7.669  1.00  0.00    +0.000 C 
ATOM     35  C29 UNL A   1      57.708  18.203   8.655  1.00  0.00    +0.000 C 
ATOM     36  F1  UNL A   1      57.826  16.913   8.304  1.00  0.00    +0.000 F 
ATOM     37  C30 UNL A   1      57.627  18.487  10.019  1.00  0.00    +0.000 C 
ATOM     38  F2  UNL A   1      57.599  17.485  10.909  1.00  0.00    +0.000 F 
ATOM     39  C31 UNL A   1      57.506  19.794  10.448  1.00  0.00    +0.000 C 
ATOM     40  F3  UNL A   1      57.368  20.066  11.753  1.00  0.00    +0.000 F 
ATOM     41  C32 UNL A   1      57.489  20.816   9.515  1.00  0.00    +0.000 C 
ATOM     42  F4  UNL A   1      57.371  22.087   9.926  1.00  0.00    +0.000 F 
ATOM     43  C33 UNL A   1      57.501  20.531   8.147  1.00  0.00    +0.000 C 
ATOM     44  F5  UNL A   1      57.309  21.559   7.310  1.00  0.00    +0.000 F 
ENDBRANCH   33   34
BRANCH   50   51
ATOM     51  C39 UNL A   1      59.293  14.779   4.280  1.00  0.00    +0.000 C 
ATOM     52  C40 UNL A   1      58.132  14.479   4.992  1.00  0.00    +0.000 C 
ATOM     53  F6  UNL A   1      57.061  15.281   4.901  1.00  0.00    +0.000 F 
ATOM     54  C41 UNL A   1      58.063  13.345   5.808  1.00  0.00    +0.000 C 
ATOM     55  F7  UNL A   1      56.937  13.075   6.481  1.00  0.00    +0.000 F 
ATOM     56  C42 UNL A   1      59.150  12.487   5.928  1.00  0.00    +0.000 C 
ATOM     57  F8  UNL A   1      59.073  11.392   6.698  1.00  0.00    +0.000 F 
ATOM     58  C43 UNL A   1      60.312  12.761   5.239  1.00  0.00    +0.000 C 
ATOM     59  F9  UNL A   1      61.366  11.934   5.320  1.00  0.00    +0.000 F 
ATOM     60  C44 UNL A   1      60.381  13.897   4.441  1.00  0.00    +0.000 C 
ATOM     61  F10 UNL A   1      61.526  14.115   3.793  1.00  0.00    +0.000 F 
ENDBRANCH   50   51
BRANCH   65   66
ATOM     66  C48 UNL A   1      56.956  13.669  -1.209  1.00  0.00    +0.000 C 
ATOM     67  C49 UNL A   1      56.156  13.901  -2.336  1.00  0.00    +0.000 C 
ATOM     68  F11 UNL A   1      55.006  14.575  -2.242  1.00  0.00    +0.000 F 
ATOM     69  C50 UNL A   1      56.497  13.412  -3.611  1.00  0.00    +0.000 C 
ATOM     70  F12 UNL A   1      55.714  13.696  -4.661  1.00  0.00    +0.000 F 
ATOM     71  C51 UNL A   1      57.632  12.645  -3.802  1.00  0.00    +0.000 C 
ATOM     72  F13 UNL A   1      57.968  12.208  -5.023  1.00  0.00    +0.000 F 
ATOM     73  C52 UNL A   1      58.406  12.325  -2.712  1.00  0.00    +0.000 C 
ATOM     74  F14 UNL A   1      59.499  11.562  -2.861  1.00  0.00    +0.000 F 
ATOM     75  C53 UNL A   1      58.065  12.809  -1.447  1.00  0.00    +0.000 C 
ATOM     76  F15 UNL A   1      58.869  12.411  -0.452  1.00  0.00    +0.000 F 
ENDBRANCH   65   66
TORSDOF 23
ENDMDL
MODEL 6
REMARK VINA RESULT:      -9.6     42.939     51.521
ROOT
ATOM    129  H30 UNL A   1      13.076  49.330  13.201  1.00  0.00    +0.000 H 
ATOM    130  H31 UNL A   1      11.510  53.881   6.426  1.00  0.00    +0.000 H 
ATOM    131  H32 UNL A   1       9.932  51.907   6.573  1.00  0.00    +0.000 H 
ATOM    132  H33 UNL A   1      12.009  52.091  10.142  1.00  0.00    +0.000 H 
ATOM    133  H34 UNL A   1      11.676  55.471  11.301  1.00  0.00    +0.000 H 
ATOM    134  H35 UNL A   1      12.437  54.123  13.363  1.00  0.00    +0.000 H 
ATOM    135  H36 UNL A   1       8.841  47.343  12.210  1.00  0.00    +0.000 H 
ATOM    136  H37 UNL A   1       8.740  48.009   9.741  1.00  0.00    +0.000 H 
ATOM     29  C24 UNL A   1       9.821  50.599   9.113  1.00  0.00    +0.000 C 
ATOM     30  C25 UNL A   1       9.803  49.882  10.473  1.00  0.00    +0.000 C 
ATOM     31  N3  UNL A   1      10.210  50.263  11.652  1.00  0.00    +0.000 N 
ATOM     32  C26 UNL A   1       9.995  49.180  12.531  1.00  0.00    +0.000 C 
ATOM     33  C27 UNL A   1      10.553  49.047  13.771  1.00  0.00    +0.000 C 
ATOM     45  C34 UNL A   1      11.386  50.142  14.148  1.00  0.00    +0.000 C 
ATOM     46  C35 UNL A   1      11.333  51.239  14.974  1.00  0.00    +0.000 C 
ATOM     47  C36 UNL A   1      12.526  51.979  14.731  1.00  0.00    +0.000 C 
ATOM     48  C37 UNL A   1      13.153  51.381  13.644  1.00  0.00    +0.000 C 
ATOM     49  N4  UNL A   1      12.631  50.120  13.585  1.00  0.00    +0.000 N 
ATOM     50  C38 UNL A   1      13.986  51.778  12.549  1.00  0.00    +0.000 C 
ATOM     62  C45 UNL A   1      13.749  52.992  11.995  1.00  0.00    +0.000 C 
ATOM     63  N5  UNL A   1      14.111  53.273  10.695  1.00  0.00    +0.000 N 
ATOM     64  C46 UNL A   1      13.237  54.151  10.316  1.00  0.00    +0.000 C 
ATOM     65  C47 UNL A   1      12.906  54.461   8.915  1.00  0.00    +0.000 C 
ATOM     77  C54 UNL A   1      12.083  53.444   8.516  1.00  0.00    +0.000 C 
ATOM     78  C55 UNL A   1      11.384  53.283   7.257  1.00  0.00    +0.000 C 
ATOM     79  C56 UNL A   1      10.543  52.232   7.339  1.00  0.00    +0.000 C 
ATOM     80  C57 UNL A   1      10.620  51.609   8.672  1.00  0.00    +0.000 C 
ATOM     81  N6  UNL A   1      11.629  52.330   9.265  1.00  0.00    +0.000 N 
ATOM     82  C58 UNL A   1      12.382  54.721  11.357  1.00  0.00    +0.000 C 
ATOM     83  C59 UNL A   1      12.777  53.993  12.398  1.00  0.00    +0.000 C 
ATOM     84  C60 UNL A   1       9.250  48.197  11.800  1.00  0.00    +0.000 C 
ATOM     85  C61 UNL A   1       9.159  48.543  10.518  1.00  0.00    +0.000 C 
ATOM    127  H28 UNL A   1      10.579  51.479  15.636  1.00  0.00    +0.000 H 
ATOM    128  H29 UNL A   1      12.861  52.800  15.259  1.00  0.00    +0.000 H 
ENDROOT
BRANCH   29   28
ATOM    137  H38 UNL A   1       7.259  51.490   8.861  1.00  0.00    +0.000 H 
ATOM    138  H39 UNL A   1       5.636  50.856   7.165  1.00  0.00    +0.000 H 
ATOM     86  C62 UNL A   1       7.496  50.768   8.163  1.00  0.00    +0.000 C 
ATOM     87  C63 UNL A   1       6.565  50.407   7.185  1.00  0.00    +0.000 C 
ATOM     25  C20 UNL A   1       6.895  49.436   6.233  1.00  0.00    +0.000 C 
ATOM     26  C21 UNL A   1       8.139  48.792   6.292  1.00  0.00    +0.000 C 
ATOM     27  C22 UNL A   1       9.065  49.144   7.266  1.00  0.00    +0.000 C 
ATOM     28  C23 UNL A   1       8.752  50.147   8.191  1.00  0.00    +0.000 C 
ATOM    125  H26 UNL A   1       8.368  48.054   5.608  1.00  0.00    +0.000 H 
ATOM    126  H27 UNL A   1       9.979  48.667   7.308  1.00  0.00    +0.000 H 
BRANCH   25   23
ATOM     23  C19 UNL A   1       5.943  48.953   5.204  1.00  0.00    +0.000 C 
ATOM     24  O3  UNL A   1       5.044  48.194   5.524  1.00  0.00    +0.000 O 
BRANCH   23   22
ATOM    124  H25 UNL A   1       5.324  49.901   3.551  1.00  0.00    +0.000 H 
ATOM     22  N2  UNL A   1       6.049  49.327   3.888  1.00  0.00    +0.000 N 
BRANCH   22   21
ATOM    122  H23 UNL A   1       7.610  48.127   3.262  1.00  0.00    +0.000 H 
ATOM    123  H24 UNL A   1       6.621  48.802   1.978  1.00  0.00    +0.000 H 
ATOM     21  C18 UNL A   1       7.081  48.993   2.925  1.00  0.00    +0.000 C 
BRANCH   21   20
ATOM    121  H22 UNL A   1       8.082  50.663   3.709  1.00  0.00    +0.000 H 
ATOM     20  C17 UNL A   1       8.070  50.153   2.767  1.00  0.00    +0.000 C 
ATOM    120  H21 UNL A   1       7.735  50.766   1.956  1.00  0.00    +0.000 H 
BRANCH   20   19
ATOM     19  C16 UNL A   1       9.524  49.739   2.484  1.00  0.00    +0.000 C 
ATOM    118  H19 UNL A   1       9.506  48.778   2.013  1.00  0.00    +0.000 H 
ATOM    119  H20 UNL A   1       9.934  50.516   1.872  1.00  0.00    +0.000 H 
BRANCH   19   18
ATOM     18  C15 UNL A   1      10.439  49.646   3.706  1.00  0.00    +0.000 C 
ATOM    116  H17 UNL A   1      11.065  50.513   3.722  1.00  0.00    +0.000 H 
ATOM    117  H18 UNL A   1       9.800  49.574   4.561  1.00  0.00    +0.000 H 
BRANCH   18   17
ATOM     17  C14 UNL A   1      11.337  48.412   3.733  1.00  0.00    +0.000 C 
ATOM    114  H15 UNL A   1      10.722  47.558   3.923  1.00  0.00    +0.000 H 
ATOM    115  H16 UNL A   1      11.829  48.382   2.783  1.00  0.00    +0.000 H 
BRANCH   17   16
ATOM    113  H14 UNL A   1      12.030  48.168   5.731  1.00  0.00    +0.000 H 
ATOM    112  H13 UNL A   1      12.861  49.426   4.831  1.00  0.00    +0.000 H 
ATOM     16  C13 UNL A   1      12.446  48.440   4.784  1.00  0.00    +0.000 C 
BRANCH   16   15
ATOM    111  H12 UNL A   1      13.316  46.917   3.671  1.00  0.00    +0.000 H 
ATOM     15  N1  UNL A   1      13.496  47.497   4.445  1.00  0.00    +0.000 N 
BRANCH   15   13
ATOM     13  C12 UNL A   1      14.698  47.310   5.059  1.00  0.00    +0.000 C 
ATOM     14  O2  UNL A   1      15.520  46.563   4.527  1.00  0.00    +0.000 O 
BRANCH   13   12
ATOM     12  C11 UNL A   1      14.990  47.963   6.397  1.00  0.00    +0.000 C 
ATOM    109  H10 UNL A   1      14.081  48.382   6.779  1.00  0.00    +0.000 H 
ATOM    110  H11 UNL A   1      15.382  47.208   7.045  1.00  0.00    +0.000 H 
BRANCH   12   11
ATOM     11  C10 UNL A   1      16.035  49.074   6.298  1.00  0.00    +0.000 C 
ATOM    108  H9  UNL A   1      16.767  48.758   5.585  1.00  0.00    +0.000 H 
ATOM    107  H8  UNL A   1      16.459  49.230   7.269  1.00  0.00    +0.000 H 
BRANCH   11   10
ATOM      7  C6  UNL A   1      15.409  52.367   4.729  1.00  0.00    +0.000 C 
ATOM      8  C7  UNL A   1      14.389  52.349   5.669  1.00  0.00    +0.000 C 
ATOM      9  C8  UNL A   1      14.422  51.109   6.338  1.00  0.00    +0.000 C 
ATOM     10  C9  UNL A   1      15.468  50.382   5.809  1.00  0.00    +0.000 C 
ATOM    105  H6  UNL A   1      13.720  53.114   5.848  1.00  0.00    +0.000 H 
ATOM    106  H7  UNL A   1      13.782  50.802   7.087  1.00  0.00    +0.000 H 
ATOM     88  N7  UNL A   1      15.917  51.066   4.680  1.00  0.00    +0.000 N 
BRANCH    7    6
ATOM     98  C72 UNL A   1      16.296  54.632   4.188  1.00  0.00    +0.000 C 
ATOM      3  C2  UNL A   1      16.085  55.544   1.953  1.00  0.00    +0.000 C 
ATOM      4  C3  UNL A   1      15.459  54.365   1.545  1.00  0.00    +0.000 C 
ATOM      5  C4  UNL A   1      15.267  53.316   2.446  1.00  0.00    +0.000 C 
ATOM     99  C73 UNL A   1      16.497  55.680   3.279  1.00  0.00    +0.000 C 
ATOM    103  H4  UNL A   1      15.134  54.268   0.570  1.00  0.00    +0.000 H 
ATOM      6  C5  UNL A   1      15.686  53.441   3.774  1.00  0.00    +0.000 C 
ATOM    104  H5  UNL A   1      14.814  52.445   2.130  1.00  0.00    +0.000 H 
ATOM    146  H47 UNL A   1      16.600  54.738   5.168  1.00  0.00    +0.000 H 
ATOM    147  H48 UNL A   1      16.951  56.553   3.591  1.00  0.00    +0.000 H 
BRANCH    3    2
ATOM      2  O1  UNL A   1      16.187  56.513   0.994  1.00  0.00    +0.000 O 
BRANCH    2    1
ATOM      1  C1  UNL A   1      17.128  56.247  -0.040  1.00  0.00    +0.000 C 
ATOM    100  H1  UNL A   1      18.062  55.957   0.392  1.00  0.00    +0.000 H 
ATOM    101  H2  UNL A   1      17.267  57.129  -0.632  1.00  0.00    +0.000 H 
ATOM    102  H3  UNL A   1      16.761  55.457  -0.661  1.00  0.00    +0.000 H 
ENDBRANCH    2    1
ENDBRANCH    3    2
ENDBRANCH    7    6
BRANCH   88   89
ATOM     97  C71 UNL A   1      17.849  50.649   3.219  1.00  0.00    +0.000 C 
ATOM    139  H40 UNL A   1      14.666  49.638   2.912  1.00  0.00    +0.000 H 
ATOM    140  H41 UNL A   1      15.507  48.804   0.799  1.00  0.00    +0.000 H 
ATOM    144  H45 UNL A   1      19.335  50.255   1.775  1.00  0.00    +0.000 H 
ATOM    145  H46 UNL A   1      18.478  51.151   3.866  1.00  0.00    +0.000 H 
ATOM     89  C64 UNL A   1      16.506  50.464   3.539  1.00  0.00    +0.000 C 
ATOM     90  C65 UNL A   1      15.656  49.783   2.660  1.00  0.00    +0.000 C 
ATOM     91  C66 UNL A   1      16.141  49.299   1.445  1.00  0.00    +0.000 C 
ATOM     92  C67 UNL A   1      17.483  49.484   1.102  1.00  0.00    +0.000 C 
ATOM     96  C70 UNL A   1      18.335  50.143   2.007  1.00  0.00    +0.000 C 
BRANCH   92   93
ATOM     93  C68 UNL A   1      18.055  49.028  -0.202  1.00  0.00    +0.000 C 
ATOM     95  O4  UNL A   1      17.932  47.848  -0.529  1.00  0.00    +0.000 O 
BRANCH   93   94
ATOM    143  H44 UNL A   1      19.606  50.431  -0.562  1.00  0.00    +0.000 H 
ATOM    141  H42 UNL A   1      18.130  50.749  -1.441  1.00  0.00    +0.000 H 
ATOM     94  C69 UNL A   1      18.799  49.985  -1.104  1.00  0.00    +0.000 C 
ATOM    142  H43 UNL A   1      19.185  49.452  -1.947  1.00  0.00    +0.000 H 
ENDBRANCH   93   94
ENDBRANCH   92   93
ENDBRANCH   88   89
ENDBRANCH   11   10
ENDBRANCH   12   11
ENDBRANCH   13   12
ENDBRANCH   15   13
ENDBRANCH   16   15
ENDBRANCH   17   16
ENDBRANCH   18   17
ENDBRANCH   19   18
ENDBRANCH   20   19
ENDBRANCH   21   20
ENDBRANCH   22   21
ENDBRANCH   23   22
ENDBRANCH   25   23
ENDBRANCH   29   28
BRANCH   33   34
ATOM     34  C28 UNL A   1      10.709  47.793  14.606  1.00  0.00    +0.000 C 
ATOM     35  C29 UNL A   1       9.924  47.654  15.775  1.00  0.00    +0.000 C 
ATOM     36  F1  UNL A   1       8.802  48.373  15.935  1.00  0.00    +0.000 F 
ATOM     37  C30 UNL A   1      10.317  46.843  16.840  1.00  0.00    +0.000 C 
ATOM     38  F2  UNL A   1       9.621  46.859  17.985  1.00  0.00    +0.000 F 
ATOM     39  C31 UNL A   1      11.461  46.075  16.739  1.00  0.00    +0.000 C 
ATOM     40  F3  UNL A   1      11.874  45.340  17.781  1.00  0.00    +0.000 F 
ATOM     41  C32 UNL A   1      12.197  46.103  15.567  1.00  0.00    +0.000 C 
ATOM     42  F4  UNL A   1      13.309  45.361  15.465  1.00  0.00    +0.000 F 
ATOM     43  C33 UNL A   1      11.844  46.966  14.526  1.00  0.00    +0.000 C 
ATOM     44  F5  UNL A   1      12.698  47.061  13.500  1.00  0.00    +0.000 F 
ENDBRANCH   33   34
BRANCH   50   51
ATOM     51  C39 UNL A   1      14.703  50.827  11.624  1.00  0.00    +0.000 C 
ATOM     52  C40 UNL A   1      14.009  49.916  10.828  1.00  0.00    +0.000 C 
ATOM     53  F6  UNL A   1      12.669  49.940  10.792  1.00  0.00    +0.000 F 
ATOM     54  C41 UNL A   1      14.692  48.969  10.058  1.00  0.00    +0.000 C 
ATOM     55  F7  UNL A   1      14.005  48.107   9.299  1.00  0.00    +0.000 F 
ATOM     56  C42 UNL A   1      16.081  48.914  10.065  1.00  0.00    +0.000 C 
ATOM     57  F8  UNL A   1      16.731  48.016   9.312  1.00  0.00    +0.000 F 
ATOM     58  C43 UNL A   1      16.793  49.799  10.846  1.00  0.00    +0.000 C 
ATOM     59  F9  UNL A   1      18.135  49.779  10.851  1.00  0.00    +0.000 F 
ATOM     60  C44 UNL A   1      16.110  50.728  11.622  1.00  0.00    +0.000 C 
ATOM     61  F10 UNL A   1      16.845  51.564  12.357  1.00  0.00    +0.000 F 
ENDBRANCH   50   51
BRANCH   65   66
ATOM     66  C48 UNL A   1      13.398  55.771   8.358  1.00  0.00    +0.000 C 
ATOM     67  C49 UNL A   1      14.642  55.987   7.750  1.00  0.00    +0.000 C 
ATOM     68  F11 UNL A   1      15.582  55.038   7.738  1.00  0.00    +0.000 F 
ATOM     69  C50 UNL A   1      14.981  57.216   7.152  1.00  0.00    +0.000 C 
ATOM     70  F12 UNL A   1      16.171  57.355   6.551  1.00  0.00    +0.000 F 
ATOM     71  C51 UNL A   1      14.104  58.285   7.170  1.00  0.00    +0.000 C 
ATOM     72  F13 UNL A   1      14.419  59.442   6.573  1.00  0.00    +0.000 F 
ATOM     73  C52 UNL A   1      12.903  58.146   7.825  1.00  0.00    +0.000 C 
ATOM     74  F14 UNL A   1      12.042  59.172   7.881  1.00  0.00    +0.000 F 
ATOM     75  C53 UNL A   1      12.569  56.927   8.419  1.00  0.00    +0.000 C 
ATOM     76  F15 UNL A   1      11.390  56.910   9.056  1.00  0.00    +0.000 F 
ENDBRANCH   65   66
TORSDOF 23
ENDMDL
MODEL 7
REMARK VINA RESULT:      -9.6     44.070     48.832
ROOT
ATOM    129  H30 UNL A   1      29.955  -9.541  26.413  1.00  0.00    +0.000 H 
ATOM    130  H31 UNL A   1      26.111 -13.560  32.589  1.00  0.00    +0.000 H 
ATOM    131  H32 UNL A   1      28.225 -14.770  31.901  1.00  0.00    +0.000 H 
ATOM    132  H33 UNL A   1      28.208 -11.122  29.958  1.00  0.00    +0.000 H 
ATOM    133  H34 UNL A   1      27.620  -8.657  32.499  1.00  0.00    +0.000 H 
ATOM    134  H35 UNL A   1      28.552  -7.341  30.487  1.00  0.00    +0.000 H 
ATOM    135  H36 UNL A   1      33.612 -12.419  27.512  1.00  0.00    +0.000 H 
ATOM    136  H37 UNL A   1      32.253 -14.223  28.719  1.00  0.00    +0.000 H 
ATOM     29  C24 UNL A   1      30.046 -13.262  30.293  1.00  0.00    +0.000 C 
ATOM     30  C25 UNL A   1      30.996 -12.452  29.396  1.00  0.00    +0.000 C 
ATOM     31  N3  UNL A   1      31.076 -11.171  29.163  1.00  0.00    +0.000 N 
ATOM     32  C26 UNL A   1      32.104 -10.989  28.214  1.00  0.00    +0.000 C 
ATOM     33  C27 UNL A   1      32.308  -9.856  27.478  1.00  0.00    +0.000 C 
ATOM     45  C34 UNL A   1      31.384  -8.809  27.767  1.00  0.00    +0.000 C 
ATOM     46  C35 UNL A   1      31.361  -7.614  28.446  1.00  0.00    +0.000 C 
ATOM     47  C36 UNL A   1      30.011  -7.161  28.410  1.00  0.00    +0.000 C 
ATOM     48  C37 UNL A   1      29.258  -8.192  27.863  1.00  0.00    +0.000 C 
ATOM     49  N4  UNL A   1      30.157  -8.967  27.186  1.00  0.00    +0.000 N 
ATOM     50  C38 UNL A   1      27.928  -8.712  27.979  1.00  0.00    +0.000 C 
ATOM     62  C45 UNL A   1      27.352  -8.678  29.205  1.00  0.00    +0.000 C 
ATOM     63  N5  UNL A   1      26.342  -9.551  29.550  1.00  0.00    +0.000 N 
ATOM     64  C46 UNL A   1      26.483  -9.692  30.830  1.00  0.00    +0.000 C 
ATOM     65  C47 UNL A   1      25.954 -10.819  31.617  1.00  0.00    +0.000 C 
ATOM     77  C54 UNL A   1      26.828 -11.846  31.390  1.00  0.00    +0.000 C 
ATOM     78  C55 UNL A   1      26.847 -13.169  31.980  1.00  0.00    +0.000 C 
ATOM     79  C56 UNL A   1      27.975 -13.811  31.613  1.00  0.00    +0.000 C 
ATOM     80  C57 UNL A   1      28.800 -12.954  30.743  1.00  0.00    +0.000 C 
ATOM     81  N6  UNL A   1      27.994 -11.852  30.584  1.00  0.00    +0.000 N 
ATOM     82  C58 UNL A   1      27.405  -8.772  31.497  1.00  0.00    +0.000 C 
ATOM     83  C59 UNL A   1      27.887  -8.128  30.439  1.00  0.00    +0.000 C 
ATOM     84  C60 UNL A   1      32.747 -12.260  28.054  1.00  0.00    +0.000 C 
ATOM     85  C61 UNL A   1      32.072 -13.207  28.702  1.00  0.00    +0.000 C 
ATOM    127  H28 UNL A   1      32.162  -7.141  28.893  1.00  0.00    +0.000 H 
ATOM    128  H29 UNL A   1      29.660  -6.244  28.728  1.00  0.00    +0.000 H 
ENDROOT
BRANCH   29   28
ATOM    137  H38 UNL A   1      29.464 -15.827  29.581  1.00  0.00    +0.000 H 
ATOM    138  H39 UNL A   1      30.633 -17.849  30.256  1.00  0.00    +0.000 H 
ATOM     86  C62 UNL A   1      30.245 -15.772  30.252  1.00  0.00    +0.000 C 
ATOM     87  C63 UNL A   1      30.921 -16.933  30.636  1.00  0.00    +0.000 C 
ATOM     25  C20 UNL A   1      31.988 -16.853  31.538  1.00  0.00    +0.000 C 
ATOM     26  C21 UNL A   1      32.344 -15.615  32.092  1.00  0.00    +0.000 C 
ATOM     27  C22 UNL A   1      31.671 -14.459  31.717  1.00  0.00    +0.000 C 
ATOM     28  C23 UNL A   1      30.633 -14.534  30.781  1.00  0.00    +0.000 C 
ATOM    125  H26 UNL A   1      33.111 -15.563  32.780  1.00  0.00    +0.000 H 
ATOM    126  H27 UNL A   1      31.935 -13.550  32.127  1.00  0.00    +0.000 H 
BRANCH   25   23
ATOM     23  C19 UNL A   1      32.714 -18.043  32.044  1.00  0.00    +0.000 C 
ATOM     24  O3  UNL A   1      32.301 -18.626  33.031  1.00  0.00    +0.000 O 
BRANCH   23   22
ATOM    124  H25 UNL A   1      33.854 -19.465  31.212  1.00  0.00    +0.000 H 
ATOM     22  N2  UNL A   1      33.853 -18.507  31.437  1.00  0.00    +0.000 N 
BRANCH   22   21
ATOM    122  H23 UNL A   1      34.972 -16.770  31.419  1.00  0.00    +0.000 H 
ATOM    123  H24 UNL A   1      35.897 -18.258  31.542  1.00  0.00    +0.000 H 
ATOM     21  C18 UNL A   1      35.057 -17.781  31.080  1.00  0.00    +0.000 C 
BRANCH   21   20
ATOM    121  H22 UNL A   1      35.825 -18.669  29.341  1.00  0.00    +0.000 H 
ATOM     20  C17 UNL A   1      35.263 -17.785  29.562  1.00  0.00    +0.000 C 
ATOM    120  H21 UNL A   1      35.768 -16.881  29.293  1.00  0.00    +0.000 H 
BRANCH   20   19
ATOM     19  C16 UNL A   1      33.973 -17.879  28.728  1.00  0.00    +0.000 C 
ATOM    118  H19 UNL A   1      34.113 -18.643  27.992  1.00  0.00    +0.000 H 
ATOM    119  H20 UNL A   1      33.190 -18.087  29.427  1.00  0.00    +0.000 H 
BRANCH   19   18
ATOM     18  C15 UNL A   1      33.554 -16.599  28.003  1.00  0.00    +0.000 C 
ATOM    116  H17 UNL A   1      33.465 -15.818  28.728  1.00  0.00    +0.000 H 
ATOM    117  H18 UNL A   1      34.307 -16.405  27.269  1.00  0.00    +0.000 H 
BRANCH   18   17
ATOM     17  C14 UNL A   1      32.231 -16.702  27.249  1.00  0.00    +0.000 C 
ATOM    114  H15 UNL A   1      32.103 -17.718  26.942  1.00  0.00    +0.000 H 
ATOM    115  H16 UNL A   1      31.477 -16.361  27.927  1.00  0.00    +0.000 H 
BRANCH   17   16
ATOM    113  H14 UNL A   1      32.747 -16.216  25.242  1.00  0.00    +0.000 H 
ATOM    112  H13 UNL A   1      32.431 -14.821  26.260  1.00  0.00    +0.000 H 
ATOM     16  C13 UNL A   1      32.120 -15.814  26.010  1.00  0.00    +0.000 C 
BRANCH   16   15
ATOM    111  H12 UNL A   1      30.079 -15.471  26.176  1.00  0.00    +0.000 H 
ATOM     15  N1  UNL A   1      30.753 -15.778  25.527  1.00  0.00    +0.000 N 
BRANCH   15   13
ATOM     13  C12 UNL A   1      30.280 -16.113  24.293  1.00  0.00    +0.000 C 
ATOM     14  O2  UNL A   1      31.001 -16.779  23.548  1.00  0.00    +0.000 O 
BRANCH   13   12
ATOM     12  C11 UNL A   1      28.921 -15.623  23.831  1.00  0.00    +0.000 C 
ATOM    109  H10 UNL A   1      28.194 -16.378  24.047  1.00  0.00    +0.000 H 
ATOM    110  H11 UNL A   1      28.714 -14.712  24.351  1.00  0.00    +0.000 H 
BRANCH   12   11
ATOM     11  C10 UNL A   1      28.879 -15.320  22.334  1.00  0.00    +0.000 C 
ATOM    108  H9  UNL A   1      28.119 -15.938  21.905  1.00  0.00    +0.000 H 
ATOM    107  H8  UNL A   1      29.845 -15.523  21.919  1.00  0.00    +0.000 H 
BRANCH   11   10
ATOM      7  C6  UNL A   1      28.633 -11.633  22.119  1.00  0.00    +0.000 C 
ATOM      8  C7  UNL A   1      27.392 -11.989  21.611  1.00  0.00    +0.000 C 
ATOM      9  C8  UNL A   1      27.323 -13.395  21.548  1.00  0.00    +0.000 C 
ATOM     10  C9  UNL A   1      28.519 -13.889  22.027  1.00  0.00    +0.000 C 
ATOM    105  H6  UNL A   1      26.646 -11.334  21.327  1.00  0.00    +0.000 H 
ATOM    106  H7  UNL A   1      26.524 -13.952  21.207  1.00  0.00    +0.000 H 
ATOM     88  N7  UNL A   1      29.389 -12.808  22.158  1.00  0.00    +0.000 N 
BRANCH    7    6
ATOM     98  C72 UNL A   1      29.050  -9.616  23.520  1.00  0.00    +0.000 C 
ATOM      3  C2  UNL A   1      29.998  -7.608  22.550  1.00  0.00    +0.000 C 
ATOM      4  C3  UNL A   1      30.070  -8.253  21.315  1.00  0.00    +0.000 C 
ATOM      5  C4  UNL A   1      29.652  -9.579  21.184  1.00  0.00    +0.000 C 
ATOM     99  C73 UNL A   1      29.480  -8.288  23.653  1.00  0.00    +0.000 C 
ATOM    103  H4  UNL A   1      30.434  -7.747  20.493  1.00  0.00    +0.000 H 
ATOM      6  C5  UNL A   1      29.141 -10.271  22.286  1.00  0.00    +0.000 C 
ATOM    104  H5  UNL A   1      29.722 -10.051  20.269  1.00  0.00    +0.000 H 
ATOM    146  H47 UNL A   1      28.665 -10.114  24.337  1.00  0.00    +0.000 H 
ATOM    147  H48 UNL A   1      29.413  -7.813  24.567  1.00  0.00    +0.000 H 
BRANCH    3    2
ATOM      2  O1  UNL A   1      30.403  -6.301  22.551  1.00  0.00    +0.000 O 
BRANCH    2    1
ATOM      1  C1  UNL A   1      31.582  -6.031  21.802  1.00  0.00    +0.000 C 
ATOM    100  H1  UNL A   1      31.876  -5.013  21.954  1.00  0.00    +0.000 H 
ATOM    101  H2  UNL A   1      31.390  -6.195  20.761  1.00  0.00    +0.000 H 
ATOM    102  H3  UNL A   1      32.367  -6.681  22.126  1.00  0.00    +0.000 H 
ENDBRANCH    2    1
ENDBRANCH    3    2
ENDBRANCH    7    6
BRANCH   88   89
ATOM     97  C71 UNL A   1      31.630 -13.092  23.127  1.00  0.00    +0.000 C 
ATOM    139  H40 UNL A   1      30.725 -12.425  19.967  1.00  0.00    +0.000 H 
ATOM    140  H41 UNL A   1      33.125 -12.239  19.694  1.00  0.00    +0.000 H 
ATOM    144  H45 UNL A   1      33.639 -13.193  23.760  1.00  0.00    +0.000 H 
ATOM    145  H46 UNL A   1      31.229 -13.314  24.052  1.00  0.00    +0.000 H 
ATOM     89  C64 UNL A   1      30.800 -12.873  22.031  1.00  0.00    +0.000 C 
ATOM     90  C65 UNL A   1      31.347 -12.571  20.778  1.00  0.00    +0.000 C 
ATOM     91  C66 UNL A   1      32.729 -12.468  20.619  1.00  0.00    +0.000 C 
ATOM     92  C67 UNL A   1      33.577 -12.674  21.710  1.00  0.00    +0.000 C 
ATOM     96  C70 UNL A   1      33.017 -13.008  22.957  1.00  0.00    +0.000 C 
BRANCH   92   93
ATOM     93  C68 UNL A   1      35.063 -12.536  21.617  1.00  0.00    +0.000 C 
ATOM     95  O4  UNL A   1      35.716 -13.441  21.099  1.00  0.00    +0.000 O 
BRANCH   93   94
ATOM    143  H44 UNL A   1      36.827 -11.460  22.099  1.00  0.00    +0.000 H 
ATOM    141  H42 UNL A   1      35.495 -11.186  23.196  1.00  0.00    +0.000 H 
ATOM     94  C69 UNL A   1      35.769 -11.321  22.171  1.00  0.00    +0.000 C 
ATOM    142  H43 UNL A   1      35.483 -10.456  21.608  1.00  0.00    +0.000 H 
ENDBRANCH   93   94
ENDBRANCH   92   93
ENDBRANCH   88   89
ENDBRANCH   11   10
ENDBRANCH   12   11
ENDBRANCH   13   12
ENDBRANCH   15   13
ENDBRANCH   16   15
ENDBRANCH   17   16
ENDBRANCH   18   17
ENDBRANCH   19   18
ENDBRANCH   20   19
ENDBRANCH   21   20
ENDBRANCH   22   21
ENDBRANCH   23   22
ENDBRANCH   25   23
ENDBRANCH   29   28
BRANCH   33   34
ATOM     34  C28 UNL A   1      33.096  -9.694  26.195  1.00  0.00    +0.000 C 
ATOM     35  C29 UNL A   1      34.227  -8.843  26.196  1.00  0.00    +0.000 C 
ATOM     36  F1  UNL A   1      34.836  -8.518  27.348  1.00  0.00    +0.000 F 
ATOM     37  C30 UNL A   1      34.703  -8.241  25.032  1.00  0.00    +0.000 C 
ATOM     38  F2  UNL A   1      35.681  -7.327  25.104  1.00  0.00    +0.000 F 
ATOM     39  C31 UNL A   1      34.122  -8.534  23.814  1.00  0.00    +0.000 C 
ATOM     40  F3  UNL A   1      34.537  -7.913  22.701  1.00  0.00    +0.000 F 
ATOM     41  C32 UNL A   1      33.082  -9.445  23.759  1.00  0.00    +0.000 C 
ATOM     42  F4  UNL A   1      32.513  -9.733  22.579  1.00  0.00    +0.000 F 
ATOM     43  C33 UNL A   1      32.558  -9.998  24.932  1.00  0.00    +0.000 C 
ATOM     44  F5  UNL A   1      31.447 -10.735  24.812  1.00  0.00    +0.000 F 
ENDBRANCH   33   34
BRANCH   50   51
ATOM     51  C39 UNL A   1      27.326  -9.748  27.062  1.00  0.00    +0.000 C 
ATOM     52  C40 UNL A   1      27.808 -11.056  27.019  1.00  0.00    +0.000 C 
ATOM     53  F6  UNL A   1      28.759 -11.451  27.876  1.00  0.00    +0.000 F 
ATOM     54  C41 UNL A   1      27.310 -11.972  26.087  1.00  0.00    +0.000 C 
ATOM     55  F7  UNL A   1      27.785 -13.224  26.065  1.00  0.00    +0.000 F 
ATOM     56  C42 UNL A   1      26.321 -11.603  25.183  1.00  0.00    +0.000 C 
ATOM     57  F8  UNL A   1      25.835 -12.491  24.303  1.00  0.00    +0.000 F 
ATOM     58  C43 UNL A   1      25.830 -10.316  25.200  1.00  0.00    +0.000 C 
ATOM     59  F9  UNL A   1      24.858  -9.943  24.353  1.00  0.00    +0.000 F 
ATOM     60  C44 UNL A   1      26.337  -9.404  26.117  1.00  0.00    +0.000 C 
ATOM     61  F10 UNL A   1      25.826  -8.172  26.096  1.00  0.00    +0.000 F 
ENDBRANCH   50   51
BRANCH   65   66
ATOM     66  C48 UNL A   1      24.768 -10.550  32.506  1.00  0.00    +0.000 C 
ATOM     67  C49 UNL A   1      23.422 -10.695  32.142  1.00  0.00    +0.000 C 
ATOM     68  F11 UNL A   1      23.071 -10.965  30.881  1.00  0.00    +0.000 F 
ATOM     69  C50 UNL A   1      22.374 -10.533  33.067  1.00  0.00    +0.000 C 
ATOM     70  F12 UNL A   1      21.106 -10.721  32.673  1.00  0.00    +0.000 F 
ATOM     71  C51 UNL A   1      22.628 -10.185  34.382  1.00  0.00    +0.000 C 
ATOM     72  F13 UNL A   1      21.629 -10.063  35.265  1.00  0.00    +0.000 F 
ATOM     73  C52 UNL A   1      23.928  -9.955  34.766  1.00  0.00    +0.000 C 
ATOM     74  F14 UNL A   1      24.204  -9.592  36.027  1.00  0.00    +0.000 F 
ATOM     75  C53 UNL A   1      24.967 -10.114  33.846  1.00  0.00    +0.000 C 
ATOM     76  F15 UNL A   1      26.189  -9.834  34.317  1.00  0.00    +0.000 F 
ENDBRANCH   65   66
TORSDOF 23
ENDMDL
MODEL 8
REMARK VINA RESULT:      -9.6     47.093     55.455
ROOT
ATOM    129  H30 UNL A   1      13.543  48.985   8.636  1.00  0.00    +0.000 H 
ATOM    130  H31 UNL A   1      14.955  52.104   1.063  1.00  0.00    +0.000 H 
ATOM    131  H32 UNL A   1      14.376  53.943   2.704  1.00  0.00    +0.000 H 
ATOM    132  H33 UNL A   1      14.895  50.468   4.881  1.00  0.00    +0.000 H 
ATOM    133  H34 UNL A   1      18.063  49.130   3.858  1.00  0.00    +0.000 H 
ATOM    134  H35 UNL A   1      17.512  47.935   6.075  1.00  0.00    +0.000 H 
ATOM    135  H36 UNL A   1      13.880  53.552  10.012  1.00  0.00    +0.000 H 
ATOM    136  H37 UNL A   1      13.409  54.614   7.731  1.00  0.00    +0.000 H 
ATOM     29  C24 UNL A   1      14.509  53.221   5.468  1.00  0.00    +0.000 C 
ATOM     30  C25 UNL A   1      14.546  52.807   6.948  1.00  0.00    +0.000 C 
ATOM     31  N3  UNL A   1      15.103  51.787   7.542  1.00  0.00    +0.000 N 
ATOM     32  C26 UNL A   1      14.773  51.879   8.911  1.00  0.00    +0.000 C 
ATOM     33  C27 UNL A   1      14.893  50.867   9.821  1.00  0.00    +0.000 C 
ATOM     45  C34 UNL A   1      15.426  49.662   9.275  1.00  0.00    +0.000 C 
ATOM     46  C35 UNL A   1      16.611  48.966   9.278  1.00  0.00    +0.000 C 
ATOM     47  C36 UNL A   1      16.434  47.875   8.380  1.00  0.00    +0.000 C 
ATOM     48  C37 UNL A   1      15.212  48.070   7.749  1.00  0.00    +0.000 C 
ATOM     49  N4  UNL A   1      14.523  48.919   8.568  1.00  0.00    +0.000 N 
ATOM     50  C38 UNL A   1      14.617  47.789   6.477  1.00  0.00    +0.000 C 
ATOM     62  C45 UNL A   1      15.416  47.871   5.385  1.00  0.00    +0.000 C 
ATOM     63  N5  UNL A   1      14.898  48.111   4.131  1.00  0.00    +0.000 N 
ATOM     64  C46 UNL A   1      15.855  48.736   3.518  1.00  0.00    +0.000 C 
ATOM     65  C47 UNL A   1      15.681  49.583   2.327  1.00  0.00    +0.000 C 
ATOM     77  C54 UNL A   1      15.192  50.767   2.808  1.00  0.00    +0.000 C 
ATOM     78  C55 UNL A   1      14.919  51.995   2.088  1.00  0.00    +0.000 C 
ATOM     79  C56 UNL A   1      14.613  52.973   2.965  1.00  0.00    +0.000 C 
ATOM     80  C57 UNL A   1      14.660  52.464   4.348  1.00  0.00    +0.000 C 
ATOM     81  N6  UNL A   1      14.910  51.126   4.149  1.00  0.00    +0.000 N 
ATOM     82  C58 UNL A   1      17.158  48.758   4.183  1.00  0.00    +0.000 C 
ATOM     83  C59 UNL A   1      16.838  48.162   5.328  1.00  0.00    +0.000 C 
ATOM     84  C60 UNL A   1      14.132  53.148   9.096  1.00  0.00    +0.000 C 
ATOM     85  C61 UNL A   1      13.907  53.731   7.921  1.00  0.00    +0.000 C 
ATOM    127  H28 UNL A   1      17.459  49.190   9.821  1.00  0.00    +0.000 H 
ATOM    128  H29 UNL A   1      17.087  47.090   8.228  1.00  0.00    +0.000 H 
ENDROOT
BRANCH   29   28
ATOM    137  H38 UNL A   1      16.390  55.191   5.547  1.00  0.00    +0.000 H 
ATOM    138  H39 UNL A   1      16.096  57.536   4.975  1.00  0.00    +0.000 H 
ATOM     86  C62 UNL A   1      15.457  55.547   5.286  1.00  0.00    +0.000 C 
ATOM     87  C63 UNL A   1      15.289  56.893   4.953  1.00  0.00    +0.000 C 
ATOM     25  C20 UNL A   1      14.024  57.369   4.590  1.00  0.00    +0.000 C 
ATOM     26  C21 UNL A   1      12.919  56.506   4.609  1.00  0.00    +0.000 C 
ATOM     27  C22 UNL A   1      13.081  55.168   4.946  1.00  0.00    +0.000 C 
ATOM     28  C23 UNL A   1      14.354  54.682   5.266  1.00  0.00    +0.000 C 
ATOM    125  H26 UNL A   1      11.982  56.866   4.371  1.00  0.00    +0.000 H 
ATOM    126  H27 UNL A   1      12.267  54.535   4.961  1.00  0.00    +0.000 H 
BRANCH   25   23
ATOM     23  C19 UNL A   1      13.750  58.794   4.283  1.00  0.00    +0.000 C 
ATOM     24  O3  UNL A   1      13.511  59.570   5.193  1.00  0.00    +0.000 O 
BRANCH   23   22
ATOM    124  H25 UNL A   1      14.064  60.195   2.886  1.00  0.00    +0.000 H 
ATOM     22  N2  UNL A   1      13.746  59.270   2.997  1.00  0.00    +0.000 N 
BRANCH   22   21
ATOM    122  H23 UNL A   1      12.623  57.841   2.015  1.00  0.00    +0.000 H 
ATOM    123  H24 UNL A   1      12.911  59.320   1.113  1.00  0.00    +0.000 H 
ATOM     21  C18 UNL A   1      13.340  58.598   1.777  1.00  0.00    +0.000 C 
BRANCH   21   20
ATOM    121  H22 UNL A   1      15.358  58.024   1.780  1.00  0.00    +0.000 H 
ATOM     20  C17 UNL A   1      14.545  57.950   1.088  1.00  0.00    +0.000 C 
ATOM    120  H21 UNL A   1      14.720  58.468   0.168  1.00  0.00    +0.000 H 
BRANCH   20   19
ATOM     19  C16 UNL A   1      14.388  56.453   0.771  1.00  0.00    +0.000 C 
ATOM    118  H19 UNL A   1      13.567  56.079   1.346  1.00  0.00    +0.000 H 
ATOM    119  H20 UNL A   1      14.240  56.394  -0.288  1.00  0.00    +0.000 H 
BRANCH   19   18
ATOM     18  C15 UNL A   1      15.607  55.578   1.069  1.00  0.00    +0.000 C 
ATOM    116  H17 UNL A   1      15.304  54.797   1.734  1.00  0.00    +0.000 H 
ATOM    117  H18 UNL A   1      15.956  55.212   0.126  1.00  0.00    +0.000 H 
BRANCH   18   17
ATOM     17  C14 UNL A   1      16.779  56.318   1.707  1.00  0.00    +0.000 C 
ATOM    114  H15 UNL A   1      17.256  56.899   0.947  1.00  0.00    +0.000 H 
ATOM    115  H16 UNL A   1      16.363  56.907   2.497  1.00  0.00    +0.000 H 
BRANCH   17   16
ATOM    113  H14 UNL A   1      17.368  54.832   3.113  1.00  0.00    +0.000 H 
ATOM    112  H13 UNL A   1      18.600  56.039   2.783  1.00  0.00    +0.000 H 
ATOM     16  C13 UNL A   1      17.835  55.424   2.355  1.00  0.00    +0.000 C 
BRANCH   16   15
ATOM    111  H12 UNL A   1      18.427  53.582   1.600  1.00  0.00    +0.000 H 
ATOM     15  N1  UNL A   1      18.431  54.540   1.371  1.00  0.00    +0.000 N 
BRANCH   15   13
ATOM     13  C12 UNL A   1      18.994  54.860   0.172  1.00  0.00    +0.000 C 
ATOM     14  O2  UNL A   1      19.937  55.653   0.159  1.00  0.00    +0.000 O 
BRANCH   13   12
ATOM     12  C11 UNL A   1      18.430  54.297  -1.118  1.00  0.00    +0.000 C 
ATOM    109  H10 UNL A   1      17.632  54.930  -1.448  1.00  0.00    +0.000 H 
ATOM    110  H11 UNL A   1      19.229  54.262  -1.830  1.00  0.00    +0.000 H 
BRANCH   12   11
ATOM     11  C10 UNL A   1      17.891  52.876  -0.958  1.00  0.00    +0.000 C 
ATOM    108  H9  UNL A   1      17.015  52.936  -0.347  1.00  0.00    +0.000 H 
ATOM    107  H8  UNL A   1      18.654  52.272  -0.511  1.00  0.00    +0.000 H 
BRANCH   11   10
ATOM      7  C6  UNL A   1      16.195  51.099  -3.727  1.00  0.00    +0.000 C 
ATOM      8  C7  UNL A   1      17.492  51.137  -4.221  1.00  0.00    +0.000 C 
ATOM      9  C8  UNL A   1      18.293  51.855  -3.312  1.00  0.00    +0.000 C 
ATOM     10  C9  UNL A   1      17.485  52.244  -2.264  1.00  0.00    +0.000 C 
ATOM    105  H6  UNL A   1      17.813  50.710  -5.104  1.00  0.00    +0.000 H 
ATOM    106  H7  UNL A   1      19.301  52.053  -3.412  1.00  0.00    +0.000 H 
ATOM     88  N7  UNL A   1      16.169  51.974  -2.637  1.00  0.00    +0.000 N 
BRANCH    7    6
ATOM     98  C72 UNL A   1      14.497  51.088  -5.549  1.00  0.00    +0.000 C 
ATOM      3  C2  UNL A   1      12.718  49.442  -5.575  1.00  0.00    +0.000 C 
ATOM      4  C3  UNL A   1      13.240  48.878  -4.410  1.00  0.00    +0.000 C 
ATOM      5  C4  UNL A   1      14.394  49.402  -3.825  1.00  0.00    +0.000 C 
ATOM     99  C73 UNL A   1      13.344  50.553  -6.141  1.00  0.00    +0.000 C 
ATOM    103  H4  UNL A   1      12.769  48.069  -3.977  1.00  0.00    +0.000 H 
ATOM      6  C5  UNL A   1      15.033  50.510  -4.392  1.00  0.00    +0.000 C 
ATOM    104  H5  UNL A   1      14.778  48.970  -2.971  1.00  0.00    +0.000 H 
ATOM    146  H47 UNL A   1      14.955  51.911  -5.970  1.00  0.00    +0.000 H 
ATOM    147  H48 UNL A   1      12.957  50.983  -6.997  1.00  0.00    +0.000 H 
BRANCH    3    2
ATOM      2  O1  UNL A   1      11.567  48.867  -6.038  1.00  0.00    +0.000 O 
BRANCH    2    1
ATOM      1  C1  UNL A   1      11.677  48.217  -7.299  1.00  0.00    +0.000 C 
ATOM    100  H1  UNL A   1      11.447  47.178  -7.187  1.00  0.00    +0.000 H 
ATOM    101  H2  UNL A   1      12.676  48.324  -7.670  1.00  0.00    +0.000 H 
ATOM    102  H3  UNL A   1      10.991  48.661  -7.989  1.00  0.00    +0.000 H 
ENDBRANCH    2    1
ENDBRANCH    3    2
ENDBRANCH    7    6
BRANCH   88   89
ATOM     97  C71 UNL A   1      14.109  52.160  -1.308  1.00  0.00    +0.000 C 
ATOM    139  H40 UNL A   1      15.480  54.335  -3.462  1.00  0.00    +0.000 H 
ATOM    140  H41 UNL A   1      13.429  55.539  -3.002  1.00  0.00    +0.000 H 
ATOM    144  H45 UNL A   1      12.261  52.490  -0.347  1.00  0.00    +0.000 H 
ATOM    145  H46 UNL A   1      14.288  51.248  -0.858  1.00  0.00    +0.000 H 
ATOM     89  C64 UNL A   1      15.030  52.700  -2.202  1.00  0.00    +0.000 C 
ATOM     90  C65 UNL A   1      14.785  53.936  -2.812  1.00  0.00    +0.000 C 
ATOM     91  C66 UNL A   1      13.606  54.632  -2.544  1.00  0.00    +0.000 C 
ATOM     92  C67 UNL A   1      12.665  54.101  -1.658  1.00  0.00    +0.000 C 
ATOM     96  C70 UNL A   1      12.936  52.872  -1.027  1.00  0.00    +0.000 C 
BRANCH   92   93
ATOM     93  C68 UNL A   1      11.363  54.774  -1.361  1.00  0.00    +0.000 C 
ATOM     95  O4  UNL A   1      10.335  54.099  -1.323  1.00  0.00    +0.000 O 
BRANCH   93   94
ATOM    143  H44 UNL A   1      11.947  56.763  -1.816  1.00  0.00    +0.000 H 
ATOM    141  H42 UNL A   1      11.590  56.486  -0.129  1.00  0.00    +0.000 H 
ATOM     94  C69 UNL A   1      11.292  56.265  -1.132  1.00  0.00    +0.000 C 
ATOM    142  H43 UNL A   1      10.288  56.602  -1.289  1.00  0.00    +0.000 H 
ENDBRANCH   93   94
ENDBRANCH   92   93
ENDBRANCH   88   89
ENDBRANCH   11   10
ENDBRANCH   12   11
ENDBRANCH   13   12
ENDBRANCH   15   13
ENDBRANCH   16   15
ENDBRANCH   17   16
ENDBRANCH   18   17
ENDBRANCH   19   18
ENDBRANCH   20   19
ENDBRANCH   21   20
ENDBRANCH   22   21
ENDBRANCH   23   22
ENDBRANCH   25   23
ENDBRANCH   29   28
BRANCH   33   34
ATOM     34  C28 UNL A   1      14.222  50.730  11.172  1.00  0.00    +0.000 C 
ATOM     35  C29 UNL A   1      12.820  50.902  11.254  1.00  0.00    +0.000 C 
ATOM     36  F1  UNL A   1      12.051  50.777  10.161  1.00  0.00    +0.000 F 
ATOM     37  C30 UNL A   1      12.188  51.289  12.436  1.00  0.00    +0.000 C 
ATOM     38  F2  UNL A   1      10.881  51.585  12.428  1.00  0.00    +0.000 F 
ATOM     39  C31 UNL A   1      12.921  51.433  13.597  1.00  0.00    +0.000 C 
ATOM     40  F3  UNL A   1      12.329  51.862  14.720  1.00  0.00    +0.000 F 
ATOM     41  C32 UNL A   1      14.280  51.169  13.580  1.00  0.00    +0.000 C 
ATOM     42  F4  UNL A   1      14.997  51.309  14.705  1.00  0.00    +0.000 F 
ATOM     43  C33 UNL A   1      14.927  50.847  12.384  1.00  0.00    +0.000 C 
ATOM     44  F5  UNL A   1      16.264  50.775  12.417  1.00  0.00    +0.000 F 
ENDBRANCH   33   34
BRANCH   50   51
ATOM     51  C39 UNL A   1      13.151  47.943   6.159  1.00  0.00    +0.000 C 
ATOM     52  C40 UNL A   1      12.343  46.841   5.878  1.00  0.00    +0.000 C 
ATOM     53  F6  UNL A   1      12.836  45.600   5.989  1.00  0.00    +0.000 F 
ATOM     54  C41 UNL A   1      11.013  47.010   5.480  1.00  0.00    +0.000 C 
ATOM     55  F7  UNL A   1      10.254  45.939   5.219  1.00  0.00    +0.000 F 
ATOM     56  C42 UNL A   1      10.462  48.281   5.356  1.00  0.00    +0.000 C 
ATOM     57  F8  UNL A   1       9.182  48.436   4.991  1.00  0.00    +0.000 F 
ATOM     58  C43 UNL A   1      11.239  49.387   5.623  1.00  0.00    +0.000 C 
ATOM     59  F9  UNL A   1      10.723  50.623   5.534  1.00  0.00    +0.000 F 
ATOM     60  C44 UNL A   1      12.564  49.216   6.004  1.00  0.00    +0.000 C 
ATOM     61  F10 UNL A   1      13.273  50.318   6.254  1.00  0.00    +0.000 F 
ENDBRANCH   50   51
BRANCH   65   66
ATOM     66  C48 UNL A   1      16.168  49.039   1.009  1.00  0.00    +0.000 C 
ATOM     67  C49 UNL A   1      15.464  48.158   0.177  1.00  0.00    +0.000 C 
ATOM     68  F11 UNL A   1      14.314  47.603   0.570  1.00  0.00    +0.000 F 
ATOM     69  C50 UNL A   1      15.941  47.786  -1.093  1.00  0.00    +0.000 C 
ATOM     70  F12 UNL A   1      15.208  46.968  -1.864  1.00  0.00    +0.000 F 
ATOM     71  C51 UNL A   1      17.155  48.251  -1.566  1.00  0.00    +0.000 C 
ATOM     72  F13 UNL A   1      17.589  47.918  -2.789  1.00  0.00    +0.000 F 
ATOM     73  C52 UNL A   1      17.917  49.055  -0.753  1.00  0.00    +0.000 C 
ATOM     74  F14 UNL A   1      19.110  49.502  -1.172  1.00  0.00    +0.000 F 
ATOM     75  C53 UNL A   1      17.444  49.422   0.509  1.00  0.00    +0.000 C 
ATOM     76  F15 UNL A   1      18.280  50.181   1.230  1.00  0.00    +0.000 F 
ENDBRANCH   65   66
TORSDOF 23
ENDMDL
MODEL 9
REMARK VINA RESULT:      -9.5     24.843     31.079
ROOT
ATOM    129  H30 UNL A   1      43.139  30.790  32.954  1.00  0.00    +0.000 H 
ATOM    130  H31 UNL A   1      38.034  29.563  26.512  1.00  0.00    +0.000 H 
ATOM    131  H32 UNL A   1      39.914  27.867  26.511  1.00  0.00    +0.000 H 
ATOM    132  H33 UNL A   1      40.109  29.919  30.094  1.00  0.00    +0.000 H 
ATOM    133  H34 UNL A   1      36.806  29.779  31.489  1.00  0.00    +0.000 H 
ATOM    134  H35 UNL A   1      38.340  30.440  33.453  1.00  0.00    +0.000 H 
ATOM    135  H36 UNL A   1      44.791  26.453  31.804  1.00  0.00    +0.000 H 
ATOM    136  H37 UNL A   1      43.947  26.414  29.388  1.00  0.00    +0.000 H 
ATOM     29  C24 UNL A   1      41.390  27.655  28.951  1.00  0.00    +0.000 C 
ATOM     30  C25 UNL A   1      42.199  27.581  30.256  1.00  0.00    +0.000 C 
ATOM     31  N3  UNL A   1      41.927  28.000  31.462  1.00  0.00    +0.000 N 
ATOM     32  C26 UNL A   1      43.054  27.712  32.261  1.00  0.00    +0.000 C 
ATOM     33  C27 UNL A   1      43.308  28.249  33.491  1.00  0.00    +0.000 C 
ATOM     45  C34 UNL A   1      42.295  29.143  33.948  1.00  0.00    +0.000 C 
ATOM     46  C35 UNL A   1      41.258  29.149  34.850  1.00  0.00    +0.000 C 
ATOM     47  C36 UNL A   1      40.577  30.386  34.665  1.00  0.00    +0.000 C 
ATOM     48  C37 UNL A   1      41.133  30.986  33.542  1.00  0.00    +0.000 C 
ATOM     49  N4  UNL A   1      42.353  30.390  33.391  1.00  0.00    +0.000 N 
ATOM     50  C38 UNL A   1      40.711  31.852  32.482  1.00  0.00    +0.000 C 
ATOM     62  C45 UNL A   1      39.449  31.693  32.015  1.00  0.00    +0.000 C 
ATOM     63  N5  UNL A   1      39.099  32.083  30.739  1.00  0.00    +0.000 N 
ATOM     64  C46 UNL A   1      38.145  31.267  30.420  1.00  0.00    +0.000 C 
ATOM     65  C47 UNL A   1      37.717  30.968  29.043  1.00  0.00    +0.000 C 
ATOM     77  C54 UNL A   1      38.652  30.089  28.569  1.00  0.00    +0.000 C 
ATOM     78  C55 UNL A   1      38.681  29.393  27.298  1.00  0.00    +0.000 C 
ATOM     79  C56 UNL A   1      39.682  28.490  27.301  1.00  0.00    +0.000 C 
ATOM     80  C57 UNL A   1      40.401  28.516  28.587  1.00  0.00    +0.000 C 
ATOM     81  N6  UNL A   1      39.786  29.562  29.234  1.00  0.00    +0.000 N 
ATOM     82  C58 UNL A   1      37.599  30.439  31.495  1.00  0.00    +0.000 C 
ATOM     83  C59 UNL A   1      38.421  30.779  32.483  1.00  0.00    +0.000 C 
ATOM     84  C60 UNL A   1      43.936  26.915  31.458  1.00  0.00    +0.000 C 
ATOM     85  C61 UNL A   1      43.496  26.857  30.203  1.00  0.00    +0.000 C 
ATOM    127  H28 UNL A   1      41.020  28.405  35.524  1.00  0.00    +0.000 H 
ATOM    128  H29 UNL A   1      39.817  30.765  35.253  1.00  0.00    +0.000 H 
ENDROOT
BRANCH   29   28
ATOM    137  H38 UNL A   1      42.996  27.700  26.751  1.00  0.00    +0.000 H 
ATOM    138  H39 UNL A   1      43.654  25.814  25.365  1.00  0.00    +0.000 H 
ATOM     86  C62 UNL A   1      42.613  26.760  26.941  1.00  0.00    +0.000 C 
ATOM     87  C63 UNL A   1      42.995  25.675  26.148  1.00  0.00    +0.000 C 
ATOM     25  C20 UNL A   1      42.483  24.401  26.415  1.00  0.00    +0.000 C 
ATOM     26  C21 UNL A   1      41.550  24.225  27.447  1.00  0.00    +0.000 C 
ATOM     27  C22 UNL A   1      41.163  25.302  28.234  1.00  0.00    +0.000 C 
ATOM     28  C23 UNL A   1      41.710  26.568  27.994  1.00  0.00    +0.000 C 
ATOM    125  H26 UNL A   1      41.150  23.290  27.623  1.00  0.00    +0.000 H 
ATOM    126  H27 UNL A   1      40.475  25.170  28.992  1.00  0.00    +0.000 H 
BRANCH   25   23
ATOM     23  C19 UNL A   1      42.789  23.212  25.584  1.00  0.00    +0.000 C 
ATOM     24  O3  UNL A   1      42.255  22.146  25.839  1.00  0.00    +0.000 O 
BRANCH   23   22
ATOM    124  H25 UNL A   1      43.267  23.189  23.639  1.00  0.00    +0.000 H 
ATOM     22  N2  UNL A   1      43.669  23.270  24.534  1.00  0.00    +0.000 N 
BRANCH   22   21
ATOM    122  H23 UNL A   1      45.534  22.958  23.701  1.00  0.00    +0.000 H 
ATOM    123  H24 UNL A   1      45.337  24.481  24.553  1.00  0.00    +0.000 H 
ATOM     21  C18 UNL A   1      45.110  23.435  24.559  1.00  0.00    +0.000 C 
BRANCH   21   20
ATOM    121  H22 UNL A   1      46.585  22.288  25.513  1.00  0.00    +0.000 H 
ATOM     20  C17 UNL A   1      45.704  22.809  25.825  1.00  0.00    +0.000 C 
ATOM    120  H21 UNL A   1      44.963  22.170  26.259  1.00  0.00    +0.000 H 
BRANCH   20   19
ATOM     19  C16 UNL A   1      46.158  23.812  26.899  1.00  0.00    +0.000 C 
ATOM    118  H19 UNL A   1      45.288  24.144  27.427  1.00  0.00    +0.000 H 
ATOM    119  H20 UNL A   1      46.862  23.286  27.509  1.00  0.00    +0.000 H 
BRANCH   19   18
ATOM     18  C15 UNL A   1      46.896  25.050  26.385  1.00  0.00    +0.000 C 
ATOM    116  H17 UNL A   1      47.715  24.723  25.780  1.00  0.00    +0.000 H 
ATOM    117  H18 UNL A   1      46.179  25.629  25.843  1.00  0.00    +0.000 H 
BRANCH   18   17
ATOM     17  C14 UNL A   1      47.448  25.959  27.480  1.00  0.00    +0.000 C 
ATOM    114  H15 UNL A   1      47.916  26.797  27.009  1.00  0.00    +0.000 H 
ATOM    115  H16 UNL A   1      46.613  26.225  28.093  1.00  0.00    +0.000 H 
BRANCH   17   16
ATOM    113  H14 UNL A   1      49.452  25.538  28.061  1.00  0.00    +0.000 H 
ATOM    112  H13 UNL A   1      48.315  24.248  28.414  1.00  0.00    +0.000 H 
ATOM     16  C13 UNL A   1      48.468  25.307  28.412  1.00  0.00    +0.000 C 
BRANCH   16   15
ATOM    111  H12 UNL A   1      47.404  26.030  30.042  1.00  0.00    +0.000 H 
ATOM     15  N1  UNL A   1      48.323  25.813  29.764  1.00  0.00    +0.000 N 
BRANCH   15   13
ATOM     13  C12 UNL A   1      49.292  26.026  30.699  1.00  0.00    +0.000 C 
ATOM     14  O2  UNL A   1      49.895  27.099  30.685  1.00  0.00    +0.000 O 
BRANCH   13   12
ATOM     12  C11 UNL A   1      49.654  24.939  31.693  1.00  0.00    +0.000 C 
ATOM    109  H10 UNL A   1      48.869  24.212  31.708  1.00  0.00    +0.000 H 
ATOM    110  H11 UNL A   1      50.584  24.512  31.378  1.00  0.00    +0.000 H 
BRANCH   12   11
ATOM     11  C10 UNL A   1      49.851  25.476  33.110  1.00  0.00    +0.000 C 
ATOM    108  H9  UNL A   1      49.700  26.534  33.073  1.00  0.00    +0.000 H 
ATOM    107  H8  UNL A   1      50.838  25.221  33.437  1.00  0.00    +0.000 H 
BRANCH   11   10
ATOM      7  C6  UNL A   1      47.555  23.376  35.115  1.00  0.00    +0.000 C 
ATOM      8  C7  UNL A   1      47.095  24.639  35.463  1.00  0.00    +0.000 C 
ATOM      9  C8  UNL A   1      47.913  25.599  34.835  1.00  0.00    +0.000 C 
ATOM     10  C9  UNL A   1      48.861  24.917  34.099  1.00  0.00    +0.000 C 
ATOM    105  H6  UNL A   1      46.291  24.839  36.078  1.00  0.00    +0.000 H 
ATOM    106  H7  UNL A   1      47.819  26.624  34.910  1.00  0.00    +0.000 H 
ATOM     88  N7  UNL A   1      48.773  23.573  34.458  1.00  0.00    +0.000 N 
BRANCH    7    6
ATOM     98  C72 UNL A   1      46.380  21.212  34.739  1.00  0.00    +0.000 C 
ATOM      3  C2  UNL A   1      45.913  19.718  36.588  1.00  0.00    +0.000 C 
ATOM      4  C3  UNL A   1      46.543  20.612  37.454  1.00  0.00    +0.000 C 
ATOM      5  C4  UNL A   1      47.107  21.792  36.965  1.00  0.00    +0.000 C 
ATOM     99  C73 UNL A   1      45.824  20.022  35.229  1.00  0.00    +0.000 C 
ATOM    103  H4  UNL A   1      46.593  20.400  38.462  1.00  0.00    +0.000 H 
ATOM      6  C5  UNL A   1      47.031  22.100  35.604  1.00  0.00    +0.000 C 
ATOM    104  H5  UNL A   1      47.582  22.440  37.613  1.00  0.00    +0.000 H 
ATOM    146  H47 UNL A   1      46.310  21.435  33.734  1.00  0.00    +0.000 H 
ATOM    147  H48 UNL A   1      45.349  19.371  34.584  1.00  0.00    +0.000 H 
BRANCH    3    2
ATOM      2  O1  UNL A   1      45.369  18.613  37.183  1.00  0.00    +0.000 O 
BRANCH    2    1
ATOM      1  C1  UNL A   1      45.868  18.316  38.482  1.00  0.00    +0.000 C 
ATOM    100  H1  UNL A   1      45.428  17.406  38.835  1.00  0.00    +0.000 H 
ATOM    101  H2  UNL A   1      45.620  19.114  39.152  1.00  0.00    +0.000 H 
ATOM    102  H3  UNL A   1      46.931  18.205  38.439  1.00  0.00    +0.000 H 
ENDBRANCH    2    1
ENDBRANCH    3    2
ENDBRANCH    7    6
BRANCH   88   89
ATOM     97  C71 UNL A   1      49.919  21.609  33.526  1.00  0.00    +0.000 C 
ATOM    139  H40 UNL A   1      50.733  23.523  36.157  1.00  0.00    +0.000 H 
ATOM    140  H41 UNL A   1      52.459  21.841  36.397  1.00  0.00    +0.000 H 
ATOM    144  H45 UNL A   1      51.006  19.892  32.962  1.00  0.00    +0.000 H 
ATOM    145  H46 UNL A   1      49.232  21.542  32.758  1.00  0.00    +0.000 H 
ATOM     89  C64 UNL A   1      49.851  22.651  34.447  1.00  0.00    +0.000 C 
ATOM     90  C65 UNL A   1      50.783  22.740  35.488  1.00  0.00    +0.000 C 
ATOM     91  C66 UNL A   1      51.780  21.773  35.624  1.00  0.00    +0.000 C 
ATOM     92  C67 UNL A   1      51.858  20.714  34.716  1.00  0.00    +0.000 C 
ATOM     96  C70 UNL A   1      50.934  20.653  33.655  1.00  0.00    +0.000 C 
BRANCH   92   93
ATOM     93  C68 UNL A   1      52.874  19.623  34.830  1.00  0.00    +0.000 C 
ATOM     95  O4  UNL A   1      53.074  19.105  35.928  1.00  0.00    +0.000 O 
BRANCH   93   94
ATOM    143  H44 UNL A   1      53.379  18.176  33.362  1.00  0.00    +0.000 H 
ATOM    141  H42 UNL A   1      54.713  19.187  33.866  1.00  0.00    +0.000 H 
ATOM     94  C69 UNL A   1      53.670  19.171  33.629  1.00  0.00    +0.000 C 
ATOM    142  H43 UNL A   1      53.481  19.831  32.807  1.00  0.00    +0.000 H 
ENDBRANCH   93   94
ENDBRANCH   92   93
ENDBRANCH   88   89
ENDBRANCH   11   10
ENDBRANCH   12   11
ENDBRANCH   13   12
ENDBRANCH   15   13
ENDBRANCH   16   15
ENDBRANCH   17   16
ENDBRANCH   18   17
ENDBRANCH   19   18
ENDBRANCH   20   19
ENDBRANCH   21   20
ENDBRANCH   22   21
ENDBRANCH   23   22
ENDBRANCH   25   23
ENDBRANCH   29   28
BRANCH   33   34
ATOM     34  C28 UNL A   1      44.626  28.322  34.235  1.00  0.00    +0.000 C 
ATOM     35  C29 UNL A   1      44.738  27.661  35.481  1.00  0.00    +0.000 C 
ATOM     36  F1  UNL A   1      43.890  26.675  35.811  1.00  0.00    +0.000 F 
ATOM     37  C30 UNL A   1      45.664  28.054  36.447  1.00  0.00    +0.000 C 
ATOM     38  F2  UNL A   1      45.633  27.499  37.667  1.00  0.00    +0.000 F 
ATOM     39  C31 UNL A   1      46.567  29.062  36.171  1.00  0.00    +0.000 C 
ATOM     40  F3  UNL A   1      47.419  29.483  37.116  1.00  0.00    +0.000 F 
ATOM     41  C32 UNL A   1      46.558  29.660  34.923  1.00  0.00    +0.000 C 
ATOM     42  F4  UNL A   1      47.431  30.640  34.649  1.00  0.00    +0.000 F 
ATOM     43  C33 UNL A   1      45.587  29.315  33.977  1.00  0.00    +0.000 C 
ATOM     44  F5  UNL A   1      45.537  30.055  32.862  1.00  0.00    +0.000 F 
ENDBRANCH   33   34
BRANCH   50   51
ATOM     51  C39 UNL A   1      41.636  32.519  31.495  1.00  0.00    +0.000 C 
ATOM     52  C40 UNL A   1      42.350  31.784  30.549  1.00  0.00    +0.000 C 
ATOM     53  F6  UNL A   1      42.145  30.465  30.428  1.00  0.00    +0.000 F 
ATOM     54  C41 UNL A   1      43.284  32.405  29.714  1.00  0.00    +0.000 C 
ATOM     55  F7  UNL A   1      43.955  31.681  28.810  1.00  0.00    +0.000 F 
ATOM     56  C42 UNL A   1      43.523  33.772  29.805  1.00  0.00    +0.000 C 
ATOM     57  F8  UNL A   1      44.407  34.365  28.990  1.00  0.00    +0.000 F 
ATOM     58  C43 UNL A   1      42.835  34.522  30.735  1.00  0.00    +0.000 C 
ATOM     59  F9  UNL A   1      43.032  35.846  30.825  1.00  0.00    +0.000 F 
ATOM     60  C44 UNL A   1      41.919  33.898  31.573  1.00  0.00    +0.000 C 
ATOM     61  F10 UNL A   1      41.278  34.669  32.453  1.00  0.00    +0.000 F 
ENDBRANCH   50   51
BRANCH   65   66
ATOM     66  C48 UNL A   1      36.403  31.543  28.583  1.00  0.00    +0.000 C 
ATOM     67  C49 UNL A   1      35.274  30.805  28.205  1.00  0.00    +0.000 C 
ATOM     68  F11 UNL A   1      35.322  29.474  28.090  1.00  0.00    +0.000 F 
ATOM     69  C50 UNL A   1      34.046  31.419  27.897  1.00  0.00    +0.000 C 
ATOM     70  F12 UNL A   1      32.986  30.661  27.577  1.00  0.00    +0.000 F 
ATOM     71  C51 UNL A   1      33.909  32.795  27.919  1.00  0.00    +0.000 C 
ATOM     72  F13 UNL A   1      32.730  33.373  27.655  1.00  0.00    +0.000 F 
ATOM     73  C52 UNL A   1      35.011  33.565  28.207  1.00  0.00    +0.000 C 
ATOM     74  F14 UNL A   1      34.917  34.903  28.212  1.00  0.00    +0.000 F 
ATOM     75  C53 UNL A   1      36.229  32.954  28.511  1.00  0.00    +0.000 C 
ATOM     76  F15 UNL A   1      37.244  33.797  28.745  1.00  0.00    +0.000 F 
ENDBRANCH   65   66
TORSDOF 23
ENDMDL
MODEL 10
REMARK VINA RESULT:      -9.5     59.924     65.286
ROOT
ATOM    129  H30 UNL A   1      22.226  22.809 -11.288  1.00  0.00    +0.000 H 
ATOM    130  H31 UNL A   1      27.825  28.559 -13.445  1.00  0.00    +0.000 H 
ATOM    131  H32 UNL A   1      28.485  26.280 -14.326  1.00  0.00    +0.000 H 
ATOM    132  H33 UNL A   1      24.649  25.955 -12.824  1.00  0.00    +0.000 H 
ATOM    133  H34 UNL A   1      22.772  28.615 -14.333  1.00  0.00    +0.000 H 
ATOM    134  H35 UNL A   1      21.003  26.977 -13.420  1.00  0.00    +0.000 H 
ATOM    135  H36 UNL A   1      24.488  20.133 -14.541  1.00  0.00    +0.000 H 
ATOM    136  H37 UNL A   1      26.685  21.448 -14.572  1.00  0.00    +0.000 H 
ATOM     29  C24 UNL A   1      26.424  24.299 -14.300  1.00  0.00    +0.000 C 
ATOM     30  C25 UNL A   1      25.316  23.234 -14.242  1.00  0.00    +0.000 C 
ATOM     31  N3  UNL A   1      24.023  23.344 -14.110  1.00  0.00    +0.000 N 
ATOM     32  C26 UNL A   1      23.501  22.034 -14.069  1.00  0.00    +0.000 C 
ATOM     33  C27 UNL A   1      22.249  21.696 -13.640  1.00  0.00    +0.000 C 
ATOM     45  C34 UNL A   1      21.456  22.813 -13.242  1.00  0.00    +0.000 C 
ATOM     46  C35 UNL A   1      20.409  23.558 -13.730  1.00  0.00    +0.000 C 
ATOM     47  C36 UNL A   1      20.223  24.632 -12.813  1.00  0.00    +0.000 C 
ATOM     48  C37 UNL A   1      21.280  24.577 -11.912  1.00  0.00    +0.000 C 
ATOM     49  N4  UNL A   1      21.752  23.298 -11.999  1.00  0.00    +0.000 N 
ATOM     50  C38 UNL A   1      22.056  25.491 -11.130  1.00  0.00    +0.000 C 
ATOM     62  C45 UNL A   1      22.326  26.702 -11.675  1.00  0.00    +0.000 C 
ATOM     63  N5  UNL A   1      23.419  27.443 -11.278  1.00  0.00    +0.000 N 
ATOM     64  C46 UNL A   1      23.730  28.122 -12.336  1.00  0.00    +0.000 C 
ATOM     65  C47 UNL A   1      25.046  28.731 -12.590  1.00  0.00    +0.000 C 
ATOM     77  C54 UNL A   1      25.839  27.695 -13.000  1.00  0.00    +0.000 C 
ATOM     78  C55 UNL A   1      27.210  27.731 -13.468  1.00  0.00    +0.000 C 
ATOM     79  C56 UNL A   1      27.559  26.516 -13.937  1.00  0.00    +0.000 C 
ATOM     80  C57 UNL A   1      26.434  25.571 -13.818  1.00  0.00    +0.000 C 
ATOM     81  N6  UNL A   1      25.495  26.330 -13.159  1.00  0.00    +0.000 N 
ATOM     82  C58 UNL A   1      22.768  28.103 -13.438  1.00  0.00    +0.000 C 
ATOM     83  C59 UNL A   1      21.885  27.236 -12.952  1.00  0.00    +0.000 C 
ATOM     84  C60 UNL A   1      24.585  21.148 -14.380  1.00  0.00    +0.000 C 
ATOM     85  C61 UNL A   1      25.733  21.820 -14.432  1.00  0.00    +0.000 C 
ATOM    127  H28 UNL A   1      19.869  23.377 -14.590  1.00  0.00    +0.000 H 
ATOM    128  H29 UNL A   1      19.452  25.317 -12.815  1.00  0.00    +0.000 H 
ENDROOT
BRANCH   29   28
ATOM    137  H38 UNL A   1      26.999  24.612 -16.945  1.00  0.00    +0.000 H 
ATOM    138  H39 UNL A   1      29.087  24.083 -18.074  1.00  0.00    +0.000 H 
ATOM     86  C62 UNL A   1      27.772  24.170 -16.423  1.00  0.00    +0.000 C 
ATOM     87  C63 UNL A   1      28.973  23.871 -17.070  1.00  0.00    +0.000 C 
ATOM     25  C20 UNL A   1      30.022  23.281 -16.356  1.00  0.00    +0.000 C 
ATOM     26  C21 UNL A   1      29.848  22.947 -15.005  1.00  0.00    +0.000 C 
ATOM     27  C22 UNL A   1      28.653  23.238 -14.360  1.00  0.00    +0.000 C 
ATOM     28  C23 UNL A   1      27.620  23.868 -15.063  1.00  0.00    +0.000 C 
ATOM    125  H26 UNL A   1      30.612  22.484 -14.489  1.00  0.00    +0.000 H 
ATOM    126  H27 UNL A   1      28.527  22.989 -13.366  1.00  0.00    +0.000 H 
BRANCH   25   23
ATOM     23  C19 UNL A   1      31.304  22.876 -16.982  1.00  0.00    +0.000 C 
ATOM     24  O3  UNL A   1      31.412  22.892 -18.197  1.00  0.00    +0.000 O 
BRANCH   23   22
ATOM    124  H25 UNL A   1      32.448  21.499 -16.084  1.00  0.00    +0.000 H 
ATOM     22  N2  UNL A   1      32.378  22.469 -16.233  1.00  0.00    +0.000 N 
BRANCH   22   21
ATOM    122  H23 UNL A   1      34.377  22.843 -15.868  1.00  0.00    +0.000 H 
ATOM    123  H24 UNL A   1      33.362  24.268 -16.017  1.00  0.00    +0.000 H 
ATOM     21  C18 UNL A   1      33.426  23.271 -15.631  1.00  0.00    +0.000 C 
BRANCH   21   20
ATOM    121  H22 UNL A   1      34.235  23.129 -13.700  1.00  0.00    +0.000 H 
ATOM     20  C17 UNL A   1      33.264  23.321 -14.109  1.00  0.00    +0.000 C 
ATOM    120  H21 UNL A   1      32.533  22.591 -13.829  1.00  0.00    +0.000 H 
BRANCH   20   19
ATOM     19  C16 UNL A   1      32.821  24.681 -13.543  1.00  0.00    +0.000 C 
ATOM    118  H19 UNL A   1      33.702  25.252 -13.335  1.00  0.00    +0.000 H 
ATOM    119  H20 UNL A   1      32.188  25.114 -14.289  1.00  0.00    +0.000 H 
BRANCH   19   18
ATOM     18  C15 UNL A   1      31.982  24.630 -12.265  1.00  0.00    +0.000 C 
ATOM    116  H17 UNL A   1      31.643  23.625 -12.127  1.00  0.00    +0.000 H 
ATOM    117  H18 UNL A   1      32.614  24.971 -11.472  1.00  0.00    +0.000 H 
BRANCH   18   17
ATOM     17  C14 UNL A   1      30.762  25.546 -12.271  1.00  0.00    +0.000 C 
ATOM    114  H15 UNL A   1      31.091  26.538 -12.042  1.00  0.00    +0.000 H 
ATOM    115  H16 UNL A   1      30.326  25.454 -13.243  1.00  0.00    +0.000 H 
BRANCH   17   16
ATOM    113  H14 UNL A   1      29.244  24.230 -11.566  1.00  0.00    +0.000 H 
ATOM    112  H13 UNL A   1      28.910  25.930 -11.283  1.00  0.00    +0.000 H 
ATOM     16  C13 UNL A   1      29.664  25.170 -11.277  1.00  0.00    +0.000 C 
BRANCH   16   15
ATOM    111  H12 UNL A   1      31.158  24.803  -9.882  1.00  0.00    +0.000 H 
ATOM     15  N1  UNL A   1      30.205  25.048  -9.937  1.00  0.00    +0.000 N 
BRANCH   15   13
ATOM     13  C12 UNL A   1      29.569  25.227  -8.745  1.00  0.00    +0.000 C 
ATOM     14  O2  UNL A   1      28.453  25.748  -8.747  1.00  0.00    +0.000 O 
BRANCH   13   12
ATOM     12  C11 UNL A   1      30.250  24.846  -7.444  1.00  0.00    +0.000 C 
ATOM    109  H10 UNL A   1      31.112  25.466  -7.314  1.00  0.00    +0.000 H 
ATOM    110  H11 UNL A   1      29.538  24.984  -6.657  1.00  0.00    +0.000 H 
BRANCH   12   11
ATOM     11  C10 UNL A   1      30.692  23.383  -7.415  1.00  0.00    +0.000 C 
ATOM    108  H9  UNL A   1      31.132  23.203  -6.456  1.00  0.00    +0.000 H 
ATOM    107  H8  UNL A   1      31.387  23.222  -8.213  1.00  0.00    +0.000 H 
BRANCH   11   10
ATOM      7  C6  UNL A   1      28.100  21.037  -8.629  1.00  0.00    +0.000 C 
ATOM      8  C7  UNL A   1      27.576  21.353  -7.383  1.00  0.00    +0.000 C 
ATOM      9  C8  UNL A   1      28.483  22.206  -6.723  1.00  0.00    +0.000 C 
ATOM     10  C9  UNL A   1      29.550  22.413  -7.573  1.00  0.00    +0.000 C 
ATOM    105  H6  UNL A   1      26.675  21.020  -7.006  1.00  0.00    +0.000 H 
ATOM    106  H7  UNL A   1      28.368  22.604  -5.778  1.00  0.00    +0.000 H 
ATOM     88  N7  UNL A   1      29.412  21.519  -8.633  1.00  0.00    +0.000 N 
BRANCH    7    6
ATOM     98  C72 UNL A   1      26.545  20.573 -10.519  1.00  0.00    +0.000 C 
ATOM      3  C2  UNL A   1      26.290  18.326 -11.391  1.00  0.00    +0.000 C 
ATOM      4  C3  UNL A   1      27.236  17.875 -10.470  1.00  0.00    +0.000 C 
ATOM      5  C4  UNL A   1      27.849  18.768  -9.589  1.00  0.00    +0.000 C 
ATOM     99  C73 UNL A   1      25.939  19.676 -11.410  1.00  0.00    +0.000 C 
ATOM    103  H4  UNL A   1      27.484  16.874 -10.439  1.00  0.00    +0.000 H 
ATOM      6  C5  UNL A   1      27.510  20.124  -9.609  1.00  0.00    +0.000 C 
ATOM    104  H5  UNL A   1      28.557  18.425  -8.921  1.00  0.00    +0.000 H 
ATOM    146  H47 UNL A   1      26.280  21.570 -10.535  1.00  0.00    +0.000 H 
ATOM    147  H48 UNL A   1      25.231  20.016 -12.081  1.00  0.00    +0.000 H 
BRANCH    3    2
ATOM      2  O1  UNL A   1      25.733  17.357 -12.178  1.00  0.00    +0.000 O 
BRANCH    2    1
ATOM      1  C1  UNL A   1      25.489  17.737 -13.528  1.00  0.00    +0.000 C 
ATOM    100  H1  UNL A   1      26.247  17.321 -14.159  1.00  0.00    +0.000 H 
ATOM    101  H2  UNL A   1      25.506  18.805 -13.607  1.00  0.00    +0.000 H 
ATOM    102  H3  UNL A   1      24.531  17.372 -13.834  1.00  0.00    +0.000 H 
ENDBRANCH    2    1
ENDBRANCH    3    2
ENDBRANCH    7    6
BRANCH   88   89
ATOM     97  C71 UNL A   1      31.350  20.019  -8.825  1.00  0.00    +0.000 C 
ATOM    139  H40 UNL A   1      30.072  22.174 -11.055  1.00  0.00    +0.000 H 
ATOM    140  H41 UNL A   1      32.032  21.491 -12.305  1.00  0.00    +0.000 H 
ATOM    144  H45 UNL A   1      33.101  18.896  -9.171  1.00  0.00    +0.000 H 
ATOM    145  H46 UNL A   1      31.171  19.629  -7.886  1.00  0.00    +0.000 H 
ATOM     89  C64 UNL A   1      30.483  20.959  -9.376  1.00  0.00    +0.000 C 
ATOM     90  C65 UNL A   1      30.728  21.488 -10.649  1.00  0.00    +0.000 C 
ATOM     91  C66 UNL A   1      31.854  21.093 -11.371  1.00  0.00    +0.000 C 
ATOM     92  C67 UNL A   1      32.741  20.159 -10.830  1.00  0.00    +0.000 C 
ATOM     96  C70 UNL A   1      32.468  19.610  -9.563  1.00  0.00    +0.000 C 
BRANCH   92   93
ATOM     93  C68 UNL A   1      33.988  19.725 -11.532  1.00  0.00    +0.000 C 
ATOM     95  O4  UNL A   1      34.014  19.731 -12.763  1.00  0.00    +0.000 O 
BRANCH   93   94
ATOM    143  H44 UNL A   1      35.943  20.025 -10.763  1.00  0.00    +0.000 H 
ATOM    141  H42 UNL A   1      35.591  18.373 -11.210  1.00  0.00    +0.000 H 
ATOM     94  C69 UNL A   1      35.197  19.258 -10.757  1.00  0.00    +0.000 C 
ATOM    142  H43 UNL A   1      34.912  19.045  -9.747  1.00  0.00    +0.000 H 
ENDBRANCH   93   94
ENDBRANCH   92   93
ENDBRANCH   88   89
ENDBRANCH   11   10
ENDBRANCH   12   11
ENDBRANCH   13   12
ENDBRANCH   15   13
ENDBRANCH   16   15
ENDBRANCH   17   16
ENDBRANCH   18   17
ENDBRANCH   19   18
ENDBRANCH   20   19
ENDBRANCH   21   20
ENDBRANCH   22   21
ENDBRANCH   23   22
ENDBRANCH   25   23
ENDBRANCH   29   28
BRANCH   33   34
ATOM     34  C28 UNL A   1      21.739  20.342 -13.190  1.00  0.00    +0.000 C 
ATOM     35  C29 UNL A   1      22.253  19.787 -11.994  1.00  0.00    +0.000 C 
ATOM     36  F1  UNL A   1      22.841  20.569 -11.075  1.00  0.00    +0.000 F 
ATOM     37  C30 UNL A   1      22.254  18.413 -11.756  1.00  0.00    +0.000 C 
ATOM     38  F2  UNL A   1      22.886  17.922 -10.680  1.00  0.00    +0.000 F 
ATOM     39  C31 UNL A   1      21.664  17.553 -12.661  1.00  0.00    +0.000 C 
ATOM     40  F3  UNL A   1      21.714  16.228 -12.465  1.00  0.00    +0.000 F 
ATOM     41  C32 UNL A   1      21.055  18.069 -13.792  1.00  0.00    +0.000 C 
ATOM     42  F4  UNL A   1      20.482  17.239 -14.675  1.00  0.00    +0.000 F 
ATOM     43  C33 UNL A   1      21.113  19.439 -14.067  1.00  0.00    +0.000 C 
ATOM     44  F5  UNL A   1      20.653  19.838 -15.260  1.00  0.00    +0.000 F 
ENDBRANCH   33   34
BRANCH   50   51
ATOM     51  C39 UNL A   1      23.031  25.089 -10.051  1.00  0.00    +0.000 C 
ATOM     52  C40 UNL A   1      22.799  25.383  -8.708  1.00  0.00    +0.000 C 
ATOM     53  F6  UNL A   1      21.640  25.945  -8.333  1.00  0.00    +0.000 F 
ATOM     54  C41 UNL A   1      23.762  25.099  -7.735  1.00  0.00    +0.000 C 
ATOM     55  F7  UNL A   1      23.517  25.388  -6.451  1.00  0.00    +0.000 F 
ATOM     56  C42 UNL A   1      24.975  24.514  -8.082  1.00  0.00    +0.000 C 
ATOM     57  F8  UNL A   1      25.887  24.229  -7.142  1.00  0.00    +0.000 F 
ATOM     58  C43 UNL A   1      25.232  24.217  -9.403  1.00  0.00    +0.000 C 
ATOM     59  F9  UNL A   1      26.386  23.630  -9.758  1.00  0.00    +0.000 F 
ATOM     60  C44 UNL A   1      24.279  24.514 -10.369  1.00  0.00    +0.000 C 
ATOM     61  F10 UNL A   1      24.576  24.203 -11.631  1.00  0.00    +0.000 F 
ENDBRANCH   50   51
BRANCH   65   66
ATOM     66  C48 UNL A   1      25.152  30.230 -12.477  1.00  0.00    +0.000 C 
ATOM     67  C49 UNL A   1      24.962  31.145 -13.522  1.00  0.00    +0.000 C 
ATOM     68  F11 UNL A   1      24.799  30.733 -14.783  1.00  0.00    +0.000 F 
ATOM     69  C50 UNL A   1      24.967  32.536 -13.310  1.00  0.00    +0.000 C 
ATOM     70  F12 UNL A   1      24.742  33.365 -14.339  1.00  0.00    +0.000 F 
ATOM     71  C51 UNL A   1      25.195  33.067 -12.052  1.00  0.00    +0.000 C 
ATOM     72  F13 UNL A   1      25.168  34.390 -11.851  1.00  0.00    +0.000 F 
ATOM     73  C52 UNL A   1      25.465  32.210 -11.012  1.00  0.00    +0.000 C 
ATOM     74  F14 UNL A   1      25.716  32.695  -9.787  1.00  0.00    +0.000 F 
ATOM     75  C53 UNL A   1      25.463  30.830 -11.224  1.00  0.00    +0.000 C 
ATOM     76  F15 UNL A   1      25.768  30.090 -10.150  1.00  0.00    +0.000 F 
ENDBRANCH   65   66
TORSDOF 23
ENDMDL
