MODEL 1
REMARK VINA RESULT:     -12.2      0.000      0.000
ROOT
ATOM    129  H35 UNL A   1      53.470  19.041   9.183  1.00  0.00    +0.000 H 
ATOM    130  H36 UNL A   1      55.121  19.584  12.959  1.00  0.00    +0.000 H 
ATOM    131  H37 UNL A   1      59.863  17.964  12.645  1.00  0.00    +0.000 H 
ATOM    132  H38 UNL A   1      60.113  18.652  15.098  1.00  0.00    +0.000 H 
ATOM    133  H39 UNL A   1      50.829  22.490  15.091  1.00  0.00    +0.000 H 
ATOM    134  H40 UNL A   1      50.393  21.388  12.820  1.00  0.00    +0.000 H 
ATOM     36  C30 UNL A   1      52.705  20.187  11.681  1.00  0.00    +0.000 C 
ATOM     37  C31 UNL A   1      52.563  20.772  13.054  1.00  0.00    +0.000 C 
ATOM     38  N4  UNL A   1      53.449  20.863  14.013  1.00  0.00    +0.000 N 
ATOM     39  C32 UNL A   1      52.821  21.553  15.039  1.00  0.00    +0.000 C 
ATOM     40  C33 UNL A   1      53.299  21.848  16.271  1.00  0.00    +0.000 C 
ATOM     52  C40 UNL A   1      54.606  21.468  16.739  1.00  0.00    +0.000 C 
ATOM     53  C41 UNL A   1      55.162  21.650  17.993  1.00  0.00    +0.000 C 
ATOM     54  C42 UNL A   1      56.470  21.149  17.966  1.00  0.00    +0.000 C 
ATOM     55  C43 UNL A   1      56.713  20.621  16.707  1.00  0.00    +0.000 C 
ATOM     56  N5  UNL A   1      55.563  20.825  15.966  1.00  0.00    +0.000 N 
ATOM     57  C44 UNL A   1      57.907  19.978  16.220  1.00  0.00    +0.000 C 
ATOM     69  C51 UNL A   1      58.065  19.454  14.980  1.00  0.00    +0.000 C 
ATOM     70  N6  UNL A   1      57.164  19.421  13.926  1.00  0.00    +0.000 N 
ATOM     71  C52 UNL A   1      57.788  18.826  12.938  1.00  0.00    +0.000 C 
ATOM     72  C53 UNL A   1      57.286  18.514  11.556  1.00  0.00    +0.000 C 
ATOM     84  C60 UNL A   1      56.008  18.797  11.247  1.00  0.00    +0.000 C 
ATOM     85  C61 UNL A   1      55.382  18.565   9.949  1.00  0.00    +0.000 C 
ATOM     86  C62 UNL A   1      54.131  19.048   9.976  1.00  0.00    +0.000 C 
ATOM     87  C63 UNL A   1      53.853  19.589  11.308  1.00  0.00    +0.000 C 
ATOM     88  N7  UNL A   1      55.012  19.363  12.007  1.00  0.00    +0.000 N 
ATOM     89  C64 UNL A   1      59.165  18.422  13.250  1.00  0.00    +0.000 C 
ATOM     90  C65 UNL A   1      59.274  18.801  14.517  1.00  0.00    +0.000 C 
ATOM     91  C66 UNL A   1      51.499  21.904  14.567  1.00  0.00    +0.000 C 
ATOM     92  C67 UNL A   1      51.262  21.377  13.376  1.00  0.00    +0.000 C 
ATOM    125  H31 UNL A   1      54.695  22.080  18.806  1.00  0.00    +0.000 H 
ATOM    126  H32 UNL A   1      57.139  21.169  18.752  1.00  0.00    +0.000 H 
ATOM    127  H33 UNL A   1      55.441  20.555  15.026  1.00  0.00    +0.000 H 
ATOM    128  H34 UNL A   1      55.831  18.105   9.141  1.00  0.00    +0.000 H 
ENDROOT
BRANCH   36   35
ATOM     33  C27 UNL A   1      49.805  19.552   9.329  1.00  0.00    +0.000 C 
ATOM     34  C28 UNL A   1      50.686  19.395  10.399  1.00  0.00    +0.000 C 
ATOM     35  C29 UNL A   1      51.635  20.390  10.678  1.00  0.00    +0.000 C 
ATOM    135  H41 UNL A   1      52.282  22.344  10.184  1.00  0.00    +0.000 H 
ATOM    136  H42 UNL A   1      50.596  22.701   8.480  1.00  0.00    +0.000 H 
ATOM    123  H29 UNL A   1      49.128  18.808   9.097  1.00  0.00    +0.000 H 
ATOM    124  H30 UNL A   1      50.640  18.547  10.985  1.00  0.00    +0.000 H 
ATOM     93  C68 UNL A   1      51.606  21.596   9.960  1.00  0.00    +0.000 C 
ATOM     94  C69 UNL A   1      50.675  21.787   8.950  1.00  0.00    +0.000 C 
ATOM     32  C26 UNL A   1      49.845  20.728   8.576  1.00  0.00    +0.000 C 
BRANCH   32   30
ATOM     30  C25 UNL A   1      49.059  20.805   7.329  1.00  0.00    +0.000 C 
ATOM     31  O3  UNL A   1      48.707  21.891   6.895  1.00  0.00    +0.000 O 
BRANCH   30   29
ATOM    122  H28 UNL A   1      49.453  19.074   6.401  1.00  0.00    +0.000 H 
ATOM     29  N3  UNL A   1      48.701  19.634   6.701  1.00  0.00    +0.000 N 
BRANCH   29   28
ATOM    121  H27 UNL A   1      47.010  19.610   5.546  1.00  0.00    +0.000 H 
ATOM     28  C24 UNL A   1      47.375  19.098   6.411  1.00  0.00    +0.000 C 
ATOM    120  H26 UNL A   1      46.753  19.254   7.267  1.00  0.00    +0.000 H 
BRANCH   28   27
ATOM     27  C23 UNL A   1      47.381  17.608   6.083  1.00  0.00    +0.000 C 
ATOM    118  H24 UNL A   1      48.274  17.178   6.488  1.00  0.00    +0.000 H 
ATOM    119  H25 UNL A   1      46.490  17.197   6.513  1.00  0.00    +0.000 H 
BRANCH   27   26
ATOM     26  C22 UNL A   1      47.332  17.290   4.595  1.00  0.00    +0.000 C 
ATOM    116  H22 UNL A   1      48.306  16.965   4.294  1.00  0.00    +0.000 H 
ATOM    117  H23 UNL A   1      46.574  16.543   4.478  1.00  0.00    +0.000 H 
BRANCH   26   25
ATOM     25  C21 UNL A   1      46.922  18.448   3.687  1.00  0.00    +0.000 C 
ATOM    114  H20 UNL A   1      46.713  19.297   4.303  1.00  0.00    +0.000 H 
ATOM    115  H21 UNL A   1      47.738  18.609   3.014  1.00  0.00    +0.000 H 
BRANCH   25   24
ATOM    113  H19 UNL A   1      45.684  17.118   2.630  1.00  0.00    +0.000 H 
ATOM    112  H18 UNL A   1      45.770  18.758   1.929  1.00  0.00    +0.000 H 
ATOM     24  C20 UNL A   1      45.690  18.171   2.820  1.00  0.00    +0.000 C 
BRANCH   24   23
ATOM    111  H17 UNL A   1      44.419  18.225   4.522  1.00  0.00    +0.000 H 
ATOM    110  H16 UNL A   1      43.576  17.953   3.000  1.00  0.00    +0.000 H 
ATOM     23  C19 UNL A   1      44.354  18.499   3.490  1.00  0.00    +0.000 C 
BRANCH   23   22
ATOM    109  H15 UNL A   1      44.201  20.469   4.214  1.00  0.00    +0.000 H 
ATOM     22  N2  UNL A   1      44.056  19.915   3.413  1.00  0.00    +0.000 N 
BRANCH   22    2
ATOM      1  O1  UNL A   1      43.926  21.638   1.905  1.00  0.00    +0.000 O 
ATOM      2  C1  UNL A   1      43.582  20.522   2.279  1.00  0.00    +0.000 C 
BRANCH    2    3
ATOM      3  C2  UNL A   1      42.566  19.700   1.516  1.00  0.00    +0.000 C 
ATOM     95  H1  UNL A   1      41.901  19.238   2.215  1.00  0.00    +0.000 H 
ATOM     96  H2  UNL A   1      43.099  18.969   0.943  1.00  0.00    +0.000 H 
BRANCH    3    4
ATOM     97  H3  UNL A   1      41.801  20.077  -0.414  1.00  0.00    +0.000 H 
ATOM     98  H4  UNL A   1      42.180  21.521   0.588  1.00  0.00    +0.000 H 
ATOM      4  C3  UNL A   1      41.750  20.543   0.549  1.00  0.00    +0.000 C 
BRANCH    4    5
ATOM      5  C4  UNL A   1      40.306  20.728   0.887  1.00  0.00    +0.000 C 
ATOM      6  N1  UNL A   1      39.717  20.408   2.024  1.00  0.00    +0.000 N 
ATOM      7  C5  UNL A   1      38.407  20.760   1.830  1.00  0.00    +0.000 C 
ATOM     14  C12 UNL A   1      38.249  21.338   0.585  1.00  0.00    +0.000 C 
ATOM     21  O2  UNL A   1      39.469  21.301  -0.045  1.00  0.00    +0.000 O 
BRANCH    7    8
ATOM     99  H5  UNL A   1      37.254  22.719   3.255  1.00  0.00    +0.000 H 
ATOM    100  H6  UNL A   1      35.842  22.464   5.211  1.00  0.00    +0.000 H 
ATOM    101  H7  UNL A   1      35.092  20.257   5.881  1.00  0.00    +0.000 H 
ATOM    102  H8  UNL A   1      35.685  18.317   4.551  1.00  0.00    +0.000 H 
ATOM    103  H9  UNL A   1      37.116  18.563   2.606  1.00  0.00    +0.000 H 
ATOM      8  C6  UNL A   1      37.354  20.651   2.818  1.00  0.00    +0.000 C 
ATOM      9  C7  UNL A   1      36.944  21.779   3.548  1.00  0.00    +0.000 C 
ATOM     10  C8  UNL A   1      36.123  21.635   4.665  1.00  0.00    +0.000 C 
ATOM     11  C9  UNL A   1      35.682  20.368   5.041  1.00  0.00    +0.000 C 
ATOM     12  C10 UNL A   1      36.037  19.250   4.285  1.00  0.00    +0.000 C 
ATOM     13  C11 UNL A   1      36.865  19.390   3.170  1.00  0.00    +0.000 C 
ENDBRANCH    7    8
BRANCH   14   15
ATOM    104  H10 UNL A   1      35.596  21.006   0.974  1.00  0.00    +0.000 H 
ATOM    105  H11 UNL A   1      33.786  22.237  -0.074  1.00  0.00    +0.000 H 
ATOM    106  H12 UNL A   1      34.261  23.938  -1.734  1.00  0.00    +0.000 H 
ATOM    107  H13 UNL A   1      36.552  24.367  -2.408  1.00  0.00    +0.000 H 
ATOM    108  H14 UNL A   1      38.360  23.126  -1.384  1.00  0.00    +0.000 H 
ATOM     15  C13 UNL A   1      37.133  21.981  -0.095  1.00  0.00    +0.000 C 
ATOM     16  C14 UNL A   1      35.806  21.723   0.263  1.00  0.00    +0.000 C 
ATOM     17  C15 UNL A   1      34.763  22.433  -0.342  1.00  0.00    +0.000 C 
ATOM     18  C16 UNL A   1      35.034  23.406  -1.305  1.00  0.00    +0.000 C 
ATOM     19  C17 UNL A   1      36.347  23.657  -1.687  1.00  0.00    +0.000 C 
ATOM     20  C18 UNL A   1      37.387  22.944  -1.091  1.00  0.00    +0.000 C 
ENDBRANCH   14   15
ENDBRANCH    4    5
ENDBRANCH    3    4
ENDBRANCH    2    3
ENDBRANCH   22    2
ENDBRANCH   23   22
ENDBRANCH   24   23
ENDBRANCH   25   24
ENDBRANCH   26   25
ENDBRANCH   27   26
ENDBRANCH   28   27
ENDBRANCH   29   28
ENDBRANCH   30   29
ENDBRANCH   32   30
ENDBRANCH   36   35
BRANCH   40   41
ATOM     41  C34 UNL A   1      52.396  22.614  17.192  1.00  0.00    +0.000 C 
ATOM     42  C35 UNL A   1      51.595  21.963  18.144  1.00  0.00    +0.000 C 
ATOM     43  F1  UNL A   1      51.615  20.625  18.241  1.00  0.00    +0.000 F 
ATOM     44  C36 UNL A   1      50.731  22.682  18.966  1.00  0.00    +0.000 C 
ATOM     45  F2  UNL A   1      49.930  22.033  19.824  1.00  0.00    +0.000 F 
ATOM     46  C37 UNL A   1      50.678  24.064  18.879  1.00  0.00    +0.000 C 
ATOM     47  F3  UNL A   1      49.841  24.754  19.668  1.00  0.00    +0.000 F 
ATOM     48  C38 UNL A   1      51.482  24.730  17.968  1.00  0.00    +0.000 C 
ATOM     49  F4  UNL A   1      51.438  26.068  17.890  1.00  0.00    +0.000 F 
ATOM     50  C39 UNL A   1      52.327  24.013  17.123  1.00  0.00    +0.000 C 
ATOM     51  F5  UNL A   1      53.072  24.685  16.234  1.00  0.00    +0.000 F 
ENDBRANCH   40   41
BRANCH   57   58
ATOM     65  C49 UNL A   1      60.360  18.561  18.756  1.00  0.00    +0.000 C 
ATOM     66  F9  UNL A   1      60.566  17.412  19.412  1.00  0.00    +0.000 F 
ATOM     67  C50 UNL A   1      59.316  18.661  17.842  1.00  0.00    +0.000 C 
ATOM     68  F10 UNL A   1      58.538  17.590  17.629  1.00  0.00    +0.000 F 
ATOM     58  C45 UNL A   1      59.068  19.863  17.161  1.00  0.00    +0.000 C 
ATOM     59  C46 UNL A   1      59.908  20.955  17.421  1.00  0.00    +0.000 C 
ATOM     60  F6  UNL A   1      59.719  22.119  16.780  1.00  0.00    +0.000 F 
ATOM     61  C47 UNL A   1      60.965  20.844  18.319  1.00  0.00    +0.000 C 
ATOM     62  F7  UNL A   1      61.778  21.890  18.526  1.00  0.00    +0.000 F 
ATOM     63  C48 UNL A   1      61.186  19.650  18.991  1.00  0.00    +0.000 C 
ATOM     64  F8  UNL A   1      62.201  19.548  19.861  1.00  0.00    +0.000 F 
ENDBRANCH   57   58
BRANCH   72   73
ATOM     73  C54 UNL A   1      58.163  17.880  10.541  1.00  0.00    +0.000 C 
ATOM     74  C55 UNL A   1      58.957  18.662   9.691  1.00  0.00    +0.000 C 
ATOM     75  F11 UNL A   1      58.890  20.000   9.757  1.00  0.00    +0.000 F 
ATOM     76  C56 UNL A   1      59.806  18.075   8.756  1.00  0.00    +0.000 C 
ATOM     77  F12 UNL A   1      60.535  18.845   7.938  1.00  0.00    +0.000 F 
ATOM     78  C57 UNL A   1      59.894  16.694   8.668  1.00  0.00    +0.000 C 
ATOM     79  F13 UNL A   1      60.720  16.128   7.777  1.00  0.00    +0.000 F 
ATOM     80  C58 UNL A   1      59.122  15.899   9.502  1.00  0.00    +0.000 C 
ATOM     81  F14 UNL A   1      59.216  14.564   9.431  1.00  0.00    +0.000 F 
ATOM     82  C59 UNL A   1      58.256  16.486  10.423  1.00  0.00    +0.000 C 
ATOM     83  F15 UNL A   1      57.524  15.694  11.219  1.00  0.00    +0.000 F 
ENDBRANCH   72   73
TORSDOF 19
ENDMDL
MODEL 2
REMARK VINA RESULT:     -12.1      0.499      2.051
ROOT
ATOM    129  H35 UNL A   1      53.484  19.125   9.114  1.00  0.00    +0.000 H 
ATOM    130  H36 UNL A   1      55.124  19.649  12.897  1.00  0.00    +0.000 H 
ATOM    131  H37 UNL A   1      59.847  17.970  12.605  1.00  0.00    +0.000 H 
ATOM    132  H38 UNL A   1      60.094  18.656  15.060  1.00  0.00    +0.000 H 
ATOM    133  H39 UNL A   1      50.857  22.607  15.008  1.00  0.00    +0.000 H 
ATOM    134  H40 UNL A   1      50.418  21.510  12.736  1.00  0.00    +0.000 H 
ATOM     36  C30 UNL A   1      52.722  20.281  11.608  1.00  0.00    +0.000 C 
ATOM     37  C31 UNL A   1      52.580  20.868  12.980  1.00  0.00    +0.000 C 
ATOM     38  N4  UNL A   1      53.463  20.948  13.943  1.00  0.00    +0.000 N 
ATOM     39  C32 UNL A   1      52.838  21.646  14.966  1.00  0.00    +0.000 C 
ATOM     40  C33 UNL A   1      53.314  21.935  16.201  1.00  0.00    +0.000 C 
ATOM     52  C40 UNL A   1      54.614  21.539  16.675  1.00  0.00    +0.000 C 
ATOM     53  C41 UNL A   1      55.166  21.715  17.931  1.00  0.00    +0.000 C 
ATOM     54  C42 UNL A   1      56.468  21.198  17.910  1.00  0.00    +0.000 C 
ATOM     55  C43 UNL A   1      56.710  20.666  16.653  1.00  0.00    +0.000 C 
ATOM     56  N5  UNL A   1      55.566  20.885  15.906  1.00  0.00    +0.000 N 
ATOM     57  C44 UNL A   1      57.899  20.009  16.171  1.00  0.00    +0.000 C 
ATOM     69  C51 UNL A   1      58.057  19.483  14.932  1.00  0.00    +0.000 C 
ATOM     70  N6  UNL A   1      57.160  19.461  13.874  1.00  0.00    +0.000 N 
ATOM     71  C52 UNL A   1      57.781  18.858  12.889  1.00  0.00    +0.000 C 
ATOM     72  C53 UNL A   1      57.282  18.552  11.505  1.00  0.00    +0.000 C 
ATOM     84  C60 UNL A   1      56.009  18.850  11.189  1.00  0.00    +0.000 C 
ATOM     85  C61 UNL A   1      55.387  18.626   9.888  1.00  0.00    +0.000 C 
ATOM     86  C62 UNL A   1      54.141  19.125   9.910  1.00  0.00    +0.000 C 
ATOM     87  C63 UNL A   1      53.864  19.668  11.241  1.00  0.00    +0.000 C 
ATOM     88  N7  UNL A   1      55.017  19.428  11.944  1.00  0.00    +0.000 N 
ATOM     89  C64 UNL A   1      59.151  18.437  13.208  1.00  0.00    +0.000 C 
ATOM     90  C65 UNL A   1      59.259  18.815  14.474  1.00  0.00    +0.000 C 
ATOM     91  C66 UNL A   1      51.523  22.013  14.488  1.00  0.00    +0.000 C 
ATOM     92  C67 UNL A   1      51.285  21.489  13.295  1.00  0.00    +0.000 C 
ATOM    125  H31 UNL A   1      54.701  22.150  18.741  1.00  0.00    +0.000 H 
ATOM    126  H32 UNL A   1      57.133  21.209  18.699  1.00  0.00    +0.000 H 
ATOM    127  H33 UNL A   1      55.446  20.616  14.965  1.00  0.00    +0.000 H 
ATOM    128  H34 UNL A   1      55.834  18.161   9.082  1.00  0.00    +0.000 H 
ENDROOT
BRANCH   36   35
ATOM     33  C27 UNL A   1      49.852  19.672   9.212  1.00  0.00    +0.000 C 
ATOM     34  C28 UNL A   1      50.724  19.497  10.286  1.00  0.00    +0.000 C 
ATOM     35  C29 UNL A   1      51.658  20.497  10.599  1.00  0.00    +0.000 C 
ATOM    135  H41 UNL A   1      52.286  22.470  10.162  1.00  0.00    +0.000 H 
ATOM    136  H42 UNL A   1      50.612  22.851   8.451  1.00  0.00    +0.000 H 
ATOM    123  H29 UNL A   1      49.186  18.926   8.954  1.00  0.00    +0.000 H 
ATOM    124  H30 UNL A   1      50.683  18.634  10.850  1.00  0.00    +0.000 H 
ATOM     93  C68 UNL A   1      51.622  21.720   9.912  1.00  0.00    +0.000 C 
ATOM     94  C69 UNL A   1      50.698  21.926   8.898  1.00  0.00    +0.000 C 
ATOM     32  C26 UNL A   1      49.885  20.867   8.489  1.00  0.00    +0.000 C 
BRANCH   32   30
ATOM     30  C25 UNL A   1      49.110  20.967   7.237  1.00  0.00    +0.000 C 
ATOM     31  O3  UNL A   1      48.244  21.819   7.121  1.00  0.00    +0.000 O 
BRANCH   30   29
ATOM    122  H28 UNL A   1      50.310  19.893   6.045  1.00  0.00    +0.000 H 
ATOM     29  N3  UNL A   1      49.357  20.057   6.233  1.00  0.00    +0.000 N 
BRANCH   29   28
ATOM    121  H27 UNL A   1      49.004  18.665   4.774  1.00  0.00    +0.000 H 
ATOM     28  C24 UNL A   1      48.422  19.302   5.407  1.00  0.00    +0.000 C 
ATOM    120  H26 UNL A   1      47.828  19.995   4.849  1.00  0.00    +0.000 H 
BRANCH   28   27
ATOM     27  C23 UNL A   1      47.487  18.404   6.213  1.00  0.00    +0.000 C 
ATOM    118  H24 UNL A   1      48.078  17.659   6.704  1.00  0.00    +0.000 H 
ATOM    119  H25 UNL A   1      46.967  19.042   6.898  1.00  0.00    +0.000 H 
BRANCH   27   26
ATOM     26  C22 UNL A   1      46.424  17.698   5.383  1.00  0.00    +0.000 C 
ATOM    116  H22 UNL A   1      46.384  16.675   5.697  1.00  0.00    +0.000 H 
ATOM    117  H23 UNL A   1      45.514  18.236   5.553  1.00  0.00    +0.000 H 
BRANCH   26   25
ATOM     25  C21 UNL A   1      46.645  17.718   3.872  1.00  0.00    +0.000 C 
ATOM    114  H20 UNL A   1      47.005  18.688   3.600  1.00  0.00    +0.000 H 
ATOM    115  H21 UNL A   1      47.344  16.936   3.658  1.00  0.00    +0.000 H 
BRANCH   25   24
ATOM    113  H19 UNL A   1      45.136  16.401   3.233  1.00  0.00    +0.000 H 
ATOM    112  H18 UNL A   1      45.621  17.612   2.014  1.00  0.00    +0.000 H 
ATOM     24  C20 UNL A   1      45.393  17.422   3.042  1.00  0.00    +0.000 C 
BRANCH   24   23
ATOM    111  H17 UNL A   1      44.036  18.199   4.481  1.00  0.00    +0.000 H 
ATOM    110  H16 UNL A   1      43.311  17.869   2.910  1.00  0.00    +0.000 H 
ATOM     23  C19 UNL A   1      44.167  18.256   3.421  1.00  0.00    +0.000 C 
BRANCH   23   22
ATOM    109  H15 UNL A   1      44.846  20.232   3.669  1.00  0.00    +0.000 H 
ATOM     22  N2  UNL A   1      44.341  19.649   3.058  1.00  0.00    +0.000 N 
BRANCH   22    2
ATOM      1  O1  UNL A   1      44.429  21.020   1.222  1.00  0.00    +0.000 O 
ATOM      2  C1  UNL A   1      43.836  20.193   1.906  1.00  0.00    +0.000 C 
BRANCH    2    3
ATOM      3  C2  UNL A   1      42.451  19.700   1.543  1.00  0.00    +0.000 C 
ATOM     95  H1  UNL A   1      41.822  19.775   2.406  1.00  0.00    +0.000 H 
ATOM     96  H2  UNL A   1      42.541  18.686   1.212  1.00  0.00    +0.000 H 
BRANCH    3    4
ATOM     97  H3  UNL A   1      41.922  19.930  -0.486  1.00  0.00    +0.000 H 
ATOM     98  H4  UNL A   1      42.359  21.434   0.398  1.00  0.00    +0.000 H 
ATOM      4  C3  UNL A   1      41.829  20.505   0.413  1.00  0.00    +0.000 C 
BRANCH    4    5
ATOM      5  C4  UNL A   1      40.389  20.869   0.573  1.00  0.00    +0.000 C 
ATOM      6  N1  UNL A   1      39.617  21.441  -0.332  1.00  0.00    +0.000 N 
ATOM      7  C5  UNL A   1      38.407  21.572   0.299  1.00  0.00    +0.000 C 
ATOM     14  C12 UNL A   1      38.469  21.021   1.566  1.00  0.00    +0.000 C 
ATOM     21  O2  UNL A   1      39.756  20.583   1.763  1.00  0.00    +0.000 O 
BRANCH    7    8
ATOM     99  H5  UNL A   1      36.003  20.403   0.076  1.00  0.00    +0.000 H 
ATOM    100  H6  UNL A   1      34.157  21.118  -1.325  1.00  0.00    +0.000 H 
ATOM    101  H7  UNL A   1      34.269  23.250  -2.477  1.00  0.00    +0.000 H 
ATOM    102  H8  UNL A   1      36.187  24.701  -2.163  1.00  0.00    +0.000 H 
ATOM    103  H9  UNL A   1      38.047  23.980  -0.780  1.00  0.00    +0.000 H 
ATOM      8  C6  UNL A   1      37.202  22.105  -0.299  1.00  0.00    +0.000 C 
ATOM      9  C7  UNL A   1      36.055  21.305  -0.424  1.00  0.00    +0.000 C 
ATOM     10  C8  UNL A   1      34.988  21.720  -1.219  1.00  0.00    +0.000 C 
ATOM     11  C9  UNL A   1      35.048  22.950  -1.869  1.00  0.00    +0.000 C 
ATOM     12  C10 UNL A   1      36.159  23.778  -1.702  1.00  0.00    +0.000 C 
ATOM     13  C11 UNL A   1      37.233  23.362  -0.912  1.00  0.00    +0.000 C 
ENDBRANCH    7    8
BRANCH   14   15
ATOM    104  H10 UNL A   1      37.505  18.676   2.499  1.00  0.00    +0.000 H 
ATOM    105  H11 UNL A   1      35.992  18.341   4.366  1.00  0.00    +0.000 H 
ATOM    106  H12 UNL A   1      35.105  20.243   5.580  1.00  0.00    +0.000 H 
ATOM    107  H13 UNL A   1      35.672  22.496   4.885  1.00  0.00    +0.000 H 
ATOM    108  H14 UNL A   1      37.162  22.837   3.008  1.00  0.00    +0.000 H 
ATOM     15  C13 UNL A   1      37.485  20.784   2.613  1.00  0.00    +0.000 C 
ATOM     16  C14 UNL A   1      37.126  19.491   3.005  1.00  0.00    +0.000 C 
ATOM     17  C15 UNL A   1      36.253  19.298   4.082  1.00  0.00    +0.000 C 
ATOM     18  C16 UNL A   1      35.734  20.392   4.776  1.00  0.00    +0.000 C 
ATOM     19  C17 UNL A   1      36.064  21.684   4.382  1.00  0.00    +0.000 C 
ATOM     20  C18 UNL A   1      36.927  21.876   3.304  1.00  0.00    +0.000 C 
ENDBRANCH   14   15
ENDBRANCH    4    5
ENDBRANCH    3    4
ENDBRANCH    2    3
ENDBRANCH   22    2
ENDBRANCH   23   22
ENDBRANCH   24   23
ENDBRANCH   25   24
ENDBRANCH   26   25
ENDBRANCH   27   26
ENDBRANCH   28   27
ENDBRANCH   29   28
ENDBRANCH   30   29
ENDBRANCH   32   30
ENDBRANCH   36   35
BRANCH   40   41
ATOM     41  C34 UNL A   1      52.416  22.712  17.117  1.00  0.00    +0.000 C 
ATOM     42  C35 UNL A   1      51.603  22.071  18.066  1.00  0.00    +0.000 C 
ATOM     43  F1  UNL A   1      51.605  20.733  18.162  1.00  0.00    +0.000 F 
ATOM     44  C36 UNL A   1      50.743  22.800  18.882  1.00  0.00    +0.000 C 
ATOM     45  F2  UNL A   1      49.931  22.161  19.737  1.00  0.00    +0.000 F 
ATOM     46  C37 UNL A   1      50.708  24.183  18.796  1.00  0.00    +0.000 C 
ATOM     47  F3  UNL A   1      49.876  24.883  19.581  1.00  0.00    +0.000 F 
ATOM     48  C38 UNL A   1      51.524  24.839  17.888  1.00  0.00    +0.000 C 
ATOM     49  F4  UNL A   1      51.497  26.178  17.811  1.00  0.00    +0.000 F 
ATOM     50  C39 UNL A   1      52.364  24.112  17.048  1.00  0.00    +0.000 C 
ATOM     51  F5  UNL A   1      53.122  24.775  16.162  1.00  0.00    +0.000 F 
ENDBRANCH   40   41
BRANCH   57   58
ATOM     65  C49 UNL A   1      60.327  18.560  18.714  1.00  0.00    +0.000 C 
ATOM     66  F9  UNL A   1      60.520  17.406  19.365  1.00  0.00    +0.000 F 
ATOM     67  C50 UNL A   1      59.289  18.673  17.795  1.00  0.00    +0.000 C 
ATOM     68  F10 UNL A   1      58.503  17.609  17.572  1.00  0.00    +0.000 F 
ATOM     58  C45 UNL A   1      59.054  19.880  17.118  1.00  0.00    +0.000 C 
ATOM     59  C46 UNL A   1      59.901  20.964  17.387  1.00  0.00    +0.000 C 
ATOM     60  F6  UNL A   1      59.726  22.132  16.751  1.00  0.00    +0.000 F 
ATOM     61  C47 UNL A   1      60.953  20.840  18.290  1.00  0.00    +0.000 C 
ATOM     62  F7  UNL A   1      61.774  21.878  18.507  1.00  0.00    +0.000 F 
ATOM     63  C48 UNL A   1      61.161  19.641  18.957  1.00  0.00    +0.000 C 
ATOM     64  F8  UNL A   1      62.170  19.527  19.832  1.00  0.00    +0.000 F 
ENDBRANCH   57   58
BRANCH   72   73
ATOM     73  C54 UNL A   1      58.156  17.907  10.493  1.00  0.00    +0.000 C 
ATOM     74  C55 UNL A   1      59.005  18.676   9.686  1.00  0.00    +0.000 C 
ATOM     75  F11 UNL A   1      58.994  20.013   9.787  1.00  0.00    +0.000 F 
ATOM     76  C56 UNL A   1      59.851  18.077   8.755  1.00  0.00    +0.000 C 
ATOM     77  F12 UNL A   1      60.633  18.835   7.977  1.00  0.00    +0.000 F 
ATOM     78  C57 UNL A   1      59.881  16.696   8.631  1.00  0.00    +0.000 C 
ATOM     79  F13 UNL A   1      60.703  16.118   7.745  1.00  0.00    +0.000 F 
ATOM     80  C58 UNL A   1      59.054  15.914   9.424  1.00  0.00    +0.000 C 
ATOM     81  F14 UNL A   1      59.091  14.579   9.317  1.00  0.00    +0.000 F 
ATOM     82  C59 UNL A   1      58.191  16.514  10.339  1.00  0.00    +0.000 C 
ATOM     83  F15 UNL A   1      57.405  15.735  11.095  1.00  0.00    +0.000 F 
ENDBRANCH   72   73
TORSDOF 19
ENDMDL
MODEL 3
REMARK VINA RESULT:     -11.9     40.048     46.247
ROOT
ATOM    129  H35 UNL A   1      26.307  34.671  43.817  1.00  0.00    +0.000 H 
ATOM    130  H36 UNL A   1      28.506  37.626  45.742  1.00  0.00    +0.000 H 
ATOM    131  H37 UNL A   1      33.128  37.408  43.791  1.00  0.00    +0.000 H 
ATOM    132  H38 UNL A   1      33.713  39.378  45.318  1.00  0.00    +0.000 H 
ATOM    133  H39 UNL A   1      24.169  39.986  48.395  1.00  0.00    +0.000 H 
ATOM    134  H40 UNL A   1      23.678  37.742  47.262  1.00  0.00    +0.000 H 
ATOM     36  C30 UNL A   1      25.844  36.763  45.700  1.00  0.00    +0.000 C 
ATOM     37  C31 UNL A   1      25.842  37.951  46.615  1.00  0.00    +0.000 C 
ATOM     38  N4  UNL A   1      26.811  38.785  46.893  1.00  0.00    +0.000 N 
ATOM     39  C32 UNL A   1      26.256  39.736  47.737  1.00  0.00    +0.000 C 
ATOM     40  C33 UNL A   1      26.867  40.778  48.350  1.00  0.00    +0.000 C 
ATOM     52  C40 UNL A   1      28.269  41.078  48.219  1.00  0.00    +0.000 C 
ATOM     53  C41 UNL A   1      29.004  42.063  48.853  1.00  0.00    +0.000 C 
ATOM     54  C42 UNL A   1      30.322  41.993  48.383  1.00  0.00    +0.000 C 
ATOM     55  C43 UNL A   1      30.413  40.941  47.485  1.00  0.00    +0.000 C 
ATOM     56  N5  UNL A   1      29.147  40.390  47.393  1.00  0.00    +0.000 N 
ATOM     57  C44 UNL A   1      31.571  40.474  46.766  1.00  0.00    +0.000 C 
ATOM     69  C51 UNL A   1      31.596  39.412  45.923  1.00  0.00    +0.000 C 
ATOM     70  N6  UNL A   1      30.559  38.567  45.556  1.00  0.00    +0.000 N 
ATOM     71  C52 UNL A   1      31.077  37.710  44.708  1.00  0.00    +0.000 C 
ATOM     72  C53 UNL A   1      30.411  36.567  43.996  1.00  0.00    +0.000 C 
ATOM     84  C60 UNL A   1      29.125  36.285  44.274  1.00  0.00    +0.000 C 
ATOM     85  C61 UNL A   1      28.343  35.219  43.658  1.00  0.00    +0.000 C 
ATOM     86  C62 UNL A   1      27.081  35.289  44.108  1.00  0.00    +0.000 C 
ATOM     87  C63 UNL A   1      26.976  36.383  45.076  1.00  0.00    +0.000 C 
ATOM     88  N7  UNL A   1      28.247  36.894  45.138  1.00  0.00    +0.000 N 
ATOM     89  C64 UNL A   1      32.503  37.924  44.431  1.00  0.00    +0.000 C 
ATOM     90  C65 UNL A   1      32.778  38.955  45.219  1.00  0.00    +0.000 C 
ATOM     91  C66 UNL A   1      24.854  39.407  47.883  1.00  0.00    +0.000 C 
ATOM     92  C67 UNL A   1      24.565  38.268  47.273  1.00  0.00    +0.000 C 
ATOM    125  H31 UNL A   1      28.646  42.732  49.551  1.00  0.00    +0.000 H 
ATOM    126  H32 UNL A   1      31.094  42.619  48.660  1.00  0.00    +0.000 H 
ATOM    127  H33 UNL A   1      28.904  39.624  46.823  1.00  0.00    +0.000 H 
ATOM    128  H34 UNL A   1      28.702  34.524  42.984  1.00  0.00    +0.000 H 
ENDROOT
BRANCH   36   35
ATOM     33  C27 UNL A   1      22.438  36.031  44.213  1.00  0.00    +0.000 C 
ATOM     34  C28 UNL A   1      23.706  36.590  44.379  1.00  0.00    +0.000 C 
ATOM     35  C29 UNL A   1      24.569  36.088  45.365  1.00  0.00    +0.000 C 
ATOM    135  H41 UNL A   1      24.850  34.552  46.794  1.00  0.00    +0.000 H 
ATOM    136  H42 UNL A   1      22.741  33.448  46.335  1.00  0.00    +0.000 H 
ATOM    123  H29 UNL A   1      21.785  36.418  43.514  1.00  0.00    +0.000 H 
ATOM    124  H30 UNL A   1      24.007  37.372  43.777  1.00  0.00    +0.000 H 
ATOM     93  C68 UNL A   1      24.204  34.943  46.090  1.00  0.00    +0.000 C 
ATOM     94  C69 UNL A   1      22.977  34.336  45.867  1.00  0.00    +0.000 C 
ATOM     32  C26 UNL A   1      22.063  34.940  45.001  1.00  0.00    +0.000 C 
BRANCH   32   30
ATOM     30  C25 UNL A   1      20.659  34.484  44.968  1.00  0.00    +0.000 C 
ATOM     31  O3  UNL A   1      20.044  34.475  43.913  1.00  0.00    +0.000 O 
BRANCH   30   29
ATOM    122  H28 UNL A   1      19.756  34.865  46.715  1.00  0.00    +0.000 H 
ATOM     29  N3  UNL A   1      20.056  34.117  46.150  1.00  0.00    +0.000 N 
BRANCH   29   28
ATOM    121  H27 UNL A   1      18.736  32.674  46.756  1.00  0.00    +0.000 H 
ATOM     28  C24 UNL A   1      19.797  32.788  46.692  1.00  0.00    +0.000 C 
ATOM    120  H26 UNL A   1      20.271  32.714  47.649  1.00  0.00    +0.000 H 
BRANCH   28   27
ATOM     27  C23 UNL A   1      20.318  31.658  45.808  1.00  0.00    +0.000 C 
ATOM    118  H24 UNL A   1      21.085  32.055  45.175  1.00  0.00    +0.000 H 
ATOM    119  H25 UNL A   1      20.678  30.895  46.468  1.00  0.00    +0.000 H 
BRANCH   27   26
ATOM     26  C22 UNL A   1      19.259  31.009  44.927  1.00  0.00    +0.000 C 
ATOM    116  H22 UNL A   1      18.309  31.142  45.401  1.00  0.00    +0.000 H 
ATOM    117  H23 UNL A   1      19.335  31.490  43.974  1.00  0.00    +0.000 H 
BRANCH   26   25
ATOM     25  C21 UNL A   1      19.448  29.518  44.660  1.00  0.00    +0.000 C 
ATOM    114  H20 UNL A   1      20.331  29.393  44.069  1.00  0.00    +0.000 H 
ATOM    115  H21 UNL A   1      19.514  29.044  45.617  1.00  0.00    +0.000 H 
BRANCH   25   24
ATOM    113  H19 UNL A   1      18.083  27.935  44.437  1.00  0.00    +0.000 H 
ATOM    112  H18 UNL A   1      18.571  28.707  42.903  1.00  0.00    +0.000 H 
ATOM     24  C20 UNL A   1      18.282  28.852  43.923  1.00  0.00    +0.000 C 
BRANCH   24   23
ATOM    111  H17 UNL A   1      16.914  30.210  43.030  1.00  0.00    +0.000 H 
ATOM    110  H16 UNL A   1      16.982  30.305  44.788  1.00  0.00    +0.000 H 
ATOM     23  C19 UNL A   1      16.978  29.652  43.941  1.00  0.00    +0.000 C 
BRANCH   23   22
ATOM    109  H15 UNL A   1      15.274  28.807  44.840  1.00  0.00    +0.000 H 
ATOM     22  N2  UNL A   1      15.823  28.781  44.023  1.00  0.00    +0.000 N 
BRANCH   22    2
ATOM      1  O1  UNL A   1      15.136  28.286  41.892  1.00  0.00    +0.000 O 
ATOM      2  C1  UNL A   1      15.457  27.924  43.019  1.00  0.00    +0.000 C 
BRANCH    2    3
ATOM      3  C2  UNL A   1      15.458  26.464  43.420  1.00  0.00    +0.000 C 
ATOM     95  H1  UNL A   1      15.572  26.398  44.481  1.00  0.00    +0.000 H 
ATOM     96  H2  UNL A   1      16.267  25.985  42.909  1.00  0.00    +0.000 H 
BRANCH    3    4
ATOM     97  H3  UNL A   1      13.428  26.502  42.847  1.00  0.00    +0.000 H 
ATOM     98  H4  UNL A   1      13.950  25.090  43.830  1.00  0.00    +0.000 H 
ATOM      4  C3  UNL A   1      14.174  25.754  43.021  1.00  0.00    +0.000 C 
BRANCH    4    5
ATOM      5  C4  UNL A   1      14.244  24.890  41.804  1.00  0.00    +0.000 C 
ATOM      6  N1  UNL A   1      14.827  25.191  40.658  1.00  0.00    +0.000 N 
ATOM      7  C5  UNL A   1      14.605  24.090  39.874  1.00  0.00    +0.000 C 
ATOM     14  C12 UNL A   1      13.930  23.121  40.593  1.00  0.00    +0.000 C 
ATOM     21  O2  UNL A   1      13.671  23.638  41.838  1.00  0.00    +0.000 O 
BRANCH    7    8
ATOM     99  H5  UNL A   1      13.663  25.164  37.603  1.00  0.00    +0.000 H 
ATOM    100  H6  UNL A   1      14.200  24.488  35.336  1.00  0.00    +0.000 H 
ATOM    101  H7  UNL A   1      15.968  22.875  34.943  1.00  0.00    +0.000 H 
ATOM    102  H8  UNL A   1      17.252  22.002  36.806  1.00  0.00    +0.000 H 
ATOM    103  H9  UNL A   1      16.704  22.657  39.077  1.00  0.00    +0.000 H 
ATOM      8  C6  UNL A   1      15.096  23.909  38.524  1.00  0.00    +0.000 C 
ATOM      9  C7  UNL A   1      14.407  24.469  37.436  1.00  0.00    +0.000 C 
ATOM     10  C8  UNL A   1      14.723  24.091  36.131  1.00  0.00    +0.000 C 
ATOM     11  C9  UNL A   1      15.747  23.174  35.906  1.00  0.00    +0.000 C 
ATOM     12  C10 UNL A   1      16.475  22.659  36.979  1.00  0.00    +0.000 C 
ATOM     13  C11 UNL A   1      16.157  23.030  38.287  1.00  0.00    +0.000 C 
ENDBRANCH    7    8
BRANCH   14   15
ATOM    104  H10 UNL A   1      13.888  21.808  38.232  1.00  0.00    +0.000 H 
ATOM    105  H11 UNL A   1      13.387  19.463  37.857  1.00  0.00    +0.000 H 
ATOM    106  H12 UNL A   1      12.764  18.032  39.712  1.00  0.00    +0.000 H 
ATOM    107  H13 UNL A   1      12.570  18.958  41.945  1.00  0.00    +0.000 H 
ATOM    108  H14 UNL A   1      13.045  21.301  42.322  1.00  0.00    +0.000 H 
ATOM     15  C13 UNL A   1      13.537  21.747  40.313  1.00  0.00    +0.000 C 
ATOM     16  C14 UNL A   1      13.617  21.207  39.025  1.00  0.00    +0.000 C 
ATOM     17  C15 UNL A   1      13.327  19.855  38.810  1.00  0.00    +0.000 C 
ATOM     18  C16 UNL A   1      12.959  19.032  39.875  1.00  0.00    +0.000 C 
ATOM     19  C17 UNL A   1      12.853  19.561  41.156  1.00  0.00    +0.000 C 
ATOM     20  C18 UNL A   1      13.134  20.909  41.371  1.00  0.00    +0.000 C 
ENDBRANCH   14   15
ENDBRANCH    4    5
ENDBRANCH    3    4
ENDBRANCH    2    3
ENDBRANCH   22    2
ENDBRANCH   23   22
ENDBRANCH   24   23
ENDBRANCH   25   24
ENDBRANCH   26   25
ENDBRANCH   27   26
ENDBRANCH   28   27
ENDBRANCH   29   28
ENDBRANCH   30   29
ENDBRANCH   32   30
ENDBRANCH   36   35
BRANCH   40   41
ATOM     41  C34 UNL A   1      26.017  41.658  49.217  1.00  0.00    +0.000 C 
ATOM     42  C35 UNL A   1      25.826  41.382  50.580  1.00  0.00    +0.000 C 
ATOM     43  F1  UNL A   1      26.397  40.304  51.136  1.00  0.00    +0.000 F 
ATOM     44  C36 UNL A   1      25.001  42.184  51.365  1.00  0.00    +0.000 C 
ATOM     45  F2  UNL A   1      24.784  41.864  52.649  1.00  0.00    +0.000 F 
ATOM     46  C37 UNL A   1      24.385  43.297  50.814  1.00  0.00    +0.000 C 
ATOM     47  F3  UNL A   1      23.588  44.065  51.571  1.00  0.00    +0.000 F 
ATOM     48  C38 UNL A   1      24.584  43.606  49.478  1.00  0.00    +0.000 C 
ATOM     49  F4  UNL A   1      23.996  44.688  48.947  1.00  0.00    +0.000 F 
ATOM     50  C39 UNL A   1      25.384  42.790  48.682  1.00  0.00    +0.000 C 
ATOM     51  F5  UNL A   1      25.536  43.102  47.386  1.00  0.00    +0.000 F 
ENDBRANCH   40   41
BRANCH   57   58
ATOM     65  C49 UNL A   1      34.352  43.042  46.408  1.00  0.00    +0.000 C 
ATOM     66  F9  UNL A   1      34.601  44.152  45.701  1.00  0.00    +0.000 F 
ATOM     67  C50 UNL A   1      33.136  42.384  46.261  1.00  0.00    +0.000 C 
ATOM     68  F10 UNL A   1      32.226  42.887  45.412  1.00  0.00    +0.000 F 
ATOM     58  C45 UNL A   1      32.862  41.207  46.974  1.00  0.00    +0.000 C 
ATOM     59  C46 UNL A   1      33.846  40.720  47.846  1.00  0.00    +0.000 C 
ATOM     60  F6  UNL A   1      33.622  39.607  48.563  1.00  0.00    +0.000 F 
ATOM     61  C47 UNL A   1      35.053  41.394  48.009  1.00  0.00    +0.000 C 
ATOM     62  F7  UNL A   1      35.965  40.932  48.875  1.00  0.00    +0.000 F 
ATOM     63  C48 UNL A   1      35.307  42.550  47.285  1.00  0.00    +0.000 C 
ATOM     64  F8  UNL A   1      36.473  43.194  47.437  1.00  0.00    +0.000 F 
ENDBRANCH   57   58
BRANCH   72   73
ATOM     73  C54 UNL A   1      31.150  35.731  43.017  1.00  0.00    +0.000 C 
ATOM     74  C55 UNL A   1      31.282  36.139  41.683  1.00  0.00    +0.000 C 
ATOM     75  F11 UNL A   1      30.694  37.270  41.268  1.00  0.00    +0.000 F 
ATOM     76  C56 UNL A   1      32.000  35.376  40.765  1.00  0.00    +0.000 C 
ATOM     77  F12 UNL A   1      32.089  35.774  39.490  1.00  0.00    +0.000 F 
ATOM     78  C57 UNL A   1      32.617  34.201  41.169  1.00  0.00    +0.000 C 
ATOM     79  F13 UNL A   1      33.318  33.473  40.289  1.00  0.00    +0.000 F 
ATOM     80  C58 UNL A   1      32.505  33.780  42.486  1.00  0.00    +0.000 C 
ATOM     81  F14 UNL A   1      33.113  32.654  42.883  1.00  0.00    +0.000 F 
ATOM     82  C59 UNL A   1      31.769  34.532  43.400  1.00  0.00    +0.000 C 
ATOM     83  F15 UNL A   1      31.678  34.104  44.667  1.00  0.00    +0.000 F 
ENDBRANCH   72   73
TORSDOF 19
ENDMDL
MODEL 4
REMARK VINA RESULT:     -11.9     45.304     49.942
ROOT
ATOM    129  H35 UNL A   1      12.039  52.026   7.577  1.00  0.00    +0.000 H 
ATOM    130  H36 UNL A   1      14.324  51.197   4.205  1.00  0.00    +0.000 H 
ATOM    131  H37 UNL A   1      13.198  46.483   2.892  1.00  0.00    +0.000 H 
ATOM    132  H38 UNL A   1      14.809  46.795   0.927  1.00  0.00    +0.000 H 
ATOM    133  H39 UNL A   1      16.197  56.423   3.436  1.00  0.00    +0.000 H 
ATOM    134  H40 UNL A   1      14.990  56.002   5.655  1.00  0.00    +0.000 H 
ATOM     36  C30 UNL A   1      13.821  53.415   5.835  1.00  0.00    +0.000 C 
ATOM     37  C31 UNL A   1      14.726  53.935   4.759  1.00  0.00    +0.000 C 
ATOM     38  N4  UNL A   1      15.170  53.331   3.686  1.00  0.00    +0.000 N 
ATOM     39  C32 UNL A   1      15.908  54.284   2.999  1.00  0.00    +0.000 C 
ATOM     40  C33 UNL A   1      16.621  54.135   1.857  1.00  0.00    +0.000 C 
ATOM     52  C40 UNL A   1      16.735  52.894   1.137  1.00  0.00    +0.000 C 
ATOM     53  C41 UNL A   1      17.490  52.614   0.012  1.00  0.00    +0.000 C 
ATOM     54  C42 UNL A   1      17.253  51.282  -0.350  1.00  0.00    +0.000 C 
ATOM     55  C43 UNL A   1      16.381  50.723   0.571  1.00  0.00    +0.000 C 
ATOM     56  N5  UNL A   1      16.070  51.724   1.475  1.00  0.00    +0.000 N 
ATOM     57  C44 UNL A   1      15.871  49.377   0.621  1.00  0.00    +0.000 C 
ATOM     69  C51 UNL A   1      15.040  48.887   1.575  1.00  0.00    +0.000 C 
ATOM     70  N6  UNL A   1      14.497  49.535   2.674  1.00  0.00    +0.000 N 
ATOM     71  C52 UNL A   1      13.749  48.647   3.282  1.00  0.00    +0.000 C 
ATOM     72  C53 UNL A   1      12.929  48.800   4.532  1.00  0.00    +0.000 C 
ATOM     84  C60 UNL A   1      12.980  49.962   5.208  1.00  0.00    +0.000 C 
ATOM     85  C61 UNL A   1      12.235  50.264   6.425  1.00  0.00    +0.000 C 
ATOM     86  C62 UNL A   1      12.461  51.541   6.769  1.00  0.00    +0.000 C 
ATOM     87  C63 UNL A   1      13.400  52.136   5.816  1.00  0.00    +0.000 C 
ATOM     88  N7  UNL A   1      13.682  51.114   4.946  1.00  0.00    +0.000 N 
ATOM     89  C64 UNL A   1      13.722  47.332   2.628  1.00  0.00    +0.000 C 
ATOM     90  C65 UNL A   1      14.549  47.524   1.609  1.00  0.00    +0.000 C 
ATOM     91  C66 UNL A   1      15.809  55.519   3.748  1.00  0.00    +0.000 C 
ATOM     92  C67 UNL A   1      15.155  55.336   4.885  1.00  0.00    +0.000 C 
ATOM    125  H31 UNL A   1      18.118  53.271  -0.475  1.00  0.00    +0.000 H 
ATOM    126  H32 UNL A   1      17.661  50.798  -1.165  1.00  0.00    +0.000 H 
ATOM    127  H33 UNL A   1      15.465  51.620   2.246  1.00  0.00    +0.000 H 
ATOM    128  H34 UNL A   1      11.631  49.602   6.938  1.00  0.00    +0.000 H 
ENDROOT
BRANCH   36   35
ATOM     33  C27 UNL A   1      13.229  55.258   9.091  1.00  0.00    +0.000 C 
ATOM     34  C28 UNL A   1      13.872  54.512   8.104  1.00  0.00    +0.000 C 
ATOM     35  C29 UNL A   1      13.269  54.345   6.847  1.00  0.00    +0.000 C 
ATOM    135  H41 UNL A   1      11.655  54.944   5.615  1.00  0.00    +0.000 H 
ATOM    136  H42 UNL A   1      10.669  56.424   7.261  1.00  0.00    +0.000 H 
ATOM    123  H29 UNL A   1      13.650  55.355  10.029  1.00  0.00    +0.000 H 
ATOM    124  H30 UNL A   1      14.790  54.082   8.297  1.00  0.00    +0.000 H 
ATOM     93  C68 UNL A   1      12.085  55.038   6.549  1.00  0.00    +0.000 C 
ATOM     94  C69 UNL A   1      11.489  55.848   7.504  1.00  0.00    +0.000 C 
ATOM     32  C26 UNL A   1      12.011  55.876   8.799  1.00  0.00    +0.000 C 
BRANCH   32   30
ATOM     30  C25 UNL A   1      11.238  56.489   9.898  1.00  0.00    +0.000 C 
ATOM     31  O3  UNL A   1      11.324  57.689  10.110  1.00  0.00    +0.000 O 
BRANCH   30   29
ATOM    122  H28 UNL A   1       9.519  55.943  10.768  1.00  0.00    +0.000 H 
ATOM     29  N3  UNL A   1      10.463  55.676  10.694  1.00  0.00    +0.000 N 
BRANCH   29   28
ATOM    121  H27 UNL A   1      10.606  54.671  12.472  1.00  0.00    +0.000 H 
ATOM     28  C24 UNL A   1      10.830  54.480  11.444  1.00  0.00    +0.000 C 
ATOM    120  H26 UNL A   1      11.871  54.287  11.285  1.00  0.00    +0.000 H 
BRANCH   28   27
ATOM     27  C23 UNL A   1      10.042  53.240  11.034  1.00  0.00    +0.000 C 
ATOM    118  H24 UNL A   1      10.091  52.531  11.834  1.00  0.00    +0.000 H 
ATOM    119  H25 UNL A   1       9.042  53.566  10.829  1.00  0.00    +0.000 H 
BRANCH   27   26
ATOM     26  C22 UNL A   1      10.547  52.564   9.766  1.00  0.00    +0.000 C 
ATOM    116  H22 UNL A   1       9.907  52.855   8.958  1.00  0.00    +0.000 H 
ATOM    117  H23 UNL A   1      11.562  52.883   9.647  1.00  0.00    +0.000 H 
BRANCH   26   25
ATOM     25  C21 UNL A   1      10.590  51.038   9.805  1.00  0.00    +0.000 C 
ATOM    114  H20 UNL A   1      11.414  50.711   9.206  1.00  0.00    +0.000 H 
ATOM    115  H21 UNL A   1      10.685  50.763  10.835  1.00  0.00    +0.000 H 
BRANCH   25   24
ATOM    113  H19 UNL A   1       9.549  49.995   8.304  1.00  0.00    +0.000 H 
ATOM    112  H18 UNL A   1       8.527  51.068   9.300  1.00  0.00    +0.000 H 
ATOM     24  C20 UNL A   1       9.322  50.353   9.287  1.00  0.00    +0.000 C 
BRANCH   24   23
ATOM    111  H17 UNL A   1       7.818  49.037  10.012  1.00  0.00    +0.000 H 
ATOM    110  H16 UNL A   1       9.165  49.275  11.121  1.00  0.00    +0.000 H 
ATOM     23  C19 UNL A   1       8.880  49.134  10.100  1.00  0.00    +0.000 C 
BRANCH   23   22
ATOM    109  H15 UNL A   1       9.408  47.708   8.646  1.00  0.00    +0.000 H 
ATOM     22  N2  UNL A   1       9.491  47.916   9.605  1.00  0.00    +0.000 N 
BRANCH   22    2
ATOM      1  O1  UNL A   1      10.103  47.031  11.630  1.00  0.00    +0.000 O 
ATOM      2  C1  UNL A   1      10.178  47.042  10.406  1.00  0.00    +0.000 C 
BRANCH    2    3
ATOM      3  C2  UNL A   1      11.071  46.081   9.651  1.00  0.00    +0.000 C 
ATOM     95  H1  UNL A   1      11.097  46.372   8.621  1.00  0.00    +0.000 H 
ATOM     96  H2  UNL A   1      10.668  45.097   9.769  1.00  0.00    +0.000 H 
BRANCH    3    4
ATOM     97  H3  UNL A   1      13.024  45.285   9.691  1.00  0.00    +0.000 H 
ATOM     98  H4  UNL A   1      12.396  45.930  11.248  1.00  0.00    +0.000 H 
ATOM      4  C3  UNL A   1      12.493  46.068  10.191  1.00  0.00    +0.000 C 
BRANCH    4    5
ATOM      5  C4  UNL A   1      13.277  47.329  10.023  1.00  0.00    +0.000 C 
ATOM      6  N1  UNL A   1      13.433  48.283  10.921  1.00  0.00    +0.000 N 
ATOM      7  C5  UNL A   1      14.214  49.213  10.285  1.00  0.00    +0.000 C 
ATOM     14  C12 UNL A   1      14.555  48.764   9.023  1.00  0.00    +0.000 C 
ATOM     21  O2  UNL A   1      13.934  47.554   8.834  1.00  0.00    +0.000 O 
BRANCH    7    8
ATOM     99  H5  UNL A   1      16.547  49.629  11.543  1.00  0.00    +0.000 H 
ATOM    100  H6  UNL A   1      17.145  51.537  12.915  1.00  0.00    +0.000 H 
ATOM    101  H7  UNL A   1      15.677  53.466  13.009  1.00  0.00    +0.000 H 
ATOM    102  H8  UNL A   1      13.655  53.520  11.671  1.00  0.00    +0.000 H 
ATOM    103  H9  UNL A   1      13.040  51.603  10.314  1.00  0.00    +0.000 H 
ATOM      8  C6  UNL A   1      14.709  50.438  10.876  1.00  0.00    +0.000 C 
ATOM      9  C7  UNL A   1      15.916  50.444  11.593  1.00  0.00    +0.000 C 
ATOM     10  C8  UNL A   1      16.268  51.546  12.373  1.00  0.00    +0.000 C 
ATOM     11  C9  UNL A   1      15.430  52.658  12.415  1.00  0.00    +0.000 C 
ATOM     12  C10 UNL A   1      14.258  52.682  11.658  1.00  0.00    +0.000 C 
ATOM     13  C11 UNL A   1      13.900  51.578  10.882  1.00  0.00    +0.000 C 
ENDBRANCH    7    8
BRANCH   14   15
ATOM    104  H10 UNL A   1      15.518  47.487   6.846  1.00  0.00    +0.000 H 
ATOM    105  H11 UNL A   1      16.835  48.435   5.042  1.00  0.00    +0.000 H 
ATOM    106  H12 UNL A   1      17.499  50.765   5.103  1.00  0.00    +0.000 H 
ATOM    107  H13 UNL A   1      16.908  52.144   7.010  1.00  0.00    +0.000 H 
ATOM    108  H14 UNL A   1      15.615  51.197   8.824  1.00  0.00    +0.000 H 
ATOM     15  C13 UNL A   1      15.431  49.269   7.975  1.00  0.00    +0.000 C 
ATOM     16  C14 UNL A   1      15.803  48.477   6.884  1.00  0.00    +0.000 C 
ATOM     17  C15 UNL A   1      16.563  49.025   5.843  1.00  0.00    +0.000 C 
ATOM     18  C16 UNL A   1      16.955  50.364   5.882  1.00  0.00    +0.000 C 
ATOM     19  C17 UNL A   1      16.611  51.156   6.972  1.00  0.00    +0.000 C 
ATOM     20  C18 UNL A   1      15.860  50.609   8.012  1.00  0.00    +0.000 C 
ENDBRANCH   14   15
ENDBRANCH    4    5
ENDBRANCH    3    4
ENDBRANCH    2    3
ENDBRANCH   22    2
ENDBRANCH   23   22
ENDBRANCH   24   23
ENDBRANCH   25   24
ENDBRANCH   26   25
ENDBRANCH   27   26
ENDBRANCH   28   27
ENDBRANCH   29   28
ENDBRANCH   30   29
ENDBRANCH   32   30
ENDBRANCH   36   35
BRANCH   40   41
ATOM     41  C34 UNL A   1      17.331  55.345   1.329  1.00  0.00    +0.000 C 
ATOM     42  C35 UNL A   1      18.640  55.660   1.726  1.00  0.00    +0.000 C 
ATOM     43  F1  UNL A   1      19.284  54.880   2.608  1.00  0.00    +0.000 F 
ATOM     44  C36 UNL A   1      19.274  56.809   1.260  1.00  0.00    +0.000 C 
ATOM     45  F2  UNL A   1      20.501  57.122   1.703  1.00  0.00    +0.000 F 
ATOM     46  C37 UNL A   1      18.629  57.643   0.360  1.00  0.00    +0.000 C 
ATOM     47  F3  UNL A   1      19.240  58.750  -0.084  1.00  0.00    +0.000 F 
ATOM     48  C38 UNL A   1      17.348  57.335  -0.071  1.00  0.00    +0.000 C 
ATOM     49  F4  UNL A   1      16.727  58.136  -0.949  1.00  0.00    +0.000 F 
ATOM     50  C39 UNL A   1      16.699  56.203   0.416  1.00  0.00    +0.000 C 
ATOM     51  F5  UNL A   1      15.449  55.947   0.001  1.00  0.00    +0.000 F 
ENDBRANCH   40   41
BRANCH   57   58
ATOM     65  C49 UNL A   1      18.011  47.029  -1.468  1.00  0.00    +0.000 C 
ATOM     66  F9  UNL A   1      19.250  46.520  -1.445  1.00  0.00    +0.000 F 
ATOM     67  C50 UNL A   1      17.586  47.867  -0.443  1.00  0.00    +0.000 C 
ATOM     68  F10 UNL A   1      18.431  48.142   0.561  1.00  0.00    +0.000 F 
ATOM     58  C45 UNL A   1      16.300  48.429  -0.459  1.00  0.00    +0.000 C 
ATOM     59  C46 UNL A   1      15.454  48.114  -1.532  1.00  0.00    +0.000 C 
ATOM     60  F6  UNL A   1      14.210  48.615  -1.580  1.00  0.00    +0.000 F 
ATOM     61  C47 UNL A   1      15.875  47.256  -2.544  1.00  0.00    +0.000 C 
ATOM     62  F7  UNL A   1      15.039  46.939  -3.541  1.00  0.00    +0.000 F 
ATOM     63  C48 UNL A   1      17.155  46.720  -2.515  1.00  0.00    +0.000 C 
ATOM     64  F8  UNL A   1      17.561  45.900  -3.494  1.00  0.00    +0.000 F 
ENDBRANCH   57   58
BRANCH   72   73
ATOM     73  C54 UNL A   1      12.089  47.690   5.046  1.00  0.00    +0.000 C 
ATOM     74  C55 UNL A   1      10.704  47.682   4.834  1.00  0.00    +0.000 C 
ATOM     75  F11 UNL A   1      10.118  48.713   4.207  1.00  0.00    +0.000 F 
ATOM     76  C56 UNL A   1       9.912  46.629   5.286  1.00  0.00    +0.000 C 
ATOM     77  F12 UNL A   1       8.587  46.659   5.095  1.00  0.00    +0.000 F 
ATOM     78  C57 UNL A   1      10.493  45.552   5.938  1.00  0.00    +0.000 C 
ATOM     79  F13 UNL A   1       9.734  44.533   6.362  1.00  0.00    +0.000 F 
ATOM     80  C58 UNL A   1      11.864  45.534   6.154  1.00  0.00    +0.000 C 
ATOM     81  F14 UNL A   1      12.431  44.488   6.769  1.00  0.00    +0.000 F 
ATOM     82  C59 UNL A   1      12.654  46.598   5.721  1.00  0.00    +0.000 C 
ATOM     83  F15 UNL A   1      13.975  46.554   5.940  1.00  0.00    +0.000 F 
ENDBRANCH   72   73
TORSDOF 19
ENDMDL
MODEL 5
REMARK VINA RESULT:     -11.8     44.936     50.108
ROOT
ATOM    129  H35 UNL A   1      12.189  52.104   7.571  1.00  0.00    +0.000 H 
ATOM    130  H36 UNL A   1      14.500  51.254   4.223  1.00  0.00    +0.000 H 
ATOM    131  H37 UNL A   1      13.436  46.509   2.971  1.00  0.00    +0.000 H 
ATOM    132  H38 UNL A   1      15.053  46.812   1.010  1.00  0.00    +0.000 H 
ATOM    133  H39 UNL A   1      16.316  56.490   3.388  1.00  0.00    +0.000 H 
ATOM    134  H40 UNL A   1      15.102  56.087   5.607  1.00  0.00    +0.000 H 
ATOM     36  C30 UNL A   1      13.963  53.489   5.819  1.00  0.00    +0.000 C 
ATOM     37  C31 UNL A   1      14.867  54.004   4.740  1.00  0.00    +0.000 C 
ATOM     38  N4  UNL A   1      15.323  53.391   3.677  1.00  0.00    +0.000 N 
ATOM     39  C32 UNL A   1      16.054  54.343   2.981  1.00  0.00    +0.000 C 
ATOM     40  C33 UNL A   1      16.773  54.185   1.844  1.00  0.00    +0.000 C 
ATOM     52  C40 UNL A   1      16.905  52.936   1.142  1.00  0.00    +0.000 C 
ATOM     53  C41 UNL A   1      17.669  52.649   0.025  1.00  0.00    +0.000 C 
ATOM     54  C42 UNL A   1      17.450  51.309  -0.319  1.00  0.00    +0.000 C 
ATOM     55  C43 UNL A   1      16.580  50.753   0.606  1.00  0.00    +0.000 C 
ATOM     56  N5  UNL A   1      16.252  51.763   1.494  1.00  0.00    +0.000 N 
ATOM     57  C44 UNL A   1      16.085  49.402   0.672  1.00  0.00    +0.000 C 
ATOM     69  C51 UNL A   1      15.256  48.916   1.629  1.00  0.00    +0.000 C 
ATOM     70  N6  UNL A   1      14.700  49.573   2.716  1.00  0.00    +0.000 N 
ATOM     71  C52 UNL A   1      13.959  48.685   3.333  1.00  0.00    +0.000 C 
ATOM     72  C53 UNL A   1      13.132  48.846   4.577  1.00  0.00    +0.000 C 
ATOM     84  C60 UNL A   1      13.166  50.018   5.237  1.00  0.00    +0.000 C 
ATOM     85  C61 UNL A   1      12.411  50.328   6.447  1.00  0.00    +0.000 C 
ATOM     86  C62 UNL A   1      12.620  51.612   6.773  1.00  0.00    +0.000 C 
ATOM     87  C63 UNL A   1      13.557  52.205   5.816  1.00  0.00    +0.000 C 
ATOM     88  N7  UNL A   1      13.855  51.174   4.962  1.00  0.00    +0.000 N 
ATOM     89  C64 UNL A   1      13.951  47.361   2.698  1.00  0.00    +0.000 C 
ATOM     90  C65 UNL A   1      14.781  47.547   1.680  1.00  0.00    +0.000 C 
ATOM     91  C66 UNL A   1      15.936  55.586   3.711  1.00  0.00    +0.000 C 
ATOM     92  C67 UNL A   1      15.279  55.412   4.847  1.00  0.00    +0.000 C 
ATOM    125  H31 UNL A   1      18.291  53.306  -0.469  1.00  0.00    +0.000 H 
ATOM    126  H32 UNL A   1      17.867  50.818  -1.126  1.00  0.00    +0.000 H 
ATOM    127  H33 UNL A   1      15.645  51.663   2.263  1.00  0.00    +0.000 H 
ATOM    128  H34 UNL A   1      11.812  49.666   6.966  1.00  0.00    +0.000 H 
ENDROOT
BRANCH   36   35
ATOM     33  C27 UNL A   1      13.266  55.304   9.070  1.00  0.00    +0.000 C 
ATOM     34  C28 UNL A   1      13.931  54.545   8.107  1.00  0.00    +0.000 C 
ATOM     35  C29 UNL A   1      13.395  54.427   6.815  1.00  0.00    +0.000 C 
ATOM    135  H41 UNL A   1      11.885  55.119   5.504  1.00  0.00    +0.000 H 
ATOM    136  H42 UNL A   1      10.871  56.616   7.118  1.00  0.00    +0.000 H 
ATOM    123  H29 UNL A   1      13.636  55.366  10.032  1.00  0.00    +0.000 H 
ATOM    124  H30 UNL A   1      14.816  54.071   8.344  1.00  0.00    +0.000 H 
ATOM     93  C68 UNL A   1      12.263  55.178   6.462  1.00  0.00    +0.000 C 
ATOM     94  C69 UNL A   1      11.649  55.999   7.397  1.00  0.00    +0.000 C 
ATOM     32  C26 UNL A   1      12.095  55.981   8.720  1.00  0.00    +0.000 C 
BRANCH   32   30
ATOM     30  C25 UNL A   1      11.289  56.611   9.784  1.00  0.00    +0.000 C 
ATOM     31  O3  UNL A   1      11.426  57.799  10.033  1.00  0.00    +0.000 O 
BRANCH   30   29
ATOM    122  H28 UNL A   1       9.528  55.714  10.109  1.00  0.00    +0.000 H 
ATOM     29  N3  UNL A   1      10.421  55.825  10.508  1.00  0.00    +0.000 N 
BRANCH   29   28
ATOM    121  H27 UNL A   1       9.937  55.551  12.479  1.00  0.00    +0.000 H 
ATOM     28  C24 UNL A   1      10.625  55.132  11.775  1.00  0.00    +0.000 C 
ATOM    120  H26 UNL A   1      11.644  55.268  12.075  1.00  0.00    +0.000 H 
BRANCH   28   27
ATOM     27  C23 UNL A   1      10.339  53.635  11.703  1.00  0.00    +0.000 C 
ATOM    118  H24 UNL A   1      10.864  53.154  12.502  1.00  0.00    +0.000 H 
ATOM    119  H25 UNL A   1       9.277  53.523  11.775  1.00  0.00    +0.000 H 
BRANCH   27   26
ATOM     26  C22 UNL A   1      10.758  52.977  10.394  1.00  0.00    +0.000 C 
ATOM    116  H22 UNL A   1      10.376  53.570   9.589  1.00  0.00    +0.000 H 
ATOM    117  H23 UNL A   1      11.827  52.925  10.421  1.00  0.00    +0.000 H 
BRANCH   26   25
ATOM     25  C21 UNL A   1      10.273  51.543  10.193  1.00  0.00    +0.000 C 
ATOM    114  H20 UNL A   1      10.497  51.253   9.188  1.00  0.00    +0.000 H 
ATOM    115  H21 UNL A   1      10.778  50.947  10.925  1.00  0.00    +0.000 H 
BRANCH   25   24
ATOM    113  H19 UNL A   1       8.279  51.692   9.544  1.00  0.00    +0.000 H 
ATOM    112  H18 UNL A   1       8.496  51.880  11.307  1.00  0.00    +0.000 H 
ATOM     24  C20 UNL A   1       8.773  51.340  10.426  1.00  0.00    +0.000 C 
BRANCH   24   23
ATOM    111  H17 UNL A   1       7.436  49.727  10.073  1.00  0.00    +0.000 H 
ATOM    110  H16 UNL A   1       8.218  49.684  11.651  1.00  0.00    +0.000 H 
ATOM     23  C19 UNL A   1       8.349  49.881  10.608  1.00  0.00    +0.000 C 
BRANCH   23   22
ATOM    109  H15 UNL A   1       9.807  49.214   9.245  1.00  0.00    +0.000 H 
ATOM     22  N2  UNL A   1       9.345  48.970  10.079  1.00  0.00    +0.000 N 
BRANCH   22    2
ATOM      1  O1  UNL A   1       9.222  47.419  11.763  1.00  0.00    +0.000 O 
ATOM      2  C1  UNL A   1       9.674  47.785  10.684  1.00  0.00    +0.000 C 
BRANCH    2    3
ATOM      3  C2  UNL A   1      10.676  46.953   9.913  1.00  0.00    +0.000 C 
ATOM     95  H1  UNL A   1      10.889  47.442   8.986  1.00  0.00    +0.000 H 
ATOM     96  H2  UNL A   1      10.246  45.986   9.754  1.00  0.00    +0.000 H 
BRANCH    3    4
ATOM     97  H3  UNL A   1      12.503  45.946  10.224  1.00  0.00    +0.000 H 
ATOM     98  H4  UNL A   1      11.692  46.594  11.692  1.00  0.00    +0.000 H 
ATOM      4  C3  UNL A   1      11.978  46.762  10.675  1.00  0.00    +0.000 C 
BRANCH    4    5
ATOM      5  C4  UNL A   1      12.904  47.935  10.709  1.00  0.00    +0.000 C 
ATOM      6  N1  UNL A   1      14.002  48.091   9.993  1.00  0.00    +0.000 N 
ATOM      7  C5  UNL A   1      14.490  49.306  10.395  1.00  0.00    +0.000 C 
ATOM     14  C12 UNL A   1      13.636  49.881  11.317  1.00  0.00    +0.000 C 
ATOM     21  O2  UNL A   1      12.616  48.990  11.546  1.00  0.00    +0.000 O 
BRANCH    7    8
ATOM     99  H5  UNL A   1      14.780  50.538   8.029  1.00  0.00    +0.000 H 
ATOM    100  H6  UNL A   1      16.862  51.198   6.973  1.00  0.00    +0.000 H 
ATOM    101  H7  UNL A   1      18.945  51.039   8.204  1.00  0.00    +0.000 H 
ATOM    102  H8  UNL A   1      18.938  50.298  10.514  1.00  0.00    +0.000 H 
ATOM    103  H9  UNL A   1      16.861  49.614  11.568  1.00  0.00    +0.000 H 
ATOM      8  C6  UNL A   1      15.668  49.956   9.860  1.00  0.00    +0.000 C 
ATOM      9  C7  UNL A   1      15.669  50.458   8.548  1.00  0.00    +0.000 C 
ATOM     10  C8  UNL A   1      16.863  50.850   7.944  1.00  0.00    +0.000 C 
ATOM     11  C9  UNL A   1      18.057  50.771   8.657  1.00  0.00    +0.000 C 
ATOM     12  C10 UNL A   1      18.054  50.329   9.981  1.00  0.00    +0.000 C 
ATOM     13  C11 UNL A   1      16.862  49.929  10.586  1.00  0.00    +0.000 C 
ENDBRANCH    7    8
BRANCH   14   15
ATOM    104  H10 UNL A   1      12.583  50.526  13.720  1.00  0.00    +0.000 H 
ATOM    105  H11 UNL A   1      12.694  52.670  14.852  1.00  0.00    +0.000 H 
ATOM    106  H12 UNL A   1      13.779  54.560  13.791  1.00  0.00    +0.000 H 
ATOM    107  H13 UNL A   1      14.698  54.334  11.557  1.00  0.00    +0.000 H 
ATOM    108  H14 UNL A   1      14.568  52.205  10.414  1.00  0.00    +0.000 H 
ATOM     15  C13 UNL A   1      13.591  51.176  11.983  1.00  0.00    +0.000 C 
ATOM     16  C14 UNL A   1      13.039  51.328  13.259  1.00  0.00    +0.000 C 
ATOM     17  C15 UNL A   1      13.104  52.565  13.911  1.00  0.00    +0.000 C 
ATOM     18  C16 UNL A   1      13.720  53.656  13.297  1.00  0.00    +0.000 C 
ATOM     19  C17 UNL A   1      14.252  53.525  12.020  1.00  0.00    +0.000 C 
ATOM     20  C18 UNL A   1      14.181  52.296  11.367  1.00  0.00    +0.000 C 
ENDBRANCH   14   15
ENDBRANCH    4    5
ENDBRANCH    3    4
ENDBRANCH    2    3
ENDBRANCH   22    2
ENDBRANCH   23   22
ENDBRANCH   24   23
ENDBRANCH   25   24
ENDBRANCH   26   25
ENDBRANCH   27   26
ENDBRANCH   28   27
ENDBRANCH   29   28
ENDBRANCH   30   29
ENDBRANCH   32   30
ENDBRANCH   36   35
BRANCH   40   41
ATOM     41  C34 UNL A   1      17.472  55.396   1.302  1.00  0.00    +0.000 C 
ATOM     42  C35 UNL A   1      16.842  56.262   0.393  1.00  0.00    +0.000 C 
ATOM     43  F1  UNL A   1      15.592  56.010  -0.023  1.00  0.00    +0.000 F 
ATOM     44  C36 UNL A   1      17.516  57.360  -0.135  1.00  0.00    +0.000 C 
ATOM     45  F2  UNL A   1      16.915  58.136  -1.050  1.00  0.00    +0.000 F 
ATOM     46  C37 UNL A   1      18.814  57.637   0.263  1.00  0.00    +0.000 C 
ATOM     47  F3  UNL A   1      19.462  58.693  -0.250  1.00  0.00    +0.000 F 
ATOM     48  C38 UNL A   1      19.445  56.815   1.183  1.00  0.00    +0.000 C 
ATOM     49  F4  UNL A   1      20.697  57.088   1.576  1.00  0.00    +0.000 F 
ATOM     50  C39 UNL A   1      18.786  55.698   1.691  1.00  0.00    +0.000 C 
ATOM     51  F5  UNL A   1      19.433  54.906   2.560  1.00  0.00    +0.000 F 
ENDBRANCH   40   41
BRANCH   57   58
ATOM     65  C49 UNL A   1      18.257  47.036  -1.363  1.00  0.00    +0.000 C 
ATOM     66  F9  UNL A   1      19.496  46.529  -1.318  1.00  0.00    +0.000 F 
ATOM     67  C50 UNL A   1      17.817  47.884  -0.352  1.00  0.00    +0.000 C 
ATOM     68  F10 UNL A   1      18.648  48.170   0.661  1.00  0.00    +0.000 F 
ATOM     58  C45 UNL A   1      16.531  48.444  -0.392  1.00  0.00    +0.000 C 
ATOM     59  C46 UNL A   1      15.701  48.117  -1.473  1.00  0.00    +0.000 C 
ATOM     60  F6  UNL A   1      14.457  48.616  -1.545  1.00  0.00    +0.000 F 
ATOM     61  C47 UNL A   1      16.137  47.250  -2.471  1.00  0.00    +0.000 C 
ATOM     62  F7  UNL A   1      15.315  46.922  -3.477  1.00  0.00    +0.000 F 
ATOM     63  C48 UNL A   1      17.416  46.716  -2.418  1.00  0.00    +0.000 C 
ATOM     64  F8  UNL A   1      17.837  45.887  -3.384  1.00  0.00    +0.000 F 
ENDBRANCH   57   58
BRANCH   72   73
ATOM     73  C54 UNL A   1      12.302  47.733   5.103  1.00  0.00    +0.000 C 
ATOM     74  C55 UNL A   1      12.753  46.947   6.171  1.00  0.00    +0.000 C 
ATOM     75  F11 UNL A   1      13.968  47.163   6.695  1.00  0.00    +0.000 F 
ATOM     76  C56 UNL A   1      11.967  45.920   6.691  1.00  0.00    +0.000 C 
ATOM     77  F12 UNL A   1      12.432  45.166   7.695  1.00  0.00    +0.000 F 
ATOM     78  C57 UNL A   1      10.707  45.675   6.167  1.00  0.00    +0.000 C 
ATOM     79  F13 UNL A   1       9.946  44.696   6.674  1.00  0.00    +0.000 F 
ATOM     80  C58 UNL A   1      10.237  46.444   5.113  1.00  0.00    +0.000 C 
ATOM     81  F14 UNL A   1       9.014  46.221   4.614  1.00  0.00    +0.000 F 
ATOM     82  C59 UNL A   1      11.031  47.457   4.578  1.00  0.00    +0.000 C 
ATOM     83  F15 UNL A   1      10.552  48.187   3.561  1.00  0.00    +0.000 F 
ENDBRANCH   72   73
TORSDOF 19
ENDMDL
MODEL 6
REMARK VINA RESULT:     -11.7     39.967     46.780
ROOT
ATOM    129  H35 UNL A   1      23.754  37.287  47.397  1.00  0.00    +0.000 H 
ATOM    130  H36 UNL A   1      27.593  38.684  46.628  1.00  0.00    +0.000 H 
ATOM    131  H37 UNL A   1      28.403  42.392  49.915  1.00  0.00    +0.000 H 
ATOM    132  H38 UNL A   1      30.741  42.599  48.892  1.00  0.00    +0.000 H 
ATOM    133  H39 UNL A   1      29.004  34.636  43.018  1.00  0.00    +0.000 H 
ATOM    134  H40 UNL A   1      26.528  34.716  43.669  1.00  0.00    +0.000 H 
ATOM     36  C30 UNL A   1      25.957  36.603  45.718  1.00  0.00    +0.000 C 
ATOM     37  C31 UNL A   1      27.254  36.409  44.993  1.00  0.00    +0.000 C 
ATOM     38  N4  UNL A   1      28.388  37.046  45.137  1.00  0.00    +0.000 N 
ATOM     39  C32 UNL A   1      29.279  36.423  44.274  1.00  0.00    +0.000 C 
ATOM     40  C33 UNL A   1      30.567  36.752  44.013  1.00  0.00    +0.000 C 
ATOM     52  C40 UNL A   1      31.252  37.864  44.618  1.00  0.00    +0.000 C 
ATOM     53  C41 UNL A   1      32.530  38.330  44.369  1.00  0.00    +0.000 C 
ATOM     54  C42 UNL A   1      32.773  39.412  45.224  1.00  0.00    +0.000 C 
ATOM     55  C43 UNL A   1      31.632  39.642  45.978  1.00  0.00    +0.000 C 
ATOM     56  N5  UNL A   1      30.709  38.684  45.597  1.00  0.00    +0.000 N 
ATOM     57  C44 UNL A   1      31.403  40.661  46.971  1.00  0.00    +0.000 C 
ATOM     69  C51 UNL A   1      30.245  40.849  47.650  1.00  0.00    +0.000 C 
ATOM     70  N6  UNL A   1      29.061  40.132  47.567  1.00  0.00    +0.000 N 
ATOM     71  C52 UNL A   1      28.245  40.686  48.432  1.00  0.00    +0.000 C 
ATOM     72  C53 UNL A   1      26.824  40.319  48.758  1.00  0.00    +0.000 C 
ATOM     84  C60 UNL A   1      26.224  39.343  48.053  1.00  0.00    +0.000 C 
ATOM     85  C61 UNL A   1      24.860  38.869  48.260  1.00  0.00    +0.000 C 
ATOM     86  C62 UNL A   1      24.630  37.830  47.442  1.00  0.00    +0.000 C 
ATOM     87  C63 UNL A   1      25.821  37.592  46.623  1.00  0.00    +0.000 C 
ATOM     88  N7  UNL A   1      26.703  38.561  47.030  1.00  0.00    +0.000 N 
ATOM     89  C64 UNL A   1      28.825  41.813  49.173  1.00  0.00    +0.000 C 
ATOM     90  C65 UNL A   1      30.036  41.889  48.637  1.00  0.00    +0.000 C 
ATOM     91  C66 UNL A   1      28.571  35.326  43.652  1.00  0.00    +0.000 C 
ATOM     92  C67 UNL A   1      27.294  35.322  44.003  1.00  0.00    +0.000 C 
ATOM    125  H31 UNL A   1      33.190  37.948  43.675  1.00  0.00    +0.000 H 
ATOM    126  H32 UNL A   1      33.653  39.949  45.283  1.00  0.00    +0.000 H 
ATOM    127  H33 UNL A   1      29.800  38.597  45.967  1.00  0.00    +0.000 H 
ATOM    128  H34 UNL A   1      24.182  39.267  48.929  1.00  0.00    +0.000 H 
ENDROOT
BRANCH   36   35
ATOM     33  C27 UNL A   1      23.872  33.452  45.985  1.00  0.00    +0.000 C 
ATOM     34  C28 UNL A   1      24.816  34.432  46.294  1.00  0.00    +0.000 C 
ATOM     35  C29 UNL A   1      24.862  35.620  45.549  1.00  0.00    +0.000 C 
ATOM    135  H41 UNL A   1      23.887  36.759  44.055  1.00  0.00    +0.000 H 
ATOM    136  H42 UNL A   1      22.113  35.149  43.686  1.00  0.00    +0.000 H 
ATOM    123  H29 UNL A   1      23.856  32.561  46.506  1.00  0.00    +0.000 H 
ATOM    124  H30 UNL A   1      25.479  34.282  47.070  1.00  0.00    +0.000 H 
ATOM     93  C68 UNL A   1      23.876  35.871  44.582  1.00  0.00    +0.000 C 
ATOM     94  C69 UNL A   1      22.886  34.932  44.332  1.00  0.00    +0.000 C 
ATOM     32  C26 UNL A   1      22.948  33.689  44.965  1.00  0.00    +0.000 C 
BRANCH   32   30
ATOM     30  C25 UNL A   1      22.090  32.579  44.505  1.00  0.00    +0.000 C 
ATOM     31  O3  UNL A   1      22.395  31.943  43.508  1.00  0.00    +0.000 O 
BRANCH   30   29
ATOM    122  H28 UNL A   1      20.928  31.464  45.696  1.00  0.00    +0.000 H 
ATOM     29  N3  UNL A   1      20.930  32.312  45.196  1.00  0.00    +0.000 N 
BRANCH   29   28
ATOM    121  H27 UNL A   1      19.876  33.862  46.023  1.00  0.00    +0.000 H 
ATOM     28  C24 UNL A   1      19.703  33.094  45.298  1.00  0.00    +0.000 C 
ATOM    120  H26 UNL A   1      18.907  32.439  45.585  1.00  0.00    +0.000 H 
BRANCH   28   27
ATOM     27  C23 UNL A   1      19.313  33.786  43.995  1.00  0.00    +0.000 C 
ATOM    118  H24 UNL A   1      19.110  34.814  44.209  1.00  0.00    +0.000 H 
ATOM    119  H25 UNL A   1      20.135  33.655  43.322  1.00  0.00    +0.000 H 
BRANCH   27   26
ATOM     26  C22 UNL A   1      18.090  33.191  43.309  1.00  0.00    +0.000 C 
ATOM    116  H22 UNL A   1      17.325  33.940  43.289  1.00  0.00    +0.000 H 
ATOM    117  H23 UNL A   1      18.418  32.885  42.337  1.00  0.00    +0.000 H 
BRANCH   26   25
ATOM     25  C21 UNL A   1      17.508  31.942  43.966  1.00  0.00    +0.000 C 
ATOM    114  H20 UNL A   1      17.990  31.805  44.911  1.00  0.00    +0.000 H 
ATOM    115  H21 UNL A   1      16.454  32.108  44.053  1.00  0.00    +0.000 H 
BRANCH   25   24
ATOM    113  H19 UNL A   1      18.497  30.828  42.483  1.00  0.00    +0.000 H 
ATOM    112  H18 UNL A   1      16.758  30.455  42.647  1.00  0.00    +0.000 H 
ATOM     24  C20 UNL A   1      17.680  30.656  43.152  1.00  0.00    +0.000 C 
BRANCH   24   23
ATOM    111  H17 UNL A   1      17.572  29.504  44.934  1.00  0.00    +0.000 H 
ATOM    110  H16 UNL A   1      19.112  29.382  44.088  1.00  0.00    +0.000 H 
ATOM     23  C19 UNL A   1      18.049  29.423  43.980  1.00  0.00    +0.000 C 
BRANCH   23   22
ATOM    109  H15 UNL A   1      18.087  27.869  42.562  1.00  0.00    +0.000 H 
ATOM     22  N2  UNL A   1      17.593  28.202  43.346  1.00  0.00    +0.000 N 
BRANCH   22    2
ATOM      1  O1  UNL A   1      16.575  26.561  44.581  1.00  0.00    +0.000 O 
ATOM      2  C1  UNL A   1      16.508  27.490  43.783  1.00  0.00    +0.000 C 
BRANCH    2    3
ATOM      3  C2  UNL A   1      15.192  27.931  43.180  1.00  0.00    +0.000 C 
ATOM     95  H1  UNL A   1      15.011  28.949  43.455  1.00  0.00    +0.000 H 
ATOM     96  H2  UNL A   1      14.426  27.284  43.554  1.00  0.00    +0.000 H 
BRANCH    3    4
ATOM     97  H3  UNL A   1      16.143  28.157  41.310  1.00  0.00    +0.000 H 
ATOM     98  H4  UNL A   1      14.365  28.429  41.337  1.00  0.00    +0.000 H 
ATOM      4  C3  UNL A   1      15.187  27.827  41.663  1.00  0.00    +0.000 C 
BRANCH    4    5
ATOM      5  C4  UNL A   1      14.938  26.467  41.093  1.00  0.00    +0.000 C 
ATOM      6  N1  UNL A   1      14.307  25.471  41.685  1.00  0.00    +0.000 N 
ATOM      7  C5  UNL A   1      14.355  24.455  40.766  1.00  0.00    +0.000 C 
ATOM     14  C12 UNL A   1      14.977  24.889  39.610  1.00  0.00    +0.000 C 
ATOM     21  O2  UNL A   1      15.380  26.185  39.820  1.00  0.00    +0.000 O 
BRANCH    7    8
ATOM     99  H5  UNL A   1      14.753  22.665  42.724  1.00  0.00    +0.000 H 
ATOM    100  H6  UNL A   1      14.096  20.330  42.722  1.00  0.00    +0.000 H 
ATOM    101  H7  UNL A   1      12.680  19.474  40.948  1.00  0.00    +0.000 H 
ATOM    102  H8  UNL A   1      11.857  20.968  39.224  1.00  0.00    +0.000 H 
ATOM    103  H9  UNL A   1      12.530  23.300  39.208  1.00  0.00    +0.000 H 
ATOM      8  C6  UNL A   1      13.750  23.150  40.925  1.00  0.00    +0.000 C 
ATOM      9  C7  UNL A   1      14.161  22.297  41.962  1.00  0.00    +0.000 C 
ATOM     10  C8  UNL A   1      13.774  20.958  41.970  1.00  0.00    +0.000 C 
ATOM     11  C9  UNL A   1      12.950  20.471  40.957  1.00  0.00    +0.000 C 
ATOM     12  C10 UNL A   1      12.490  21.327  39.956  1.00  0.00    +0.000 C 
ATOM     13  C11 UNL A   1      12.881  22.667  39.942  1.00  0.00    +0.000 C 
ENDBRANCH    7    8
BRANCH   14   15
ATOM    104  H10 UNL A   1      13.903  25.559  37.223  1.00  0.00    +0.000 H 
ATOM    105  H11 UNL A   1      14.453  24.637  35.047  1.00  0.00    +0.000 H 
ATOM    106  H12 UNL A   1      16.082  22.853  34.849  1.00  0.00    +0.000 H 
ATOM    107  H13 UNL A   1      17.118  21.931  36.839  1.00  0.00    +0.000 H 
ATOM    108  H14 UNL A   1      16.556  22.830  39.015  1.00  0.00    +0.000 H 
ATOM     15  C13 UNL A   1      15.204  24.292  38.301  1.00  0.00    +0.000 C 
ATOM     16  C14 UNL A   1      14.592  24.795  37.148  1.00  0.00    +0.000 C 
ATOM     17  C15 UNL A   1      14.909  24.262  35.893  1.00  0.00    +0.000 C 
ATOM     18  C16 UNL A   1      15.840  23.228  35.779  1.00  0.00    +0.000 C 
ATOM     19  C17 UNL A   1      16.438  22.704  36.919  1.00  0.00    +0.000 C 
ATOM     20  C18 UNL A   1      16.117  23.229  38.169  1.00  0.00    +0.000 C 
ENDBRANCH   14   15
ENDBRANCH    4    5
ENDBRANCH    3    4
ENDBRANCH    2    3
ENDBRANCH   22    2
ENDBRANCH   23   22
ENDBRANCH   24   23
ENDBRANCH   25   24
ENDBRANCH   26   25
ENDBRANCH   27   26
ENDBRANCH   28   27
ENDBRANCH   29   28
ENDBRANCH   30   29
ENDBRANCH   32   30
ENDBRANCH   36   35
BRANCH   40   41
ATOM     41  C34 UNL A   1      31.306  35.897  43.027  1.00  0.00    +0.000 C 
ATOM     42  C35 UNL A   1      31.419  36.265  41.676  1.00  0.00    +0.000 C 
ATOM     43  F1  UNL A   1      30.849  37.396  41.235  1.00  0.00    +0.000 F 
ATOM     44  C36 UNL A   1      32.073  35.443  40.762  1.00  0.00    +0.000 C 
ATOM     45  F2  UNL A   1      32.113  35.784  39.466  1.00  0.00    +0.000 F 
ATOM     46  C37 UNL A   1      32.658  34.260  41.185  1.00  0.00    +0.000 C 
ATOM     47  F3  UNL A   1      33.283  33.468  40.302  1.00  0.00    +0.000 F 
ATOM     48  C38 UNL A   1      32.586  33.892  42.520  1.00  0.00    +0.000 C 
ATOM     49  F4  UNL A   1      33.161  32.753  42.931  1.00  0.00    +0.000 F 
ATOM     50  C39 UNL A   1      31.908  34.697  43.432  1.00  0.00    +0.000 C 
ATOM     51  F5  UNL A   1      31.832  34.300  44.711  1.00  0.00    +0.000 F 
ENDBRANCH   40   41
BRANCH   57   58
ATOM     65  C49 UNL A   1      34.574  42.120  48.480  1.00  0.00    +0.000 C 
ATOM     66  F9  UNL A   1      35.531  41.752  49.342  1.00  0.00    +0.000 F 
ATOM     67  C50 UNL A   1      33.554  41.232  48.154  1.00  0.00    +0.000 C 
ATOM     68  F10 UNL A   1      33.558  40.011  48.709  1.00  0.00    +0.000 F 
ATOM     58  C45 UNL A   1      32.529  41.605  47.272  1.00  0.00    +0.000 C 
ATOM     59  C46 UNL A   1      32.568  42.893  46.720  1.00  0.00    +0.000 C 
ATOM     60  F6  UNL A   1      31.619  43.288  45.858  1.00  0.00    +0.000 F 
ATOM     61  C47 UNL A   1      33.603  43.771  47.030  1.00  0.00    +0.000 C 
ATOM     62  F7  UNL A   1      33.641  44.985  46.464  1.00  0.00    +0.000 F 
ATOM     63  C48 UNL A   1      34.601  43.386  47.915  1.00  0.00    +0.000 C 
ATOM     64  F8  UNL A   1      35.592  44.236  48.218  1.00  0.00    +0.000 F 
ENDBRANCH   57   58
BRANCH   72   73
ATOM     73  C54 UNL A   1      26.067  41.029  49.819  1.00  0.00    +0.000 C 
ATOM     74  C55 UNL A   1      26.145  40.613  51.154  1.00  0.00    +0.000 C 
ATOM     75  F11 UNL A   1      26.869  39.531  51.477  1.00  0.00    +0.000 F 
ATOM     76  C56 UNL A   1      25.462  41.292  52.161  1.00  0.00    +0.000 C 
ATOM     77  F12 UNL A   1      25.532  40.858  53.426  1.00  0.00    +0.000 F 
ATOM     78  C57 UNL A   1      24.706  42.413  51.854  1.00  0.00    +0.000 C 
ATOM     79  F13 UNL A   1      24.059  43.074  52.824  1.00  0.00    +0.000 F 
ATOM     80  C58 UNL A   1      24.619  42.847  50.540  1.00  0.00    +0.000 C 
ATOM     81  F14 UNL A   1      23.902  43.939  50.242  1.00  0.00    +0.000 F 
ATOM     82  C59 UNL A   1      25.284  42.155  49.529  1.00  0.00    +0.000 C 
ATOM     83  F15 UNL A   1      25.184  42.598  48.268  1.00  0.00    +0.000 F 
ENDBRANCH   72   73
TORSDOF 19
ENDMDL
MODEL 7
REMARK VINA RESULT:     -11.6     45.207     49.969
ROOT
ATOM    129  H35 UNL A   1      12.066  52.086   7.146  1.00  0.00    +0.000 H 
ATOM    130  H36 UNL A   1      14.275  51.264   3.722  1.00  0.00    +0.000 H 
ATOM    131  H37 UNL A   1      12.984  46.618   2.322  1.00  0.00    +0.000 H 
ATOM    132  H38 UNL A   1      14.576  46.924   0.340  1.00  0.00    +0.000 H 
ATOM    133  H39 UNL A   1      16.298  56.446   3.040  1.00  0.00    +0.000 H 
ATOM    134  H40 UNL A   1      15.111  56.013   5.267  1.00  0.00    +0.000 H 
ATOM     36  C30 UNL A   1      13.865  53.459   5.408  1.00  0.00    +0.000 C 
ATOM     37  C31 UNL A   1      14.770  53.975   4.330  1.00  0.00    +0.000 C 
ATOM     38  N4  UNL A   1      15.179  53.383   3.237  1.00  0.00    +0.000 N 
ATOM     39  C32 UNL A   1      15.937  54.328   2.560  1.00  0.00    +0.000 C 
ATOM     40  C33 UNL A   1      16.627  54.182   1.405  1.00  0.00    +0.000 C 
ATOM     52  C40 UNL A   1      16.692  52.955   0.655  1.00  0.00    +0.000 C 
ATOM     53  C41 UNL A   1      17.421  52.677  -0.487  1.00  0.00    +0.000 C 
ATOM     54  C42 UNL A   1      17.138  51.362  -0.875  1.00  0.00    +0.000 C 
ATOM     55  C43 UNL A   1      16.263  50.810   0.047  1.00  0.00    +0.000 C 
ATOM     56  N5  UNL A   1      15.996  51.798   0.978  1.00  0.00    +0.000 N 
ATOM     57  C44 UNL A   1      15.712  49.479   0.075  1.00  0.00    +0.000 C 
ATOM     69  C51 UNL A   1      14.881  48.993   1.030  1.00  0.00    +0.000 C 
ATOM     70  N6  UNL A   1      14.374  49.633   2.152  1.00  0.00    +0.000 N 
ATOM     71  C52 UNL A   1      13.608  48.754   2.751  1.00  0.00    +0.000 C 
ATOM     72  C53 UNL A   1      12.811  48.904   4.017  1.00  0.00    +0.000 C 
ATOM     84  C60 UNL A   1      12.908  50.049   4.718  1.00  0.00    +0.000 C 
ATOM     85  C61 UNL A   1      12.191  50.345   5.953  1.00  0.00    +0.000 C 
ATOM     86  C62 UNL A   1      12.461  51.607   6.321  1.00  0.00    +0.000 C 
ATOM     87  C63 UNL A   1      13.404  52.195   5.367  1.00  0.00    +0.000 C 
ATOM     88  N7  UNL A   1      13.642  51.184   4.470  1.00  0.00    +0.000 N 
ATOM     89  C64 UNL A   1      13.531  47.456   2.069  1.00  0.00    +0.000 C 
ATOM     90  C65 UNL A   1      14.348  47.645   1.042  1.00  0.00    +0.000 C 
ATOM     91  C66 UNL A   1      15.887  55.547   3.338  1.00  0.00    +0.000 C 
ATOM     92  C67 UNL A   1      15.244  55.359   4.480  1.00  0.00    +0.000 C 
ATOM    125  H31 UNL A   1      18.062  53.326  -0.969  1.00  0.00    +0.000 H 
ATOM    126  H32 UNL A   1      17.519  50.884  -1.707  1.00  0.00    +0.000 H 
ATOM    127  H33 UNL A   1      15.399  51.696   1.755  1.00  0.00    +0.000 H 
ATOM    128  H34 UNL A   1      11.574  49.691   6.460  1.00  0.00    +0.000 H 
ENDROOT
BRANCH   36   35
ATOM     33  C27 UNL A   1      13.508  55.392   8.647  1.00  0.00    +0.000 C 
ATOM     34  C28 UNL A   1      14.092  54.660   7.612  1.00  0.00    +0.000 C 
ATOM     35  C29 UNL A   1      13.357  54.383   6.449  1.00  0.00    +0.000 C 
ATOM    135  H41 UNL A   1      11.556  54.779   5.411  1.00  0.00    +0.000 H 
ATOM    136  H42 UNL A   1      10.645  56.241   7.116  1.00  0.00    +0.000 H 
ATOM    123  H29 UNL A   1      14.030  55.568   9.520  1.00  0.00    +0.000 H 
ATOM    124  H30 UNL A   1      15.062  54.322   7.703  1.00  0.00    +0.000 H 
ATOM     93  C68 UNL A   1      12.086  54.954   6.279  1.00  0.00    +0.000 C 
ATOM     94  C69 UNL A   1      11.539  55.751   7.273  1.00  0.00    +0.000 C 
ATOM     32  C26 UNL A   1      12.211  55.885   8.490  1.00  0.00    +0.000 C 
BRANCH   32   30
ATOM     30  C25 UNL A   1      11.525  56.478   9.655  1.00  0.00    +0.000 C 
ATOM     31  O3  UNL A   1      11.109  57.624   9.601  1.00  0.00    +0.000 O 
BRANCH   30   29
ATOM    122  H28 UNL A   1      11.746  56.162  11.621  1.00  0.00    +0.000 H 
ATOM     29  N3  UNL A   1      11.409  55.728  10.804  1.00  0.00    +0.000 N 
BRANCH   29   28
ATOM    121  H27 UNL A   1      10.214  54.192  10.167  1.00  0.00    +0.000 H 
ATOM     28  C24 UNL A   1      10.863  54.389  10.993  1.00  0.00    +0.000 C 
ATOM    120  H26 UNL A   1      10.346  54.363  11.930  1.00  0.00    +0.000 H 
BRANCH   28   27
ATOM     27  C23 UNL A   1      11.927  53.294  11.001  1.00  0.00    +0.000 C 
ATOM    118  H24 UNL A   1      11.944  52.837  10.033  1.00  0.00    +0.000 H 
ATOM    119  H25 UNL A   1      12.853  53.770  11.252  1.00  0.00    +0.000 H 
BRANCH   27   26
ATOM     26  C22 UNL A   1      11.701  52.204  12.040  1.00  0.00    +0.000 C 
ATOM    116  H22 UNL A   1      12.575  52.148  12.655  1.00  0.00    +0.000 H 
ATOM    117  H23 UNL A   1      10.816  52.486  12.573  1.00  0.00    +0.000 H 
BRANCH   26   25
ATOM     25  C21 UNL A   1      11.427  50.809  11.483  1.00  0.00    +0.000 C 
ATOM    114  H20 UNL A   1      10.620  50.880  10.785  1.00  0.00    +0.000 H 
ATOM    115  H21 UNL A   1      12.341  50.477  11.035  1.00  0.00    +0.000 H 
BRANCH   25   24
ATOM    113  H19 UNL A   1      10.672  50.305  13.379  1.00  0.00    +0.000 H 
ATOM    112  H18 UNL A   1      11.933  49.197  12.771  1.00  0.00    +0.000 H 
ATOM     24  C20 UNL A   1      11.056  49.764  12.539  1.00  0.00    +0.000 C 
BRANCH   24   23
ATOM    111  H17 UNL A   1       9.009  49.250  12.294  1.00  0.00    +0.000 H 
ATOM    110  H16 UNL A   1      10.055  47.885  12.673  1.00  0.00    +0.000 H 
ATOM     23  C19 UNL A   1       9.956  48.789  12.111  1.00  0.00    +0.000 C 
BRANCH   23   22
ATOM    109  H15 UNL A   1      10.047  49.222  10.054  1.00  0.00    +0.000 H 
ATOM     22  N2  UNL A   1      10.045  48.478  10.698  1.00  0.00    +0.000 N 
BRANCH   22    2
ATOM      1  O1  UNL A   1       9.414  46.756   9.321  1.00  0.00    +0.000 O 
ATOM      2  C1  UNL A   1      10.127  47.198  10.216  1.00  0.00    +0.000 C 
BRANCH    2    3
ATOM      3  C2  UNL A   1      11.173  46.344  10.900  1.00  0.00    +0.000 C 
ATOM     95  H1  UNL A   1      10.696  45.481  11.315  1.00  0.00    +0.000 H 
ATOM     96  H2  UNL A   1      11.635  46.938  11.661  1.00  0.00    +0.000 H 
BRANCH    3    4
ATOM     97  H3  UNL A   1      11.788  45.551   9.044  1.00  0.00    +0.000 H 
ATOM     98  H4  UNL A   1      12.803  45.127  10.466  1.00  0.00    +0.000 H 
ATOM      4  C3  UNL A   1      12.263  45.887   9.942  1.00  0.00    +0.000 C 
BRANCH    4    5
ATOM      5  C4  UNL A   1      13.282  46.912   9.562  1.00  0.00    +0.000 C 
ATOM      6  N1  UNL A   1      13.616  47.271   8.336  1.00  0.00    +0.000 N 
ATOM      7  C5  UNL A   1      14.589  48.218   8.522  1.00  0.00    +0.000 C 
ATOM     14  C12 UNL A   1      14.781  48.445   9.873  1.00  0.00    +0.000 C 
ATOM     21  O2  UNL A   1      13.956  47.586  10.556  1.00  0.00    +0.000 O 
BRANCH    7    8
ATOM     99  H5  UNL A   1      15.536  47.306   6.184  1.00  0.00    +0.000 H 
ATOM    100  H6  UNL A   1      17.032  48.462   4.664  1.00  0.00    +0.000 H 
ATOM    101  H7  UNL A   1      17.577  50.794   5.046  1.00  0.00    +0.000 H 
ATOM    102  H8  UNL A   1      16.564  51.991   6.896  1.00  0.00    +0.000 H 
ATOM    103  H9  UNL A   1      15.085  50.834   8.433  1.00  0.00    +0.000 H 
ATOM      8  C6  UNL A   1      15.249  48.962   7.470  1.00  0.00    +0.000 C 
ATOM      9  C7  UNL A   1      15.778  48.295   6.353  1.00  0.00    +0.000 C 
ATOM     10  C8  UNL A   1      16.628  48.962   5.471  1.00  0.00    +0.000 C 
ATOM     11  C9  UNL A   1      16.930  50.305   5.684  1.00  0.00    +0.000 C 
ATOM     12  C10 UNL A   1      16.360  50.989   6.759  1.00  0.00    +0.000 C 
ATOM     13  C11 UNL A   1      15.514  50.323   7.647  1.00  0.00    +0.000 C 
ENDBRANCH    7    8
BRANCH   14   15
ATOM    104  H10 UNL A   1      17.467  48.583  10.128  1.00  0.00    +0.000 H 
ATOM    105  H11 UNL A   1      18.754  50.293  11.272  1.00  0.00    +0.000 H 
ATOM    106  H12 UNL A   1      17.631  52.106  12.424  1.00  0.00    +0.000 H 
ATOM    107  H13 UNL A   1      15.207  52.177  12.499  1.00  0.00    +0.000 H 
ATOM    108  H14 UNL A   1      13.918  50.461  11.381  1.00  0.00    +0.000 H 
ATOM     15  C13 UNL A   1      15.584  49.393  10.633  1.00  0.00    +0.000 C 
ATOM     16  C14 UNL A   1      16.981  49.347  10.622  1.00  0.00    +0.000 C 
ATOM     17  C15 UNL A   1      17.723  50.333  11.283  1.00  0.00    +0.000 C 
ATOM     18  C16 UNL A   1      17.078  51.372  11.955  1.00  0.00    +0.000 C 
ATOM     19  C17 UNL A   1      15.689  51.417  11.993  1.00  0.00    +0.000 C 
ATOM     20  C18 UNL A   1      14.949  50.430  11.342  1.00  0.00    +0.000 C 
ENDBRANCH   14   15
ENDBRANCH    4    5
ENDBRANCH    3    4
ENDBRANCH    2    3
ENDBRANCH   22    2
ENDBRANCH   23   22
ENDBRANCH   24   23
ENDBRANCH   25   24
ENDBRANCH   26   25
ENDBRANCH   27   26
ENDBRANCH   28   27
ENDBRANCH   29   28
ENDBRANCH   30   29
ENDBRANCH   32   30
ENDBRANCH   36   35
BRANCH   40   41
ATOM     41  C34 UNL A   1      17.367  55.382   0.892  1.00  0.00    +0.000 C 
ATOM     42  C35 UNL A   1      16.791  56.255  -0.045  1.00  0.00    +0.000 C 
ATOM     43  F1  UNL A   1      15.556  56.021  -0.514  1.00  0.00    +0.000 F 
ATOM     44  C36 UNL A   1      17.503  57.342  -0.544  1.00  0.00    +0.000 C 
ATOM     45  F2  UNL A   1      16.954  58.125  -1.484  1.00  0.00    +0.000 F 
ATOM     46  C37 UNL A   1      18.787  57.601  -0.089  1.00  0.00    +0.000 C 
ATOM     47  F3  UNL A   1      19.472  58.646  -0.574  1.00  0.00    +0.000 F 
ATOM     48  C38 UNL A   1      19.364  56.771   0.859  1.00  0.00    +0.000 C 
ATOM     49  F4  UNL A   1      20.602  57.026   1.306  1.00  0.00    +0.000 F 
ATOM     50  C39 UNL A   1      18.667  55.664   1.339  1.00  0.00    +0.000 C 
ATOM     51  F5  UNL A   1      19.263  54.865   2.235  1.00  0.00    +0.000 F 
ENDBRANCH   40   41
BRANCH   57   58
ATOM     65  C49 UNL A   1      15.559  47.429  -3.124  1.00  0.00    +0.000 C 
ATOM     66  F9  UNL A   1      14.712  47.228  -4.142  1.00  0.00    +0.000 F 
ATOM     67  C50 UNL A   1      15.234  48.334  -2.119  1.00  0.00    +0.000 C 
ATOM     68  F10 UNL A   1      14.073  49.000  -2.199  1.00  0.00    +0.000 F 
ATOM     58  C45 UNL A   1      16.096  48.543  -1.032  1.00  0.00    +0.000 C 
ATOM     59  C46 UNL A   1      17.297  47.821  -0.992  1.00  0.00    +0.000 C 
ATOM     60  F6  UNL A   1      18.160  48.001   0.019  1.00  0.00    +0.000 F 
ATOM     61  C47 UNL A   1      17.630  46.933  -2.011  1.00  0.00    +0.000 C 
ATOM     62  F7  UNL A   1      18.799  46.279  -1.973  1.00  0.00    +0.000 F 
ATOM     63  C48 UNL A   1      16.758  46.732  -3.072  1.00  0.00    +0.000 C 
ATOM     64  F8  UNL A   1      17.076  45.871  -4.048  1.00  0.00    +0.000 F 
ENDBRANCH   57   58
BRANCH   72   73
ATOM     73  C54 UNL A   1      11.945  47.809   4.519  1.00  0.00    +0.000 C 
ATOM     74  C55 UNL A   1      12.501  46.683   5.140  1.00  0.00    +0.000 C 
ATOM     75  F11 UNL A   1      13.833  46.564   5.240  1.00  0.00    +0.000 F 
ATOM     76  C56 UNL A   1      11.694  45.665   5.642  1.00  0.00    +0.000 C 
ATOM     77  F12 UNL A   1      12.251  44.587   6.208  1.00  0.00    +0.000 F 
ATOM     78  C57 UNL A   1      10.313  45.764   5.552  1.00  0.00    +0.000 C 
ATOM     79  F13 UNL A   1       9.536  44.790   6.045  1.00  0.00    +0.000 F 
ATOM     80  C58 UNL A   1       9.740  46.872   4.946  1.00  0.00    +0.000 C 
ATOM     81  F14 UNL A   1       8.406  46.978   4.871  1.00  0.00    +0.000 F 
ATOM     82  C59 UNL A   1      10.547  47.880   4.424  1.00  0.00    +0.000 C 
ATOM     83  F15 UNL A   1       9.967  48.941   3.846  1.00  0.00    +0.000 F 
ENDBRANCH   72   73
TORSDOF 19
ENDMDL
MODEL 8
REMARK VINA RESULT:     -11.6     39.908     44.270
ROOT
ATOM    129  H35 UNL A   1      26.680  33.847  44.338  1.00  0.00    +0.000 H 
ATOM    130  H36 UNL A   1      30.281  32.576  45.978  1.00  0.00    +0.000 H 
ATOM    131  H37 UNL A   1      33.882  35.043  43.497  1.00  0.00    +0.000 H 
ATOM    132  H38 UNL A   1      35.556  33.847  45.020  1.00  0.00    +0.000 H 
ATOM    133  H39 UNL A   1      28.035  29.709  50.238  1.00  0.00    +0.000 H 
ATOM    134  H40 UNL A   1      26.381  30.496  48.447  1.00  0.00    +0.000 H 
ATOM     36  C30 UNL A   1      27.557  32.185  46.484  1.00  0.00    +0.000 C 
ATOM     37  C31 UNL A   1      28.256  31.425  47.571  1.00  0.00    +0.000 C 
ATOM     38  N4  UNL A   1      29.532  31.371  47.856  1.00  0.00    +0.000 N 
ATOM     39  C32 UNL A   1      29.627  30.585  48.995  1.00  0.00    +0.000 C 
ATOM     40  C33 UNL A   1      30.743  30.181  49.648  1.00  0.00    +0.000 C 
ATOM     52  C40 UNL A   1      32.081  30.519  49.239  1.00  0.00    +0.000 C 
ATOM     53  C41 UNL A   1      33.283  30.103  49.784  1.00  0.00    +0.000 C 
ATOM     54  C42 UNL A   1      34.320  30.720  49.074  1.00  0.00    +0.000 C 
ATOM     55  C43 UNL A   1      33.764  31.491  48.064  1.00  0.00    +0.000 C 
ATOM     56  N5  UNL A   1      32.391  31.359  48.179  1.00  0.00    +0.000 N 
ATOM     57  C44 UNL A   1      34.437  32.286  47.069  1.00  0.00    +0.000 C 
ATOM     69  C51 UNL A   1      33.828  32.993  46.086  1.00  0.00    +0.000 C 
ATOM     70  N6  UNL A   1      32.474  33.126  45.819  1.00  0.00    +0.000 N 
ATOM     71  C52 UNL A   1      32.388  33.922  44.781  1.00  0.00    +0.000 C 
ATOM     72  C53 UNL A   1      31.161  34.404  44.060  1.00  0.00    +0.000 C 
ATOM     84  C60 UNL A   1      29.957  33.938  44.437  1.00  0.00    +0.000 C 
ATOM     85  C61 UNL A   1      28.680  34.321  43.843  1.00  0.00    +0.000 C 
ATOM     86  C62 UNL A   1      27.688  33.730  44.527  1.00  0.00    +0.000 C 
ATOM     87  C63 UNL A   1      28.263  32.894  45.583  1.00  0.00    +0.000 C 
ATOM     88  N7  UNL A   1      29.617  33.051  45.430  1.00  0.00    +0.000 N 
ATOM     89  C64 UNL A   1      33.683  34.397  44.277  1.00  0.00    +0.000 C 
ATOM     90  C65 UNL A   1      34.529  33.778  45.089  1.00  0.00    +0.000 C 
ATOM     91  C66 UNL A   1      28.279  30.229  49.380  1.00  0.00    +0.000 C 
ATOM     92  C67 UNL A   1      27.399  30.658  48.488  1.00  0.00    +0.000 C 
ATOM    125  H31 UNL A   1      33.395  29.451  50.575  1.00  0.00    +0.000 H 
ATOM    126  H32 UNL A   1      35.328  30.618  49.269  1.00  0.00    +0.000 H 
ATOM    127  H33 UNL A   1      31.731  31.798  47.594  1.00  0.00    +0.000 H 
ATOM    128  H34 UNL A   1      28.560  34.946  43.031  1.00  0.00    +0.000 H 
ENDROOT
BRANCH   36   35
ATOM     33  C27 UNL A   1      23.909  31.556  45.678  1.00  0.00    +0.000 C 
ATOM     34  C28 UNL A   1      25.282  31.340  45.806  1.00  0.00    +0.000 C 
ATOM     35  C29 UNL A   1      26.078  32.277  46.482  1.00  0.00    +0.000 C 
ATOM    135  H41 UNL A   1      26.050  34.033  47.663  1.00  0.00    +0.000 H 
ATOM    136  H42 UNL A   1      23.638  34.272  47.630  1.00  0.00    +0.000 H 
ATOM    123  H29 UNL A   1      23.323  30.889  45.151  1.00  0.00    +0.000 H 
ATOM    124  H30 UNL A   1      25.710  30.492  45.403  1.00  0.00    +0.000 H 
ATOM     93  C68 UNL A   1      25.471  33.360  47.137  1.00  0.00    +0.000 C 
ATOM     94  C69 UNL A   1      24.095  33.529  47.080  1.00  0.00    +0.000 C 
ATOM     32  C26 UNL A   1      23.335  32.682  46.270  1.00  0.00    +0.000 C 
BRANCH   32   30
ATOM     30  C25 UNL A   1      21.930  33.015  45.963  1.00  0.00    +0.000 C 
ATOM     31  O3  UNL A   1      21.641  34.126  45.548  1.00  0.00    +0.000 O 
BRANCH   30   29
ATOM    122  H28 UNL A   1      20.673  31.983  47.132  1.00  0.00    +0.000 H 
ATOM     29  N3  UNL A   1      20.961  32.065  46.194  1.00  0.00    +0.000 N 
BRANCH   29   28
ATOM    121  H27 UNL A   1      19.528  30.654  45.805  1.00  0.00    +0.000 H 
ATOM     28  C24 UNL A   1      20.298  31.160  45.261  1.00  0.00    +0.000 C 
ATOM    120  H26 UNL A   1      21.028  30.484  44.869  1.00  0.00    +0.000 H 
BRANCH   28   27
ATOM     27  C23 UNL A   1      19.627  31.877  44.093  1.00  0.00    +0.000 C 
ATOM    118  H24 UNL A   1      19.263  32.821  44.443  1.00  0.00    +0.000 H 
ATOM    119  H25 UNL A   1      20.370  31.975  43.328  1.00  0.00    +0.000 H 
BRANCH   27   26
ATOM     26  C22 UNL A   1      18.462  31.117  43.474  1.00  0.00    +0.000 C 
ATOM    116  H22 UNL A   1      18.499  31.262  42.414  1.00  0.00    +0.000 H 
ATOM    117  H23 UNL A   1      18.585  30.096  43.773  1.00  0.00    +0.000 H 
BRANCH   26   25
ATOM     25  C21 UNL A   1      17.074  31.530  43.957  1.00  0.00    +0.000 C 
ATOM    114  H20 UNL A   1      17.182  32.033  44.894  1.00  0.00    +0.000 H 
ATOM    115  H21 UNL A   1      16.659  32.153  43.192  1.00  0.00    +0.000 H 
BRANCH   25   24
ATOM    113  H19 UNL A   1      15.226  30.777  44.619  1.00  0.00    +0.000 H 
ATOM    112  H18 UNL A   1      16.579  29.618  44.741  1.00  0.00    +0.000 H 
ATOM     24  C20 UNL A   1      16.096  30.367  44.149  1.00  0.00    +0.000 C 
BRANCH   24   23
ATOM    111  H17 UNL A   1      16.428  29.732  42.149  1.00  0.00    +0.000 H 
ATOM    110  H16 UNL A   1      14.779  30.259  42.474  1.00  0.00    +0.000 H 
ATOM     23  C19 UNL A   1      15.620  29.715  42.849  1.00  0.00    +0.000 C 
BRANCH   23   22
ATOM    109  H15 UNL A   1      14.270  28.117  43.081  1.00  0.00    +0.000 H 
ATOM     22  N2  UNL A   1      15.230  28.335  43.060  1.00  0.00    +0.000 N 
BRANCH   22    2
ATOM      1  O1  UNL A   1      17.349  27.470  43.202  1.00  0.00    +0.000 O 
ATOM      2  C1  UNL A   1      16.133  27.318  43.232  1.00  0.00    +0.000 C 
BRANCH    2    3
ATOM      3  C2  UNL A   1      15.502  25.959  43.447  1.00  0.00    +0.000 C 
ATOM     95  H1  UNL A   1      15.292  25.838  44.489  1.00  0.00    +0.000 H 
ATOM     96  H2  UNL A   1      16.193  25.219  43.100  1.00  0.00    +0.000 H 
BRANCH    3    4
ATOM     97  H3  UNL A   1      13.936  26.751  42.276  1.00  0.00    +0.000 H 
ATOM     98  H4  UNL A   1      13.506  25.380  43.357  1.00  0.00    +0.000 H 
ATOM      4  C3  UNL A   1      14.210  25.791  42.664  1.00  0.00    +0.000 C 
BRANCH    4    5
ATOM      5  C4  UNL A   1      14.249  24.832  41.518  1.00  0.00    +0.000 C 
ATOM      6  N1  UNL A   1      14.789  25.045  40.333  1.00  0.00    +0.000 N 
ATOM      7  C5  UNL A   1      14.553  23.882  39.648  1.00  0.00    +0.000 C 
ATOM     14  C12 UNL A   1      13.913  22.969  40.465  1.00  0.00    +0.000 C 
ATOM     21  O2  UNL A   1      13.690  23.583  41.673  1.00  0.00    +0.000 O 
BRANCH    7    8
ATOM     99  H5  UNL A   1      16.547  22.267  38.864  1.00  0.00    +0.000 H 
ATOM    100  H6  UNL A   1      17.567  22.167  36.666  1.00  0.00    +0.000 H 
ATOM    101  H7  UNL A   1      16.588  23.405  34.823  1.00  0.00    +0.000 H 
ATOM    102  H8  UNL A   1      14.548  24.672  35.158  1.00  0.00    +0.000 H 
ATOM    103  H9  UNL A   1      13.536  24.794  37.361  1.00  0.00    +0.000 H 
ATOM      8  C6  UNL A   1      15.000  23.596  38.301  1.00  0.00    +0.000 C 
ATOM      9  C7  UNL A   1      16.138  22.803  38.082  1.00  0.00    +0.000 C 
ATOM     10  C8  UNL A   1      16.718  22.735  36.817  1.00  0.00    +0.000 C 
ATOM     11  C9  UNL A   1      16.148  23.435  35.756  1.00  0.00    +0.000 C 
ATOM     12  C10 UNL A   1      14.983  24.178  35.953  1.00  0.00    +0.000 C 
ATOM     13  C11 UNL A   1      14.403  24.253  37.221  1.00  0.00    +0.000 C 
ENDBRANCH    7    8
BRANCH   14   15
ATOM    104  H10 UNL A   1      13.475  21.563  38.199  1.00  0.00    +0.000 H 
ATOM    105  H11 UNL A   1      12.999  19.192  38.004  1.00  0.00    +0.000 H 
ATOM    106  H12 UNL A   1      12.791  17.816  39.989  1.00  0.00    +0.000 H 
ATOM    107  H13 UNL A   1      12.987  18.823  42.187  1.00  0.00    +0.000 H 
ATOM    108  H14 UNL A   1      13.438  21.192  42.389  1.00  0.00    +0.000 H 
ATOM     15  C13 UNL A   1      13.526  21.574  40.310  1.00  0.00    +0.000 C 
ATOM     16  C14 UNL A   1      13.381  20.987  39.049  1.00  0.00    +0.000 C 
ATOM     17  C15 UNL A   1      13.106  19.619  38.937  1.00  0.00    +0.000 C 
ATOM     18  C16 UNL A   1      12.976  18.827  40.079  1.00  0.00    +0.000 C 
ATOM     19  C17 UNL A   1      13.094  19.403  41.339  1.00  0.00    +0.000 C 
ATOM     20  C18 UNL A   1      13.361  20.766  41.452  1.00  0.00    +0.000 C 
ENDBRANCH   14   15
ENDBRANCH    4    5
ENDBRANCH    3    4
ENDBRANCH    2    3
ENDBRANCH   22    2
ENDBRANCH   23   22
ENDBRANCH   24   23
ENDBRANCH   25   24
ENDBRANCH   26   25
ENDBRANCH   27   26
ENDBRANCH   28   27
ENDBRANCH   29   28
ENDBRANCH   30   29
ENDBRANCH   32   30
ENDBRANCH   36   35
BRANCH   40   41
ATOM     41  C34 UNL A   1      30.554  29.327  50.867  1.00  0.00    +0.000 C 
ATOM     42  C35 UNL A   1      30.375  29.893  52.139  1.00  0.00    +0.000 C 
ATOM     43  F1  UNL A   1      30.384  31.226  52.292  1.00  0.00    +0.000 F 
ATOM     44  C36 UNL A   1      30.242  29.090  53.268  1.00  0.00    +0.000 C 
ATOM     45  F2  UNL A   1      30.135  29.654  54.481  1.00  0.00    +0.000 F 
ATOM     46  C37 UNL A   1      30.244  27.709  53.144  1.00  0.00    +0.000 C 
ATOM     47  F3  UNL A   1      30.119  26.938  54.234  1.00  0.00    +0.000 F 
ATOM     48  C38 UNL A   1      30.388  27.129  51.894  1.00  0.00    +0.000 C 
ATOM     49  F4  UNL A   1      30.380  25.794  51.772  1.00  0.00    +0.000 F 
ATOM     50  C39 UNL A   1      30.552  27.928  50.765  1.00  0.00    +0.000 C 
ATOM     51  F5  UNL A   1      30.715  27.336  49.573  1.00  0.00    +0.000 F 
ENDBRANCH   40   41
BRANCH   57   58
ATOM     65  C49 UNL A   1      37.989  33.401  47.844  1.00  0.00    +0.000 C 
ATOM     66  F9  UNL A   1      38.604  34.371  48.534  1.00  0.00    +0.000 F 
ATOM     67  C50 UNL A   1      36.601  33.322  47.844  1.00  0.00    +0.000 C 
ATOM     68  F10 UNL A   1      35.901  34.223  48.550  1.00  0.00    +0.000 F 
ATOM     58  C45 UNL A   1      35.936  32.329  47.110  1.00  0.00    +0.000 C 
ATOM     59  C46 UNL A   1      36.711  31.412  46.385  1.00  0.00    +0.000 C 
ATOM     60  F6  UNL A   1      36.119  30.434  45.682  1.00  0.00    +0.000 F 
ATOM     61  C47 UNL A   1      38.101  31.480  46.406  1.00  0.00    +0.000 C 
ATOM     62  F7  UNL A   1      38.824  30.573  45.736  1.00  0.00    +0.000 F 
ATOM     63  C48 UNL A   1      38.738  32.478  47.130  1.00  0.00    +0.000 C 
ATOM     64  F8  UNL A   1      40.077  32.546  47.143  1.00  0.00    +0.000 F 
ENDBRANCH   57   58
BRANCH   72   73
ATOM     73  C54 UNL A   1      31.255  35.360  42.928  1.00  0.00    +0.000 C 
ATOM     74  C55 UNL A   1      31.114  36.738  43.141  1.00  0.00    +0.000 C 
ATOM     75  F11 UNL A   1      30.838  37.200  44.369  1.00  0.00    +0.000 F 
ATOM     76  C56 UNL A   1      31.231  37.645  42.090  1.00  0.00    +0.000 C 
ATOM     77  F12 UNL A   1      31.065  38.954  42.315  1.00  0.00    +0.000 F 
ATOM     78  C57 UNL A   1      31.515  37.192  40.810  1.00  0.00    +0.000 C 
ATOM     79  F13 UNL A   1      31.641  38.065  39.801  1.00  0.00    +0.000 F 
ATOM     80  C58 UNL A   1      31.666  35.833  40.576  1.00  0.00    +0.000 C 
ATOM     81  F14 UNL A   1      31.956  35.394  39.344  1.00  0.00    +0.000 F 
ATOM     82  C59 UNL A   1      31.526  34.924  41.623  1.00  0.00    +0.000 C 
ATOM     83  F15 UNL A   1      31.679  33.617  41.370  1.00  0.00    +0.000 F 
ENDBRANCH   72   73
TORSDOF 19
ENDMDL
MODEL 9
REMARK VINA RESULT:     -11.6     39.923     46.767
ROOT
ATOM    129  H35 UNL A   1      23.781  37.324  47.383  1.00  0.00    +0.000 H 
ATOM    130  H36 UNL A   1      27.611  38.708  46.550  1.00  0.00    +0.000 H 
ATOM    131  H37 UNL A   1      28.462  42.458  49.779  1.00  0.00    +0.000 H 
ATOM    132  H38 UNL A   1      30.788  42.650  48.726  1.00  0.00    +0.000 H 
ATOM    133  H39 UNL A   1      28.978  34.613  42.976  1.00  0.00    +0.000 H 
ATOM    134  H40 UNL A   1      26.510  34.703  43.656  1.00  0.00    +0.000 H 
ATOM     36  C30 UNL A   1      25.963  36.617  45.687  1.00  0.00    +0.000 C 
ATOM     37  C31 UNL A   1      27.252  36.413  44.949  1.00  0.00    +0.000 C 
ATOM     38  N4  UNL A   1      28.388  37.051  45.071  1.00  0.00    +0.000 N 
ATOM     39  C32 UNL A   1      29.268  36.416  44.206  1.00  0.00    +0.000 C 
ATOM     40  C33 UNL A   1      30.553  36.741  43.926  1.00  0.00    +0.000 C 
ATOM     52  C40 UNL A   1      31.246  37.860  44.508  1.00  0.00    +0.000 C 
ATOM     53  C41 UNL A   1      32.522  38.322  44.238  1.00  0.00    +0.000 C 
ATOM     54  C42 UNL A   1      32.775  39.415  45.077  1.00  0.00    +0.000 C 
ATOM     55  C43 UNL A   1      31.643  39.655  45.840  1.00  0.00    +0.000 C 
ATOM     56  N5  UNL A   1      30.715  38.693  45.483  1.00  0.00    +0.000 N 
ATOM     57  C44 UNL A   1      31.427  40.687  46.822  1.00  0.00    +0.000 C 
ATOM     69  C51 UNL A   1      30.277  40.884  47.513  1.00  0.00    +0.000 C 
ATOM     70  N6  UNL A   1      29.091  40.167  47.454  1.00  0.00    +0.000 N 
ATOM     71  C52 UNL A   1      28.286  40.733  48.320  1.00  0.00    +0.000 C 
ATOM     72  C53 UNL A   1      26.869  40.372  48.668  1.00  0.00    +0.000 C 
ATOM     84  C60 UNL A   1      26.260  39.386  47.983  1.00  0.00    +0.000 C 
ATOM     85  C61 UNL A   1      24.898  38.916  48.212  1.00  0.00    +0.000 C 
ATOM     86  C62 UNL A   1      24.658  37.868  47.410  1.00  0.00    +0.000 C 
ATOM     87  C63 UNL A   1      25.839  37.617  46.581  1.00  0.00    +0.000 C 
ATOM     88  N7  UNL A   1      26.726  38.591  46.964  1.00  0.00    +0.000 N 
ATOM     89  C64 UNL A   1      28.875  41.869  49.040  1.00  0.00    +0.000 C 
ATOM     90  C65 UNL A   1      30.080  41.937  48.489  1.00  0.00    +0.000 C 
ATOM     91  C66 UNL A   1      28.552  35.311  43.607  1.00  0.00    +0.000 C 
ATOM     92  C67 UNL A   1      27.279  35.313  43.972  1.00  0.00    +0.000 C 
ATOM    125  H31 UNL A   1      33.173  37.930  43.541  1.00  0.00    +0.000 H 
ATOM    126  H32 UNL A   1      33.656  39.951  45.117  1.00  0.00    +0.000 H 
ATOM    127  H33 UNL A   1      29.810  38.611  45.865  1.00  0.00    +0.000 H 
ATOM    128  H34 UNL A   1      24.228  39.324  48.884  1.00  0.00    +0.000 H 
ENDROOT
BRANCH   36   35
ATOM     33  C27 UNL A   1      23.845  33.501  46.078  1.00  0.00    +0.000 C 
ATOM     34  C28 UNL A   1      24.787  34.492  46.357  1.00  0.00    +0.000 C 
ATOM     35  C29 UNL A   1      24.866  35.633  45.543  1.00  0.00    +0.000 C 
ATOM    135  H41 UNL A   1      23.947  36.686  43.954  1.00  0.00    +0.000 H 
ATOM    136  H42 UNL A   1      22.171  35.068  43.628  1.00  0.00    +0.000 H 
ATOM    123  H29 UNL A   1      23.806  32.643  46.651  1.00  0.00    +0.000 H 
ATOM    124  H30 UNL A   1      25.426  34.385  47.160  1.00  0.00    +0.000 H 
ATOM     93  C68 UNL A   1      23.912  35.832  44.533  1.00  0.00    +0.000 C 
ATOM     94  C69 UNL A   1      22.923  34.886  44.310  1.00  0.00    +0.000 C 
ATOM     32  C26 UNL A   1      22.955  33.682  45.017  1.00  0.00    +0.000 C 
BRANCH   32   30
ATOM     30  C25 UNL A   1      22.102  32.552  44.599  1.00  0.00    +0.000 C 
ATOM     31  O3  UNL A   1      22.376  31.920  43.591  1.00  0.00    +0.000 O 
BRANCH   30   29
ATOM    122  H28 UNL A   1      21.047  31.456  45.902  1.00  0.00    +0.000 H 
ATOM     29  N3  UNL A   1      20.979  32.262  45.341  1.00  0.00    +0.000 N 
BRANCH   29   28
ATOM    121  H27 UNL A   1      19.908  33.942  45.816  1.00  0.00    +0.000 H 
ATOM     28  C24 UNL A   1      19.705  32.968  45.422  1.00  0.00    +0.000 C 
ATOM    120  H26 UNL A   1      19.046  32.405  46.049  1.00  0.00    +0.000 H 
BRANCH   28   27
ATOM     27  C23 UNL A   1      19.032  33.163  44.066  1.00  0.00    +0.000 C 
ATOM    118  H24 UNL A   1      18.954  34.214  43.878  1.00  0.00    +0.000 H 
ATOM    119  H25 UNL A   1      19.641  32.655  43.347  1.00  0.00    +0.000 H 
BRANCH   27   26
ATOM     26  C22 UNL A   1      17.639  32.556  43.963  1.00  0.00    +0.000 C 
ATOM    116  H22 UNL A   1      16.963  33.185  44.505  1.00  0.00    +0.000 H 
ATOM    117  H23 UNL A   1      17.423  32.493  42.916  1.00  0.00    +0.000 H 
BRANCH   26   25
ATOM     25  C21 UNL A   1      17.497  31.136  44.506  1.00  0.00    +0.000 C 
ATOM    114  H20 UNL A   1      18.334  30.936  45.142  1.00  0.00    +0.000 H 
ATOM    115  H21 UNL A   1      16.560  31.101  45.023  1.00  0.00    +0.000 H 
BRANCH   25   24
ATOM    113  H19 UNL A   1      18.147  30.328  42.677  1.00  0.00    +0.000 H 
ATOM    112  H18 UNL A   1      16.438  29.988  43.066  1.00  0.00    +0.000 H 
ATOM     24  C20 UNL A   1      17.441  30.047  43.431  1.00  0.00    +0.000 C 
BRANCH   24   23
ATOM    111  H17 UNL A   1      17.722  28.613  44.975  1.00  0.00    +0.000 H 
ATOM    110  H16 UNL A   1      18.878  28.485  43.651  1.00  0.00    +0.000 H 
ATOM     23  C19 UNL A   1      17.855  28.654  43.914  1.00  0.00    +0.000 C 
BRANCH   23   22
ATOM    109  H15 UNL A   1      16.878  27.654  42.342  1.00  0.00    +0.000 H 
ATOM     22  N2  UNL A   1      17.037  27.620  43.313  1.00  0.00    +0.000 N 
BRANCH   22    2
ATOM      1  O1  UNL A   1      17.113  25.822  44.733  1.00  0.00    +0.000 O 
ATOM      2  C1  UNL A   1      16.474  26.597  44.030  1.00  0.00    +0.000 C 
BRANCH    2    3
ATOM      3  C2  UNL A   1      14.973  26.480  43.870  1.00  0.00    +0.000 C 
ATOM     95  H1  UNL A   1      14.503  27.220  44.484  1.00  0.00    +0.000 H 
ATOM     96  H2  UNL A   1      14.688  25.491  44.163  1.00  0.00    +0.000 H 
BRANCH    3    4
ATOM     97  H3  UNL A   1      15.227  27.347  41.963  1.00  0.00    +0.000 H 
ATOM     98  H4  UNL A   1      13.531  27.068  42.491  1.00  0.00    +0.000 H 
ATOM      4  C3  UNL A   1      14.528  26.685  42.431  1.00  0.00    +0.000 C 
BRANCH    4    5
ATOM      5  C4  UNL A   1      14.432  25.455  41.586  1.00  0.00    +0.000 C 
ATOM      6  N1  UNL A   1      13.850  24.318  41.916  1.00  0.00    +0.000 N 
ATOM      7  C5  UNL A   1      14.044  23.516  40.822  1.00  0.00    +0.000 C 
ATOM     14  C12 UNL A   1      14.702  24.217  39.828  1.00  0.00    +0.000 C 
ATOM     21  O2  UNL A   1      14.979  25.468  40.322  1.00  0.00    +0.000 O 
BRANCH    7    8
ATOM     99  H5  UNL A   1      12.418  22.549  38.920  1.00  0.00    +0.000 H 
ATOM    100  H6  UNL A   1      11.232  20.434  38.950  1.00  0.00    +0.000 H 
ATOM    101  H7  UNL A   1      11.698  18.812  40.692  1.00  0.00    +0.000 H 
ATOM    102  H8  UNL A   1      13.406  19.269  42.352  1.00  0.00    +0.000 H 
ATOM    103  H9  UNL A   1      14.579  21.394  42.340  1.00  0.00    +0.000 H 
ATOM      8  C6  UNL A   1      13.542  22.166  40.671  1.00  0.00    +0.000 C 
ATOM      9  C7  UNL A   1      12.607  21.864  39.668  1.00  0.00    +0.000 C 
ATOM     10  C8  UNL A   1      11.933  20.643  39.677  1.00  0.00    +0.000 C 
ATOM     11  C9  UNL A   1      12.212  19.707  40.670  1.00  0.00    +0.000 C 
ATOM     12  C10 UNL A   1      13.183  19.977  41.635  1.00  0.00    +0.000 C 
ATOM     13  C11 UNL A   1      13.854  21.201  41.633  1.00  0.00    +0.000 C 
ENDBRANCH    7    8
BRANCH   14   15
ATOM    104  H10 UNL A   1      13.939  25.461  37.555  1.00  0.00    +0.000 H 
ATOM    105  H11 UNL A   1      14.715  25.018  35.299  1.00  0.00    +0.000 H 
ATOM    106  H12 UNL A   1      16.302  23.234  34.878  1.00  0.00    +0.000 H 
ATOM    107  H13 UNL A   1      17.067  21.836  36.707  1.00  0.00    +0.000 H 
ATOM    108  H14 UNL A   1      16.278  22.258  38.955  1.00  0.00    +0.000 H 
ATOM     15  C13 UNL A   1      15.064  23.915  38.451  1.00  0.00    +0.000 C 
ATOM     16  C14 UNL A   1      14.608  24.695  37.383  1.00  0.00    +0.000 C 
ATOM     17  C15 UNL A   1      15.056  24.439  36.082  1.00  0.00    +0.000 C 
ATOM     18  C16 UNL A   1      15.962  23.406  35.837  1.00  0.00    +0.000 C 
ATOM     19  C17 UNL A   1      16.406  22.609  36.885  1.00  0.00    +0.000 C 
ATOM     20  C18 UNL A   1      15.954  22.858  38.180  1.00  0.00    +0.000 C 
ENDBRANCH   14   15
ENDBRANCH    4    5
ENDBRANCH    3    4
ENDBRANCH    2    3
ENDBRANCH   22    2
ENDBRANCH   23   22
ENDBRANCH   24   23
ENDBRANCH   25   24
ENDBRANCH   26   25
ENDBRANCH   27   26
ENDBRANCH   28   27
ENDBRANCH   29   28
ENDBRANCH   30   29
ENDBRANCH   32   30
ENDBRANCH   36   35
BRANCH   40   41
ATOM     41  C34 UNL A   1      31.280  35.873  42.942  1.00  0.00    +0.000 C 
ATOM     42  C35 UNL A   1      31.889  34.670  43.334  1.00  0.00    +0.000 C 
ATOM     43  F1  UNL A   1      31.841  34.276  44.615  1.00  0.00    +0.000 F 
ATOM     44  C36 UNL A   1      32.596  33.893  42.420  1.00  0.00    +0.000 C 
ATOM     45  F2  UNL A   1      33.222  32.781  42.831  1.00  0.00    +0.000 F 
ATOM     46  C37 UNL A   1      32.675  34.282  41.092  1.00  0.00    +0.000 C 
ATOM     47  F3  UNL A   1      33.360  33.534  40.214  1.00  0.00    +0.000 F 
ATOM     48  C38 UNL A   1      32.056  35.449  40.676  1.00  0.00    +0.000 C 
ATOM     49  F4  UNL A   1      32.124  35.821  39.389  1.00  0.00    +0.000 F 
ATOM     50  C39 UNL A   1      31.372  36.245  41.592  1.00  0.00    +0.000 C 
ATOM     51  F5  UNL A   1      30.806  37.383  41.164  1.00  0.00    +0.000 F 
ENDBRANCH   40   41
BRANCH   57   58
ATOM     65  C49 UNL A   1      33.628  43.787  46.748  1.00  0.00    +0.000 C 
ATOM     66  F9  UNL A   1      33.621  45.004  46.189  1.00  0.00    +0.000 F 
ATOM     67  C50 UNL A   1      32.559  42.921  46.541  1.00  0.00    +0.000 C 
ATOM     68  F10 UNL A   1      31.530  43.333  45.786  1.00  0.00    +0.000 F 
ATOM     58  C45 UNL A   1      32.557  41.633  47.098  1.00  0.00    +0.000 C 
ATOM     59  C46 UNL A   1      33.657  41.248  47.877  1.00  0.00    +0.000 C 
ATOM     60  F6  UNL A   1      33.691  40.032  48.444  1.00  0.00    +0.000 F 
ATOM     61  C47 UNL A   1      34.715  42.125  48.101  1.00  0.00    +0.000 C 
ATOM     62  F7  UNL A   1      35.740  41.751  48.879  1.00  0.00    +0.000 F 
ATOM     63  C48 UNL A   1      34.702  43.390  47.532  1.00  0.00    +0.000 C 
ATOM     64  F8  UNL A   1      35.725  44.231  47.743  1.00  0.00    +0.000 F 
ENDBRANCH   57   58
BRANCH   72   73
ATOM     73  C54 UNL A   1      26.125  41.095  49.728  1.00  0.00    +0.000 C 
ATOM     74  C55 UNL A   1      25.439  42.282  49.439  1.00  0.00    +0.000 C 
ATOM     75  F11 UNL A   1      25.494  42.803  48.205  1.00  0.00    +0.000 F 
ATOM     76  C56 UNL A   1      24.712  42.951  50.422  1.00  0.00    +0.000 C 
ATOM     77  F12 UNL A   1      24.087  44.098  50.126  1.00  0.00    +0.000 F 
ATOM     78  C57 UNL A   1      24.639  42.434  51.706  1.00  0.00    +0.000 C 
ATOM     79  F13 UNL A   1      23.930  43.070  52.649  1.00  0.00    +0.000 F 
ATOM     80  C58 UNL A   1      25.305  41.257  52.014  1.00  0.00    +0.000 C 
ATOM     81  F14 UNL A   1      25.224  40.746  53.250  1.00  0.00    +0.000 F 
ATOM     82  C59 UNL A   1      26.050  40.598  51.038  1.00  0.00    +0.000 C 
ATOM     83  F15 UNL A   1      26.682  39.462  51.362  1.00  0.00    +0.000 F 
ENDBRANCH   72   73
TORSDOF 19
ENDMDL
MODEL 10
REMARK VINA RESULT:     -11.5     45.002     50.094
ROOT
ATOM    129  H35 UNL A   1      12.385  52.110   7.229  1.00  0.00    +0.000 H 
ATOM    130  H36 UNL A   1      14.667  51.273   3.858  1.00  0.00    +0.000 H 
ATOM    131  H37 UNL A   1      13.536  46.557   2.555  1.00  0.00    +0.000 H 
ATOM    132  H38 UNL A   1      15.146  46.864   0.588  1.00  0.00    +0.000 H 
ATOM    133  H39 UNL A   1      16.545  56.495   3.077  1.00  0.00    +0.000 H 
ATOM    134  H40 UNL A   1      15.338  56.080   5.298  1.00  0.00    +0.000 H 
ATOM     36  C30 UNL A   1      14.167  53.495   5.484  1.00  0.00    +0.000 C 
ATOM     37  C31 UNL A   1      15.072  54.011   4.406  1.00  0.00    +0.000 C 
ATOM     38  N4  UNL A   1      15.514  53.405   3.334  1.00  0.00    +0.000 N 
ATOM     39  C32 UNL A   1      16.254  54.356   2.645  1.00  0.00    +0.000 C 
ATOM     40  C33 UNL A   1      16.965  54.203   1.503  1.00  0.00    +0.000 C 
ATOM     52  C40 UNL A   1      17.078  52.961   0.785  1.00  0.00    +0.000 C 
ATOM     53  C41 UNL A   1      17.831  52.678  -0.340  1.00  0.00    +0.000 C 
ATOM     54  C42 UNL A   1      17.593  51.345  -0.699  1.00  0.00    +0.000 C 
ATOM     55  C43 UNL A   1      16.721  50.790   0.224  1.00  0.00    +0.000 C 
ATOM     56  N5  UNL A   1      16.411  51.792   1.126  1.00  0.00    +0.000 N 
ATOM     57  C44 UNL A   1      16.210  49.444   0.277  1.00  0.00    +0.000 C 
ATOM     69  C51 UNL A   1      15.380  48.957   1.232  1.00  0.00    +0.000 C 
ATOM     70  N6  UNL A   1      14.838  49.608   2.330  1.00  0.00    +0.000 N 
ATOM     71  C52 UNL A   1      14.089  48.721   2.940  1.00  0.00    +0.000 C 
ATOM     72  C53 UNL A   1      13.270  48.877   4.190  1.00  0.00    +0.000 C 
ATOM     84  C60 UNL A   1      13.323  50.041   4.864  1.00  0.00    +0.000 C 
ATOM     85  C61 UNL A   1      12.578  50.346   6.082  1.00  0.00    +0.000 C 
ATOM     86  C62 UNL A   1      12.806  51.623   6.422  1.00  0.00    +0.000 C 
ATOM     87  C63 UNL A   1      13.745  52.216   5.468  1.00  0.00    +0.000 C 
ATOM     88  N7  UNL A   1      14.025  51.192   4.599  1.00  0.00    +0.000 N 
ATOM     89  C64 UNL A   1      14.060  47.405   2.289  1.00  0.00    +0.000 C 
ATOM     90  C65 UNL A   1      14.887  47.594   1.269  1.00  0.00    +0.000 C 
ATOM     91  C66 UNL A   1      16.156  55.592   3.391  1.00  0.00    +0.000 C 
ATOM     92  C67 UNL A   1      15.502  55.412   4.529  1.00  0.00    +0.000 C 
ATOM    125  H31 UNL A   1      18.460  53.333  -0.828  1.00  0.00    +0.000 H 
ATOM    126  H32 UNL A   1      18.000  50.859  -1.514  1.00  0.00    +0.000 H 
ATOM    127  H33 UNL A   1      15.807  51.691   1.898  1.00  0.00    +0.000 H 
ATOM    128  H34 UNL A   1      11.974  49.686   6.596  1.00  0.00    +0.000 H 
ENDROOT
BRANCH   36   35
ATOM     33  C27 UNL A   1      13.612  55.380   8.723  1.00  0.00    +0.000 C 
ATOM     34  C28 UNL A   1      14.249  54.634   7.731  1.00  0.00    +0.000 C 
ATOM     35  C29 UNL A   1      13.616  54.427   6.495  1.00  0.00    +0.000 C 
ATOM    135  H41 UNL A   1      11.953  54.957   5.298  1.00  0.00    +0.000 H 
ATOM    136  H42 UNL A   1      10.970  56.439   6.945  1.00  0.00    +0.000 H 
ATOM    123  H29 UNL A   1      14.057  55.506   9.646  1.00  0.00    +0.000 H 
ATOM    124  H30 UNL A   1      15.184  54.234   7.905  1.00  0.00    +0.000 H 
ATOM     93  C68 UNL A   1      12.405  55.080   6.217  1.00  0.00    +0.000 C 
ATOM     94  C69 UNL A   1      11.813  55.891   7.175  1.00  0.00    +0.000 C 
ATOM     32  C26 UNL A   1      12.369  55.957   8.454  1.00  0.00    +0.000 C 
BRANCH   32   30
ATOM     30  C25 UNL A   1      11.610  56.568   9.563  1.00  0.00    +0.000 C 
ATOM     31  O3  UNL A   1      11.509  57.783   9.637  1.00  0.00    +0.000 O 
BRANCH   30   29
ATOM    122  H28 UNL A   1      10.753  54.871  10.192  1.00  0.00    +0.000 H 
ATOM     29  N3  UNL A   1      11.064  55.745  10.521  1.00  0.00    +0.000 N 
BRANCH   29   28
ATOM    121  H27 UNL A   1       9.872  55.685  12.186  1.00  0.00    +0.000 H 
ATOM     28  C24 UNL A   1      10.875  55.972  11.950  1.00  0.00    +0.000 C 
ATOM    120  H26 UNL A   1      11.060  57.006  12.155  1.00  0.00    +0.000 H 
BRANCH   28   27
ATOM     27  C23 UNL A   1      11.801  55.134  12.826  1.00  0.00    +0.000 C 
ATOM    118  H24 UNL A   1      12.557  55.777  13.226  1.00  0.00    +0.000 H 
ATOM    119  H25 UNL A   1      11.187  54.692  13.584  1.00  0.00    +0.000 H 
BRANCH   27   26
ATOM     26  C22 UNL A   1      12.488  53.987  12.098  1.00  0.00    +0.000 C 
ATOM    116  H22 UNL A   1      12.188  53.072  12.566  1.00  0.00    +0.000 H 
ATOM    117  H23 UNL A   1      12.186  54.065  11.074  1.00  0.00    +0.000 H 
BRANCH   26   25
ATOM     25  C21 UNL A   1      14.015  54.032  12.088  1.00  0.00    +0.000 C 
ATOM    114  H20 UNL A   1      14.320  54.884  11.519  1.00  0.00    +0.000 H 
ATOM    115  H21 UNL A   1      14.323  54.079  13.112  1.00  0.00    +0.000 H 
BRANCH   25   24
ATOM    113  H19 UNL A   1      15.159  53.110  10.584  1.00  0.00    +0.000 H 
ATOM    112  H18 UNL A   1      13.929  52.050  11.327  1.00  0.00    +0.000 H 
ATOM     24  C20 UNL A   1      14.683  52.791  11.488  1.00  0.00    +0.000 C 
BRANCH   24   23
ATOM    111  H17 UNL A   1      15.498  52.292  13.386  1.00  0.00    +0.000 H 
ATOM    110  H16 UNL A   1      16.704  52.672  12.160  1.00  0.00    +0.000 H 
ATOM     23  C19 UNL A   1      15.779  52.175  12.361  1.00  0.00    +0.000 C 
BRANCH   23   22
ATOM    109  H15 UNL A   1      15.518  50.116  12.708  1.00  0.00    +0.000 H 
ATOM     22  N2  UNL A   1      15.937  50.759  12.092  1.00  0.00    +0.000 N 
BRANCH   22    2
ATOM      1  O1  UNL A   1      17.550  50.882  10.466  1.00  0.00    +0.000 O 
ATOM      2  C1  UNL A   1      16.641  50.273  11.021  1.00  0.00    +0.000 C 
BRANCH    2    3
ATOM      3  C2  UNL A   1      16.190  48.907  10.551  1.00  0.00    +0.000 C 
ATOM     95  H1  UNL A   1      15.577  48.467  11.310  1.00  0.00    +0.000 H 
ATOM     96  H2  UNL A   1      17.064  48.319  10.366  1.00  0.00    +0.000 H 
BRANCH    3    4
ATOM     97  H3  UNL A   1      15.468  48.020   8.778  1.00  0.00    +0.000 H 
ATOM     98  H4  UNL A   1      15.820  49.782   8.700  1.00  0.00    +0.000 H 
ATOM      4  C3  UNL A   1      15.393  48.974   9.257  1.00  0.00    +0.000 C 
BRANCH    4    5
ATOM      5  C4  UNL A   1      13.941  49.304   9.389  1.00  0.00    +0.000 C 
ATOM      6  N1  UNL A   1      13.429  50.442   9.818  1.00  0.00    +0.000 N 
ATOM      7  C5  UNL A   1      12.076  50.238   9.764  1.00  0.00    +0.000 C 
ATOM     14  C12 UNL A   1      11.803  48.984   9.249  1.00  0.00    +0.000 C 
ATOM     21  O2  UNL A   1      13.006  48.361   9.025  1.00  0.00    +0.000 O 
BRANCH    7    8
ATOM     99  H5  UNL A   1      10.577  50.412  11.982  1.00  0.00    +0.000 H 
ATOM    100  H6  UNL A   1       8.593  51.770  12.300  1.00  0.00    +0.000 H 
ATOM    101  H7  UNL A   1       7.955  53.393  10.614  1.00  0.00    +0.000 H 
ATOM    102  H8  UNL A   1       9.345  53.715   8.652  1.00  0.00    +0.000 H 
ATOM    103  H9  UNL A   1      11.319  52.343   8.317  1.00  0.00    +0.000 H 
ATOM      8  C6  UNL A   1      11.065  51.222  10.089  1.00  0.00    +0.000 C 
ATOM      9  C7  UNL A   1      10.298  51.094  11.259  1.00  0.00    +0.000 C 
ATOM     10  C8  UNL A   1       9.165  51.883  11.449  1.00  0.00    +0.000 C 
ATOM     11  C9  UNL A   1       8.807  52.824  10.486  1.00  0.00    +0.000 C 
ATOM     12  C10 UNL A   1       9.598  52.997   9.349  1.00  0.00    +0.000 C 
ATOM     13  C11 UNL A   1      10.730  52.204   9.153  1.00  0.00    +0.000 C 
ENDBRANCH    7    8
BRANCH   14   15
ATOM    104  H10 UNL A   1       9.909  49.716   7.467  1.00  0.00    +0.000 H 
ATOM    105  H11 UNL A   1       7.975  48.432   6.759  1.00  0.00    +0.000 H 
ATOM    106  H12 UNL A   1       7.526  46.257   7.732  1.00  0.00    +0.000 H 
ATOM    107  H13 UNL A   1       8.972  45.386   9.474  1.00  0.00    +0.000 H 
ATOM    108  H14 UNL A   1      10.888  46.673  10.202  1.00  0.00    +0.000 H 
ATOM     15  C13 UNL A   1      10.579  48.291   8.874  1.00  0.00    +0.000 C 
ATOM     16  C14 UNL A   1       9.720  48.795   7.892  1.00  0.00    +0.000 C 
ATOM     17  C15 UNL A   1       8.605  48.054   7.484  1.00  0.00    +0.000 C 
ATOM     18  C16 UNL A   1       8.339  46.806   8.051  1.00  0.00    +0.000 C 
ATOM     19  C17 UNL A   1       9.172  46.304   9.044  1.00  0.00    +0.000 C 
ATOM     20  C18 UNL A   1      10.278  47.045   9.456  1.00  0.00    +0.000 C 
ENDBRANCH   14   15
ENDBRANCH    4    5
ENDBRANCH    3    4
ENDBRANCH    2    3
ENDBRANCH   22    2
ENDBRANCH   23   22
ENDBRANCH   24   23
ENDBRANCH   25   24
ENDBRANCH   26   25
ENDBRANCH   27   26
ENDBRANCH   28   27
ENDBRANCH   29   28
ENDBRANCH   30   29
ENDBRANCH   32   30
ENDBRANCH   36   35
BRANCH   40   41
ATOM     41  C34 UNL A   1      17.676  55.412   0.972  1.00  0.00    +0.000 C 
ATOM     42  C35 UNL A   1      17.091  56.241   0.001  1.00  0.00    +0.000 C 
ATOM     43  F1  UNL A   1      15.873  55.955  -0.484  1.00  0.00    +0.000 F 
ATOM     44  C36 UNL A   1      17.778  57.337  -0.514  1.00  0.00    +0.000 C 
ATOM     45  F2  UNL A   1      17.223  58.077  -1.486  1.00  0.00    +0.000 F 
ATOM     46  C37 UNL A   1      19.044  57.649  -0.044  1.00  0.00    +0.000 C 
ATOM     47  F3  UNL A   1      19.705  58.702  -0.544  1.00  0.00    +0.000 F 
ATOM     48  C38 UNL A   1      19.629  56.863   0.937  1.00  0.00    +0.000 C 
ATOM     49  F4  UNL A   1      20.849  57.170   1.400  1.00  0.00    +0.000 F 
ATOM     50  C39 UNL A   1      18.958  55.748   1.434  1.00  0.00    +0.000 C 
ATOM     51  F5  UNL A   1      19.562  54.992   2.363  1.00  0.00    +0.000 F 
ENDBRANCH   40   41
BRANCH   57   58
ATOM     65  C49 UNL A   1      16.184  47.350  -2.897  1.00  0.00    +0.000 C 
ATOM     66  F9  UNL A   1      15.378  47.134  -3.945  1.00  0.00    +0.000 F 
ATOM     67  C50 UNL A   1      15.819  48.268  -1.918  1.00  0.00    +0.000 C 
ATOM     68  F10 UNL A   1      14.661  48.932  -2.052  1.00  0.00    +0.000 F 
ATOM     58  C45 UNL A   1      16.638  48.494  -0.802  1.00  0.00    +0.000 C 
ATOM     59  C46 UNL A   1      17.837  47.774  -0.705  1.00  0.00    +0.000 C 
ATOM     60  F6  UNL A   1      18.660  47.969   0.337  1.00  0.00    +0.000 F 
ATOM     61  C47 UNL A   1      18.210  46.873  -1.698  1.00  0.00    +0.000 C 
ATOM     62  F7  UNL A   1      19.378  46.222  -1.605  1.00  0.00    +0.000 F 
ATOM     63  C48 UNL A   1      17.380  46.656  -2.789  1.00  0.00    +0.000 C 
ATOM     64  F8  UNL A   1      17.738  45.782  -3.740  1.00  0.00    +0.000 F 
ENDBRANCH   57   58
BRANCH   72   73
ATOM     73  C54 UNL A   1      12.429  47.769   4.707  1.00  0.00    +0.000 C 
ATOM     74  C55 UNL A   1      12.841  47.013   5.812  1.00  0.00    +0.000 C 
ATOM     75  F11 UNL A   1      14.031  47.254   6.382  1.00  0.00    +0.000 F 
ATOM     76  C56 UNL A   1      12.044  45.990   6.323  1.00  0.00    +0.000 C 
ATOM     77  F12 UNL A   1      12.473  45.265   7.363  1.00  0.00    +0.000 F 
ATOM     78  C57 UNL A   1      10.809  45.720   5.752  1.00  0.00    +0.000 C 
ATOM     79  F13 UNL A   1      10.036  44.746   6.250  1.00  0.00    +0.000 F 
ATOM     80  C58 UNL A   1      10.377  46.460   4.660  1.00  0.00    +0.000 C 
ATOM     81  F14 UNL A   1       9.178  46.213   4.116  1.00  0.00    +0.000 F 
ATOM     82  C59 UNL A   1      11.184  47.468   4.136  1.00  0.00    +0.000 C 
ATOM     83  F15 UNL A   1      10.741  48.169   3.082  1.00  0.00    +0.000 F 
ENDBRANCH   72   73
TORSDOF 19
ENDMDL
