MODEL 1
REMARK VINA RESULT:     -11.0      0.000      0.000
ROOT
ATOM    131  H30 UNL A   1      45.372  30.072  34.258  1.00  0.00    +0.000 H 
ATOM    132  H31 UNL A   1      46.700  29.978  31.954  1.00  0.00    +0.000 H 
ATOM    133  H32 UNL A   1      45.959  26.215  33.210  1.00  0.00    +0.000 H 
ATOM    134  H33 UNL A   1      41.119  26.303  26.672  1.00  0.00    +0.000 H 
ATOM    135  H34 UNL A   1      40.269  28.392  27.855  1.00  0.00    +0.000 H 
ATOM    136  H35 UNL A   1      43.176  26.704  30.301  1.00  0.00    +0.000 H 
ATOM    137  H36 UNL A   1      43.793  23.429  30.602  1.00  0.00    +0.000 H 
ATOM    138  H37 UNL A   1      45.487  24.776  32.004  1.00  0.00    +0.000 H 
ATOM    139  H38 UNL A   1      40.953  27.355  35.074  1.00  0.00    +0.000 H 
ATOM    140  H39 UNL A   1      39.529  27.553  32.943  1.00  0.00    +0.000 H 
ATOM     41  C30 UNL A   1      41.015  28.452  30.655  1.00  0.00    +0.000 C 
ATOM     42  C31 UNL A   1      41.516  28.179  32.041  1.00  0.00    +0.000 C 
ATOM     43  N9  UNL A   1      42.711  28.341  32.515  1.00  0.00    +0.000 N 
ATOM     44  C32 UNL A   1      42.688  27.826  33.813  1.00  0.00    +0.000 C 
ATOM     45  C33 UNL A   1      43.823  27.415  34.442  1.00  0.00    +0.000 C 
ATOM     57  C40 UNL A   1      44.998  27.980  33.836  1.00  0.00    +0.000 C 
ATOM     58  C41 UNL A   1      45.494  29.253  33.644  1.00  0.00    +0.000 C 
ATOM     59  C42 UNL A   1      46.213  29.194  32.413  1.00  0.00    +0.000 C 
ATOM     60  C43 UNL A   1      46.139  27.881  31.941  1.00  0.00    +0.000 C 
ATOM     61  N10 UNL A   1      45.744  27.160  33.032  1.00  0.00    +0.000 N 
ATOM     62  C44 UNL A   1      46.245  27.316  30.617  1.00  0.00    +0.000 C 
ATOM     74  C51 UNL A   1      45.755  26.095  30.257  1.00  0.00    +0.000 C 
ATOM     75  N11 UNL A   1      45.337  25.862  28.957  1.00  0.00    +0.000 N 
ATOM     76  C52 UNL A   1      44.379  24.985  29.070  1.00  0.00    +0.000 C 
ATOM     77  C53 UNL A   1      43.200  24.935  28.176  1.00  0.00    +0.000 C 
ATOM     89  C60 UNL A   1      42.465  26.046  28.411  1.00  0.00    +0.000 C 
ATOM     90  C61 UNL A   1      41.430  26.642  27.596  1.00  0.00    +0.000 C 
ATOM     91  C62 UNL A   1      40.940  27.712  28.247  1.00  0.00    +0.000 C 
ATOM     92  C63 UNL A   1      41.506  27.767  29.598  1.00  0.00    +0.000 C 
ATOM     93  N12 UNL A   1      42.512  26.821  29.584  1.00  0.00    +0.000 N 
ATOM     94  C64 UNL A   1      44.341  24.260  30.329  1.00  0.00    +0.000 C 
ATOM     95  C65 UNL A   1      45.218  24.982  31.029  1.00  0.00    +0.000 C 
ATOM     96  C66 UNL A   1      41.305  27.593  34.134  1.00  0.00    +0.000 C 
ATOM     97  C67 UNL A   1      40.540  27.724  33.049  1.00  0.00    +0.000 C 
ENDROOT
BRANCH   41   40
ATOM    129  H28 UNL A   1      36.484  28.888  30.066  1.00  0.00    +0.000 H 
ATOM     98  C68 UNL A   1      39.871  30.634  30.402  1.00  0.00    +0.000 C 
ATOM     99  C69 UNL A   1      38.732  31.383  30.192  1.00  0.00    +0.000 C 
ATOM    130  H29 UNL A   1      38.466  27.587  30.618  1.00  0.00    +0.000 H 
ATOM     37  C26 UNL A   1      37.520  30.730  29.979  1.00  0.00    +0.000 C 
ATOM     38  C27 UNL A   1      37.403  29.350  30.159  1.00  0.00    +0.000 C 
ATOM     39  C28 UNL A   1      38.539  28.604  30.463  1.00  0.00    +0.000 C 
ATOM     40  C29 UNL A   1      39.781  29.245  30.559  1.00  0.00    +0.000 C 
ATOM    141  H40 UNL A   1      40.792  31.099  30.445  1.00  0.00    +0.000 H 
ATOM    142  H41 UNL A   1      38.778  32.414  30.190  1.00  0.00    +0.000 H 
BRANCH   37   35
ATOM     35  C25 UNL A   1      36.361  31.508  29.502  1.00  0.00    +0.000 C 
ATOM     36  O3  UNL A   1      36.296  31.869  28.344  1.00  0.00    +0.000 O 
BRANCH   35   34
ATOM     34  N8  UNL A   1      35.368  31.830  30.408  1.00  0.00    +0.000 N 
ATOM    128  H27 UNL A   1      34.507  31.367  30.302  1.00  0.00    +0.000 H 
BRANCH   34   33
ATOM     33  C24 UNL A   1      35.465  32.787  31.507  1.00  0.00    +0.000 C 
ATOM    126  H25 UNL A   1      35.305  32.273  32.431  1.00  0.00    +0.000 H 
ATOM    127  H26 UNL A   1      36.440  33.229  31.481  1.00  0.00    +0.000 H 
BRANCH   33   32
ATOM    124  H23 UNL A   1      33.456  33.461  31.425  1.00  0.00    +0.000 H 
ATOM    125  H24 UNL A   1      34.613  34.593  32.165  1.00  0.00    +0.000 H 
ATOM     32  C23 UNL A   1      34.432  33.898  31.371  1.00  0.00    +0.000 C 
BRANCH   32   31
ATOM    122  H21 UNL A   1      34.738  35.705  30.298  1.00  0.00    +0.000 H 
ATOM    123  H22 UNL A   1      35.319  34.208  29.497  1.00  0.00    +0.000 H 
ATOM     31  C22 UNL A   1      34.539  34.682  30.056  1.00  0.00    +0.000 C 
BRANCH   31   30
ATOM    121  H20 UNL A   1      33.153  35.648  28.809  1.00  0.00    +0.000 H 
ATOM     30  C21 UNL A   1      33.296  34.644  29.151  1.00  0.00    +0.000 C 
ATOM    120  H19 UNL A   1      32.480  34.263  29.729  1.00  0.00    +0.000 H 
BRANCH   30   29
ATOM     29  C20 UNL A   1      33.423  33.782  27.886  1.00  0.00    +0.000 C 
ATOM    118  H17 UNL A   1      32.879  34.258  27.097  1.00  0.00    +0.000 H 
ATOM    119  H18 UNL A   1      34.467  33.697  27.667  1.00  0.00    +0.000 H 
BRANCH   29   28
ATOM    116  H15 UNL A   1      33.437  31.861  28.825  1.00  0.00    +0.000 H 
ATOM     28  C19 UNL A   1      32.884  32.358  28.055  1.00  0.00    +0.000 C 
ATOM    117  H16 UNL A   1      31.849  32.406  28.322  1.00  0.00    +0.000 H 
BRANCH   28   27
ATOM     27  N7  UNL A   1      33.019  31.621  26.815  1.00  0.00    +0.000 N 
ATOM    115  H14 UNL A   1      33.854  31.824  26.334  1.00  0.00    +0.000 H 
BRANCH   27   25
ATOM     25  C18 UNL A   1      32.236  30.702  26.167  1.00  0.00    +0.000 C 
ATOM     26  O2  UNL A   1      31.043  30.985  26.034  1.00  0.00    +0.000 O 
BRANCH   25   24
ATOM    100  C70 UNL A   1      33.810  28.678  26.209  1.00  0.00    +0.000 C 
ATOM    101  C71 UNL A   1      34.099  27.376  25.780  1.00  0.00    +0.000 C 
ATOM    143  H42 UNL A   1      34.412  29.127  26.917  1.00  0.00    +0.000 H 
ATOM    144  H43 UNL A   1      34.858  26.840  26.227  1.00  0.00    +0.000 H 
ATOM    113  H12 UNL A   1      31.866  27.157  23.284  1.00  0.00    +0.000 H 
ATOM    114  H13 UNL A   1      31.241  29.326  24.175  1.00  0.00    +0.000 H 
ATOM     21  C14 UNL A   1      33.353  26.804  24.742  1.00  0.00    +0.000 C 
ATOM     22  C15 UNL A   1      32.353  27.540  24.109  1.00  0.00    +0.000 C 
ATOM     23  C16 UNL A   1      32.017  28.802  24.608  1.00  0.00    +0.000 C 
ATOM     24  C17 UNL A   1      32.717  29.374  25.687  1.00  0.00    +0.000 C 
BRANCH   21   20
ATOM      2  C2  UNL A   1      33.920  24.370  25.059  1.00  0.00    +0.000 C 
ATOM      3  C3  UNL A   1      34.342  23.459  24.111  1.00  0.00    +0.000 C 
ATOM     18  N4  UNL A   1      34.190  23.974  22.859  1.00  0.00    +0.000 N 
ATOM     19  N5  UNL A   1      33.679  25.194  22.985  1.00  0.00    +0.000 N 
ATOM     20  N6  UNL A   1      33.638  25.494  24.305  1.00  0.00    +0.000 N 
BRANCH    2    1
ATOM      1  C1  UNL A   1      33.651  24.203  26.506  1.00  0.00    +0.000 C 
ATOM    102  H1  UNL A   1      33.216  25.102  26.893  1.00  0.00    +0.000 H 
ATOM    103  H2  UNL A   1      34.567  24.001  27.018  1.00  0.00    +0.000 H 
ATOM    104  H3  UNL A   1      32.974  23.387  26.651  1.00  0.00    +0.000 H 
ENDBRANCH    2    1
BRANCH    3    4
ATOM      4  C4  UNL A   1      34.799  22.092  24.333  1.00  0.00    +0.000 C 
ATOM      5  N1  UNL A   1      33.989  21.038  24.178  1.00  0.00    +0.000 N 
ATOM      6  N2  UNL A   1      34.702  19.993  24.651  1.00  0.00    +0.000 N 
ATOM     13  C11 UNL A   1      35.961  20.373  25.058  1.00  0.00    +0.000 C 
ATOM     14  C12 UNL A   1      36.079  21.728  24.810  1.00  0.00    +0.000 C 
ATOM    110  H9  UNL A   1      36.681  19.760  25.470  1.00  0.00    +0.000 H 
BRANCH    6    7
ATOM      7  C5  UNL A   1      34.140  18.698  24.712  1.00  0.00    +0.000 C 
ATOM      8  C6  UNL A   1      32.845  18.539  25.220  1.00  0.00    +0.000 C 
ATOM      9  C7  UNL A   1      32.267  17.270  25.254  1.00  0.00    +0.000 C 
ATOM    105  H4  UNL A   1      32.320  19.357  25.567  1.00  0.00    +0.000 H 
ATOM     11  C9  UNL A   1      34.301  16.313  24.362  1.00  0.00    +0.000 C 
ATOM     12  C10 UNL A   1      34.869  17.586  24.272  1.00  0.00    +0.000 C 
ATOM    109  H8  UNL A   1      35.818  17.706  23.885  1.00  0.00    +0.000 H 
ATOM     10  C8  UNL A   1      32.998  16.158  24.837  1.00  0.00    +0.000 C 
ATOM    106  H5  UNL A   1      31.297  17.153  25.589  1.00  0.00    +0.000 H 
ATOM    108  H7  UNL A   1      34.847  15.486  24.076  1.00  0.00    +0.000 H 
ATOM    107  H6  UNL A   1      32.575  15.217  24.880  1.00  0.00    +0.000 H 
ENDBRANCH    6    7
BRANCH   14   15
ATOM    111  H10 UNL A   1      38.120  22.310  24.464  1.00  0.00    +0.000 H 
ATOM     15  C13 UNL A   1      37.276  22.500  25.026  1.00  0.00    +0.000 C 
BRANCH   15   16
ATOM     16  N3  UNL A   1      37.294  23.431  25.922  1.00  0.00    +0.000 N 
BRANCH   16   17
ATOM     17  O1  UNL A   1      38.597  23.567  26.418  1.00  0.00    +0.000 O 
ATOM    112  H11 UNL A   1      39.282  23.872  25.857  1.00  0.00    +0.000 H 
ENDBRANCH   16   17
ENDBRANCH   15   16
ENDBRANCH   14   15
ENDBRANCH    3    4
ENDBRANCH   21   20
ENDBRANCH   25   24
ENDBRANCH   27   25
ENDBRANCH   28   27
ENDBRANCH   29   28
ENDBRANCH   30   29
ENDBRANCH   31   30
ENDBRANCH   32   31
ENDBRANCH   33   32
ENDBRANCH   34   33
ENDBRANCH   35   34
ENDBRANCH   37   35
ENDBRANCH   41   40
BRANCH   45   46
ATOM     46  C34 UNL A   1      43.911  26.197  35.346  1.00  0.00    +0.000 C 
ATOM     47  C35 UNL A   1      44.493  26.331  36.625  1.00  0.00    +0.000 C 
ATOM     48  F1  UNL A   1      44.696  27.545  37.161  1.00  0.00    +0.000 F 
ATOM     49  C36 UNL A   1      44.978  25.232  37.340  1.00  0.00    +0.000 C 
ATOM     50  F2  UNL A   1      45.648  25.423  38.485  1.00  0.00    +0.000 F 
ATOM     51  C37 UNL A   1      44.839  23.953  36.837  1.00  0.00    +0.000 C 
ATOM     52  F3  UNL A   1      45.363  22.903  37.485  1.00  0.00    +0.000 F 
ATOM     53  C38 UNL A   1      44.198  23.770  35.631  1.00  0.00    +0.000 C 
ATOM     54  F4  UNL A   1      44.066  22.538  35.119  1.00  0.00    +0.000 F 
ATOM     55  C39 UNL A   1      43.761  24.869  34.889  1.00  0.00    +0.000 C 
ATOM     56  F5  UNL A   1      43.292  24.581  33.671  1.00  0.00    +0.000 F 
ENDBRANCH   45   46
BRANCH   62   63
ATOM     65  F6  UNL A   1      44.542  29.259  29.234  1.00  0.00    +0.000 F 
ATOM     66  C47 UNL A   1      46.313  30.035  27.911  1.00  0.00    +0.000 C 
ATOM     67  F7  UNL A   1      45.478  30.889  27.302  1.00  0.00    +0.000 F 
ATOM     68  C48 UNL A   1      47.662  30.046  27.593  1.00  0.00    +0.000 C 
ATOM     69  F8  UNL A   1      48.134  30.912  26.686  1.00  0.00    +0.000 F 
ATOM     70  C49 UNL A   1      48.527  29.174  28.237  1.00  0.00    +0.000 C 
ATOM     71  F9  UNL A   1      49.840  29.216  27.972  1.00  0.00    +0.000 F 
ATOM     72  C50 UNL A   1      48.040  28.273  29.177  1.00  0.00    +0.000 C 
ATOM     73  F10 UNL A   1      48.907  27.455  29.797  1.00  0.00    +0.000 F 
ATOM     63  C45 UNL A   1      46.681  28.240  29.517  1.00  0.00    +0.000 C 
ATOM     64  C46 UNL A   1      45.832  29.161  28.883  1.00  0.00    +0.000 C 
ENDBRANCH   62   63
BRANCH   77   78
ATOM     78  C54 UNL A   1      42.832  23.739  27.390  1.00  0.00    +0.000 C 
ATOM     79  C55 UNL A   1      43.522  23.397  26.217  1.00  0.00    +0.000 C 
ATOM     80  F11 UNL A   1      44.408  24.251  25.684  1.00  0.00    +0.000 F 
ATOM     81  C56 UNL A   1      43.358  22.149  25.610  1.00  0.00    +0.000 C 
ATOM     82  F12 UNL A   1      44.077  21.834  24.524  1.00  0.00    +0.000 F 
ATOM     83  C57 UNL A   1      42.495  21.211  26.156  1.00  0.00    +0.000 C 
ATOM     84  F13 UNL A   1      42.380  19.995  25.606  1.00  0.00    +0.000 F 
ATOM     85  C58 UNL A   1      41.783  21.527  27.298  1.00  0.00    +0.000 C 
ATOM     86  F14 UNL A   1      40.970  20.617  27.855  1.00  0.00    +0.000 F 
ATOM     87  C59 UNL A   1      41.953  22.768  27.909  1.00  0.00    +0.000 C 
ATOM     88  F15 UNL A   1      41.311  22.973  29.068  1.00  0.00    +0.000 F 
ENDBRANCH   77   78
TORSDOF 22
ENDMDL
MODEL 2
REMARK VINA RESULT:     -10.4     25.420     33.291
ROOT
ATOM    131  H30 UNL A   1      28.300  16.030   6.484  1.00  0.00    +0.000 H 
ATOM    132  H31 UNL A   1      26.478  14.111   6.763  1.00  0.00    +0.000 H 
ATOM    133  H32 UNL A   1      25.476  17.239   9.107  1.00  0.00    +0.000 H 
ATOM    134  H33 UNL A   1      19.392  17.734   3.729  1.00  0.00    +0.000 H 
ATOM    135  H34 UNL A   1      21.373  17.732   2.128  1.00  0.00    +0.000 H 
ATOM    136  H35 UNL A   1      22.923  17.664   5.984  1.00  0.00    +0.000 H 
ATOM    137  H36 UNL A   1      21.545  19.135   8.655  1.00  0.00    +0.000 H 
ATOM    138  H37 UNL A   1      23.646  17.821   9.362  1.00  0.00    +0.000 H 
ATOM    139  H38 UNL A   1      27.002  21.017   5.469  1.00  0.00    +0.000 H 
ATOM    140  H39 UNL A   1      25.128  20.977   3.710  1.00  0.00    +0.000 H 
ATOM     41  C30 UNL A   1      23.859  18.413   3.452  1.00  0.00    +0.000 C 
ATOM     42  C31 UNL A   1      24.948  18.820   4.396  1.00  0.00    +0.000 C 
ATOM     43  N9  UNL A   1      25.586  18.091   5.258  1.00  0.00    +0.000 N 
ATOM     44  C32 UNL A   1      26.407  18.964   5.974  1.00  0.00    +0.000 C 
ATOM     45  C33 UNL A   1      26.868  18.658   7.219  1.00  0.00    +0.000 C 
ATOM     57  C40 UNL A   1      26.803  17.245   7.473  1.00  0.00    +0.000 C 
ATOM     58  C41 UNL A   1      27.369  16.115   6.921  1.00  0.00    +0.000 C 
ATOM     59  C42 UNL A   1      26.392  15.088   7.082  1.00  0.00    +0.000 C 
ATOM     60  C43 UNL A   1      25.300  15.643   7.751  1.00  0.00    +0.000 C 
ATOM     61  N10 UNL A   1      25.792  16.801   8.284  1.00  0.00    +0.000 N 
ATOM     62  C44 UNL A   1      23.902  15.285   7.794  1.00  0.00    +0.000 C 
ATOM     74  C51 UNL A   1      22.897  16.137   8.150  1.00  0.00    +0.000 C 
ATOM     75  N11 UNL A   1      21.627  15.984   7.621  1.00  0.00    +0.000 N 
ATOM     76  C52 UNL A   1      21.141  17.193   7.571  1.00  0.00    +0.000 C 
ATOM     77  C53 UNL A   1      20.211  17.662   6.520  1.00  0.00    +0.000 C 
ATOM     89  C60 UNL A   1      20.895  17.687   5.354  1.00  0.00    +0.000 C 
ATOM     90  C61 UNL A   1      20.387  17.740   4.001  1.00  0.00    +0.000 C 
ATOM     91  C62 UNL A   1      21.433  17.797   3.157  1.00  0.00    +0.000 C 
ATOM     92  C63 UNL A   1      22.672  17.965   3.921  1.00  0.00    +0.000 C 
ATOM     93  N12 UNL A   1      22.295  17.755   5.232  1.00  0.00    +0.000 N 
ATOM     94  C64 UNL A   1      21.818  18.173   8.403  1.00  0.00    +0.000 C 
ATOM     95  C65 UNL A   1      22.898  17.467   8.746  1.00  0.00    +0.000 C 
ATOM     96  C66 UNL A   1      26.379  20.219   5.271  1.00  0.00    +0.000 C 
ATOM     97  C67 UNL A   1      25.436  20.211   4.329  1.00  0.00    +0.000 C 
ENDROOT
BRANCH   41   40
ATOM    129  H28 UNL A   1      22.932  21.079  -0.167  1.00  0.00    +0.000 H 
ATOM     98  C68 UNL A   1      24.694  17.957   1.165  1.00  0.00    +0.000 C 
ATOM     99  C69 UNL A   1      24.766  18.263  -0.177  1.00  0.00    +0.000 C 
ATOM    130  H29 UNL A   1      22.959  20.634   2.226  1.00  0.00    +0.000 H 
ATOM     37  C26 UNL A   1      24.045  19.351  -0.665  1.00  0.00    +0.000 C 
ATOM     38  C27 UNL A   1      23.405  20.239   0.202  1.00  0.00    +0.000 C 
ATOM     39  C28 UNL A   1      23.411  19.977   1.570  1.00  0.00    +0.000 C 
ATOM     40  C29 UNL A   1      24.034  18.819   2.050  1.00  0.00    +0.000 C 
ATOM    141  H40 UNL A   1      25.128  17.089   1.519  1.00  0.00    +0.000 H 
ATOM    142  H41 UNL A   1      25.347  17.694  -0.813  1.00  0.00    +0.000 H 
BRANCH   37   35
ATOM     35  C25 UNL A   1      23.912  19.527  -2.123  1.00  0.00    +0.000 C 
ATOM     36  O3  UNL A   1      23.916  18.564  -2.864  1.00  0.00    +0.000 O 
BRANCH   35   34
ATOM     34  N8  UNL A   1      23.805  20.812  -2.623  1.00  0.00    +0.000 N 
ATOM    128  H27 UNL A   1      23.221  21.430  -2.128  1.00  0.00    +0.000 H 
BRANCH   34   33
ATOM     33  C24 UNL A   1      24.468  21.346  -3.809  1.00  0.00    +0.000 C 
ATOM    126  H25 UNL A   1      24.111  20.824  -4.672  1.00  0.00    +0.000 H 
ATOM    127  H26 UNL A   1      24.245  22.390  -3.877  1.00  0.00    +0.000 H 
BRANCH   33   32
ATOM    124  H23 UNL A   1      26.318  21.640  -2.814  1.00  0.00    +0.000 H 
ATOM    125  H24 UNL A   1      26.186  20.135  -3.753  1.00  0.00    +0.000 H 
ATOM     32  C23 UNL A   1      25.980  21.185  -3.722  1.00  0.00    +0.000 C 
BRANCH   32   31
ATOM    122  H21 UNL A   1      27.026  21.042  -5.565  1.00  0.00    +0.000 H 
ATOM    123  H22 UNL A   1      26.062  22.537  -5.322  1.00  0.00    +0.000 H 
ATOM     31  C22 UNL A   1      26.737  21.825  -4.894  1.00  0.00    +0.000 C 
BRANCH   31   30
ATOM    121  H20 UNL A   1      28.810  21.921  -4.574  1.00  0.00    +0.000 H 
ATOM     30  C21 UNL A   1      28.000  22.619  -4.522  1.00  0.00    +0.000 C 
ATOM    120  H19 UNL A   1      27.851  23.037  -3.549  1.00  0.00    +0.000 H 
BRANCH   30   29
ATOM     29  C20 UNL A   1      28.369  23.764  -5.479  1.00  0.00    +0.000 C 
ATOM    118  H17 UNL A   1      27.955  24.672  -5.093  1.00  0.00    +0.000 H 
ATOM    119  H18 UNL A   1      29.437  23.794  -5.534  1.00  0.00    +0.000 H 
BRANCH   29   28
ATOM    116  H15 UNL A   1      28.682  23.436  -7.568  1.00  0.00    +0.000 H 
ATOM     28  C19 UNL A   1      27.851  23.563  -6.907  1.00  0.00    +0.000 C 
ATOM    117  H16 UNL A   1      27.227  22.695  -6.933  1.00  0.00    +0.000 H 
BRANCH   28   27
ATOM     27  N7  UNL A   1      27.078  24.715  -7.325  1.00  0.00    +0.000 N 
ATOM    115  H14 UNL A   1      27.636  25.499  -7.533  1.00  0.00    +0.000 H 
BRANCH   27   25
ATOM     25  C18 UNL A   1      25.738  24.949  -7.492  1.00  0.00    +0.000 C 
ATOM     26  O2  UNL A   1      25.258  24.670  -8.593  1.00  0.00    +0.000 O 
BRANCH   25   24
ATOM    100  C70 UNL A   1      24.184  26.791  -6.616  1.00  0.00    +0.000 C 
ATOM    101  C71 UNL A   1      23.274  27.230  -5.645  1.00  0.00    +0.000 C 
ATOM    143  H42 UNL A   1      24.356  27.371  -7.452  1.00  0.00    +0.000 H 
ATOM    144  H43 UNL A   1      22.722  28.086  -5.802  1.00  0.00    +0.000 H 
ATOM    113  H12 UNL A   1      23.850  24.883  -3.315  1.00  0.00    +0.000 H 
ATOM    114  H13 UNL A   1      25.263  24.022  -5.090  1.00  0.00    +0.000 H 
ATOM     21  C14 UNL A   1      23.118  26.502  -4.459  1.00  0.00    +0.000 C 
ATOM     22  C15 UNL A   1      23.893  25.367  -4.225  1.00  0.00    +0.000 C 
ATOM     23  C16 UNL A   1      24.729  24.893  -5.241  1.00  0.00    +0.000 C 
ATOM     24  C17 UNL A   1      24.859  25.578  -6.463  1.00  0.00    +0.000 C 
BRANCH   21   20
ATOM      2  C2  UNL A   1      22.391  27.864  -2.468  1.00  0.00    +0.000 C 
ATOM      3  C3  UNL A   1      21.263  27.706  -1.689  1.00  0.00    +0.000 C 
ATOM     18  N4  UNL A   1      20.400  26.831  -2.277  1.00  0.00    +0.000 N 
ATOM     19  N5  UNL A   1      20.952  26.427  -3.416  1.00  0.00    +0.000 N 
ATOM     20  N6  UNL A   1      22.205  26.937  -3.476  1.00  0.00    +0.000 N 
BRANCH    2    1
ATOM      1  C1  UNL A   1      23.480  28.866  -2.399  1.00  0.00    +0.000 C 
ATOM    102  H1  UNL A   1      23.068  29.848  -2.509  1.00  0.00    +0.000 H 
ATOM    103  H2  UNL A   1      24.183  28.684  -3.185  1.00  0.00    +0.000 H 
ATOM    104  H3  UNL A   1      23.975  28.790  -1.453  1.00  0.00    +0.000 H 
ENDBRANCH    2    1
BRANCH    3    4
ATOM      4  C4  UNL A   1      20.925  28.412  -0.459  1.00  0.00    +0.000 C 
ATOM      5  N1  UNL A   1      19.921  29.295  -0.398  1.00  0.00    +0.000 N 
ATOM      6  N2  UNL A   1      20.046  29.864   0.820  1.00  0.00    +0.000 N 
ATOM     13  C11 UNL A   1      21.087  29.319   1.537  1.00  0.00    +0.000 C 
ATOM     14  C12 UNL A   1      21.647  28.326   0.755  1.00  0.00    +0.000 C 
ATOM    110  H9  UNL A   1      21.391  29.598   2.483  1.00  0.00    +0.000 H 
BRANCH    6    7
ATOM      7  C5  UNL A   1      19.186  30.909   1.225  1.00  0.00    +0.000 C 
ATOM      8  C6  UNL A   1      18.504  30.800   2.443  1.00  0.00    +0.000 C 
ATOM      9  C7  UNL A   1      17.678  31.840   2.868  1.00  0.00    +0.000 C 
ATOM    105  H4  UNL A   1      18.613  29.954   3.024  1.00  0.00    +0.000 H 
ATOM     11  C9  UNL A   1      18.141  33.051   0.827  1.00  0.00    +0.000 C 
ATOM     12  C10 UNL A   1      19.014  32.040   0.417  1.00  0.00    +0.000 C 
ATOM    109  H8  UNL A   1      19.527  32.126  -0.475  1.00  0.00    +0.000 H 
ATOM     10  C8  UNL A   1      17.487  32.958   2.056  1.00  0.00    +0.000 C 
ATOM    106  H5  UNL A   1      17.206  31.783   3.785  1.00  0.00    +0.000 H 
ATOM    108  H7  UNL A   1      17.980  33.869   0.218  1.00  0.00    +0.000 H 
ATOM    107  H6  UNL A   1      16.861  33.719   2.364  1.00  0.00    +0.000 H 
ENDBRANCH    6    7
BRANCH   14   15
ATOM    111  H10 UNL A   1      23.697  27.712   0.959  1.00  0.00    +0.000 H 
ATOM     15  C13 UNL A   1      22.720  27.460   1.171  1.00  0.00    +0.000 C 
BRANCH   15   16
ATOM     16  N3  UNL A   1      22.459  26.367   1.811  1.00  0.00    +0.000 N 
BRANCH   16   17
ATOM     17  O1  UNL A   1      21.127  26.005   1.580  1.00  0.00    +0.000 O 
ATOM    112  H11 UNL A   1      20.820  25.879   0.703  1.00  0.00    +0.000 H 
ENDBRANCH   16   17
ENDBRANCH   15   16
ENDBRANCH   14   15
ENDBRANCH    3    4
ENDBRANCH   21   20
ENDBRANCH   25   24
ENDBRANCH   27   25
ENDBRANCH   28   27
ENDBRANCH   29   28
ENDBRANCH   30   29
ENDBRANCH   31   30
ENDBRANCH   32   31
ENDBRANCH   33   32
ENDBRANCH   34   33
ENDBRANCH   35   34
ENDBRANCH   37   35
ENDBRANCH   41   40
BRANCH   45   46
ATOM     46  C34 UNL A   1      27.004  19.658   8.354  1.00  0.00    +0.000 C 
ATOM     47  C35 UNL A   1      28.121  19.573   9.214  1.00  0.00    +0.000 C 
ATOM     48  F1  UNL A   1      29.188  18.832   8.878  1.00  0.00    +0.000 F 
ATOM     49  C36 UNL A   1      28.128  20.159  10.484  1.00  0.00    +0.000 C 
ATOM     50  F2  UNL A   1      29.152  19.932  11.318  1.00  0.00    +0.000 F 
ATOM     51  C37 UNL A   1      27.049  20.906  10.915  1.00  0.00    +0.000 C 
ATOM     52  F3  UNL A   1      27.021  21.411  12.157  1.00  0.00    +0.000 F 
ATOM     53  C38 UNL A   1      25.975  21.087  10.071  1.00  0.00    +0.000 C 
ATOM     54  F4  UNL A   1      24.913  21.798  10.478  1.00  0.00    +0.000 F 
ATOM     55  C39 UNL A   1      25.942  20.460   8.825  1.00  0.00    +0.000 C 
ATOM     56  F5  UNL A   1      24.790  20.583   8.157  1.00  0.00    +0.000 F 
ENDBRANCH   45   46
BRANCH   62   63
ATOM     65  F6  UNL A   1      23.891  14.726   4.918  1.00  0.00    +0.000 F 
ATOM     66  C47 UNL A   1      23.214  12.506   5.241  1.00  0.00    +0.000 C 
ATOM     67  F7  UNL A   1      23.210  12.319   3.913  1.00  0.00    +0.000 F 
ATOM     68  C48 UNL A   1      22.938  11.444   6.087  1.00  0.00    +0.000 C 
ATOM     69  F8  UNL A   1      22.675  10.231   5.582  1.00  0.00    +0.000 F 
ATOM     70  C49 UNL A   1      22.961  11.635   7.460  1.00  0.00    +0.000 C 
ATOM     71  F9  UNL A   1      22.745  10.600   8.284  1.00  0.00    +0.000 F 
ATOM     72  C50 UNL A   1      23.231  12.893   7.987  1.00  0.00    +0.000 C 
ATOM     73  F10 UNL A   1      23.264  13.040   9.322  1.00  0.00    +0.000 F 
ATOM     63  C45 UNL A   1      23.513  13.985   7.155  1.00  0.00    +0.000 C 
ATOM     64  C46 UNL A   1      23.527  13.756   5.769  1.00  0.00    +0.000 C 
ENDBRANCH   62   63
BRANCH   77   78
ATOM     78  C54 UNL A   1      18.876  18.224   6.814  1.00  0.00    +0.000 C 
ATOM     79  C55 UNL A   1      18.441  19.419   6.221  1.00  0.00    +0.000 C 
ATOM     80  F11 UNL A   1      19.299  20.174   5.521  1.00  0.00    +0.000 F 
ATOM     81  C56 UNL A   1      17.105  19.823   6.286  1.00  0.00    +0.000 C 
ATOM     82  F12 UNL A   1      16.714  20.941   5.659  1.00  0.00    +0.000 F 
ATOM     83  C57 UNL A   1      16.169  19.047   6.952  1.00  0.00    +0.000 C 
ATOM     84  F13 UNL A   1      14.878  19.408   6.967  1.00  0.00    +0.000 F 
ATOM     85  C58 UNL A   1      16.570  17.876   7.567  1.00  0.00    +0.000 C 
ATOM     86  F14 UNL A   1      15.668  17.100   8.185  1.00  0.00    +0.000 F 
ATOM     87  C59 UNL A   1      17.901  17.468   7.494  1.00  0.00    +0.000 C 
ATOM     88  F15 UNL A   1      18.204  16.273   8.023  1.00  0.00    +0.000 F 
ENDBRANCH   77   78
TORSDOF 22
ENDMDL
MODEL 3
REMARK VINA RESULT:     -10.3     23.677     27.394
ROOT
ATOM    131  H30 UNL A   1      26.302  32.526  56.146  1.00  0.00    +0.000 H 
ATOM    132  H31 UNL A   1      28.852  32.252  56.857  1.00  0.00    +0.000 H 
ATOM    133  H32 UNL A   1      26.852  28.864  57.761  1.00  0.00    +0.000 H 
ATOM    134  H33 UNL A   1      31.583  25.951  51.817  1.00  0.00    +0.000 H 
ATOM    135  H34 UNL A   1      30.546  27.935  50.600  1.00  0.00    +0.000 H 
ATOM    136  H35 UNL A   1      28.841  27.805  54.388  1.00  0.00    +0.000 H 
ATOM    137  H36 UNL A   1      28.222  25.023  56.142  1.00  0.00    +0.000 H 
ATOM    138  H37 UNL A   1      27.619  27.099  57.546  1.00  0.00    +0.000 H 
ATOM    139  H38 UNL A   1      23.789  28.946  53.239  1.00  0.00    +0.000 H 
ATOM    140  H39 UNL A   1      25.403  28.198  51.383  1.00  0.00    +0.000 H 
ATOM     41  C30 UNL A   1      28.142  28.892  51.903  1.00  0.00    +0.000 C 
ATOM     42  C31 UNL A   1      26.943  29.124  52.771  1.00  0.00    +0.000 C 
ATOM     43  N9  UNL A   1      26.878  29.733  53.914  1.00  0.00    +0.000 N 
ATOM     44  C32 UNL A   1      25.567  29.568  54.368  1.00  0.00    +0.000 C 
ATOM     45  C33 UNL A   1      25.247  29.667  55.688  1.00  0.00    +0.000 C 
ATOM     57  C40 UNL A   1      26.256  30.377  56.424  1.00  0.00    +0.000 C 
ATOM     58  C41 UNL A   1      26.787  31.651  56.397  1.00  0.00    +0.000 C 
ATOM     59  C42 UNL A   1      28.150  31.498  56.788  1.00  0.00    +0.000 C 
ATOM     60  C43 UNL A   1      28.365  30.146  57.061  1.00  0.00    +0.000 C 
ATOM     61  N10 UNL A   1      27.105  29.634  57.200  1.00  0.00    +0.000 N 
ATOM     62  C44 UNL A   1      29.553  29.327  57.047  1.00  0.00    +0.000 C 
ATOM     74  C51 UNL A   1      29.553  27.967  56.936  1.00  0.00    +0.000 C 
ATOM     75  N11 UNL A   1      30.616  27.312  56.335  1.00  0.00    +0.000 N 
ATOM     76  C52 UNL A   1      30.085  26.253  55.790  1.00  0.00    +0.000 C 
ATOM     77  C53 UNL A   1      30.568  25.650  54.528  1.00  0.00    +0.000 C 
ATOM     89  C60 UNL A   1      30.305  26.527  53.532  1.00  0.00    +0.000 C 
ATOM     90  C61 UNL A   1      30.859  26.581  52.197  1.00  0.00    +0.000 C 
ATOM     91  C62 UNL A   1      30.270  27.593  51.534  1.00  0.00    +0.000 C 
ATOM     92  C63 UNL A   1      29.175  28.138  52.342  1.00  0.00    +0.000 C 
ATOM     93  N12 UNL A   1      29.337  27.546  53.578  1.00  0.00    +0.000 N 
ATOM     94  C64 UNL A   1      28.774  25.881  56.293  1.00  0.00    +0.000 C 
ATOM     95  C65 UNL A   1      28.490  26.973  57.006  1.00  0.00    +0.000 C 
ATOM     96  C66 UNL A   1      24.817  29.036  53.262  1.00  0.00    +0.000 C 
ATOM     97  C67 UNL A   1      25.631  28.672  52.271  1.00  0.00    +0.000 C 
ENDROOT
BRANCH   41   40
ATOM    129  H28 UNL A   1      28.255  31.875  48.417  1.00  0.00    +0.000 H 
ATOM     98  C68 UNL A   1      27.337  28.363  49.621  1.00  0.00    +0.000 C 
ATOM     99  C69 UNL A   1      27.079  28.728  48.317  1.00  0.00    +0.000 C 
ATOM    130  H29 UNL A   1      28.871  31.167  50.663  1.00  0.00    +0.000 H 
ATOM     37  C26 UNL A   1      27.334  30.038  47.916  1.00  0.00    +0.000 C 
ATOM     38  C27 UNL A   1      28.011  30.929  48.751  1.00  0.00    +0.000 C 
ATOM     39  C28 UNL A   1      28.353  30.528  50.040  1.00  0.00    +0.000 C 
ATOM     40  C29 UNL A   1      27.991  29.250  50.485  1.00  0.00    +0.000 C 
ATOM    141  H40 UNL A   1      27.046  27.433  49.962  1.00  0.00    +0.000 H 
ATOM    142  H41 UNL A   1      26.703  28.040  47.646  1.00  0.00    +0.000 H 
BRANCH   37   35
ATOM     35  C25 UNL A   1      26.825  30.500  46.611  1.00  0.00    +0.000 C 
ATOM     36  O3  UNL A   1      27.400  31.380  46.001  1.00  0.00    +0.000 O 
BRANCH   35   34
ATOM     34  N8  UNL A   1      25.672  29.922  46.113  1.00  0.00    +0.000 N 
ATOM    128  H27 UNL A   1      25.780  29.082  45.613  1.00  0.00    +0.000 H 
BRANCH   34   33
ATOM     33  C24 UNL A   1      24.310  30.429  46.254  1.00  0.00    +0.000 C 
ATOM    126  H25 UNL A   1      23.752  29.760  46.874  1.00  0.00    +0.000 H 
ATOM    127  H26 UNL A   1      24.359  31.404  46.694  1.00  0.00    +0.000 H 
BRANCH   33   32
ATOM    124  H23 UNL A   1      24.270  30.155  44.152  1.00  0.00    +0.000 H 
ATOM    125  H24 UNL A   1      22.699  30.002  44.972  1.00  0.00    +0.000 H 
ATOM     32  C23 UNL A   1      23.617  30.548  44.903  1.00  0.00    +0.000 C 
BRANCH   32   31
ATOM    122  H21 UNL A   1      23.987  32.639  44.954  1.00  0.00    +0.000 H 
ATOM    123  H22 UNL A   1      23.231  32.012  43.452  1.00  0.00    +0.000 H 
ATOM     31  C22 UNL A   1      23.254  31.990  44.522  1.00  0.00    +0.000 C 
BRANCH   31   30
ATOM    121  H20 UNL A   1      21.809  33.504  44.693  1.00  0.00    +0.000 H 
ATOM     30  C21 UNL A   1      21.867  32.474  44.978  1.00  0.00    +0.000 C 
ATOM    120  H19 UNL A   1      21.793  32.313  46.033  1.00  0.00    +0.000 H 
BRANCH   30   29
ATOM     29  C20 UNL A   1      20.670  31.783  44.307  1.00  0.00    +0.000 C 
ATOM    118  H17 UNL A   1      19.976  32.535  43.996  1.00  0.00    +0.000 H 
ATOM    119  H18 UNL A   1      21.055  31.218  43.484  1.00  0.00    +0.000 H 
BRANCH   29   28
ATOM    116  H15 UNL A   1      20.649  30.137  45.673  1.00  0.00    +0.000 H 
ATOM     28  C19 UNL A   1      19.937  30.798  45.223  1.00  0.00    +0.000 C 
ATOM    117  H16 UNL A   1      19.419  31.346  45.982  1.00  0.00    +0.000 H 
BRANCH   28   27
ATOM     27  N7  UNL A   1      18.978  30.023  44.461  1.00  0.00    +0.000 N 
ATOM    115  H14 UNL A   1      19.375  29.227  44.038  1.00  0.00    +0.000 H 
BRANCH   27   25
ATOM     25  C18 UNL A   1      17.640  30.160  44.201  1.00  0.00    +0.000 C 
ATOM     26  O2  UNL A   1      17.050  31.068  44.790  1.00  0.00    +0.000 O 
BRANCH   25   24
ATOM    100  C70 UNL A   1      16.041  29.655  42.260  1.00  0.00    +0.000 C 
ATOM    101  C71 UNL A   1      15.454  28.712  41.406  1.00  0.00    +0.000 C 
ATOM    143  H42 UNL A   1      15.868  30.661  42.105  1.00  0.00    +0.000 H 
ATOM    144  H43 UNL A   1      14.919  29.024  40.582  1.00  0.00    +0.000 H 
ATOM    113  H12 UNL A   1      16.309  25.923  43.065  1.00  0.00    +0.000 H 
ATOM    114  H13 UNL A   1      17.494  27.556  44.415  1.00  0.00    +0.000 H 
ATOM     21  C14 UNL A   1      15.596  27.346  41.676  1.00  0.00    +0.000 C 
ATOM     22  C15 UNL A   1      16.284  26.923  42.813  1.00  0.00    +0.000 C 
ATOM     23  C16 UNL A   1      16.939  27.871  43.604  1.00  0.00    +0.000 C 
ATOM     24  C17 UNL A   1      16.856  29.247  43.319  1.00  0.00    +0.000 C 
BRANCH   21   20
ATOM      2  C2  UNL A   1      14.653  25.083  41.095  1.00  0.00    +0.000 C 
ATOM      3  C3  UNL A   1      14.357  24.574  39.846  1.00  0.00    +0.000 C 
ATOM     18  N4  UNL A   1      14.405  25.563  38.909  1.00  0.00    +0.000 N 
ATOM     19  N5  UNL A   1      14.725  26.692  39.532  1.00  0.00    +0.000 N 
ATOM     20  N6  UNL A   1      15.008  26.391  40.821  1.00  0.00    +0.000 N 
BRANCH    2    1
ATOM      1  C1  UNL A   1      14.493  24.489  42.442  1.00  0.00    +0.000 C 
ATOM    102  H1  UNL A   1      14.736  23.447  42.404  1.00  0.00    +0.000 H 
ATOM    103  H2  UNL A   1      13.480  24.606  42.766  1.00  0.00    +0.000 H 
ATOM    104  H3  UNL A   1      15.147  24.983  43.130  1.00  0.00    +0.000 H 
ENDBRANCH    2    1
BRANCH    3    4
ATOM      4  C4  UNL A   1      13.944  23.216  39.514  1.00  0.00    +0.000 C 
ATOM      5  N1  UNL A   1      12.955  22.594  40.168  1.00  0.00    +0.000 N 
ATOM      6  N2  UNL A   1      13.002  21.322  39.715  1.00  0.00    +0.000 N 
ATOM     13  C11 UNL A   1      13.975  21.153  38.757  1.00  0.00    +0.000 C 
ATOM     14  C12 UNL A   1      14.572  22.384  38.558  1.00  0.00    +0.000 C 
ATOM    110  H9  UNL A   1      14.215  20.272  38.277  1.00  0.00    +0.000 H 
BRANCH    6    7
ATOM      7  C5  UNL A   1      12.135  20.334  40.235  1.00  0.00    +0.000 C 
ATOM      8  C6  UNL A   1      11.707  20.433  41.564  1.00  0.00    +0.000 C 
ATOM      9  C7  UNL A   1      10.825  19.482  42.078  1.00  0.00    +0.000 C 
ATOM    105  H4  UNL A   1      12.041  21.205  42.160  1.00  0.00    +0.000 H 
ATOM     11  C9  UNL A   1      10.872  18.292  39.974  1.00  0.00    +0.000 C 
ATOM     12  C10 UNL A   1      11.711  19.268  39.432  1.00  0.00    +0.000 C 
ATOM    109  H8  UNL A   1      12.016  19.203  38.448  1.00  0.00    +0.000 H 
ATOM     10  C8  UNL A   1      10.418  18.407  41.288  1.00  0.00    +0.000 C 
ATOM    106  H5  UNL A   1      10.472  19.574  43.045  1.00  0.00    +0.000 H 
ATOM    108  H7  UNL A   1      10.587  17.483  39.400  1.00  0.00    +0.000 H 
ATOM    107  H6  UNL A   1       9.779  17.695  41.677  1.00  0.00    +0.000 H 
ENDBRANCH    6    7
BRANCH   14   15
ATOM    111  H10 UNL A   1      16.588  22.619  37.849  1.00  0.00    +0.000 H 
ATOM     15  C13 UNL A   1      15.593  22.653  37.579  1.00  0.00    +0.000 C 
BRANCH   15   16
ATOM     16  N3  UNL A   1      15.265  22.936  36.361  1.00  0.00    +0.000 N 
BRANCH   16   17
ATOM     17  O1  UNL A   1      15.503  24.296  36.125  1.00  0.00    +0.000 O 
ATOM    112  H11 UNL A   1      14.816  24.842  35.797  1.00  0.00    +0.000 H 
ENDBRANCH   16   17
ENDBRANCH   15   16
ENDBRANCH   14   15
ENDBRANCH    3    4
ENDBRANCH   21   20
ENDBRANCH   25   24
ENDBRANCH   27   25
ENDBRANCH   28   27
ENDBRANCH   29   28
ENDBRANCH   30   29
ENDBRANCH   31   30
ENDBRANCH   32   31
ENDBRANCH   33   32
ENDBRANCH   34   33
ENDBRANCH   35   34
ENDBRANCH   37   35
ENDBRANCH   41   40
BRANCH   45   46
ATOM     46  C34 UNL A   1      24.230  28.787  56.393  1.00  0.00    +0.000 C 
ATOM     47  C35 UNL A   1      24.364  27.383  56.314  1.00  0.00    +0.000 C 
ATOM     48  F1  UNL A   1      25.508  26.828  55.887  1.00  0.00    +0.000 F 
ATOM     49  C36 UNL A   1      23.294  26.519  56.568  1.00  0.00    +0.000 C 
ATOM     50  F2  UNL A   1      23.429  25.205  56.342  1.00  0.00    +0.000 F 
ATOM     51  C37 UNL A   1      22.072  27.019  56.975  1.00  0.00    +0.000 C 
ATOM     52  F3  UNL A   1      21.025  26.201  57.153  1.00  0.00    +0.000 F 
ATOM     53  C38 UNL A   1      21.925  28.378  57.150  1.00  0.00    +0.000 C 
ATOM     54  F4  UNL A   1      20.743  28.883  57.531  1.00  0.00    +0.000 F 
ATOM     55  C39 UNL A   1      22.974  29.247  56.845  1.00  0.00    +0.000 C 
ATOM     56  F5  UNL A   1      22.670  30.547  56.908  1.00  0.00    +0.000 F 
ENDBRANCH   45   46
BRANCH   62   63
ATOM     65  F6  UNL A   1      30.672  30.269  54.508  1.00  0.00    +0.000 F 
ATOM     66  C47 UNL A   1      32.559  31.184  55.552  1.00  0.00    +0.000 C 
ATOM     67  F7  UNL A   1      33.027  31.572  54.357  1.00  0.00    +0.000 F 
ATOM     68  C48 UNL A   1      33.252  31.517  56.705  1.00  0.00    +0.000 C 
ATOM     69  F8  UNL A   1      34.383  32.232  56.628  1.00  0.00    +0.000 F 
ATOM     70  C49 UNL A   1      32.758  31.131  57.941  1.00  0.00    +0.000 C 
ATOM     71  F9  UNL A   1      33.397  31.495  59.062  1.00  0.00    +0.000 F 
ATOM     72  C50 UNL A   1      31.586  30.388  58.024  1.00  0.00    +0.000 C 
ATOM     73  F10 UNL A   1      31.123  30.046  59.238  1.00  0.00    +0.000 F 
ATOM     63  C45 UNL A   1      30.865  30.036  56.875  1.00  0.00    +0.000 C 
ATOM     64  C46 UNL A   1      31.363  30.476  55.637  1.00  0.00    +0.000 C 
ENDBRANCH   62   63
BRANCH   77   78
ATOM     78  C54 UNL A   1      31.010  24.244  54.421  1.00  0.00    +0.000 C 
ATOM     79  C55 UNL A   1      32.367  23.898  54.501  1.00  0.00    +0.000 C 
ATOM     80  F11 UNL A   1      33.307  24.854  54.489  1.00  0.00    +0.000 F 
ATOM     81  C56 UNL A   1      32.775  22.570  54.658  1.00  0.00    +0.000 C 
ATOM     82  F12 UNL A   1      34.077  22.282  54.790  1.00  0.00    +0.000 F 
ATOM     83  C57 UNL A   1      31.837  21.552  54.732  1.00  0.00    +0.000 C 
ATOM     84  F13 UNL A   1      32.226  20.286  54.938  1.00  0.00    +0.000 F 
ATOM     85  C58 UNL A   1      30.492  21.858  54.632  1.00  0.00    +0.000 C 
ATOM     86  F14 UNL A   1      29.574  20.887  54.735  1.00  0.00    +0.000 F 
ATOM     87  C59 UNL A   1      30.085  23.183  54.485  1.00  0.00    +0.000 C 
ATOM     88  F15 UNL A   1      28.765  23.422  54.496  1.00  0.00    +0.000 F 
ENDBRANCH   77   78
TORSDOF 22
ENDMDL
MODEL 4
REMARK VINA RESULT:     -10.2      4.623     10.071
ROOT
ATOM    131  H30 UNL A   1      43.706  31.483  33.681  1.00  0.00    +0.000 H 
ATOM    132  H31 UNL A   1      45.367  31.485  31.601  1.00  0.00    +0.000 H 
ATOM    133  H32 UNL A   1      44.834  27.690  32.867  1.00  0.00    +0.000 H 
ATOM    134  H33 UNL A   1      41.045  27.135  25.690  1.00  0.00    +0.000 H 
ATOM    135  H34 UNL A   1      39.819  29.145  26.661  1.00  0.00    +0.000 H 
ATOM    136  H35 UNL A   1      42.483  27.823  29.565  1.00  0.00    +0.000 H 
ATOM    137  H36 UNL A   1      43.379  24.639  30.069  1.00  0.00    +0.000 H 
ATOM    138  H37 UNL A   1      44.697  26.185  31.656  1.00  0.00    +0.000 H 
ATOM    139  H38 UNL A   1      39.515  28.329  33.933  1.00  0.00    +0.000 H 
ATOM    140  H39 UNL A   1      38.413  28.333  31.611  1.00  0.00    +0.000 H 
ATOM     41  C30 UNL A   1      40.127  29.338  29.536  1.00  0.00    +0.000 C 
ATOM     42  C31 UNL A   1      40.439  29.148  30.989  1.00  0.00    +0.000 C 
ATOM     43  N9  UNL A   1      41.527  29.445  31.628  1.00  0.00    +0.000 N 
ATOM     44  C32 UNL A   1      41.362  28.956  32.925  1.00  0.00    +0.000 C 
ATOM     45  C33 UNL A   1      42.426  28.680  33.729  1.00  0.00    +0.000 C 
ATOM     57  C40 UNL A   1      43.614  29.355  33.283  1.00  0.00    +0.000 C 
ATOM     58  C41 UNL A   1      44.002  30.669  33.120  1.00  0.00    +0.000 C 
ATOM     59  C42 UNL A   1      44.899  30.662  32.011  1.00  0.00    +0.000 C 
ATOM     60  C43 UNL A   1      45.031  29.341  31.580  1.00  0.00    +0.000 C 
ATOM     61  N10 UNL A   1      44.552  28.603  32.627  1.00  0.00    +0.000 N 
ATOM     62  C44 UNL A   1      45.391  28.764  30.307  1.00  0.00    +0.000 C 
ATOM     74  C51 UNL A   1      45.088  27.491  29.922  1.00  0.00    +0.000 C 
ATOM     75  N11 UNL A   1      44.895  27.190  28.584  1.00  0.00    +0.000 N 
ATOM     76  C52 UNL A   1      44.026  26.217  28.586  1.00  0.00    +0.000 C 
ATOM     77  C53 UNL A   1      43.006  26.025  27.531  1.00  0.00    +0.000 C 
ATOM     89  C60 UNL A   1      42.135  27.056  27.615  1.00  0.00    +0.000 C 
ATOM     90  C61 UNL A   1      41.178  27.523  26.637  1.00  0.00    +0.000 C 
ATOM     91  C62 UNL A   1      40.489  28.548  27.170  1.00  0.00    +0.000 C 
ATOM     92  C63 UNL A   1      40.838  28.689  28.587  1.00  0.00    +0.000 C 
ATOM     93  N12 UNL A   1      41.925  27.855  28.755  1.00  0.00    +0.000 N 
ATOM     94  C64 UNL A   1      43.874  25.518  29.850  1.00  0.00    +0.000 C 
ATOM     95  C65 UNL A   1      44.558  26.343  30.646  1.00  0.00    +0.000 C 
ATOM     96  C66 UNL A   1      39.978  28.583  33.048  1.00  0.00    +0.000 C 
ATOM     97  C67 UNL A   1      39.375  28.612  31.858  1.00  0.00    +0.000 C 
ENDROOT
BRANCH   41   40
ATOM    129  H28 UNL A   1      37.468  33.041  29.002  1.00  0.00    +0.000 H 
ATOM     98  C68 UNL A   1      37.675  29.228  29.202  1.00  0.00    +0.000 C 
ATOM     99  C69 UNL A   1      36.450  29.839  29.036  1.00  0.00    +0.000 C 
ATOM    130  H29 UNL A   1      39.642  31.952  29.112  1.00  0.00    +0.000 H 
ATOM     37  C26 UNL A   1      36.377  31.230  29.057  1.00  0.00    +0.000 C 
ATOM     38  C27 UNL A   1      37.534  32.012  29.056  1.00  0.00    +0.000 C 
ATOM     39  C28 UNL A   1      38.777  31.389  29.132  1.00  0.00    +0.000 C 
ATOM     40  C29 UNL A   1      38.847  29.994  29.231  1.00  0.00    +0.000 C 
ATOM    141  H40 UNL A   1      37.728  28.201  29.305  1.00  0.00    +0.000 H 
ATOM    142  H41 UNL A   1      35.598  29.273  28.899  1.00  0.00    +0.000 H 
BRANCH   37   35
ATOM     35  C25 UNL A   1      35.055  31.877  29.139  1.00  0.00    +0.000 C 
ATOM     36  O3  UNL A   1      34.279  31.817  28.205  1.00  0.00    +0.000 O 
BRANCH   35   34
ATOM     34  N8  UNL A   1      34.732  32.568  30.292  1.00  0.00    +0.000 N 
ATOM    128  H27 UNL A   1      34.376  33.477  30.177  1.00  0.00    +0.000 H 
BRANCH   34   33
ATOM     33  C24 UNL A   1      34.866  32.087  31.665  1.00  0.00    +0.000 C 
ATOM    126  H25 UNL A   1      33.912  31.747  32.009  1.00  0.00    +0.000 H 
ATOM    127  H26 UNL A   1      35.579  31.289  31.673  1.00  0.00    +0.000 H 
BRANCH   33   32
ATOM    124  H23 UNL A   1      34.929  34.113  32.288  1.00  0.00    +0.000 H 
ATOM    125  H24 UNL A   1      35.083  32.908  33.588  1.00  0.00    +0.000 H 
ATOM     32  C23 UNL A   1      35.366  33.185  32.594  1.00  0.00    +0.000 C 
BRANCH   32   31
ATOM    122  H21 UNL A   1      37.172  33.816  31.670  1.00  0.00    +0.000 H 
ATOM    123  H22 UNL A   1      37.127  33.924  33.461  1.00  0.00    +0.000 H 
ATOM     31  C22 UNL A   1      36.893  33.347  32.591  1.00  0.00    +0.000 C 
BRANCH   31   30
ATOM    121  H20 UNL A   1      37.444  31.453  31.871  1.00  0.00    +0.000 H 
ATOM     30  C21 UNL A   1      37.704  32.048  32.722  1.00  0.00    +0.000 C 
ATOM    120  H19 UNL A   1      37.452  31.596  33.659  1.00  0.00    +0.000 H 
BRANCH   30   29
ATOM     29  C20 UNL A   1      39.231  32.211  32.672  1.00  0.00    +0.000 C 
ATOM    118  H17 UNL A   1      39.674  31.431  33.255  1.00  0.00    +0.000 H 
ATOM    119  H18 UNL A   1      39.518  32.164  31.642  1.00  0.00    +0.000 H 
BRANCH   29   28
ATOM    116  H15 UNL A   1      38.883  34.143  33.519  1.00  0.00    +0.000 H 
ATOM     28  C19 UNL A   1      39.724  33.557  33.212  1.00  0.00    +0.000 C 
ATOM    117  H16 UNL A   1      40.371  33.383  34.047  1.00  0.00    +0.000 H 
BRANCH   28   27
ATOM     27  N7  UNL A   1      40.456  34.272  32.186  1.00  0.00    +0.000 N 
ATOM    115  H14 UNL A   1      41.334  34.596  32.494  1.00  0.00    +0.000 H 
BRANCH   27   25
ATOM     25  C18 UNL A   1      40.191  34.594  30.881  1.00  0.00    +0.000 C 
ATOM     26  O2  UNL A   1      39.008  34.776  30.583  1.00  0.00    +0.000 O 
BRANCH   25   24
ATOM    100  C70 UNL A   1      41.186  35.531  28.711  1.00  0.00    +0.000 C 
ATOM    101  C71 UNL A   1      42.271  35.612  27.828  1.00  0.00    +0.000 C 
ATOM    143  H42 UNL A   1      40.353  36.119  28.551  1.00  0.00    +0.000 H 
ATOM    144  H43 UNL A   1      42.270  36.312  27.070  1.00  0.00    +0.000 H 
ATOM    113  H12 UNL A   1      44.095  33.063  29.028  1.00  0.00    +0.000 H 
ATOM    114  H13 UNL A   1      42.311  33.072  30.674  1.00  0.00    +0.000 H 
ATOM     21  C14 UNL A   1      43.356  34.740  27.977  1.00  0.00    +0.000 C 
ATOM     22  C15 UNL A   1      43.342  33.767  28.974  1.00  0.00    +0.000 C 
ATOM     23  C16 UNL A   1      42.296  33.758  29.902  1.00  0.00    +0.000 C 
ATOM     24  C17 UNL A   1      41.222  34.662  29.805  1.00  0.00    +0.000 C 
BRANCH   21   20
ATOM      2  C2  UNL A   1      45.740  35.248  27.341  1.00  0.00    +0.000 C 
ATOM      3  C3  UNL A   1      46.291  35.327  26.078  1.00  0.00    +0.000 C 
ATOM     18  N4  UNL A   1      45.420  34.840  25.150  1.00  0.00    +0.000 N 
ATOM     19  N5  UNL A   1      44.323  34.452  25.794  1.00  0.00    +0.000 N 
ATOM     20  N6  UNL A   1      44.451  34.816  27.092  1.00  0.00    +0.000 N 
BRANCH    2    1
ATOM      1  C1  UNL A   1      46.360  35.407  28.677  1.00  0.00    +0.000 C 
ATOM    102  H1  UNL A   1      46.490  36.449  28.888  1.00  0.00    +0.000 H 
ATOM    103  H2  UNL A   1      47.313  34.921  28.688  1.00  0.00    +0.000 H 
ATOM    104  H3  UNL A   1      45.727  34.968  29.419  1.00  0.00    +0.000 H 
ENDBRANCH    2    1
BRANCH    3    4
ATOM      4  C4  UNL A   1      47.638  35.757  25.720  1.00  0.00    +0.000 C 
ATOM      5  N1  UNL A   1      48.529  34.922  25.173  1.00  0.00    +0.000 N 
ATOM      6  N2  UNL A   1      49.685  35.620  25.169  1.00  0.00    +0.000 N 
ATOM     13  C11 UNL A   1      49.519  36.892  25.666  1.00  0.00    +0.000 C 
ATOM     14  C12 UNL A   1      48.181  37.036  25.981  1.00  0.00    +0.000 C 
ATOM    110  H9  UNL A   1      50.255  37.606  25.780  1.00  0.00    +0.000 H 
BRANCH    6    7
ATOM      7  C5  UNL A   1      50.888  35.030  24.716  1.00  0.00    +0.000 C 
ATOM      8  C6  UNL A   1      51.136  33.682  25.000  1.00  0.00    +0.000 C 
ATOM      9  C7  UNL A   1      52.303  33.081  24.530  1.00  0.00    +0.000 C 
ATOM    105  H4  UNL A   1      50.458  33.135  25.553  1.00  0.00    +0.000 H 
ATOM     11  C9  UNL A   1      53.012  35.187  23.578  1.00  0.00    +0.000 C 
ATOM     12  C10 UNL A   1      51.821  35.785  23.996  1.00  0.00    +0.000 C 
ATOM    109  H8  UNL A   1      51.631  36.776  23.775  1.00  0.00    +0.000 H 
ATOM     10  C8  UNL A   1      53.246  33.835  23.831  1.00  0.00    +0.000 C 
ATOM    106  H5  UNL A   1      52.472  32.076  24.700  1.00  0.00    +0.000 H 
ATOM    108  H7  UNL A   1      53.721  35.748  23.080  1.00  0.00    +0.000 H 
ATOM    107  H6  UNL A   1      54.117  33.392  23.499  1.00  0.00    +0.000 H 
ENDBRANCH    6    7
BRANCH   14   15
ATOM    111  H10 UNL A   1      47.083  38.259  27.367  1.00  0.00    +0.000 H 
ATOM     15  C13 UNL A   1      47.577  38.253  26.462  1.00  0.00    +0.000 C 
BRANCH   15   16
ATOM     16  N3  UNL A   1      47.654  39.336  25.761  1.00  0.00    +0.000 N 
BRANCH   16   17
ATOM     17  O1  UNL A   1      47.023  39.132  24.528  1.00  0.00    +0.000 O 
ATOM    112  H11 UNL A   1      47.474  38.686  23.838  1.00  0.00    +0.000 H 
ENDBRANCH   16   17
ENDBRANCH   15   16
ENDBRANCH   14   15
ENDBRANCH    3    4
ENDBRANCH   21   20
ENDBRANCH   25   24
ENDBRANCH   27   25
ENDBRANCH   28   27
ENDBRANCH   29   28
ENDBRANCH   30   29
ENDBRANCH   31   30
ENDBRANCH   32   31
ENDBRANCH   33   32
ENDBRANCH   34   33
ENDBRANCH   35   34
ENDBRANCH   37   35
ENDBRANCH   41   40
BRANCH   45   46
ATOM     46  C34 UNL A   1      42.502  27.496  34.678  1.00  0.00    +0.000 C 
ATOM     47  C35 UNL A   1      42.898  26.237  34.175  1.00  0.00    +0.000 C 
ATOM     48  F1  UNL A   1      43.479  26.134  32.970  1.00  0.00    +0.000 F 
ATOM     49  C36 UNL A   1      42.612  25.046  34.849  1.00  0.00    +0.000 C 
ATOM     50  F2  UNL A   1      42.881  23.869  34.266  1.00  0.00    +0.000 F 
ATOM     51  C37 UNL A   1      41.982  25.069  36.078  1.00  0.00    +0.000 C 
ATOM     52  F3  UNL A   1      41.644  23.928  36.694  1.00  0.00    +0.000 F 
ATOM     53  C38 UNL A   1      41.658  26.283  36.644  1.00  0.00    +0.000 C 
ATOM     54  F4  UNL A   1      41.033  26.326  37.830  1.00  0.00    +0.000 F 
ATOM     55  C39 UNL A   1      41.892  27.472  35.951  1.00  0.00    +0.000 C 
ATOM     56  F5  UNL A   1      41.401  28.573  36.529  1.00  0.00    +0.000 F 
ENDBRANCH   45   46
BRANCH   62   63
ATOM     65  F6  UNL A   1      48.200  29.229  29.614  1.00  0.00    +0.000 F 
ATOM     66  C47 UNL A   1      47.645  30.740  27.912  1.00  0.00    +0.000 C 
ATOM     67  F7  UNL A   1      48.948  30.925  27.657  1.00  0.00    +0.000 F 
ATOM     68  C48 UNL A   1      46.692  31.367  27.124  1.00  0.00    +0.000 C 
ATOM     69  F8  UNL A   1      47.071  32.148  26.103  1.00  0.00    +0.000 F 
ATOM     70  C49 UNL A   1      45.345  31.161  27.378  1.00  0.00    +0.000 C 
ATOM     71  F9  UNL A   1      44.420  31.722  26.587  1.00  0.00    +0.000 F 
ATOM     72  C50 UNL A   1      44.949  30.351  28.438  1.00  0.00    +0.000 C 
ATOM     73  F10 UNL A   1      43.636  30.157  28.645  1.00  0.00    +0.000 F 
ATOM     63  C45 UNL A   1      45.890  29.707  29.251  1.00  0.00    +0.000 C 
ATOM     64  C46 UNL A   1      47.248  29.896  28.947  1.00  0.00    +0.000 C 
ENDBRANCH   62   63
BRANCH   77   78
ATOM     78  C54 UNL A   1      42.884  24.782  26.741  1.00  0.00    +0.000 C 
ATOM     79  C55 UNL A   1      43.623  24.590  25.565  1.00  0.00    +0.000 C 
ATOM     80  F11 UNL A   1      44.316  25.607  25.031  1.00  0.00    +0.000 F 
ATOM     81  C56 UNL A   1      43.713  23.336  24.954  1.00  0.00    +0.000 C 
ATOM     82  F12 UNL A   1      44.475  23.176  23.864  1.00  0.00    +0.000 F 
ATOM     83  C57 UNL A   1      43.060  22.242  25.500  1.00  0.00    +0.000 C 
ATOM     84  F13 UNL A   1      43.191  21.028  24.945  1.00  0.00    +0.000 F 
ATOM     85  C58 UNL A   1      42.303  22.403  26.646  1.00  0.00    +0.000 C 
ATOM     86  F14 UNL A   1      41.694  21.346  27.202  1.00  0.00    +0.000 F 
ATOM     87  C59 UNL A   1      42.222  23.652  27.260  1.00  0.00    +0.000 C 
ATOM     88  F15 UNL A   1      41.557  23.719  28.423  1.00  0.00    +0.000 F 
ENDBRANCH   77   78
TORSDOF 22
ENDMDL
MODEL 5
REMARK VINA RESULT:     -10.2      4.680     10.054
ROOT
ATOM    131  H30 UNL A   1      43.360  32.527  33.216  1.00  0.00    +0.000 H 
ATOM    132  H31 UNL A   1      44.981  32.653  31.109  1.00  0.00    +0.000 H 
ATOM    133  H32 UNL A   1      44.904  28.864  32.499  1.00  0.00    +0.000 H 
ATOM    134  H33 UNL A   1      41.108  27.649  25.407  1.00  0.00    +0.000 H 
ATOM    135  H34 UNL A   1      39.672  29.536  26.337  1.00  0.00    +0.000 H 
ATOM    136  H35 UNL A   1      42.509  28.622  29.235  1.00  0.00    +0.000 H 
ATOM    137  H36 UNL A   1      43.771  25.579  29.820  1.00  0.00    +0.000 H 
ATOM    138  H37 UNL A   1      44.925  27.315  31.337  1.00  0.00    +0.000 H 
ATOM    139  H38 UNL A   1      39.562  28.925  33.635  1.00  0.00    +0.000 H 
ATOM    140  H39 UNL A   1      38.436  28.729  31.333  1.00  0.00    +0.000 H 
ATOM     41  C30 UNL A   1      39.994  29.856  29.199  1.00  0.00    +0.000 C 
ATOM     42  C31 UNL A   1      40.346  29.749  30.652  1.00  0.00    +0.000 C 
ATOM     43  N9  UNL A   1      41.401  30.190  31.263  1.00  0.00    +0.000 N 
ATOM     44  C32 UNL A   1      41.311  29.727  32.577  1.00  0.00    +0.000 C 
ATOM     45  C33 UNL A   1      42.411  29.600  33.371  1.00  0.00    +0.000 C 
ATOM     57  C40 UNL A   1      43.507  30.391  32.884  1.00  0.00    +0.000 C 
ATOM     58  C41 UNL A   1      43.739  31.735  32.675  1.00  0.00    +0.000 C 
ATOM     59  C42 UNL A   1      44.616  31.795  31.552  1.00  0.00    +0.000 C 
ATOM     60  C43 UNL A   1      44.893  30.484  31.159  1.00  0.00    +0.000 C 
ATOM     61  N10 UNL A   1      44.517  29.731  32.235  1.00  0.00    +0.000 N 
ATOM     62  C44 UNL A   1      45.300  29.912  29.898  1.00  0.00    +0.000 C 
ATOM     74  C51 UNL A   1      45.140  28.600  29.557  1.00  0.00    +0.000 C 
ATOM     75  N11 UNL A   1      44.965  28.236  28.232  1.00  0.00    +0.000 N 
ATOM     76  C52 UNL A   1      44.213  27.172  28.279  1.00  0.00    +0.000 C 
ATOM     77  C53 UNL A   1      43.208  26.831  27.247  1.00  0.00    +0.000 C 
ATOM     89  C60 UNL A   1      42.225  27.758  27.315  1.00  0.00    +0.000 C 
ATOM     90  C61 UNL A   1      41.208  28.080  26.339  1.00  0.00    +0.000 C 
ATOM     91  C62 UNL A   1      40.414  29.037  26.853  1.00  0.00    +0.000 C 
ATOM     92  C63 UNL A   1      40.763  29.262  28.259  1.00  0.00    +0.000 C 
ATOM     93  N12 UNL A   1      41.941  28.563  28.433  1.00  0.00    +0.000 N 
ATOM     94  C64 UNL A   1      44.159  26.500  29.566  1.00  0.00    +0.000 C 
ATOM     95  C65 UNL A   1      44.755  27.423  30.325  1.00  0.00    +0.000 C 
ATOM     96  C66 UNL A   1      39.981  29.203  32.735  1.00  0.00    +0.000 C 
ATOM     97  C67 UNL A   1      39.363  29.124  31.556  1.00  0.00    +0.000 C 
ENDROOT
BRANCH   41   40
ATOM    129  H28 UNL A   1      36.757  33.109  29.167  1.00  0.00    +0.000 H 
ATOM     98  C68 UNL A   1      37.636  29.435  28.570  1.00  0.00    +0.000 C 
ATOM     99  C69 UNL A   1      36.337  29.864  28.399  1.00  0.00    +0.000 C 
ATOM    130  H29 UNL A   1      39.078  32.385  29.291  1.00  0.00    +0.000 H 
ATOM     37  C26 UNL A   1      36.012  31.183  28.708  1.00  0.00    +0.000 C 
ATOM     38  C27 UNL A   1      37.004  32.120  29.007  1.00  0.00    +0.000 C 
ATOM     39  C28 UNL A   1      38.330  31.702  29.090  1.00  0.00    +0.000 C 
ATOM     40  C29 UNL A   1      38.644  30.351  28.897  1.00  0.00    +0.000 C 
ATOM    141  H40 UNL A   1      37.866  28.435  28.457  1.00  0.00    +0.000 H 
ATOM    142  H41 UNL A   1      35.615  29.217  28.047  1.00  0.00    +0.000 H 
BRANCH   37   35
ATOM     35  C25 UNL A   1      34.591  31.575  28.774  1.00  0.00    +0.000 C 
ATOM     36  O3  UNL A   1      33.799  31.160  27.952  1.00  0.00    +0.000 O 
BRANCH   35   34
ATOM     34  N8  UNL A   1      34.194  32.437  29.778  1.00  0.00    +0.000 N 
ATOM    128  H27 UNL A   1      33.966  32.031  30.644  1.00  0.00    +0.000 H 
BRANCH   34   33
ATOM     33  C24 UNL A   1      34.079  33.891  29.686  1.00  0.00    +0.000 C 
ATOM    126  H25 UNL A   1      34.698  34.238  28.886  1.00  0.00    +0.000 H 
ATOM    127  H26 UNL A   1      33.052  34.135  29.506  1.00  0.00    +0.000 H 
BRANCH   33   32
ATOM    124  H23 UNL A   1      35.457  35.042  30.814  1.00  0.00    +0.000 H 
ATOM    125  H24 UNL A   1      33.745  35.265  31.241  1.00  0.00    +0.000 H 
ATOM     32  C23 UNL A   1      34.512  34.567  30.980  1.00  0.00    +0.000 C 
BRANCH   32   31
ATOM    122  H21 UNL A   1      33.957  33.889  32.914  1.00  0.00    +0.000 H 
ATOM    123  H22 UNL A   1      34.489  32.621  31.761  1.00  0.00    +0.000 H 
ATOM     31  C22 UNL A   1      34.660  33.599  32.162  1.00  0.00    +0.000 C 
BRANCH   31   30
ATOM    121  H20 UNL A   1      35.960  34.064  33.744  1.00  0.00    +0.000 H 
ATOM     30  C21 UNL A   1      36.052  33.544  32.813  1.00  0.00    +0.000 C 
ATOM    120  H19 UNL A   1      36.750  33.991  32.136  1.00  0.00    +0.000 H 
BRANCH   30   29
ATOM     29  C20 UNL A   1      36.566  32.139  33.163  1.00  0.00    +0.000 C 
ATOM    118  H17 UNL A   1      35.873  31.685  33.840  1.00  0.00    +0.000 H 
ATOM    119  H18 UNL A   1      36.651  31.598  32.243  1.00  0.00    +0.000 H 
BRANCH   29   28
ATOM    116  H15 UNL A   1      37.938  32.769  34.677  1.00  0.00    +0.000 H 
ATOM     28  C19 UNL A   1      37.952  32.135  33.814  1.00  0.00    +0.000 C 
ATOM    117  H16 UNL A   1      38.201  31.135  34.101  1.00  0.00    +0.000 H 
BRANCH   28   27
ATOM     27  N7  UNL A   1      38.946  32.621  32.879  1.00  0.00    +0.000 N 
ATOM    115  H14 UNL A   1      38.661  32.547  31.939  1.00  0.00    +0.000 H 
BRANCH   27   25
ATOM     25  C18 UNL A   1      40.198  33.160  33.019  1.00  0.00    +0.000 C 
ATOM     26  O2  UNL A   1      40.703  33.106  34.143  1.00  0.00    +0.000 O 
BRANCH   25   24
ATOM    100  C70 UNL A   1      42.026  34.718  32.121  1.00  0.00    +0.000 C 
ATOM    101  C71 UNL A   1      42.742  35.218  31.025  1.00  0.00    +0.000 C 
ATOM    143  H42 UNL A   1      42.304  34.989  33.077  1.00  0.00    +0.000 H 
ATOM    144  H43 UNL A   1      43.588  35.788  31.176  1.00  0.00    +0.000 H 
ATOM    113  H12 UNL A   1      40.761  34.084  28.565  1.00  0.00    +0.000 H 
ATOM    114  H13 UNL A   1      39.653  33.051  30.462  1.00  0.00    +0.000 H 
ATOM     21  C14 UNL A   1      42.304  34.943  29.724  1.00  0.00    +0.000 C 
ATOM     22  C15 UNL A   1      41.137  34.208  29.517  1.00  0.00    +0.000 C 
ATOM     23  C16 UNL A   1      40.486  33.641  30.617  1.00  0.00    +0.000 C 
ATOM     24  C17 UNL A   1      40.942  33.859  31.931  1.00  0.00    +0.000 C 
BRANCH   21   20
ATOM      2  C2  UNL A   1      44.361  35.757  28.520  1.00  0.00    +0.000 C 
ATOM      3  C3  UNL A   1      44.441  36.412  27.307  1.00  0.00    +0.000 C 
ATOM     18  N4  UNL A   1      43.239  36.368  26.666  1.00  0.00    +0.000 N 
ATOM     19  N5  UNL A   1      42.394  35.698  27.442  1.00  0.00    +0.000 N 
ATOM     20  N6  UNL A   1      43.019  35.443  28.616  1.00  0.00    +0.000 N 
BRANCH    2    1
ATOM      1  C1  UNL A   1      45.426  35.318  29.451  1.00  0.00    +0.000 C 
ATOM    102  H1  UNL A   1      46.274  35.964  29.353  1.00  0.00    +0.000 H 
ATOM    103  H2  UNL A   1      45.714  34.315  29.217  1.00  0.00    +0.000 H 
ATOM    104  H3  UNL A   1      45.060  35.359  30.456  1.00  0.00    +0.000 H 
ENDBRANCH    2    1
BRANCH    3    4
ATOM      4  C4  UNL A   1      45.623  36.999  26.689  1.00  0.00    +0.000 C 
ATOM      5  N1  UNL A   1      46.658  36.253  26.283  1.00  0.00    +0.000 N 
ATOM      6  N2  UNL A   1      47.612  37.152  25.955  1.00  0.00    +0.000 N 
ATOM     13  C11 UNL A   1      47.172  38.447  26.108  1.00  0.00    +0.000 C 
ATOM     14  C12 UNL A   1      45.857  38.385  26.530  1.00  0.00    +0.000 C 
ATOM    110  H9  UNL A   1      47.721  39.304  25.938  1.00  0.00    +0.000 H 
BRANCH    6    7
ATOM      7  C5  UNL A   1      48.894  36.730  25.536  1.00  0.00    +0.000 C 
ATOM      8  C6  UNL A   1      49.918  37.676  25.410  1.00  0.00    +0.000 C 
ATOM      9  C7  UNL A   1      51.195  37.266  25.030  1.00  0.00    +0.000 C 
ATOM    105  H4  UNL A   1      49.728  38.673  25.598  1.00  0.00    +0.000 H 
ATOM     11  C9  UNL A   1      50.407  34.990  24.816  1.00  0.00    +0.000 C 
ATOM     12  C10 UNL A   1      49.138  35.381  25.249  1.00  0.00    +0.000 C 
ATOM    109  H8  UNL A   1      48.386  34.681  25.355  1.00  0.00    +0.000 H 
ATOM     10  C8  UNL A   1      51.437  35.927  24.722  1.00  0.00    +0.000 C 
ATOM    106  H5  UNL A   1      51.964  37.953  24.977  1.00  0.00    +0.000 H 
ATOM    108  H7  UNL A   1      50.583  34.004  24.566  1.00  0.00    +0.000 H 
ATOM    107  H6  UNL A   1      52.379  35.628  24.424  1.00  0.00    +0.000 H 
ENDBRANCH    6    7
BRANCH   14   15
ATOM    111  H10 UNL A   1      44.945  40.262  26.013  1.00  0.00    +0.000 H 
ATOM     15  C13 UNL A   1      45.006  39.529  26.736  1.00  0.00    +0.000 C 
BRANCH   15   16
ATOM     16  N3  UNL A   1      44.319  39.639  27.825  1.00  0.00    +0.000 N 
BRANCH   16   17
ATOM     17  O1  UNL A   1      42.964  39.775  27.503  1.00  0.00    +0.000 O 
ATOM    112  H11 UNL A   1      42.503  39.065  27.100  1.00  0.00    +0.000 H 
ENDBRANCH   16   17
ENDBRANCH   15   16
ENDBRANCH   14   15
ENDBRANCH    3    4
ENDBRANCH   21   20
ENDBRANCH   25   24
ENDBRANCH   27   25
ENDBRANCH   28   27
ENDBRANCH   29   28
ENDBRANCH   30   29
ENDBRANCH   31   30
ENDBRANCH   32   31
ENDBRANCH   33   32
ENDBRANCH   34   33
ENDBRANCH   35   34
ENDBRANCH   37   35
ENDBRANCH   41   40
BRANCH   45   46
ATOM     46  C34 UNL A   1      42.634  28.464  34.354  1.00  0.00    +0.000 C 
ATOM     47  C35 UNL A   1      43.013  28.768  35.680  1.00  0.00    +0.000 C 
ATOM     48  F1  UNL A   1      42.895  30.016  36.157  1.00  0.00    +0.000 F 
ATOM     49  C36 UNL A   1      43.620  27.823  36.514  1.00  0.00    +0.000 C 
ATOM     50  F2  UNL A   1      44.091  28.196  37.713  1.00  0.00    +0.000 F 
ATOM     51  C37 UNL A   1      43.811  26.526  36.080  1.00  0.00    +0.000 C 
ATOM     52  F3  UNL A   1      44.454  25.636  36.849  1.00  0.00    +0.000 F 
ATOM     53  C38 UNL A   1      43.374  26.165  34.823  1.00  0.00    +0.000 C 
ATOM     54  F4  UNL A   1      43.562  24.914  34.380  1.00  0.00    +0.000 F 
ATOM     55  C39 UNL A   1      42.817  27.118  33.969  1.00  0.00    +0.000 C 
ATOM     56  F5  UNL A   1      42.570  26.691  32.726  1.00  0.00    +0.000 F 
ENDBRANCH   45   46
BRANCH   62   63
ATOM     65  F6  UNL A   1      47.997  30.324  28.828  1.00  0.00    +0.000 F 
ATOM     66  C47 UNL A   1      47.252  31.897  27.258  1.00  0.00    +0.000 C 
ATOM     67  F7  UNL A   1      48.512  32.055  26.827  1.00  0.00    +0.000 F 
ATOM     68  C48 UNL A   1      46.217  32.569  26.628  1.00  0.00    +0.000 C 
ATOM     69  F8  UNL A   1      46.472  33.369  25.583  1.00  0.00    +0.000 F 
ATOM     70  C49 UNL A   1      44.914  32.390  27.064  1.00  0.00    +0.000 C 
ATOM     71  F9  UNL A   1      43.904  32.997  26.424  1.00  0.00    +0.000 F 
ATOM     72  C50 UNL A   1      44.647  31.562  28.149  1.00  0.00    +0.000 C 
ATOM     73  F10 UNL A   1      43.371  31.395  28.534  1.00  0.00    +0.000 F 
ATOM     63  C45 UNL A   1      45.674  30.871  28.806  1.00  0.00    +0.000 C 
ATOM     64  C46 UNL A   1      46.981  31.034  28.318  1.00  0.00    +0.000 C 
ENDBRANCH   62   63
BRANCH   77   78
ATOM     78  C54 UNL A   1      43.218  25.557  26.498  1.00  0.00    +0.000 C 
ATOM     79  C55 UNL A   1      44.166  25.310  25.494  1.00  0.00    +0.000 C 
ATOM     80  F11 UNL A   1      44.965  26.297  25.065  1.00  0.00    +0.000 F 
ATOM     81  C56 UNL A   1      44.350  24.030  24.962  1.00  0.00    +0.000 C 
ATOM     82  F12 UNL A   1      45.304  23.819  24.046  1.00  0.00    +0.000 F 
ATOM     83  C57 UNL A   1      43.586  22.966  25.414  1.00  0.00    +0.000 C 
ATOM     84  F13 UNL A   1      43.801  21.729  24.943  1.00  0.00    +0.000 F 
ATOM     85  C58 UNL A   1      42.627  23.181  26.386  1.00  0.00    +0.000 C 
ATOM     86  F14 UNL A   1      41.905  22.154  26.856  1.00  0.00    +0.000 F 
ATOM     87  C59 UNL A   1      42.450  24.456  26.924  1.00  0.00    +0.000 C 
ATOM     88  F15 UNL A   1      41.575  24.577  27.934  1.00  0.00    +0.000 F 
ENDBRANCH   77   78
TORSDOF 22
ENDMDL
MODEL 6
REMARK VINA RESULT:     -10.2     36.377     43.123
ROOT
ATOM    131  H30 UNL A   1       1.562  15.015  37.576  1.00  0.00    +0.000 H 
ATOM    132  H31 UNL A   1       4.189  15.174  37.973  1.00  0.00    +0.000 H 
ATOM    133  H32 UNL A   1       2.283  17.239  40.871  1.00  0.00    +0.000 H 
ATOM    134  H33 UNL A   1       5.248  11.183  45.423  1.00  0.00    +0.000 H 
ATOM    135  H34 UNL A   1       4.058   9.821  43.629  1.00  0.00    +0.000 H 
ATOM    136  H35 UNL A   1       3.325  13.828  42.802  1.00  0.00    +0.000 H 
ATOM    137  H36 UNL A   1       2.998  16.251  45.086  1.00  0.00    +0.000 H 
ATOM    138  H37 UNL A   1       2.874  17.255  42.715  1.00  0.00    +0.000 H 
ATOM    139  H38 UNL A   1      -1.782  13.626  41.380  1.00  0.00    +0.000 H 
ATOM    140  H39 UNL A   1      -0.715  11.668  42.659  1.00  0.00    +0.000 H 
ATOM     41  C30 UNL A   1       2.103  11.387  42.173  1.00  0.00    +0.000 C 
ATOM     42  C31 UNL A   1       1.167  12.429  41.642  1.00  0.00    +0.000 C 
ATOM     43  N9  UNL A   1       1.417  13.392  40.810  1.00  0.00    +0.000 N 
ATOM     44  C32 UNL A   1       0.250  14.155  40.737  1.00  0.00    +0.000 C 
ATOM     45  C33 UNL A   1       0.268  15.457  40.338  1.00  0.00    +0.000 C 
ATOM     57  C40 UNL A   1       1.465  15.769  39.605  1.00  0.00    +0.000 C 
ATOM     58  C41 UNL A   1       2.044  15.338  38.429  1.00  0.00    +0.000 C 
ATOM     59  C42 UNL A   1       3.450  15.435  38.645  1.00  0.00    +0.000 C 
ATOM     60  C43 UNL A   1       3.649  15.947  39.928  1.00  0.00    +0.000 C 
ATOM     61  N10 UNL A   1       2.434  16.478  40.263  1.00  0.00    +0.000 N 
ATOM     62  C44 UNL A   1       4.750  15.847  40.856  1.00  0.00    +0.000 C 
ATOM     74  C51 UNL A   1       4.646  16.046  42.202  1.00  0.00    +0.000 C 
ATOM     75  N11 UNL A   1       5.491  15.382  43.076  1.00  0.00    +0.000 N 
ATOM     76  C52 UNL A   1       4.785  15.221  44.160  1.00  0.00    +0.000 C 
ATOM     77  C53 UNL A   1       4.911  14.050  45.056  1.00  0.00    +0.000 C 
ATOM     89  C60 UNL A   1       4.462  12.969  44.377  1.00  0.00    +0.000 C 
ATOM     90  C61 UNL A   1       4.675  11.566  44.655  1.00  0.00    +0.000 C 
ATOM     91  C62 UNL A   1       4.000  10.845  43.742  1.00  0.00    +0.000 C 
ATOM     92  C63 UNL A   1       3.167  11.738  42.929  1.00  0.00    +0.000 C 
ATOM     93  N12 UNL A   1       3.593  13.005  43.271  1.00  0.00    +0.000 N 
ATOM     94  C64 UNL A   1       3.617  16.078  44.279  1.00  0.00    +0.000 C 
ATOM     95  C65 UNL A   1       3.578  16.575  43.040  1.00  0.00    +0.000 C 
ATOM     96  C66 UNL A   1      -0.776  13.396  41.399  1.00  0.00    +0.000 C 
ATOM     97  C67 UNL A   1      -0.250  12.353  42.042  1.00  0.00    +0.000 C 
ENDROOT
BRANCH   41   40
ATOM    129  H28 UNL A   1       0.696   7.449  44.066  1.00  0.00    +0.000 H 
ATOM     98  C68 UNL A   1       1.746   9.300  40.888  1.00  0.00    +0.000 C 
ATOM     99  C69 UNL A   1       1.420   7.962  40.824  1.00  0.00    +0.000 C 
ATOM    130  H29 UNL A   1       1.096   9.849  44.140  1.00  0.00    +0.000 H 
ATOM     37  C26 UNL A   1       1.128   7.277  42.002  1.00  0.00    +0.000 C 
ATOM     38  C27 UNL A   1       0.980   7.957  43.213  1.00  0.00    +0.000 C 
ATOM     39  C28 UNL A   1       1.221   9.329  43.258  1.00  0.00    +0.000 C 
ATOM     40  C29 UNL A   1       1.631   9.997  42.097  1.00  0.00    +0.000 C 
ATOM    141  H40 UNL A   1       2.076   9.789  40.041  1.00  0.00    +0.000 H 
ATOM    142  H41 UNL A   1       1.393   7.473  39.916  1.00  0.00    +0.000 H 
BRANCH   37   35
ATOM     35  C25 UNL A   1       1.034   5.806  41.972  1.00  0.00    +0.000 C 
ATOM     36  O3  UNL A   1       0.239   5.224  42.684  1.00  0.00    +0.000 O 
BRANCH   35   34
ATOM     34  N8  UNL A   1       1.884   5.110  41.132  1.00  0.00    +0.000 N 
ATOM    128  H27 UNL A   1       1.586   4.991  40.202  1.00  0.00    +0.000 H 
BRANCH   34   33
ATOM     33  C24 UNL A   1       3.179   4.533  41.483  1.00  0.00    +0.000 C 
ATOM    126  H25 UNL A   1       3.568   5.046  42.338  1.00  0.00    +0.000 H 
ATOM    127  H26 UNL A   1       3.037   3.494  41.695  1.00  0.00    +0.000 H 
BRANCH   33   32
ATOM    124  H23 UNL A   1       5.158   4.729  40.748  1.00  0.00    +0.000 H 
ATOM    125  H24 UNL A   1       4.050   3.791  39.720  1.00  0.00    +0.000 H 
ATOM     32  C23 UNL A   1       4.173   4.657  40.336  1.00  0.00    +0.000 C 
BRANCH   32   31
ATOM    122  H21 UNL A   1       3.824   5.536  38.434  1.00  0.00    +0.000 H 
ATOM    123  H22 UNL A   1       3.059   6.362  39.833  1.00  0.00    +0.000 H 
ATOM     31  C22 UNL A   1       3.932   5.882  39.442  1.00  0.00    +0.000 C 
BRANCH   31   30
ATOM    121  H20 UNL A   1       5.502   6.876  40.419  1.00  0.00    +0.000 H 
ATOM     30  C21 UNL A   1       5.038   6.950  39.458  1.00  0.00    +0.000 C 
ATOM    120  H19 UNL A   1       4.581   7.899  39.270  1.00  0.00    +0.000 H 
BRANCH   30   29
ATOM     29  C20 UNL A   1       6.163   6.755  38.429  1.00  0.00    +0.000 C 
ATOM    118  H17 UNL A   1       6.740   5.902  38.718  1.00  0.00    +0.000 H 
ATOM    119  H18 UNL A   1       5.696   6.628  37.474  1.00  0.00    +0.000 H 
BRANCH   29   28
ATOM    116  H15 UNL A   1       7.837   7.909  39.090  1.00  0.00    +0.000 H 
ATOM     28  C19 UNL A   1       7.104   7.958  38.312  1.00  0.00    +0.000 C 
ATOM    117  H16 UNL A   1       7.585   7.934  37.356  1.00  0.00    +0.000 H 
BRANCH   28   27
ATOM     27  N7  UNL A   1       6.356   9.193  38.434  1.00  0.00    +0.000 N 
ATOM    115  H14 UNL A   1       6.291   9.514  39.363  1.00  0.00    +0.000 H 
BRANCH   27   25
ATOM     25  C18 UNL A   1       5.720  10.010  37.537  1.00  0.00    +0.000 C 
ATOM     26  O2  UNL A   1       6.429  10.580  36.705  1.00  0.00    +0.000 O 
BRANCH   25   24
ATOM    100  C70 UNL A   1       3.658  11.374  38.222  1.00  0.00    +0.000 C 
ATOM    101  C71 UNL A   1       2.292  11.639  38.065  1.00  0.00    +0.000 C 
ATOM    143  H42 UNL A   1       4.227  11.976  38.836  1.00  0.00    +0.000 H 
ATOM    144  H43 UNL A   1       1.875  12.477  38.497  1.00  0.00    +0.000 H 
ATOM    113  H12 UNL A   1       1.444   8.911  36.303  1.00  0.00    +0.000 H 
ATOM    114  H13 UNL A   1       3.846   8.576  36.405  1.00  0.00    +0.000 H 
ATOM     21  C14 UNL A   1       1.493  10.762  37.321  1.00  0.00    +0.000 C 
ATOM     22  C15 UNL A   1       2.046   9.606  36.770  1.00  0.00    +0.000 C 
ATOM     23  C16 UNL A   1       3.427   9.403  36.859  1.00  0.00    +0.000 C 
ATOM     24  C17 UNL A   1       4.257  10.302  37.555  1.00  0.00    +0.000 C 
BRANCH   21   20
ATOM      2  C2  UNL A   1      -0.502  12.182  36.733  1.00  0.00    +0.000 C 
ATOM      3  C3  UNL A   1      -1.835  11.938  36.998  1.00  0.00    +0.000 C 
ATOM     18  N4  UNL A   1      -2.004  10.656  37.429  1.00  0.00    +0.000 N 
ATOM     19  N5  UNL A   1      -0.809  10.076  37.445  1.00  0.00    +0.000 N 
ATOM     20  N6  UNL A   1       0.117  11.022  37.158  1.00  0.00    +0.000 N 
BRANCH    2    1
ATOM      1  C1  UNL A   1       0.150  13.306  36.023  1.00  0.00    +0.000 C 
ATOM    102  H1  UNL A   1      -0.531  14.130  35.957  1.00  0.00    +0.000 H 
ATOM    103  H2  UNL A   1       0.428  12.993  35.039  1.00  0.00    +0.000 H 
ATOM    104  H3  UNL A   1       1.024  13.609  36.561  1.00  0.00    +0.000 H 
ENDBRANCH    2    1
BRANCH    3    4
ATOM      4  C4  UNL A   1      -2.965  12.832  36.776  1.00  0.00    +0.000 C 
ATOM      5  N1  UNL A   1      -3.074  14.008  37.404  1.00  0.00    +0.000 N 
ATOM      6  N2  UNL A   1      -4.316  14.441  37.093  1.00  0.00    +0.000 N 
ATOM     13  C11 UNL A   1      -4.965  13.573  36.246  1.00  0.00    +0.000 C 
ATOM     14  C12 UNL A   1      -4.090  12.538  35.971  1.00  0.00    +0.000 C 
ATOM    110  H9  UNL A   1      -5.926  13.675  35.883  1.00  0.00    +0.000 H 
BRANCH    6    7
ATOM      7  C5  UNL A   1      -4.823  15.642  37.638  1.00  0.00    +0.000 C 
ATOM      8  C6  UNL A   1      -5.076  15.716  39.013  1.00  0.00    +0.000 C 
ATOM      9  C7  UNL A   1      -5.545  16.906  39.567  1.00  0.00    +0.000 C 
ATOM    105  H4  UNL A   1      -4.915  14.893  39.614  1.00  0.00    +0.000 H 
ATOM     11  C9  UNL A   1      -5.596  17.915  37.370  1.00  0.00    +0.000 C 
ATOM     12  C10 UNL A   1      -5.074  16.746  36.813  1.00  0.00    +0.000 C 
ATOM    109  H8  UNL A   1      -4.875  16.695  35.801  1.00  0.00    +0.000 H 
ATOM     10  C8  UNL A   1      -5.817  18.000  38.745  1.00  0.00    +0.000 C 
ATOM    106  H5  UNL A   1      -5.693  16.979  40.587  1.00  0.00    +0.000 H 
ATOM    108  H7  UNL A   1      -5.820  18.719  36.761  1.00  0.00    +0.000 H 
ATOM    107  H6  UNL A   1      -6.181  18.875  39.155  1.00  0.00    +0.000 H 
ENDBRANCH    6    7
BRANCH   14   15
ATOM    111  H10 UNL A   1      -5.052  10.734  35.308  1.00  0.00    +0.000 H 
ATOM     15  C13 UNL A   1      -4.359  11.456  35.060  1.00  0.00    +0.000 C 
BRANCH   15   16
ATOM     16  N3  UNL A   1      -3.734  11.388  33.931  1.00  0.00    +0.000 N 
BRANCH   16   17
ATOM     17  O1  UNL A   1      -2.737  10.409  34.015  1.00  0.00    +0.000 O 
ATOM    112  H11 UNL A   1      -1.924  10.527  33.564  1.00  0.00    +0.000 H 
ENDBRANCH   16   17
ENDBRANCH   15   16
ENDBRANCH   14   15
ENDBRANCH    3    4
ENDBRANCH   21   20
ENDBRANCH   25   24
ENDBRANCH   27   25
ENDBRANCH   28   27
ENDBRANCH   29   28
ENDBRANCH   30   29
ENDBRANCH   31   30
ENDBRANCH   32   31
ENDBRANCH   33   32
ENDBRANCH   34   33
ENDBRANCH   35   34
ENDBRANCH   37   35
ENDBRANCH   41   40
BRANCH   45   46
ATOM     46  C34 UNL A   1      -0.594  16.553  40.941  1.00  0.00    +0.000 C 
ATOM     47  C35 UNL A   1      -1.535  17.216  40.123  1.00  0.00    +0.000 C 
ATOM     48  F1  UNL A   1      -1.880  16.710  38.929  1.00  0.00    +0.000 F 
ATOM     49  C36 UNL A   1      -2.062  18.466  40.461  1.00  0.00    +0.000 C 
ATOM     50  F2  UNL A   1      -2.841  19.120  39.587  1.00  0.00    +0.000 F 
ATOM     51  C37 UNL A   1      -1.724  19.069  41.657  1.00  0.00    +0.000 C 
ATOM     52  F3  UNL A   1      -2.172  20.297  41.953  1.00  0.00    +0.000 F 
ATOM     53  C38 UNL A   1      -0.877  18.414  42.524  1.00  0.00    +0.000 C 
ATOM     54  F4  UNL A   1      -0.526  18.989  43.684  1.00  0.00    +0.000 F 
ATOM     55  C39 UNL A   1      -0.306  17.191  42.167  1.00  0.00    +0.000 C 
ATOM     56  F5  UNL A   1       0.613  16.723  43.017  1.00  0.00    +0.000 F 
ENDBRANCH   45   46
BRANCH   62   63
ATOM     65  F6  UNL A   1       7.217  17.287  40.204  1.00  0.00    +0.000 F 
ATOM     66  C47 UNL A   1       8.346  15.315  39.631  1.00  0.00    +0.000 C 
ATOM     67  F7  UNL A   1       9.438  16.033  39.330  1.00  0.00    +0.000 F 
ATOM     68  C48 UNL A   1       8.390  13.932  39.560  1.00  0.00    +0.000 C 
ATOM     69  F8  UNL A   1       9.521  13.311  39.199  1.00  0.00    +0.000 F 
ATOM     70  C49 UNL A   1       7.266  13.190  39.889  1.00  0.00    +0.000 C 
ATOM     71  F9  UNL A   1       7.318  11.851  39.871  1.00  0.00    +0.000 F 
ATOM     72  C50 UNL A   1       6.089  13.832  40.262  1.00  0.00    +0.000 C 
ATOM     73  F10 UNL A   1       5.024  13.084  40.593  1.00  0.00    +0.000 F 
ATOM     63  C45 UNL A   1       6.017  15.229  40.343  1.00  0.00    +0.000 C 
ATOM     64  C46 UNL A   1       7.181  15.957  40.046  1.00  0.00    +0.000 C 
ENDBRANCH   62   63
BRANCH   77   78
ATOM     78  C54 UNL A   1       5.233  14.162  46.494  1.00  0.00    +0.000 C 
ATOM     79  C55 UNL A   1       6.437  14.736  46.928  1.00  0.00    +0.000 C 
ATOM     80  F11 UNL A   1       7.403  15.024  46.044  1.00  0.00    +0.000 F 
ATOM     81  C56 UNL A   1       6.642  15.080  48.267  1.00  0.00    +0.000 C 
ATOM     82  F12 UNL A   1       7.782  15.679  48.637  1.00  0.00    +0.000 F 
ATOM     83  C57 UNL A   1       5.651  14.852  49.209  1.00  0.00    +0.000 C 
ATOM     84  F13 UNL A   1       5.826  15.233  50.483  1.00  0.00    +0.000 F 
ATOM     85  C58 UNL A   1       4.462  14.266  48.818  1.00  0.00    +0.000 C 
ATOM     86  F14 UNL A   1       3.482  14.072  49.713  1.00  0.00    +0.000 F 
ATOM     87  C59 UNL A   1       4.254  13.933  47.480  1.00  0.00    +0.000 C 
ATOM     88  F15 UNL A   1       3.042  13.462  47.149  1.00  0.00    +0.000 F 
ENDBRANCH   77   78
TORSDOF 22
ENDMDL
MODEL 7
REMARK VINA RESULT:     -10.2     26.034     33.345
ROOT
ATOM    131  H30 UNL A   1      21.272  17.513   8.275  1.00  0.00    +0.000 H 
ATOM    132  H31 UNL A   1      19.964  18.786   6.338  1.00  0.00    +0.000 H 
ATOM    133  H32 UNL A   1      23.797  20.049   6.401  1.00  0.00    +0.000 H 
ATOM    134  H33 UNL A   1      23.916  16.116  -0.719  1.00  0.00    +0.000 H 
ATOM    135  H34 UNL A   1      23.003  14.264   0.772  1.00  0.00    +0.000 H 
ATOM    136  H35 UNL A   1      23.784  17.528   3.224  1.00  0.00    +0.000 H 
ATOM    137  H36 UNL A   1      26.258  19.737   2.782  1.00  0.00    +0.000 H 
ATOM    138  H37 UNL A   1      24.805  20.436   4.794  1.00  0.00    +0.000 H 
ATOM    139  H38 UNL A   1      25.868  15.107   7.460  1.00  0.00    +0.000 H 
ATOM    140  H39 UNL A   1      25.695  13.868   5.214  1.00  0.00    +0.000 H 
ATOM     41  C30 UNL A   1      23.507  14.763   3.582  1.00  0.00    +0.000 C 
ATOM     42  C31 UNL A   1      23.941  15.279   4.920  1.00  0.00    +0.000 C 
ATOM     43  N9  UNL A   1      23.390  16.199   5.648  1.00  0.00    +0.000 N 
ATOM     44  C32 UNL A   1      24.244  16.396   6.736  1.00  0.00    +0.000 C 
ATOM     45  C33 UNL A   1      24.241  17.555   7.451  1.00  0.00    +0.000 C 
ATOM     57  C40 UNL A   1      23.021  18.291   7.259  1.00  0.00    +0.000 C 
ATOM     58  C41 UNL A   1      21.682  18.065   7.506  1.00  0.00    +0.000 C 
ATOM     59  C42 UNL A   1      20.986  18.757   6.471  1.00  0.00    +0.000 C 
ATOM     60  C43 UNL A   1      21.939  19.390   5.670  1.00  0.00    +0.000 C 
ATOM     61  N10 UNL A   1      23.071  19.384   6.435  1.00  0.00    +0.000 N 
ATOM     62  C44 UNL A   1      21.919  19.824   4.293  1.00  0.00    +0.000 C 
ATOM     74  C51 UNL A   1      23.033  20.050   3.538  1.00  0.00    +0.000 C 
ATOM     75  N11 UNL A   1      23.000  19.863   2.166  1.00  0.00    +0.000 N 
ATOM     76  C52 UNL A   1      24.212  19.493   1.855  1.00  0.00    +0.000 C 
ATOM     77  C53 UNL A   1      24.525  18.545   0.762  1.00  0.00    +0.000 C 
ATOM     89  C60 UNL A   1      24.047  17.333   1.126  1.00  0.00    +0.000 C 
ATOM     90  C61 UNL A   1      23.792  16.171   0.304  1.00  0.00    +0.000 C 
ATOM     91  C62 UNL A   1      23.364  15.174   1.099  1.00  0.00    +0.000 C 
ATOM     92  C63 UNL A   1      23.488  15.578   2.503  1.00  0.00    +0.000 C 
ATOM     93  N12 UNL A   1      23.774  16.927   2.444  1.00  0.00    +0.000 N 
ATOM     94  C64 UNL A   1      25.230  19.787   2.849  1.00  0.00    +0.000 C 
ATOM     95  C65 UNL A   1      24.449  20.137   3.873  1.00  0.00    +0.000 C 
ATOM     96  C66 UNL A   1      25.200  15.322   6.704  1.00  0.00    +0.000 C 
ATOM     97  C67 UNL A   1      25.106  14.641   5.561  1.00  0.00    +0.000 C 
ENDROOT
BRANCH   41   40
ATOM    129  H28 UNL A   1      22.136  10.618   4.996  1.00  0.00    +0.000 H 
ATOM     98  C68 UNL A   1      24.263  12.644   2.547  1.00  0.00    +0.000 C 
ATOM     99  C69 UNL A   1      24.281  11.266   2.492  1.00  0.00    +0.000 C 
ATOM    130  H29 UNL A   1      21.967  13.047   4.969  1.00  0.00    +0.000 H 
ATOM     37  C26 UNL A   1      23.575  10.539   3.448  1.00  0.00    +0.000 C 
ATOM     38  C27 UNL A   1      22.706  11.174   4.339  1.00  0.00    +0.000 C 
ATOM     39  C28 UNL A   1      22.619  12.564   4.331  1.00  0.00    +0.000 C 
ATOM     40  C29 UNL A   1      23.420  13.302   3.450  1.00  0.00    +0.000 C 
ATOM    141  H40 UNL A   1      24.873  13.191   1.919  1.00  0.00    +0.000 H 
ATOM    142  H41 UNL A   1      24.813  10.779   1.753  1.00  0.00    +0.000 H 
BRANCH   37   35
ATOM     35  C25 UNL A   1      23.797   9.085   3.551  1.00  0.00    +0.000 C 
ATOM     36  O3  UNL A   1      24.925   8.633   3.559  1.00  0.00    +0.000 O 
BRANCH   35   34
ATOM     34  N8  UNL A   1      22.693   8.255   3.618  1.00  0.00    +0.000 N 
ATOM    128  H27 UNL A   1      22.275   8.147   4.502  1.00  0.00    +0.000 H 
BRANCH   34   33
ATOM     33  C24 UNL A   1      22.084   7.522   2.512  1.00  0.00    +0.000 C 
ATOM    126  H25 UNL A   1      22.510   6.541   2.469  1.00  0.00    +0.000 H 
ATOM    127  H26 UNL A   1      21.029   7.471   2.684  1.00  0.00    +0.000 H 
BRANCH   33   32
ATOM    124  H23 UNL A   1      23.201   8.825   1.266  1.00  0.00    +0.000 H 
ATOM    125  H24 UNL A   1      22.416   7.461   0.437  1.00  0.00    +0.000 H 
ATOM     32  C23 UNL A   1      22.320   8.224   1.181  1.00  0.00    +0.000 C 
BRANCH   32   31
ATOM    122  H21 UNL A   1      20.593   8.605   0.004  1.00  0.00    +0.000 H 
ATOM    123  H22 UNL A   1      20.607   9.344   1.640  1.00  0.00    +0.000 H 
ATOM     31  C22 UNL A   1      21.158   9.129   0.748  1.00  0.00    +0.000 C 
BRANCH   31   30
ATOM    121  H20 UNL A   1      21.201  10.494  -0.847  1.00  0.00    +0.000 H 
ATOM     30  C21 UNL A   1      21.555  10.494   0.163  1.00  0.00    +0.000 C 
ATOM    120  H19 UNL A   1      22.617  10.593   0.250  1.00  0.00    +0.000 H 
BRANCH   30   29
ATOM     29  C20 UNL A   1      20.910  11.716   0.836  1.00  0.00    +0.000 C 
ATOM    118  H17 UNL A   1      21.689  12.356   1.193  1.00  0.00    +0.000 H 
ATOM    119  H18 UNL A   1      20.296  12.192   0.099  1.00  0.00    +0.000 H 
BRANCH   29   28
ATOM    116  H15 UNL A   1      19.842  10.301   2.032  1.00  0.00    +0.000 H 
ATOM     28  C19 UNL A   1      19.999  11.360   2.015  1.00  0.00    +0.000 C 
ATOM    117  H16 UNL A   1      20.465  11.674   2.925  1.00  0.00    +0.000 H 
BRANCH   28   27
ATOM     27  N7  UNL A   1      18.721  12.030   1.881  1.00  0.00    +0.000 N 
ATOM    115  H14 UNL A   1      17.954  11.421   1.980  1.00  0.00    +0.000 H 
BRANCH   27   25
ATOM     25  C18 UNL A   1      18.351  13.328   1.646  1.00  0.00    +0.000 C 
ATOM     26  O2  UNL A   1      18.387  13.713   0.475  1.00  0.00    +0.000 O 
BRANCH   25   24
ATOM    100  C70 UNL A   1      16.727  14.893   2.868  1.00  0.00    +0.000 C 
ATOM    101  C71 UNL A   1      16.446  15.695   3.983  1.00  0.00    +0.000 C 
ATOM    143  H42 UNL A   1      15.998  14.737   2.156  1.00  0.00    +0.000 H 
ATOM    144  H43 UNL A   1      15.493  16.059   4.130  1.00  0.00    +0.000 H 
ATOM    113  H12 UNL A   1      19.532  15.842   5.294  1.00  0.00    +0.000 H 
ATOM    114  H13 UNL A   1      19.956  14.287   3.479  1.00  0.00    +0.000 H 
ATOM     21  C14 UNL A   1      17.464  15.999   4.895  1.00  0.00    +0.000 C 
ATOM     22  C15 UNL A   1      18.762  15.542   4.676  1.00  0.00    +0.000 C 
ATOM     23  C16 UNL A   1      19.006  14.670   3.611  1.00  0.00    +0.000 C 
ATOM     24  C17 UNL A   1      17.985  14.306   2.713  1.00  0.00    +0.000 C 
BRANCH   21   20
ATOM      2  C2  UNL A   1      17.192  16.458   7.357  1.00  0.00    +0.000 C 
ATOM      3  C3  UNL A   1      16.626  17.561   7.965  1.00  0.00    +0.000 C 
ATOM     18  N4  UNL A   1      16.424  18.553   7.053  1.00  0.00    +0.000 N 
ATOM     19  N5  UNL A   1      16.850  18.108   5.875  1.00  0.00    +0.000 N 
ATOM     20  N6  UNL A   1      17.188  16.805   6.019  1.00  0.00    +0.000 N 
BRANCH    2    1
ATOM      1  C1  UNL A   1      17.819  15.250   7.940  1.00  0.00    +0.000 C 
ATOM    102  H1  UNL A   1      17.404  15.066   8.910  1.00  0.00    +0.000 H 
ATOM    103  H2  UNL A   1      18.874  15.402   8.028  1.00  0.00    +0.000 H 
ATOM    104  H3  UNL A   1      17.632  14.409   7.307  1.00  0.00    +0.000 H 
ENDBRANCH    2    1
BRANCH    3    4
ATOM      4  C4  UNL A   1      16.350  17.751   9.384  1.00  0.00    +0.000 C 
ATOM      5  N1  UNL A   1      15.743  16.813  10.122  1.00  0.00    +0.000 N 
ATOM      6  N2  UNL A   1      15.497  17.423  11.302  1.00  0.00    +0.000 N 
ATOM     13  C11 UNL A   1      15.979  18.711  11.326  1.00  0.00    +0.000 C 
ATOM     14  C12 UNL A   1      16.595  18.940  10.110  1.00  0.00    +0.000 C 
ATOM    110  H9  UNL A   1      15.898  19.381  12.107  1.00  0.00    +0.000 H 
BRANCH    6    7
ATOM      7  C5  UNL A   1      14.796  16.754  12.332  1.00  0.00    +0.000 C 
ATOM      8  C6  UNL A   1      14.138  15.553  12.042  1.00  0.00    +0.000 C 
ATOM      9  C7  UNL A   1      13.471  14.868  13.057  1.00  0.00    +0.000 C 
ATOM    105  H4  UNL A   1      14.147  15.176  11.081  1.00  0.00    +0.000 H 
ATOM     11  C9  UNL A   1      14.040  16.621  14.622  1.00  0.00    +0.000 C 
ATOM     12  C10 UNL A   1      14.757  17.287  13.626  1.00  0.00    +0.000 C 
ATOM    109  H8  UNL A   1      15.254  18.166  13.843  1.00  0.00    +0.000 H 
ATOM     10  C8  UNL A   1      13.412  15.407  14.342  1.00  0.00    +0.000 C 
ATOM    106  H5  UNL A   1      13.020  13.960  12.858  1.00  0.00    +0.000 H 
ATOM    108  H7  UNL A   1      13.975  17.028  15.569  1.00  0.00    +0.000 H 
ATOM    107  H6  UNL A   1      12.902  14.907  15.088  1.00  0.00    +0.000 H 
ENDBRANCH    6    7
BRANCH   14   15
ATOM    111  H10 UNL A   1      18.045  20.122   9.050  1.00  0.00    +0.000 H 
ATOM     15  C13 UNL A   1      17.296  20.148   9.759  1.00  0.00    +0.000 C 
BRANCH   15   16
ATOM     16  N3  UNL A   1      16.988  21.266  10.330  1.00  0.00    +0.000 N 
BRANCH   16   17
ATOM     17  O1  UNL A   1      16.004  21.914   9.573  1.00  0.00    +0.000 O 
ATOM    112  H11 UNL A   1      15.169  22.103   9.952  1.00  0.00    +0.000 H 
ENDBRANCH   16   17
ENDBRANCH   15   16
ENDBRANCH   14   15
ENDBRANCH    3    4
ENDBRANCH   21   20
ENDBRANCH   25   24
ENDBRANCH   27   25
ENDBRANCH   28   27
ENDBRANCH   29   28
ENDBRANCH   30   29
ENDBRANCH   31   30
ENDBRANCH   32   31
ENDBRANCH   33   32
ENDBRANCH   34   33
ENDBRANCH   35   34
ENDBRANCH   37   35
ENDBRANCH   41   40
BRANCH   45   46
ATOM     46  C34 UNL A   1      25.486  18.225   8.006  1.00  0.00    +0.000 C 
ATOM     47  C35 UNL A   1      25.527  18.572   9.375  1.00  0.00    +0.000 C 
ATOM     48  F1  UNL A   1      24.630  18.067  10.236  1.00  0.00    +0.000 F 
ATOM     49  C36 UNL A   1      26.421  19.525   9.873  1.00  0.00    +0.000 C 
ATOM     50  F2  UNL A   1      26.328  19.923  11.149  1.00  0.00    +0.000 F 
ATOM     51  C37 UNL A   1      27.350  20.117   9.040  1.00  0.00    +0.000 C 
ATOM     52  F3  UNL A   1      28.161  21.080   9.497  1.00  0.00    +0.000 F 
ATOM     53  C38 UNL A   1      27.401  19.742   7.714  1.00  0.00    +0.000 C 
ATOM     54  F4  UNL A   1      28.286  20.315   6.887  1.00  0.00    +0.000 F 
ATOM     55  C39 UNL A   1      26.475  18.831   7.202  1.00  0.00    +0.000 C 
ATOM     56  F5  UNL A   1      26.524  18.657   5.877  1.00  0.00    +0.000 F 
ENDBRANCH   45   46
BRANCH   62   63
ATOM     65  F6  UNL A   1      20.743  17.435   3.070  1.00  0.00    +0.000 F 
ATOM     66  C47 UNL A   1      18.810  18.587   2.417  1.00  0.00    +0.000 C 
ATOM     67  F7  UNL A   1      18.335  17.465   1.859  1.00  0.00    +0.000 F 
ATOM     68  C48 UNL A   1      18.031  19.733   2.430  1.00  0.00    +0.000 C 
ATOM     69  F8  UNL A   1      16.803  19.720   1.894  1.00  0.00    +0.000 F 
ATOM     70  C49 UNL A   1      18.516  20.888   3.024  1.00  0.00    +0.000 C 
ATOM     71  F9  UNL A   1      17.747  21.984   3.085  1.00  0.00    +0.000 F 
ATOM     72  C50 UNL A   1      19.791  20.906   3.580  1.00  0.00    +0.000 C 
ATOM     73  F10 UNL A   1      20.224  22.035   4.165  1.00  0.00    +0.000 F 
ATOM     63  C45 UNL A   1      20.600  19.762   3.581  1.00  0.00    +0.000 C 
ATOM     64  C46 UNL A   1      20.069  18.593   3.012  1.00  0.00    +0.000 C 
ENDBRANCH   62   63
BRANCH   77   78
ATOM     78  C54 UNL A   1      25.421  18.878  -0.365  1.00  0.00    +0.000 C 
ATOM     79  C55 UNL A   1      24.911  19.197  -1.632  1.00  0.00    +0.000 C 
ATOM     80  F11 UNL A   1      23.608  19.023  -1.897  1.00  0.00    +0.000 F 
ATOM     81  C56 UNL A   1      25.719  19.757  -2.626  1.00  0.00    +0.000 C 
ATOM     82  F12 UNL A   1      25.185  20.102  -3.805  1.00  0.00    +0.000 F 
ATOM     83  C57 UNL A   1      27.061  20.007  -2.381  1.00  0.00    +0.000 C 
ATOM     84  F13 UNL A   1      27.822  20.595  -3.315  1.00  0.00    +0.000 F 
ATOM     85  C58 UNL A   1      27.599  19.683  -1.150  1.00  0.00    +0.000 C 
ATOM     86  F14 UNL A   1      28.887  19.951  -0.889  1.00  0.00    +0.000 F 
ATOM     87  C59 UNL A   1      26.791  19.133  -0.155  1.00  0.00    +0.000 C 
ATOM     88  F15 UNL A   1      27.351  18.936   1.048  1.00  0.00    +0.000 F 
ENDBRANCH   77   78
TORSDOF 22
ENDMDL
MODEL 8
REMARK VINA RESULT:     -10.1     35.349     40.677
ROOT
ATOM    131  H30 UNL A   1       9.437  -2.557  28.470  1.00  0.00    +0.000 H 
ATOM    132  H31 UNL A   1      11.823  -1.494  27.960  1.00  0.00    +0.000 H 
ATOM    133  H32 UNL A   1      10.646  -3.689  24.785  1.00  0.00    +0.000 H 
ATOM    134  H33 UNL A   1      10.248   3.693  21.390  1.00  0.00    +0.000 H 
ATOM    135  H34 UNL A   1       8.810   4.098  23.453  1.00  0.00    +0.000 H 
ATOM    136  H35 UNL A   1       9.929   0.095  23.515  1.00  0.00    +0.000 H 
ATOM    137  H36 UNL A   1      10.393  -1.831  20.818  1.00  0.00    +0.000 H 
ATOM    138  H37 UNL A   1      10.974  -3.154  22.953  1.00  0.00    +0.000 H 
ATOM    139  H38 UNL A   1       5.409  -2.170  25.122  1.00  0.00    +0.000 H 
ATOM    140  H39 UNL A   1       5.401   0.232  24.210  1.00  0.00    +0.000 H 
ATOM     41  C30 UNL A   1       7.874   1.628  24.644  1.00  0.00    +0.000 C 
ATOM     42  C31 UNL A   1       7.531   0.212  24.996  1.00  0.00    +0.000 C 
ATOM     43  N9  UNL A   1       8.256  -0.665  25.617  1.00  0.00    +0.000 N 
ATOM     44  C32 UNL A   1       7.534  -1.860  25.581  1.00  0.00    +0.000 C 
ATOM     45  C33 UNL A   1       8.143  -3.071  25.721  1.00  0.00    +0.000 C 
ATOM     57  C40 UNL A   1       9.435  -2.944  26.337  1.00  0.00    +0.000 C 
ATOM     58  C41 UNL A   1       9.910  -2.498  27.554  1.00  0.00    +0.000 C 
ATOM     59  C42 UNL A   1      11.192  -1.939  27.276  1.00  0.00    +0.000 C 
ATOM     60  C43 UNL A   1      11.439  -2.102  25.912  1.00  0.00    +0.000 C 
ATOM     61  N10 UNL A   1      10.531  -3.047  25.523  1.00  0.00    +0.000 N 
ATOM     62  C44 UNL A   1      12.282  -1.387  24.984  1.00  0.00    +0.000 C 
ATOM     74  C51 UNL A   1      12.119  -1.394  23.629  1.00  0.00    +0.000 C 
ATOM     75  N11 UNL A   1      12.501  -0.299  22.872  1.00  0.00    +0.000 N 
ATOM     76  C52 UNL A   1      11.674  -0.290  21.864  1.00  0.00    +0.000 C 
ATOM     77  C53 UNL A   1      11.192   0.947  21.207  1.00  0.00    +0.000 C 
ATOM     89  C60 UNL A   1      10.411   1.601  22.097  1.00  0.00    +0.000 C 
ATOM     90  C61 UNL A   1       9.982   2.982  22.088  1.00  0.00    +0.000 C 
ATOM     91  C62 UNL A   1       9.175   3.182  23.146  1.00  0.00    +0.000 C 
ATOM     92  C63 UNL A   1       8.894   1.900  23.799  1.00  0.00    +0.000 C 
ATOM     93  N12 UNL A   1       9.771   1.016  23.204  1.00  0.00    +0.000 N 
ATOM     94  C64 UNL A   1      10.970  -1.538  21.622  1.00  0.00    +0.000 C 
ATOM     95  C65 UNL A   1      11.284  -2.192  22.742  1.00  0.00    +0.000 C 
ATOM     96  C66 UNL A   1       6.216  -1.527  25.114  1.00  0.00    +0.000 C 
ATOM     97  C67 UNL A   1       6.177  -0.271  24.666  1.00  0.00    +0.000 C 
ENDROOT
BRANCH   41   40
ATOM    129  H28 UNL A   1       4.321   4.370  23.683  1.00  0.00    +0.000 H 
ATOM     98  C68 UNL A   1       7.033   3.372  26.189  1.00  0.00    +0.000 C 
ATOM     99  C69 UNL A   1       6.173   4.408  26.488  1.00  0.00    +0.000 C 
ATOM    130  H29 UNL A   1       5.721   2.428  23.241  1.00  0.00    +0.000 H 
ATOM     37  C26 UNL A   1       5.251   4.821  25.529  1.00  0.00    +0.000 C 
ATOM     38  C27 UNL A   1       5.056   4.092  24.354  1.00  0.00    +0.000 C 
ATOM     39  C28 UNL A   1       5.865   2.989  24.096  1.00  0.00    +0.000 C 
ATOM     40  C29 UNL A   1       6.874   2.643  25.004  1.00  0.00    +0.000 C 
ATOM    141  H40 UNL A   1       7.796   3.132  26.843  1.00  0.00    +0.000 H 
ATOM    142  H41 UNL A   1       6.214   4.871  27.408  1.00  0.00    +0.000 H 
BRANCH   37   35
ATOM     35  C25 UNL A   1       4.514   6.081  25.741  1.00  0.00    +0.000 C 
ATOM     36  O3  UNL A   1       3.794   6.528  24.870  1.00  0.00    +0.000 O 
BRANCH   35   34
ATOM     34  N8  UNL A   1       4.680   6.746  26.941  1.00  0.00    +0.000 N 
ATOM    128  H27 UNL A   1       4.433   6.254  27.756  1.00  0.00    +0.000 H 
BRANCH   34   33
ATOM     33  C24 UNL A   1       5.186   8.104  27.125  1.00  0.00    +0.000 C 
ATOM    126  H25 UNL A   1       4.432   8.800  26.819  1.00  0.00    +0.000 H 
ATOM    127  H26 UNL A   1       5.428   8.235  28.158  1.00  0.00    +0.000 H 
BRANCH   33   32
ATOM    124  H23 UNL A   1       6.561   7.535  25.614  1.00  0.00    +0.000 H 
ATOM    125  H24 UNL A   1       6.322   9.287  25.809  1.00  0.00    +0.000 H 
ATOM     32  C23 UNL A   1       6.445   8.346  26.303  1.00  0.00    +0.000 C 
BRANCH   32   31
ATOM    122  H21 UNL A   1       7.569   7.882  28.045  1.00  0.00    +0.000 H 
ATOM    123  H22 UNL A   1       8.513   8.076  26.530  1.00  0.00    +0.000 H 
ATOM     31  C22 UNL A   1       7.723   8.448  27.149  1.00  0.00    +0.000 C 
BRANCH   31   30
ATOM    121  H20 UNL A   1       7.320  10.502  27.304  1.00  0.00    +0.000 H 
ATOM     30  C21 UNL A   1       8.145   9.869  27.555  1.00  0.00    +0.000 C 
ATOM    120  H19 UNL A   1       9.047  10.107  27.031  1.00  0.00    +0.000 H 
BRANCH   30   29
ATOM     29  C20 UNL A   1       8.399  10.082  29.055  1.00  0.00    +0.000 C 
ATOM    118  H17 UNL A   1       7.785   9.399  29.602  1.00  0.00    +0.000 H 
ATOM    119  H18 UNL A   1       9.443   9.916  29.223  1.00  0.00    +0.000 H 
BRANCH   29   28
ATOM    116  H15 UNL A   1       8.983  12.091  29.500  1.00  0.00    +0.000 H 
ATOM     28  C19 UNL A   1       8.089  11.504  29.536  1.00  0.00    +0.000 C 
ATOM    117  H16 UNL A   1       7.345  11.933  28.898  1.00  0.00    +0.000 H 
BRANCH   28   27
ATOM     27  N7  UNL A   1       7.589  11.474  30.895  1.00  0.00    +0.000 N 
ATOM    115  H14 UNL A   1       7.852  10.662  31.386  1.00  0.00    +0.000 H 
BRANCH   27   25
ATOM     25  C18 UNL A   1       6.827  12.332  31.645  1.00  0.00    +0.000 C 
ATOM     26  O2  UNL A   1       5.981  12.996  31.042  1.00  0.00    +0.000 O 
BRANCH   25   24
ATOM    100  C70 UNL A   1       6.813  13.778  33.763  1.00  0.00    +0.000 C 
ATOM    101  C71 UNL A   1       6.878  13.856  35.160  1.00  0.00    +0.000 C 
ATOM    143  H42 UNL A   1       6.620  14.629  33.213  1.00  0.00    +0.000 H 
ATOM    144  H43 UNL A   1       6.654  14.741  35.640  1.00  0.00    +0.000 H 
ATOM    113  H12 UNL A   1       7.952  10.740  35.794  1.00  0.00    +0.000 H 
ATOM    114  H13 UNL A   1       7.634  10.560  33.394  1.00  0.00    +0.000 H 
ATOM     21  C14 UNL A   1       7.247  12.728  35.904  1.00  0.00    +0.000 C 
ATOM     22  C15 UNL A   1       7.589  11.542  35.256  1.00  0.00    +0.000 C 
ATOM     23  C16 UNL A   1       7.433  11.454  33.870  1.00  0.00    +0.000 C 
ATOM     24  C17 UNL A   1       7.009  12.559  33.108  1.00  0.00    +0.000 C 
BRANCH   21   20
ATOM      2  C2  UNL A   1       6.442  13.411  38.191  1.00  0.00    +0.000 C 
ATOM      3  C3  UNL A   1       7.126  13.365  39.389  1.00  0.00    +0.000 C 
ATOM     18  N4  UNL A   1       8.277  12.648  39.249  1.00  0.00    +0.000 N 
ATOM     19  N5  UNL A   1       8.342  12.234  37.988  1.00  0.00    +0.000 N 
ATOM     20  N6  UNL A   1       7.314  12.799  37.311  1.00  0.00    +0.000 N 
BRANCH    2    1
ATOM      1  C1  UNL A   1       5.056  13.837  37.887  1.00  0.00    +0.000 C 
ATOM    102  H1  UNL A   1       4.559  14.109  38.796  1.00  0.00    +0.000 H 
ATOM    103  H2  UNL A   1       4.529  13.032  37.420  1.00  0.00    +0.000 H 
ATOM    104  H3  UNL A   1       5.079  14.679  37.227  1.00  0.00    +0.000 H 
ENDBRANCH    2    1
BRANCH    3    4
ATOM      4  C4  UNL A   1       6.698  13.891  40.680  1.00  0.00    +0.000 C 
ATOM      5  N1  UNL A   1       6.301  13.091  41.677  1.00  0.00    +0.000 N 
ATOM      6  N2  UNL A   1       5.811  13.937  42.610  1.00  0.00    +0.000 N 
ATOM     13  C11 UNL A   1       5.936  15.252  42.228  1.00  0.00    +0.000 C 
ATOM     14  C12 UNL A   1       6.565  15.263  40.997  1.00  0.00    +0.000 C 
ATOM    110  H9  UNL A   1       5.620  16.077  42.761  1.00  0.00    +0.000 H 
BRANCH    6    7
ATOM      7  C5  UNL A   1       5.229  13.445  43.801  1.00  0.00    +0.000 C 
ATOM      8  C6  UNL A   1       5.301  14.218  44.966  1.00  0.00    +0.000 C 
ATOM      9  C7  UNL A   1       4.702  13.757  46.138  1.00  0.00    +0.000 C 
ATOM    105  H4  UNL A   1       5.794  15.124  44.957  1.00  0.00    +0.000 H 
ATOM     11  C9  UNL A   1       4.043  11.722  45.010  1.00  0.00    +0.000 C 
ATOM     12  C10 UNL A   1       4.591  12.198  43.817  1.00  0.00    +0.000 C 
ATOM    109  H8  UNL A   1       4.527  11.635  42.954  1.00  0.00    +0.000 H 
ATOM     10  C8  UNL A   1       4.085  12.507  46.163  1.00  0.00    +0.000 C 
ATOM    106  H5  UNL A   1       4.715  14.343  46.989  1.00  0.00    +0.000 H 
ATOM    108  H7  UNL A   1       3.606  10.788  45.038  1.00  0.00    +0.000 H 
ATOM    107  H6  UNL A   1       3.657  12.160  47.037  1.00  0.00    +0.000 H 
ENDBRANCH    6    7
BRANCH   14   15
ATOM    111  H10 UNL A   1       6.260  16.954  39.705  1.00  0.00    +0.000 H 
ATOM     15  C13 UNL A   1       6.952  16.452  40.282  1.00  0.00    +0.000 C 
BRANCH   15   16
ATOM     16  N3  UNL A   1       8.164  16.892  40.364  1.00  0.00    +0.000 N 
BRANCH   16   17
ATOM     17  O1  UNL A   1       8.937  16.302  39.356  1.00  0.00    +0.000 O 
ATOM    112  H11 UNL A   1       9.861  16.201  39.472  1.00  0.00    +0.000 H 
ENDBRANCH   16   17
ENDBRANCH   15   16
ENDBRANCH   14   15
ENDBRANCH    3    4
ENDBRANCH   21   20
ENDBRANCH   25   24
ENDBRANCH   27   25
ENDBRANCH   28   27
ENDBRANCH   29   28
ENDBRANCH   30   29
ENDBRANCH   31   30
ENDBRANCH   32   31
ENDBRANCH   33   32
ENDBRANCH   34   33
ENDBRANCH   35   34
ENDBRANCH   37   35
ENDBRANCH   41   40
BRANCH   45   46
ATOM     46  C34 UNL A   1       7.759  -4.320  24.947  1.00  0.00    +0.000 C 
ATOM     47  C35 UNL A   1       7.513  -5.517  25.654  1.00  0.00    +0.000 C 
ATOM     48  F1  UNL A   1       7.327  -5.501  26.982  1.00  0.00    +0.000 F 
ATOM     49  C36 UNL A   1       7.556  -6.769  25.032  1.00  0.00    +0.000 C 
ATOM     50  F2  UNL A   1       7.457  -7.884  25.769  1.00  0.00    +0.000 F 
ATOM     51  C37 UNL A   1       7.780  -6.868  23.672  1.00  0.00    +0.000 C 
ATOM     52  F3  UNL A   1       7.892  -8.067  23.085  1.00  0.00    +0.000 F 
ATOM     53  C38 UNL A   1       7.938  -5.718  22.930  1.00  0.00    +0.000 C 
ATOM     54  F4  UNL A   1       8.170  -5.794  21.612  1.00  0.00    +0.000 F 
ATOM     55  C39 UNL A   1       7.949  -4.470  23.556  1.00  0.00    +0.000 C 
ATOM     56  F5  UNL A   1       8.260  -3.440  22.762  1.00  0.00    +0.000 F 
ENDBRANCH   45   46
BRANCH   62   63
ATOM     65  F6  UNL A   1      11.512   1.182  26.163  1.00  0.00    +0.000 F 
ATOM     66  C47 UNL A   1      13.727   1.723  26.703  1.00  0.00    +0.000 C 
ATOM     67  F7  UNL A   1      13.313   2.893  27.210  1.00  0.00    +0.000 F 
ATOM     68  C48 UNL A   1      15.065   1.371  26.785  1.00  0.00    +0.000 C 
ATOM     69  F8  UNL A   1      15.943   2.193  27.377  1.00  0.00    +0.000 F 
ATOM     70  C49 UNL A   1      15.489   0.153  26.277  1.00  0.00    +0.000 C 
ATOM     71  F9  UNL A   1      16.772  -0.215  26.400  1.00  0.00    +0.000 F 
ATOM     72  C50 UNL A   1      14.580  -0.702  25.661  1.00  0.00    +0.000 C 
ATOM     73  F10 UNL A   1      15.019  -1.883  25.196  1.00  0.00    +0.000 F 
ATOM     63  C45 UNL A   1      13.222  -0.371  25.564  1.00  0.00    +0.000 C 
ATOM     64  C46 UNL A   1      12.810   0.849  26.125  1.00  0.00    +0.000 C 
ENDBRANCH   62   63
BRANCH   77   78
ATOM     78  C54 UNL A   1      11.366   1.216  19.765  1.00  0.00    +0.000 C 
ATOM     79  C55 UNL A   1      10.564   0.582  18.803  1.00  0.00    +0.000 C 
ATOM     80  F11 UNL A   1       9.751  -0.421  19.161  1.00  0.00    +0.000 F 
ATOM     81  C56 UNL A   1      10.541   1.012  17.473  1.00  0.00    +0.000 C 
ATOM     82  F12 UNL A   1       9.720   0.420  16.595  1.00  0.00    +0.000 F 
ATOM     83  C57 UNL A   1      11.323   2.082  17.068  1.00  0.00    +0.000 C 
ATOM     84  F13 UNL A   1      11.259   2.528  15.805  1.00  0.00    +0.000 F 
ATOM     85  C58 UNL A   1      12.142   2.713  17.986  1.00  0.00    +0.000 C 
ATOM     86  F14 UNL A   1      12.877   3.770  17.614  1.00  0.00    +0.000 F 
ATOM     87  C59 UNL A   1      12.158   2.291  19.315  1.00  0.00    +0.000 C 
ATOM     88  F15 UNL A   1      12.895   3.008  20.175  1.00  0.00    +0.000 F 
ENDBRANCH   77   78
TORSDOF 22
ENDMDL
MODEL 9
REMARK VINA RESULT:      -9.9     26.256     33.876
ROOT
ATOM    131  H30 UNL A   1      21.321  17.572   8.268  1.00  0.00    +0.000 H 
ATOM    132  H31 UNL A   1      20.000  18.810   6.317  1.00  0.00    +0.000 H 
ATOM    133  H32 UNL A   1      23.818  20.119   6.372  1.00  0.00    +0.000 H 
ATOM    134  H33 UNL A   1      23.991  16.121  -0.711  1.00  0.00    +0.000 H 
ATOM    135  H34 UNL A   1      23.098  14.272   0.797  1.00  0.00    +0.000 H 
ATOM    136  H35 UNL A   1      23.838  17.568   3.219  1.00  0.00    +0.000 H 
ATOM    137  H36 UNL A   1      26.287  19.802   2.758  1.00  0.00    +0.000 H 
ATOM    138  H37 UNL A   1      24.823  20.503   4.762  1.00  0.00    +0.000 H 
ATOM    139  H38 UNL A   1      25.946  15.212   7.479  1.00  0.00    +0.000 H 
ATOM    140  H39 UNL A   1      25.790  13.950   5.246  1.00  0.00    +0.000 H 
ATOM     41  C30 UNL A   1      23.594  14.804   3.602  1.00  0.00    +0.000 C 
ATOM     42  C31 UNL A   1      24.020  15.337   4.936  1.00  0.00    +0.000 C 
ATOM     43  N9  UNL A   1      23.458  16.258   5.655  1.00  0.00    +0.000 N 
ATOM     44  C32 UNL A   1      24.308  16.475   6.742  1.00  0.00    +0.000 C 
ATOM     45  C33 UNL A   1      24.290  17.641   7.446  1.00  0.00    +0.000 C 
ATOM     57  C40 UNL A   1      23.062  18.360   7.246  1.00  0.00    +0.000 C 
ATOM     58  C41 UNL A   1      21.726  18.121   7.494  1.00  0.00    +0.000 C 
ATOM     59  C42 UNL A   1      21.023  18.795   6.452  1.00  0.00    +0.000 C 
ATOM     60  C43 UNL A   1      21.969  19.432   5.645  1.00  0.00    +0.000 C 
ATOM     61  N10 UNL A   1      23.100  19.446   6.412  1.00  0.00    +0.000 N 
ATOM     62  C44 UNL A   1      21.945  19.852   4.265  1.00  0.00    +0.000 C 
ATOM     74  C51 UNL A   1      23.057  20.084   3.509  1.00  0.00    +0.000 C 
ATOM     75  N11 UNL A   1      23.028  19.883   2.138  1.00  0.00    +0.000 N 
ATOM     76  C52 UNL A   1      24.244  19.525   1.831  1.00  0.00    +0.000 C 
ATOM     77  C53 UNL A   1      24.570  18.570   0.748  1.00  0.00    +0.000 C 
ATOM     89  C60 UNL A   1      24.105  17.357   1.123  1.00  0.00    +0.000 C 
ATOM     90  C61 UNL A   1      23.865  16.184   0.312  1.00  0.00    +0.000 C 
ATOM     91  C62 UNL A   1      23.448  15.189   1.116  1.00  0.00    +0.000 C 
ATOM     92  C63 UNL A   1      23.566  15.608   2.516  1.00  0.00    +0.000 C 
ATOM     93  N12 UNL A   1      23.836  16.960   2.445  1.00  0.00    +0.000 N 
ATOM     94  C64 UNL A   1      25.258  19.840   2.823  1.00  0.00    +0.000 C 
ATOM     95  C65 UNL A   1      24.471  20.191   3.843  1.00  0.00    +0.000 C 
ATOM     96  C66 UNL A   1      25.276  15.412   6.721  1.00  0.00    +0.000 C 
ATOM     97  C67 UNL A   1      25.192  14.720   5.584  1.00  0.00    +0.000 C 
ENDROOT
BRANCH   41   40
ATOM    129  H28 UNL A   1      22.530  10.633   5.195  1.00  0.00    +0.000 H 
ATOM     98  C68 UNL A   1      24.249  12.699   2.474  1.00  0.00    +0.000 C 
ATOM     99  C69 UNL A   1      24.292  11.322   2.417  1.00  0.00    +0.000 C 
ATOM    130  H29 UNL A   1      22.302  13.056   5.191  1.00  0.00    +0.000 H 
ATOM     37  C26 UNL A   1      23.742  10.582   3.462  1.00  0.00    +0.000 C 
ATOM     38  C27 UNL A   1      22.990  11.199   4.464  1.00  0.00    +0.000 C 
ATOM     39  C28 UNL A   1      22.870  12.587   4.468  1.00  0.00    +0.000 C 
ATOM     40  C29 UNL A   1      23.523  13.340   3.485  1.00  0.00    +0.000 C 
ATOM    141  H40 UNL A   1      24.753  13.259   1.767  1.00  0.00    +0.000 H 
ATOM    142  H41 UNL A   1      24.727  10.845   1.612  1.00  0.00    +0.000 H 
BRANCH   37   35
ATOM     35  C25 UNL A   1      24.011   9.134   3.534  1.00  0.00    +0.000 C 
ATOM     36  O3  UNL A   1      24.553   8.561   2.610  1.00  0.00    +0.000 O 
BRANCH   35   34
ATOM     34  N8  UNL A   1      23.613   8.448   4.666  1.00  0.00    +0.000 N 
ATOM    128  H27 UNL A   1      22.645   8.323   4.789  1.00  0.00    +0.000 H 
BRANCH   34   33
ATOM     33  C24 UNL A   1      24.481   7.888   5.699  1.00  0.00    +0.000 C 
ATOM    126  H25 UNL A   1      24.106   6.927   5.984  1.00  0.00    +0.000 H 
ATOM    127  H26 UNL A   1      25.470   7.807   5.298  1.00  0.00    +0.000 H 
BRANCH   33   32
ATOM    124  H23 UNL A   1      25.313   8.432   7.572  1.00  0.00    +0.000 H 
ATOM    125  H24 UNL A   1      24.711   9.782   6.582  1.00  0.00    +0.000 H 
ATOM     32  C23 UNL A   1      24.534   8.785   6.928  1.00  0.00    +0.000 C 
BRANCH   32   31
ATOM    122  H21 UNL A   1      22.906   9.834   7.800  1.00  0.00    +0.000 H 
ATOM    123  H22 UNL A   1      22.543   8.184   7.193  1.00  0.00    +0.000 H 
ATOM     31  C22 UNL A   1      23.223   8.814   7.727  1.00  0.00    +0.000 C 
BRANCH   31   30
ATOM    121  H20 UNL A   1      22.853   8.977   9.787  1.00  0.00    +0.000 H 
ATOM     30  C21 UNL A   1      23.294   8.238   9.151  1.00  0.00    +0.000 C 
ATOM    120  H19 UNL A   1      24.321   8.034   9.373  1.00  0.00    +0.000 H 
BRANCH   30   29
ATOM     29  C20 UNL A   1      22.494   6.948   9.385  1.00  0.00    +0.000 C 
ATOM    118  H17 UNL A   1      22.820   6.510  10.305  1.00  0.00    +0.000 H 
ATOM    119  H18 UNL A   1      21.459   7.221   9.407  1.00  0.00    +0.000 H 
BRANCH   29   28
ATOM    116  H15 UNL A   1      21.965   6.124   7.484  1.00  0.00    +0.000 H 
ATOM     28  C19 UNL A   1      22.659   5.910   8.270  1.00  0.00    +0.000 C 
ATOM    117  H16 UNL A   1      23.660   5.958   7.895  1.00  0.00    +0.000 H 
BRANCH   28   27
ATOM     27  N7  UNL A   1      22.408   4.579   8.783  1.00  0.00    +0.000 N 
ATOM    115  H14 UNL A   1      23.234   4.076   8.972  1.00  0.00    +0.000 H 
BRANCH   27   25
ATOM     25  C18 UNL A   1      21.270   3.868   9.061  1.00  0.00    +0.000 C 
ATOM     26  O2  UNL A   1      21.082   2.841   8.405  1.00  0.00    +0.000 O 
BRANCH   25   24
ATOM    100  C70 UNL A   1      19.129   5.104   9.743  1.00  0.00    +0.000 C 
ATOM    101  C71 UNL A   1      18.134   5.337  10.701  1.00  0.00    +0.000 C 
ATOM    143  H42 UNL A   1      19.048   5.535   8.809  1.00  0.00    +0.000 H 
ATOM    144  H43 UNL A   1      17.287   5.869  10.449  1.00  0.00    +0.000 H 
ATOM    113  H12 UNL A   1      19.616   3.880  13.336  1.00  0.00    +0.000 H 
ATOM    114  H13 UNL A   1      21.230   3.305  11.617  1.00  0.00    +0.000 H 
ATOM     21  C14 UNL A   1      18.292   4.845  12.002  1.00  0.00    +0.000 C 
ATOM     22  C15 UNL A   1      19.454   4.161  12.357  1.00  0.00    +0.000 C 
ATOM     23  C16 UNL A   1      20.395   3.859  11.368  1.00  0.00    +0.000 C 
ATOM     24  C17 UNL A   1      20.228   4.296  10.040  1.00  0.00    +0.000 C 
BRANCH   21   20
ATOM      2  C2  UNL A   1      16.153   4.343  13.233  1.00  0.00    +0.000 C 
ATOM      3  C3  UNL A   1      15.454   5.156  14.103  1.00  0.00    +0.000 C 
ATOM     18  N4  UNL A   1      16.203   6.243  14.439  1.00  0.00    +0.000 N 
ATOM     19  N5  UNL A   1      17.366   6.143  13.803  1.00  0.00    +0.000 N 
ATOM     20  N6  UNL A   1      17.295   5.076  12.972  1.00  0.00    +0.000 N 
BRANCH    2    1
ATOM      1  C1  UNL A   1      15.888   2.956  12.784  1.00  0.00    +0.000 C 
ATOM    102  H1  UNL A   1      15.223   2.479  13.474  1.00  0.00    +0.000 H 
ATOM    103  H2  UNL A   1      16.808   2.413  12.742  1.00  0.00    +0.000 H 
ATOM    104  H3  UNL A   1      15.440   2.975  11.812  1.00  0.00    +0.000 H 
ENDBRANCH    2    1
BRANCH    3    4
ATOM      4  C4  UNL A   1      14.147   4.906  14.699  1.00  0.00    +0.000 C 
ATOM      5  N1  UNL A   1      13.958   4.908  16.024  1.00  0.00    +0.000 N 
ATOM      6  N2  UNL A   1      12.695   4.455  16.184  1.00  0.00    +0.000 N 
ATOM     13  C11 UNL A   1      12.080   4.212  14.977  1.00  0.00    +0.000 C 
ATOM     14  C12 UNL A   1      12.979   4.551  13.984  1.00  0.00    +0.000 C 
ATOM    110  H9  UNL A   1      11.125   3.846  14.840  1.00  0.00    +0.000 H 
BRANCH    6    7
ATOM      7  C5  UNL A   1      12.154   4.256  17.474  1.00  0.00    +0.000 C 
ATOM      8  C6  UNL A   1      11.990   2.951  17.953  1.00  0.00    +0.000 C 
ATOM      9  C7  UNL A   1      11.488   2.744  19.237  1.00  0.00    +0.000 C 
ATOM    105  H4  UNL A   1      12.241   2.146  17.358  1.00  0.00    +0.000 H 
ATOM     11  C9  UNL A   1      11.228   5.130  19.527  1.00  0.00    +0.000 C 
ATOM     12  C10 UNL A   1      11.782   5.351  18.264  1.00  0.00    +0.000 C 
ATOM    109  H8  UNL A   1      11.914   6.314  17.916  1.00  0.00    +0.000 H 
ATOM     10  C8  UNL A   1      11.096   3.831  20.018  1.00  0.00    +0.000 C 
ATOM    106  H5  UNL A   1      11.406   1.784  19.611  1.00  0.00    +0.000 H 
ATOM    108  H7  UNL A   1      10.916   5.931  20.099  1.00  0.00    +0.000 H 
ATOM    107  H6  UNL A   1      10.708   3.674  20.962  1.00  0.00    +0.000 H 
ENDBRANCH    6    7
BRANCH   14   15
ATOM    111  H10 UNL A   1      13.314   3.988  11.936  1.00  0.00    +0.000 H 
ATOM     15  C13 UNL A   1      12.696   4.514  12.572  1.00  0.00    +0.000 C 
BRANCH   15   16
ATOM     16  N3  UNL A   1      11.667   5.140  12.101  1.00  0.00    +0.000 N 
BRANCH   16   17
ATOM     17  O1  UNL A   1      11.992   6.491  11.924  1.00  0.00    +0.000 O 
ATOM    112  H11 UNL A   1      12.609   6.903  12.495  1.00  0.00    +0.000 H 
ENDBRANCH   16   17
ENDBRANCH   15   16
ENDBRANCH   14   15
ENDBRANCH    3    4
ENDBRANCH   21   20
ENDBRANCH   25   24
ENDBRANCH   27   25
ENDBRANCH   28   27
ENDBRANCH   29   28
ENDBRANCH   30   29
ENDBRANCH   31   30
ENDBRANCH   32   31
ENDBRANCH   33   32
ENDBRANCH   34   33
ENDBRANCH   35   34
ENDBRANCH   37   35
ENDBRANCH   41   40
BRANCH   45   46
ATOM     46  C34 UNL A   1      25.527  18.331   7.996  1.00  0.00    +0.000 C 
ATOM     47  C35 UNL A   1      25.551  18.715   9.354  1.00  0.00    +0.000 C 
ATOM     48  F1  UNL A   1      24.647  18.231  10.219  1.00  0.00    +0.000 F 
ATOM     49  C36 UNL A   1      26.437  19.685   9.836  1.00  0.00    +0.000 C 
ATOM     50  F2  UNL A   1      26.328  20.119  11.099  1.00  0.00    +0.000 F 
ATOM     51  C37 UNL A   1      27.373  20.257   8.996  1.00  0.00    +0.000 C 
ATOM     52  F3  UNL A   1      28.176  21.236   9.435  1.00  0.00    +0.000 F 
ATOM     53  C38 UNL A   1      27.439  19.846   7.683  1.00  0.00    +0.000 C 
ATOM     54  F4  UNL A   1      28.332  20.399   6.849  1.00  0.00    +0.000 F 
ATOM     55  C39 UNL A   1      26.523  18.918   7.186  1.00  0.00    +0.000 C 
ATOM     56  F5  UNL A   1      26.587  18.707   5.867  1.00  0.00    +0.000 F 
ENDBRANCH   45   46
BRANCH   62   63
ATOM     65  F6  UNL A   1      20.248  22.123   3.525  1.00  0.00    +0.000 F 
ATOM     66  C47 UNL A   1      18.661  20.743   2.493  1.00  0.00    +0.000 C 
ATOM     67  F7  UNL A   1      17.919  21.821   2.201  1.00  0.00    +0.000 F 
ATOM     68  C48 UNL A   1      18.262  19.491   2.051  1.00  0.00    +0.000 C 
ATOM     69  F8  UNL A   1      17.142  19.358   1.326  1.00  0.00    +0.000 F 
ATOM     70  C49 UNL A   1      19.039  18.380   2.338  1.00  0.00    +0.000 C 
ATOM     71  F9  UNL A   1      18.685  17.175   1.869  1.00  0.00    +0.000 F 
ATOM     72  C50 UNL A   1      20.201  18.514   3.091  1.00  0.00    +0.000 C 
ATOM     73  F10 UNL A   1      20.941  17.421   3.336  1.00  0.00    +0.000 F 
ATOM     63  C45 UNL A   1      20.627  19.768   3.551  1.00  0.00    +0.000 C 
ATOM     64  C46 UNL A   1      19.846  20.884   3.211  1.00  0.00    +0.000 C 
ENDBRANCH   62   63
BRANCH   77   78
ATOM     78  C54 UNL A   1      25.463  18.904  -0.381  1.00  0.00    +0.000 C 
ATOM     79  C55 UNL A   1      24.949  19.231  -1.645  1.00  0.00    +0.000 C 
ATOM     80  F11 UNL A   1      23.644  19.066  -1.904  1.00  0.00    +0.000 F 
ATOM     81  C56 UNL A   1      25.756  19.791  -2.639  1.00  0.00    +0.000 C 
ATOM     82  F12 UNL A   1      25.219  20.145  -3.815  1.00  0.00    +0.000 F 
ATOM     83  C57 UNL A   1      27.100  20.032  -2.399  1.00  0.00    +0.000 C 
ATOM     84  F13 UNL A   1      27.860  20.620  -3.334  1.00  0.00    +0.000 F 
ATOM     85  C58 UNL A   1      27.642  19.699  -1.172  1.00  0.00    +0.000 C 
ATOM     86  F14 UNL A   1      28.932  19.958  -0.915  1.00  0.00    +0.000 F 
ATOM     87  C59 UNL A   1      26.835  19.149  -0.176  1.00  0.00    +0.000 C 
ATOM     88  F15 UNL A   1      27.398  18.944   1.023  1.00  0.00    +0.000 F 
ENDBRANCH   77   78
TORSDOF 22
ENDMDL
MODEL 10
REMARK VINA RESULT:      -9.9     36.621     43.545
ROOT
ATOM    131  H30 UNL A   1       0.321   6.577  37.491  1.00  0.00    +0.000 H 
ATOM    132  H31 UNL A   1       2.951   6.247  37.259  1.00  0.00    +0.000 H 
ATOM    133  H32 UNL A   1       1.976   9.982  36.082  1.00  0.00    +0.000 H 
ATOM    134  H33 UNL A   1       6.089  11.860  42.844  1.00  0.00    +0.000 H 
ATOM    135  H34 UNL A   1       4.424  10.192  43.811  1.00  0.00    +0.000 H 
ATOM    136  H35 UNL A   1       3.509  10.629  39.780  1.00  0.00    +0.000 H 
ATOM    137  H36 UNL A   1       3.870  13.442  38.004  1.00  0.00    +0.000 H 
ATOM    138  H37 UNL A   1       3.074  11.529  36.469  1.00  0.00    +0.000 H 
ATOM    139  H38 UNL A   1      -1.792  10.695  39.971  1.00  0.00    +0.000 H 
ATOM    140  H39 UNL A   1      -0.414  11.093  42.104  1.00  0.00    +0.000 H 
ATOM     41  C30 UNL A   1       2.142   9.782  42.074  1.00  0.00    +0.000 C 
ATOM     42  C31 UNL A   1       1.099   9.812  40.998  1.00  0.00    +0.000 C 
ATOM     43  N9  UNL A   1       1.105   9.210  39.850  1.00  0.00    +0.000 N 
ATOM     44  C32 UNL A   1      -0.029   9.660  39.170  1.00  0.00    +0.000 C 
ATOM     45  C33 UNL A   1      -0.119   9.610  37.812  1.00  0.00    +0.000 C 
ATOM     57  C40 UNL A   1       0.818   8.673  37.255  1.00  0.00    +0.000 C 
ATOM     58  C41 UNL A   1       1.030   7.313  37.351  1.00  0.00    +0.000 C 
ATOM     59  C42 UNL A   1       2.440   7.141  37.216  1.00  0.00    +0.000 C 
ATOM     60  C43 UNL A   1       3.003   8.403  37.015  1.00  0.00    +0.000 C 
ATOM     61  N10 UNL A   1       1.940   9.186  36.662  1.00  0.00    +0.000 N 
ATOM     62  C44 UNL A   1       4.324   8.929  37.263  1.00  0.00    +0.000 C 
ATOM     74  C51 UNL A   1       4.615  10.255  37.401  1.00  0.00    +0.000 C 
ATOM     75  N11 UNL A   1       5.672  10.662  38.198  1.00  0.00    +0.000 N 
ATOM     76  C52 UNL A   1       5.307  11.826  38.661  1.00  0.00    +0.000 C 
ATOM     77  C53 UNL A   1       5.679  12.329  40.002  1.00  0.00    +0.000 C 
ATOM     89  C60 UNL A   1       5.046  11.557  40.915  1.00  0.00    +0.000 C 
ATOM     90  C61 UNL A   1       5.321  11.405  42.327  1.00  0.00    +0.000 C 
ATOM     91  C62 UNL A   1       4.407  10.568  42.850  1.00  0.00    +0.000 C 
ATOM     92  C63 UNL A   1       3.381  10.271  41.845  1.00  0.00    +0.000 C 
ATOM     93  N12 UNL A   1       3.896  10.784  40.672  1.00  0.00    +0.000 N 
ATOM     94  C64 UNL A   1       4.229  12.477  37.936  1.00  0.00    +0.000 C 
ATOM     95  C65 UNL A   1       3.837  11.464  37.160  1.00  0.00    +0.000 C 
ATOM     96  C66 UNL A   1      -0.826  10.373  40.132  1.00  0.00    +0.000 C 
ATOM     97  C67 UNL A   1      -0.143  10.562  41.262  1.00  0.00    +0.000 C 
ENDROOT
BRANCH   41   40
ATOM    129  H28 UNL A   1       1.454   6.997  45.657  1.00  0.00    +0.000 H 
ATOM     98  C68 UNL A   1       0.803  10.411  44.060  1.00  0.00    +0.000 C 
ATOM     99  C69 UNL A   1       0.244  10.111  45.285  1.00  0.00    +0.000 C 
ATOM    130  H29 UNL A   1       2.583   7.599  43.586  1.00  0.00    +0.000 H 
ATOM     37  C26 UNL A   1       0.413   8.832  45.812  1.00  0.00    +0.000 C 
ATOM     38  C27 UNL A   1       1.285   7.916  45.218  1.00  0.00    +0.000 C 
ATOM     39  C28 UNL A   1       1.921   8.257  44.027  1.00  0.00    +0.000 C 
ATOM     40  C29 UNL A   1       1.659   9.497  43.433  1.00  0.00    +0.000 C 
ATOM    141  H40 UNL A   1       0.589  11.313  43.605  1.00  0.00    +0.000 H 
ATOM    142  H41 UNL A   1      -0.293  10.823  45.803  1.00  0.00    +0.000 H 
BRANCH   37   35
ATOM     35  C25 UNL A   1      -0.388   8.428  46.982  1.00  0.00    +0.000 C 
ATOM     36  O3  UNL A   1      -1.533   8.046  46.844  1.00  0.00    +0.000 O 
BRANCH   35   34
ATOM     34  N8  UNL A   1       0.189   8.516  48.235  1.00  0.00    +0.000 N 
ATOM    128  H27 UNL A   1       0.783   7.778  48.501  1.00  0.00    +0.000 H 
BRANCH   34   33
ATOM     33  C24 UNL A   1       0.008   9.592  49.207  1.00  0.00    +0.000 C 
ATOM    126  H25 UNL A   1      -1.038   9.779  49.328  1.00  0.00    +0.000 H 
ATOM    127  H26 UNL A   1       0.450   9.285  50.132  1.00  0.00    +0.000 H 
BRANCH   33   32
ATOM    124  H23 UNL A   1       0.312  11.137  47.786  1.00  0.00    +0.000 H 
ATOM    125  H24 UNL A   1       0.483  11.620  49.490  1.00  0.00    +0.000 H 
ATOM     32  C23 UNL A   1       0.692  10.874  48.752  1.00  0.00    +0.000 C 
BRANCH   32   31
ATOM    122  H21 UNL A   1       2.648  11.489  49.306  1.00  0.00    +0.000 H 
ATOM    123  H22 UNL A   1       2.452   9.746  48.921  1.00  0.00    +0.000 H 
ATOM     31  C22 UNL A   1       2.220  10.756  48.654  1.00  0.00    +0.000 C 
BRANCH   31   30
ATOM    121  H20 UNL A   1       2.469  11.921  46.925  1.00  0.00    +0.000 H 
ATOM     30  C21 UNL A   1       2.819  10.964  47.253  1.00  0.00    +0.000 C 
ATOM    120  H19 UNL A   1       2.500  10.152  46.635  1.00  0.00    +0.000 H 
BRANCH   30   29
ATOM     29  C20 UNL A   1       4.353  11.032  47.191  1.00  0.00    +0.000 C 
ATOM    118  H17 UNL A   1       4.750  10.326  47.890  1.00  0.00    +0.000 H 
ATOM    119  H18 UNL A   1       4.636  10.812  46.183  1.00  0.00    +0.000 H 
BRANCH   29   28
ATOM    116  H15 UNL A   1       4.273  12.904  48.222  1.00  0.00    +0.000 H 
ATOM     28  C19 UNL A   1       4.922  12.415  47.525  1.00  0.00    +0.000 C 
ATOM    117  H16 UNL A   1       5.895  12.298  47.954  1.00  0.00    +0.000 H 
BRANCH   28   27
ATOM     27  N7  UNL A   1       5.027  13.217  46.323  1.00  0.00    +0.000 N 
ATOM    115  H14 UNL A   1       5.520  12.766  45.600  1.00  0.00    +0.000 H 
BRANCH   27   25
ATOM     25  C18 UNL A   1       4.589  14.468  45.976  1.00  0.00    +0.000 C 
ATOM     26  O2  UNL A   1       5.012  15.411  46.647  1.00  0.00    +0.000 O 
BRANCH   25   24
ATOM    100  C70 UNL A   1       3.169  16.012  44.500  1.00  0.00    +0.000 C 
ATOM    101  C71 UNL A   1       2.330  16.168  43.389  1.00  0.00    +0.000 C 
ATOM    143  H42 UNL A   1       3.477  16.844  45.028  1.00  0.00    +0.000 H 
ATOM    144  H43 UNL A   1       2.088  17.112  43.053  1.00  0.00    +0.000 H 
ATOM    113  H12 UNL A   1       1.666  12.933  42.795  1.00  0.00    +0.000 H 
ATOM    114  H13 UNL A   1       3.284  12.674  44.586  1.00  0.00    +0.000 H 
ATOM     21  C14 UNL A   1       1.821  15.039  42.737  1.00  0.00    +0.000 C 
ATOM     22  C15 UNL A   1       2.114  13.762  43.214  1.00  0.00    +0.000 C 
ATOM     23  C16 UNL A   1       3.024  13.621  44.267  1.00  0.00    +0.000 C 
ATOM     24  C17 UNL A   1       3.591  14.742  44.901  1.00  0.00    +0.000 C 
BRANCH   21   20
ATOM      2  C2  UNL A   1      -0.365  14.878  41.496  1.00  0.00    +0.000 C 
ATOM      3  C3  UNL A   1      -0.591  15.006  40.140  1.00  0.00    +0.000 C 
ATOM     18  N4  UNL A   1       0.520  15.494  39.519  1.00  0.00    +0.000 N 
ATOM     19  N5  UNL A   1       1.451  15.680  40.449  1.00  0.00    +0.000 N 
ATOM     20  N6  UNL A   1       0.977  15.188  41.618  1.00  0.00    +0.000 N 
BRANCH    2    1
ATOM      1  C1  UNL A   1      -1.307  14.639  42.613  1.00  0.00    +0.000 C 
ATOM    102  H1  UNL A   1      -0.810  14.823  43.544  1.00  0.00    +0.000 H 
ATOM    103  H2  UNL A   1      -1.644  13.624  42.585  1.00  0.00    +0.000 H 
ATOM    104  H3  UNL A   1      -2.146  15.296  42.520  1.00  0.00    +0.000 H 
ENDBRANCH    2    1
BRANCH    3    4
ATOM      4  C4  UNL A   1      -1.837  14.774  39.420  1.00  0.00    +0.000 C 
ATOM      5  N1  UNL A   1      -2.266  13.542  39.120  1.00  0.00    +0.000 N 
ATOM      6  N2  UNL A   1      -3.324  13.744  38.304  1.00  0.00    +0.000 N 
ATOM     13  C11 UNL A   1      -3.587  15.083  38.125  1.00  0.00    +0.000 C 
ATOM     14  C12 UNL A   1      -2.671  15.785  38.887  1.00  0.00    +0.000 C 
ATOM    110  H9  UNL A   1      -4.329  15.487  37.534  1.00  0.00    +0.000 H 
BRANCH    6    7
ATOM      7  C5  UNL A   1      -4.009  12.654  37.720  1.00  0.00    +0.000 C 
ATOM      8  C6  UNL A   1      -4.017  11.420  38.381  1.00  0.00    +0.000 C 
ATOM      9  C7  UNL A   1      -4.718  10.347  37.832  1.00  0.00    +0.000 C 
ATOM    105  H4  UNL A   1      -3.509  11.306  39.272  1.00  0.00    +0.000 H 
ATOM     11  C9  UNL A   1      -5.320  11.708  35.926  1.00  0.00    +0.000 C 
ATOM     12  C10 UNL A   1      -4.668  12.805  36.494  1.00  0.00    +0.000 C 
ATOM    109  H8  UNL A   1      -4.673  13.718  36.014  1.00  0.00    +0.000 H 
ATOM     10  C8  UNL A   1      -5.358  10.487  36.600  1.00  0.00    +0.000 C 
ATOM    106  H5  UNL A   1      -4.763   9.447  38.336  1.00  0.00    +0.000 H 
ATOM    108  H7  UNL A   1      -5.775  11.802  35.004  1.00  0.00    +0.000 H 
ATOM    107  H6  UNL A   1      -5.861   9.686  36.186  1.00  0.00    +0.000 H 
ENDBRANCH    6    7
BRANCH   14   15
ATOM    111  H10 UNL A   1      -2.794  17.822  38.213  1.00  0.00    +0.000 H 
ATOM     15  C13 UNL A   1      -2.654  17.217  39.036  1.00  0.00    +0.000 C 
BRANCH   15   16
ATOM     16  N3  UNL A   1      -2.463  17.746  40.200  1.00  0.00    +0.000 N 
BRANCH   16   17
ATOM     17  O1  UNL A   1      -3.495  17.351  41.060  1.00  0.00    +0.000 O 
ATOM    112  H11 UNL A   1      -4.264  17.881  41.144  1.00  0.00    +0.000 H 
ENDBRANCH   16   17
ENDBRANCH   15   16
ENDBRANCH   14   15
ENDBRANCH    3    4
ENDBRANCH   21   20
ENDBRANCH   25   24
ENDBRANCH   27   25
ENDBRANCH   28   27
ENDBRANCH   29   28
ENDBRANCH   30   29
ENDBRANCH   31   30
ENDBRANCH   32   31
ENDBRANCH   33   32
ENDBRANCH   34   33
ENDBRANCH   35   34
ENDBRANCH   37   35
ENDBRANCH   41   40
BRANCH   45   46
ATOM     46  C34 UNL A   1      -0.763  10.684  36.953  1.00  0.00    +0.000 C 
ATOM     47  C35 UNL A   1      -1.585  10.298  35.871  1.00  0.00    +0.000 C 
ATOM     48  F1  UNL A   1      -2.034   9.038  35.769  1.00  0.00    +0.000 F 
ATOM     49  C36 UNL A   1      -1.877  11.165  34.814  1.00  0.00    +0.000 C 
ATOM     50  F2  UNL A   1      -2.542  10.710  33.742  1.00  0.00    +0.000 F 
ATOM     51  C37 UNL A   1      -1.418  12.468  34.829  1.00  0.00    +0.000 C 
ATOM     52  F3  UNL A   1      -1.636  13.281  33.786  1.00  0.00    +0.000 F 
ATOM     53  C38 UNL A   1      -0.686  12.911  35.910  1.00  0.00    +0.000 C 
ATOM     54  F4  UNL A   1      -0.219  14.168  35.936  1.00  0.00    +0.000 F 
ATOM     55  C39 UNL A   1      -0.347  12.033  36.941  1.00  0.00    +0.000 C 
ATOM     56  F5  UNL A   1       0.489  12.531  37.858  1.00  0.00    +0.000 F 
ENDBRANCH   45   46
BRANCH   62   63
ATOM     65  F6  UNL A   1       4.527   7.565  39.848  1.00  0.00    +0.000 F 
ATOM     66  C47 UNL A   1       6.420   6.354  39.185  1.00  0.00    +0.000 C 
ATOM     67  F7  UNL A   1       6.470   5.779  40.395  1.00  0.00    +0.000 F 
ATOM     68  C48 UNL A   1       7.321   5.974  38.204  1.00  0.00    +0.000 C 
ATOM     69  F8  UNL A   1       8.237   5.029  38.459  1.00  0.00    +0.000 F 
ATOM     70  C49 UNL A   1       7.257   6.557  36.947  1.00  0.00    +0.000 C 
ATOM     71  F9  UNL A   1       8.092   6.156  35.979  1.00  0.00    +0.000 F 
ATOM     72  C50 UNL A   1       6.309   7.539  36.680  1.00  0.00    +0.000 C 
ATOM     73  F10 UNL A   1       6.261   8.070  35.447  1.00  0.00    +0.000 F 
ATOM     63  C45 UNL A   1       5.386   7.943  37.654  1.00  0.00    +0.000 C 
ATOM     64  C46 UNL A   1       5.443   7.307  38.905  1.00  0.00    +0.000 C 
ENDBRANCH   62   63
BRANCH   77   78
ATOM     78  C54 UNL A   1       6.403  13.599  40.218  1.00  0.00    +0.000 C 
ATOM     79  C55 UNL A   1       7.669  13.820  39.655  1.00  0.00    +0.000 C 
ATOM     80  F11 UNL A   1       8.329  12.814  39.065  1.00  0.00    +0.000 F 
ATOM     81  C56 UNL A   1       8.246  15.093  39.634  1.00  0.00    +0.000 C 
ATOM     82  F12 UNL A   1       9.431  15.279  39.037  1.00  0.00    +0.000 F 
ATOM     83  C57 UNL A   1       7.577  16.177  40.182  1.00  0.00    +0.000 C 
ATOM     84  F13 UNL A   1       8.107  17.406  40.113  1.00  0.00    +0.000 F 
ATOM     85  C58 UNL A   1       6.338  15.987  40.765  1.00  0.00    +0.000 C 
ATOM     86  F14 UNL A   1       5.666  17.032  41.268  1.00  0.00    +0.000 F 
ATOM     87  C59 UNL A   1       5.757  14.719  40.777  1.00  0.00    +0.000 C 
ATOM     88  F15 UNL A   1       4.512  14.622  41.266  1.00  0.00    +0.000 F 
ENDBRANCH   77   78
TORSDOF 22
ENDMDL
