MODEL 1
REMARK VINA RESULT:     -11.5      0.000      0.000
ROOT
ATOM    129  H38 UNL A   1      37.534  30.547  27.935  1.00  0.00    +0.000 H 
ATOM     33  C27 UNL A   1      37.734  31.463  30.633  1.00  0.00    +0.000 C 
ATOM     34  C28 UNL A   1      38.609  30.467  29.931  1.00  0.00    +0.000 C 
ATOM     35  N4  UNL A   1      39.646  29.815  30.393  1.00  0.00    +0.000 N 
ATOM     36  C29 UNL A   1      40.082  29.004  29.354  1.00  0.00    +0.000 C 
ATOM     37  C30 UNL A   1      41.137  28.155  29.338  1.00  0.00    +0.000 C 
ATOM     49  C37 UNL A   1      42.034  27.951  30.447  1.00  0.00    +0.000 C 
ATOM     50  C38 UNL A   1      43.166  27.157  30.506  1.00  0.00    +0.000 C 
ATOM     51  C39 UNL A   1      43.687  27.230  31.802  1.00  0.00    +0.000 C 
ATOM     52  C40 UNL A   1      42.906  28.105  32.538  1.00  0.00    +0.000 C 
ATOM     53  N5  UNL A   1      41.896  28.541  31.695  1.00  0.00    +0.000 N 
ATOM     54  C41 UNL A   1      43.065  28.509  33.911  1.00  0.00    +0.000 C 
ATOM     66  C48 UNL A   1      42.286  29.412  34.554  1.00  0.00    +0.000 C 
ATOM     67  N6  UNL A   1      41.193  30.118  34.073  1.00  0.00    +0.000 N 
ATOM     68  C49 UNL A   1      40.761  30.837  35.080  1.00  0.00    +0.000 C 
ATOM     69  C50 UNL A   1      39.608  31.796  35.129  1.00  0.00    +0.000 C 
ATOM     81  C57 UNL A   1      38.866  31.980  34.022  1.00  0.00    +0.000 C 
ATOM     82  C58 UNL A   1      37.715  32.868  33.921  1.00  0.00    +0.000 C 
ATOM     83  C59 UNL A   1      37.174  32.740  32.702  1.00  0.00    +0.000 C 
ATOM     84  C60 UNL A   1      37.977  31.800  31.915  1.00  0.00    +0.000 C 
ATOM     85  N7  UNL A   1      38.965  31.404  32.779  1.00  0.00    +0.000 N 
ATOM     86  C61 UNL A   1      41.526  30.659  36.320  1.00  0.00    +0.000 C 
ATOM     87  C62 UNL A   1      42.466  29.809  35.935  1.00  0.00    +0.000 C 
ATOM     88  C63 UNL A   1      39.188  29.232  28.239  1.00  0.00    +0.000 C 
ATOM     89  C64 UNL A   1      38.279  30.153  28.532  1.00  0.00    +0.000 C 
ATOM    120  H29 UNL A   1      43.560  26.605  29.727  1.00  0.00    +0.000 H 
ATOM    121  H30 UNL A   1      44.514  26.719  32.150  1.00  0.00    +0.000 H 
ATOM    122  H31 UNL A   1      41.186  29.176  31.945  1.00  0.00    +0.000 H 
ATOM    123  H32 UNL A   1      37.373  33.494  34.668  1.00  0.00    +0.000 H 
ATOM    124  H33 UNL A   1      36.325  33.225  32.370  1.00  0.00    +0.000 H 
ATOM    125  H34 UNL A   1      39.674  30.768  32.532  1.00  0.00    +0.000 H 
ATOM    126  H35 UNL A   1      41.372  31.086  37.248  1.00  0.00    +0.000 H 
ATOM    127  H36 UNL A   1      43.230  29.472  36.542  1.00  0.00    +0.000 H 
ATOM    128  H37 UNL A   1      39.249  28.741  27.332  1.00  0.00    +0.000 H 
ENDROOT
BRANCH   33   32
ATOM    130  H39 UNL A   1      35.093  30.836  30.709  1.00  0.00    +0.000 H 
ATOM    131  H40 UNL A   1      33.248  32.006  29.647  1.00  0.00    +0.000 H 
ATOM    118  H27 UNL A   1      35.938  34.875  28.147  1.00  0.00    +0.000 H 
ATOM    119  H28 UNL A   1      37.798  33.577  28.998  1.00  0.00    +0.000 H 
ATOM     90  C65 UNL A   1      35.277  31.670  30.129  1.00  0.00    +0.000 C 
ATOM     91  C66 UNL A   1      34.214  32.351  29.531  1.00  0.00    +0.000 C 
ATOM     29  C23 UNL A   1      34.462  33.500  28.774  1.00  0.00    +0.000 C 
ATOM     30  C24 UNL A   1      35.766  33.985  28.640  1.00  0.00    +0.000 C 
ATOM     31  C25 UNL A   1      36.830  33.265  29.171  1.00  0.00    +0.000 C 
ATOM     32  C26 UNL A   1      36.595  32.115  29.943  1.00  0.00    +0.000 C 
BRANCH   29    2
ATOM      1  O1  UNL A   1      32.950  35.284  28.600  1.00  0.00    +0.000 O 
ATOM      2  C1  UNL A   1      33.327  34.209  28.145  1.00  0.00    +0.000 C 
BRANCH    2    3
ATOM      3  N1  UNL A   1      32.696  33.652  27.060  1.00  0.00    +0.000 N 
ATOM     92  H1  UNL A   1      32.966  34.006  26.181  1.00  0.00    +0.000 H 
BRANCH    3    4
ATOM      4  C2  UNL A   1      31.685  32.609  27.036  1.00  0.00    +0.000 C 
ATOM     93  H2  UNL A   1      31.002  32.811  26.237  1.00  0.00    +0.000 H 
ATOM     94  H3  UNL A   1      31.189  32.612  27.983  1.00  0.00    +0.000 H 
BRANCH    4    5
ATOM      5  C3  UNL A   1      32.288  31.226  26.828  1.00  0.00    +0.000 C 
ATOM     95  H4  UNL A   1      32.274  30.711  27.765  1.00  0.00    +0.000 H 
ATOM     96  H5  UNL A   1      33.277  31.380  26.449  1.00  0.00    +0.000 H 
BRANCH    5    6
ATOM     97  H6  UNL A   1      32.024  30.516  24.848  1.00  0.00    +0.000 H 
ATOM     98  H7  UNL A   1      30.533  30.672  25.825  1.00  0.00    +0.000 H 
ATOM      6  C4  UNL A   1      31.557  30.364  25.798  1.00  0.00    +0.000 C 
BRANCH    6    7
ATOM     99  H8  UNL A   1      31.549  28.341  25.154  1.00  0.00    +0.000 H 
ATOM    100  H9  UNL A   1      30.689  28.676  26.690  1.00  0.00    +0.000 H 
ATOM      7  C5  UNL A   1      31.556  28.859  26.090  1.00  0.00    +0.000 C 
BRANCH    7    8
ATOM    101  H10 UNL A   1      32.396  28.058  27.875  1.00  0.00    +0.000 H 
ATOM    102  H11 UNL A   1      33.462  29.145  26.945  1.00  0.00    +0.000 H 
ATOM      8  C6  UNL A   1      32.750  28.346  26.907  1.00  0.00    +0.000 C 
BRANCH    8    9
ATOM      9  C7  UNL A   1      33.469  27.148  26.285  1.00  0.00    +0.000 C 
ATOM    103  H12 UNL A   1      32.865  26.274  26.412  1.00  0.00    +0.000 H 
ATOM    104  H13 UNL A   1      34.413  27.027  26.774  1.00  0.00    +0.000 H 
BRANCH    9   10
ATOM    105  H14 UNL A   1      34.129  28.217  24.643  1.00  0.00    +0.000 H 
ATOM     10  N2  UNL A   1      33.707  27.358  24.873  1.00  0.00    +0.000 N 
BRANCH   10   11
ATOM     11  C8  UNL A   1      33.433  26.542  23.811  1.00  0.00    +0.000 C 
ATOM     12  O2  UNL A   1      34.010  25.456  23.779  1.00  0.00    +0.000 O 
BRANCH   11   13
ATOM    106  H15 UNL A   1      32.746  26.463  21.885  1.00  0.00    +0.000 H 
ATOM    107  H16 UNL A   1      33.161  28.804  21.705  1.00  0.00    +0.000 H 
ATOM    108  H17 UNL A   1      32.935  29.062  23.394  1.00  0.00    +0.000 H 
ATOM     13  C9  UNL A   1      32.458  27.035  22.743  1.00  0.00    +0.000 C 
ATOM     14  C10 UNL A   1      32.527  28.569  22.536  1.00  0.00    +0.000 C 
ATOM     15  C11 UNL A   1      31.088  29.025  22.255  1.00  0.00    +0.000 C 
ATOM     16  N3  UNL A   1      30.284  27.961  22.827  1.00  0.00    +0.000 N 
ATOM    109  H18 UNL A   1      30.913  29.115  21.204  1.00  0.00    +0.000 H 
ATOM    110  H19 UNL A   1      30.866  29.987  22.668  1.00  0.00    +0.000 H 
ATOM     17  C12 UNL A   1      28.983  27.810  23.202  1.00  0.00    +0.000 C 
ATOM    116  H25 UNL A   1      28.082  26.096  24.167  1.00  0.00    +0.000 H 
ATOM    117  H26 UNL A   1      30.471  24.984  24.033  1.00  0.00    +0.000 H 
ATOM     26  C20 UNL A   1      28.926  26.533  23.767  1.00  0.00    +0.000 C 
ATOM     27  C21 UNL A   1      30.210  25.927  23.705  1.00  0.00    +0.000 C 
ATOM     28  C22 UNL A   1      31.029  26.854  23.122  1.00  0.00    +0.000 C 
BRANCH   17   18
ATOM     18  C13 UNL A   1      27.873  28.747  23.124  1.00  0.00    +0.000 C 
ATOM     19  O3  UNL A   1      26.715  28.434  23.394  1.00  0.00    +0.000 O 
BRANCH   18   20
ATOM    111  H20 UNL A   1      27.741  29.760  20.676  1.00  0.00    +0.000 H 
ATOM    112  H21 UNL A   1      28.088  32.055  19.964  1.00  0.00    +0.000 H 
ATOM    113  H22 UNL A   1      28.646  33.759  21.598  1.00  0.00    +0.000 H 
ATOM    114  H23 UNL A   1      28.905  33.169  23.937  1.00  0.00    +0.000 H 
ATOM    115  H24 UNL A   1      28.586  30.868  24.653  1.00  0.00    +0.000 H 
ATOM     20  C14 UNL A   1      28.093  30.153  22.724  1.00  0.00    +0.000 C 
ATOM     21  C15 UNL A   1      27.977  30.486  21.370  1.00  0.00    +0.000 C 
ATOM     22  C16 UNL A   1      28.180  31.804  20.961  1.00  0.00    +0.000 C 
ATOM     23  C17 UNL A   1      28.509  32.782  21.900  1.00  0.00    +0.000 C 
ATOM     24  C18 UNL A   1      28.654  32.444  23.247  1.00  0.00    +0.000 C 
ATOM     25  C19 UNL A   1      28.460  31.125  23.662  1.00  0.00    +0.000 C 
ENDBRANCH   18   20
ENDBRANCH   17   18
ENDBRANCH   11   13
ENDBRANCH   10   11
ENDBRANCH    9   10
ENDBRANCH    8    9
ENDBRANCH    7    8
ENDBRANCH    6    7
ENDBRANCH    5    6
ENDBRANCH    4    5
ENDBRANCH    3    4
ENDBRANCH    2    3
ENDBRANCH   29    2
ENDBRANCH   33   32
BRANCH   37   38
ATOM     38  C31 UNL A   1      41.388  27.364  28.088  1.00  0.00    +0.000 C 
ATOM     39  C32 UNL A   1      42.216  27.847  27.065  1.00  0.00    +0.000 C 
ATOM     40  F1  UNL A   1      42.730  29.085  27.142  1.00  0.00    +0.000 F 
ATOM     41  C33 UNL A   1      42.510  27.064  25.952  1.00  0.00    +0.000 C 
ATOM     42  F2  UNL A   1      43.287  27.554  24.976  1.00  0.00    +0.000 F 
ATOM     43  C34 UNL A   1      42.000  25.778  25.850  1.00  0.00    +0.000 C 
ATOM     44  F3  UNL A   1      42.300  25.019  24.786  1.00  0.00    +0.000 F 
ATOM     45  C35 UNL A   1      41.182  25.279  26.851  1.00  0.00    +0.000 C 
ATOM     46  F4  UNL A   1      40.699  24.031  26.760  1.00  0.00    +0.000 F 
ATOM     47  C36 UNL A   1      40.869  26.067  27.956  1.00  0.00    +0.000 C 
ATOM     48  F5  UNL A   1      40.077  25.554  28.909  1.00  0.00    +0.000 F 
ENDBRANCH   37   38
BRANCH   54   55
ATOM     65  F10 UNL A   1      45.661  29.660  34.063  1.00  0.00    +0.000 F 
ATOM     55  C42 UNL A   1      44.188  27.902  34.698  1.00  0.00    +0.000 C 
ATOM     56  C43 UNL A   1      44.019  26.704  35.408  1.00  0.00    +0.000 C 
ATOM     57  F6  UNL A   1      42.825  26.092  35.423  1.00  0.00    +0.000 F 
ATOM     58  C44 UNL A   1      45.067  26.156  36.141  1.00  0.00    +0.000 C 
ATOM     59  F7  UNL A   1      44.869  25.037  36.853  1.00  0.00    +0.000 F 
ATOM     60  C45 UNL A   1      46.308  26.775  36.152  1.00  0.00    +0.000 C 
ATOM     61  F8  UNL A   1      47.315  26.244  36.858  1.00  0.00    +0.000 F 
ATOM     62  C46 UNL A   1      46.502  27.949  35.441  1.00  0.00    +0.000 C 
ATOM     63  F9  UNL A   1      47.703  28.543  35.443  1.00  0.00    +0.000 F 
ATOM     64  C47 UNL A   1      45.449  28.515  34.728  1.00  0.00    +0.000 C 
ENDBRANCH   54   55
BRANCH   69   70
ATOM     70  C51 UNL A   1      39.269  32.528  36.377  1.00  0.00    +0.000 C 
ATOM     71  C52 UNL A   1      39.898  33.737  36.699  1.00  0.00    +0.000 C 
ATOM     72  F11 UNL A   1      40.837  34.242  35.885  1.00  0.00    +0.000 F 
ATOM     73  C53 UNL A   1      39.591  34.412  37.878  1.00  0.00    +0.000 C 
ATOM     74  F12 UNL A   1      40.240  35.545  38.186  1.00  0.00    +0.000 F 
ATOM     75  C54 UNL A   1      38.628  33.910  38.740  1.00  0.00    +0.000 C 
ATOM     76  F13 UNL A   1      38.331  34.562  39.871  1.00  0.00    +0.000 F 
ATOM     77  C55 UNL A   1      37.979  32.724  38.431  1.00  0.00    +0.000 C 
ATOM     78  F14 UNL A   1      37.036  32.241  39.252  1.00  0.00    +0.000 F 
ATOM     79  C56 UNL A   1      38.306  32.031  37.269  1.00  0.00    +0.000 C 
ATOM     80  F15 UNL A   1      37.672  30.881  37.000  1.00  0.00    +0.000 F 
ENDBRANCH   69   70
TORSDOF 17
ENDMDL
MODEL 2
REMARK VINA RESULT:     -11.4     16.845     22.467
ROOT
ATOM    129  H38 UNL A   1      23.461  36.948  46.983  1.00  0.00    +0.000 H 
ATOM     33  C27 UNL A   1      25.752  36.161  45.470  1.00  0.00    +0.000 C 
ATOM     34  C28 UNL A   1      25.634  37.300  46.440  1.00  0.00    +0.000 C 
ATOM     35  N4  UNL A   1      26.547  38.164  46.806  1.00  0.00    +0.000 N 
ATOM     36  C29 UNL A   1      25.923  39.022  47.702  1.00  0.00    +0.000 C 
ATOM     37  C30 UNL A   1      26.459  40.071  48.370  1.00  0.00    +0.000 C 
ATOM     49  C37 UNL A   1      27.835  40.485  48.267  1.00  0.00    +0.000 C 
ATOM     50  C38 UNL A   1      28.486  41.498  48.950  1.00  0.00    +0.000 C 
ATOM     51  C39 UNL A   1      29.803  41.567  48.485  1.00  0.00    +0.000 C 
ATOM     52  C40 UNL A   1      29.987  40.567  47.544  1.00  0.00    +0.000 C 
ATOM     53  N5  UNL A   1      28.773  39.910  47.420  1.00  0.00    +0.000 N 
ATOM     54  C41 UNL A   1      31.180  40.240  46.807  1.00  0.00    +0.000 C 
ATOM     66  C48 UNL A   1      31.299  39.211  45.934  1.00  0.00    +0.000 C 
ATOM     67  N6  UNL A   1      30.346  38.282  45.547  1.00  0.00    +0.000 N 
ATOM     68  C49 UNL A   1      30.933  37.514  44.662  1.00  0.00    +0.000 C 
ATOM     69  C50 UNL A   1      30.377  36.337  43.915  1.00  0.00    +0.000 C 
ATOM     81  C57 UNL A   1      29.098  35.976  44.129  1.00  0.00    +0.000 C 
ATOM     82  C58 UNL A   1      28.419  34.865  43.472  1.00  0.00    +0.000 C 
ATOM     83  C59 UNL A   1      27.139  34.847  43.865  1.00  0.00    +0.000 C 
ATOM     84  C60 UNL A   1      26.920  35.914  44.845  1.00  0.00    +0.000 C 
ATOM     85  N7  UNL A   1      28.142  36.528  44.945  1.00  0.00    +0.000 N 
ATOM     86  C61 UNL A   1      32.327  37.878  44.378  1.00  0.00    +0.000 C 
ATOM     87  C62 UNL A   1      32.512  38.895  45.207  1.00  0.00    +0.000 C 
ATOM     88  C63 UNL A   1      24.548  38.585  47.815  1.00  0.00    +0.000 C 
ATOM     89  C64 UNL A   1      24.326  37.502  47.081  1.00  0.00    +0.000 C 
ATOM    120  H29 UNL A   1      28.070  42.100  49.679  1.00  0.00    +0.000 H 
ATOM    121  H30 UNL A   1      30.516  42.248  48.791  1.00  0.00    +0.000 H 
ATOM    122  H31 UNL A   1      28.602  39.148  46.821  1.00  0.00    +0.000 H 
ATOM    123  H32 UNL A   1      28.856  34.201  42.814  1.00  0.00    +0.000 H 
ATOM    124  H33 UNL A   1      26.419  34.189  43.528  1.00  0.00    +0.000 H 
ATOM    125  H34 UNL A   1      28.315  37.292  45.542  1.00  0.00    +0.000 H 
ATOM    126  H35 UNL A   1      32.988  37.452  43.709  1.00  0.00    +0.000 H 
ATOM    127  H36 UNL A   1      33.406  39.398  45.320  1.00  0.00    +0.000 H 
ATOM    128  H37 UNL A   1      23.832  39.055  48.393  1.00  0.00    +0.000 H 
ENDROOT
BRANCH   33   32
ATOM    130  H39 UNL A   1      25.180  33.709  46.488  1.00  0.00    +0.000 H 
ATOM    131  H40 UNL A   1      23.222  32.335  46.064  1.00  0.00    +0.000 H 
ATOM    118  H27 UNL A   1      21.658  35.342  43.570  1.00  0.00    +0.000 H 
ATOM    119  H28 UNL A   1      23.713  36.602  43.798  1.00  0.00    +0.000 H 
ATOM     90  C65 UNL A   1      24.451  34.037  45.835  1.00  0.00    +0.000 C 
ATOM     91  C66 UNL A   1      23.319  33.252  45.603  1.00  0.00    +0.000 C 
ATOM     29  C23 UNL A   1      22.317  33.714  44.744  1.00  0.00    +0.000 C 
ATOM     30  C24 UNL A   1      22.432  34.970  44.141  1.00  0.00    +0.000 C 
ATOM     31  C25 UNL A   1      23.593  35.716  44.312  1.00  0.00    +0.000 C 
ATOM     32  C26 UNL A   1      24.602  35.269  45.180  1.00  0.00    +0.000 C 
BRANCH   29    2
ATOM      1  O1  UNL A   1      21.207  31.886  43.781  1.00  0.00    +0.000 O 
ATOM      2  C1  UNL A   1      21.125  32.872  44.506  1.00  0.00    +0.000 C 
BRANCH    2    3
ATOM      3  N1  UNL A   1      19.929  33.208  45.093  1.00  0.00    +0.000 N 
ATOM     92  H1  UNL A   1      19.818  32.923  46.029  1.00  0.00    +0.000 H 
BRANCH    3    4
ATOM      4  C2  UNL A   1      18.807  33.927  44.515  1.00  0.00    +0.000 C 
ATOM     93  H2  UNL A   1      19.088  34.952  44.382  1.00  0.00    +0.000 H 
ATOM     94  H3  UNL A   1      17.978  33.833  45.182  1.00  0.00    +0.000 H 
BRANCH    4    5
ATOM      5  C3  UNL A   1      18.389  33.356  43.166  1.00  0.00    +0.000 C 
ATOM     95  H4  UNL A   1      18.559  32.300  43.183  1.00  0.00    +0.000 H 
ATOM     96  H5  UNL A   1      18.975  33.863  42.427  1.00  0.00    +0.000 H 
BRANCH    5    6
ATOM     97  H6  UNL A   1      16.832  34.606  42.455  1.00  0.00    +0.000 H 
ATOM     98  H7  UNL A   1      16.360  33.397  43.687  1.00  0.00    +0.000 H 
ATOM      6  C4  UNL A   1      16.924  33.598  42.801  1.00  0.00    +0.000 C 
BRANCH    6    7
ATOM     99  H8  UNL A   1      16.908  32.847  40.815  1.00  0.00    +0.000 H 
ATOM    100  H9  UNL A   1      15.319  32.907  41.641  1.00  0.00    +0.000 H 
ATOM      7  C5  UNL A   1      16.360  32.672  41.718  1.00  0.00    +0.000 C 
BRANCH    7    8
ATOM    101  H10 UNL A   1      17.462  30.878  42.036  1.00  0.00    +0.000 H 
ATOM    102  H11 UNL A   1      15.862  30.671  41.276  1.00  0.00    +0.000 H 
ATOM      8  C6  UNL A   1      16.432  31.171  42.032  1.00  0.00    +0.000 C 
BRANCH    8    9
ATOM      9  C7  UNL A   1      15.818  30.779  43.376  1.00  0.00    +0.000 C 
ATOM    103  H12 UNL A   1      14.796  30.498  43.225  1.00  0.00    +0.000 H 
ATOM    104  H13 UNL A   1      15.883  31.617  44.037  1.00  0.00    +0.000 H 
BRANCH    9   10
ATOM    105  H14 UNL A   1      16.986  29.869  44.819  1.00  0.00    +0.000 H 
ATOM     10  N2  UNL A   1      16.531  29.668  43.970  1.00  0.00    +0.000 N 
BRANCH   10   11
ATOM     11  C8  UNL A   1      16.665  28.381  43.529  1.00  0.00    +0.000 C 
ATOM     12  O2  UNL A   1      17.811  27.953  43.395  1.00  0.00    +0.000 O 
BRANCH   11   13
ATOM    106  H15 UNL A   1      14.625  28.220  43.586  1.00  0.00    +0.000 H 
ATOM    107  H16 UNL A   1      14.881  26.178  44.789  1.00  0.00    +0.000 H 
ATOM    108  H17 UNL A   1      16.415  25.849  44.077  1.00  0.00    +0.000 H 
ATOM     13  C9  UNL A   1      15.401  27.580  43.220  1.00  0.00    +0.000 C 
ATOM     14  C10 UNL A   1      15.417  26.170  43.862  1.00  0.00    +0.000 C 
ATOM     15  C11 UNL A   1      14.729  25.236  42.856  1.00  0.00    +0.000 C 
ATOM     16  N3  UNL A   1      14.867  25.945  41.597  1.00  0.00    +0.000 N 
ATOM    109  H18 UNL A   1      13.699  25.095  43.106  1.00  0.00    +0.000 H 
ATOM    110  H19 UNL A   1      15.158  24.256  42.834  1.00  0.00    +0.000 H 
ATOM     17  C12 UNL A   1      14.765  25.626  40.276  1.00  0.00    +0.000 C 
ATOM    116  H25 UNL A   1      15.158  26.906  38.578  1.00  0.00    +0.000 H 
ATOM    117  H26 UNL A   1      15.695  28.792  40.345  1.00  0.00    +0.000 H 
ATOM     26  C20 UNL A   1      15.119  26.798  39.603  1.00  0.00    +0.000 C 
ATOM     27  C21 UNL A   1      15.416  27.819  40.546  1.00  0.00    +0.000 C 
ATOM     28  C22 UNL A   1      15.257  27.242  41.776  1.00  0.00    +0.000 C 
BRANCH   17   18
ATOM     18  C13 UNL A   1      14.435  24.358  39.645  1.00  0.00    +0.000 C 
ATOM     19  O3  UNL A   1      13.689  23.528  40.162  1.00  0.00    +0.000 O 
BRANCH   18   20
ATOM    111  H20 UNL A   1      16.320  22.573  39.100  1.00  0.00    +0.000 H 
ATOM    112  H21 UNL A   1      17.246  21.955  36.942  1.00  0.00    +0.000 H 
ATOM    113  H22 UNL A   1      16.443  23.038  34.925  1.00  0.00    +0.000 H 
ATOM    114  H23 UNL A   1      14.751  24.771  35.061  1.00  0.00    +0.000 H 
ATOM    115  H24 UNL A   1      13.839  25.414  37.221  1.00  0.00    +0.000 H 
ATOM     20  C14 UNL A   1      14.978  24.006  38.315  1.00  0.00    +0.000 C 
ATOM     21  C15 UNL A   1      15.979  23.031  38.241  1.00  0.00    +0.000 C 
ATOM     22  C16 UNL A   1      16.513  22.680  37.001  1.00  0.00    +0.000 C 
ATOM     23  C17 UNL A   1      16.057  23.308  35.843  1.00  0.00    +0.000 C 
ATOM     24  C18 UNL A   1      15.080  24.303  35.920  1.00  0.00    +0.000 C 
ATOM     25  C19 UNL A   1      14.547  24.665  37.159  1.00  0.00    +0.000 C 
ENDBRANCH   18   20
ENDBRANCH   17   18
ENDBRANCH   11   13
ENDBRANCH   10   11
ENDBRANCH    9   10
ENDBRANCH    8    9
ENDBRANCH    7    8
ENDBRANCH    6    7
ENDBRANCH    5    6
ENDBRANCH    4    5
ENDBRANCH    3    4
ENDBRANCH    2    3
ENDBRANCH   29    2
ENDBRANCH   33   32
BRANCH   37   38
ATOM     38  C31 UNL A   1      25.562  40.865  49.273  1.00  0.00    +0.000 C 
ATOM     39  C32 UNL A   1      24.820  41.956  48.799  1.00  0.00    +0.000 C 
ATOM     40  F1  UNL A   1      24.971  42.377  47.534  1.00  0.00    +0.000 F 
ATOM     41  C33 UNL A   1      23.925  42.627  49.629  1.00  0.00    +0.000 C 
ATOM     42  F2  UNL A   1      23.240  43.681  49.161  1.00  0.00    +0.000 F 
ATOM     43  C34 UNL A   1      23.740  42.209  50.938  1.00  0.00    +0.000 C 
ATOM     44  F3  UNL A   1      22.865  42.846  51.729  1.00  0.00    +0.000 F 
ATOM     45  C35 UNL A   1      24.462  41.132  51.427  1.00  0.00    +0.000 C 
ATOM     46  F4  UNL A   1      24.275  40.719  52.689  1.00  0.00    +0.000 F 
ATOM     47  C36 UNL A   1      25.372  40.471  50.607  1.00  0.00    +0.000 C 
ATOM     48  F5  UNL A   1      26.054  39.430  51.108  1.00  0.00    +0.000 F 
ENDBRANCH   37   38
BRANCH   54   55
ATOM     65  F10 UNL A   1      31.527  42.806  45.632  1.00  0.00    +0.000 F 
ATOM     55  C42 UNL A   1      32.397  41.086  47.028  1.00  0.00    +0.000 C 
ATOM     56  C43 UNL A   1      33.458  40.646  47.833  1.00  0.00    +0.000 C 
ATOM     57  F6  UNL A   1      33.384  39.459  48.456  1.00  0.00    +0.000 F 
ATOM     58  C44 UNL A   1      34.579  41.444  48.037  1.00  0.00    +0.000 C 
ATOM     59  F7  UNL A   1      35.558  41.025  48.851  1.00  0.00    +0.000 F 
ATOM     60  C45 UNL A   1      34.676  42.680  47.415  1.00  0.00    +0.000 C 
ATOM     61  F8  UNL A   1      35.757  43.447  47.612  1.00  0.00    +0.000 F 
ATOM     62  C46 UNL A   1      33.648  43.126  46.599  1.00  0.00    +0.000 C 
ATOM     63  F9  UNL A   1      33.744  44.316  45.990  1.00  0.00    +0.000 F 
ATOM     64  C47 UNL A   1      32.513  42.343  46.414  1.00  0.00    +0.000 C 
ENDBRANCH   54   55
BRANCH   69   70
ATOM     70  C51 UNL A   1      31.206  35.583  42.941  1.00  0.00    +0.000 C 
ATOM     71  C52 UNL A   1      31.882  34.416  43.319  1.00  0.00    +0.000 C 
ATOM     72  F11 UNL A   1      31.803  33.975  44.583  1.00  0.00    +0.000 F 
ATOM     73  C53 UNL A   1      32.674  33.720  42.408  1.00  0.00    +0.000 C 
ATOM     74  F12 UNL A   1      33.348  32.631  42.806  1.00  0.00    +0.000 F 
ATOM     75  C54 UNL A   1      32.778  34.157  41.097  1.00  0.00    +0.000 C 
ATOM     76  F13 UNL A   1      33.536  33.484  40.221  1.00  0.00    +0.000 F 
ATOM     77  C55 UNL A   1      32.101  35.299  40.696  1.00  0.00    +0.000 C 
ATOM     78  F14 UNL A   1      32.185  35.718  39.425  1.00  0.00    +0.000 F 
ATOM     79  C56 UNL A   1      31.335  36.014  41.612  1.00  0.00    +0.000 C 
ATOM     80  F15 UNL A   1      30.701  37.122  41.201  1.00  0.00    +0.000 F 
ENDBRANCH   69   70
TORSDOF 17
ENDMDL
MODEL 3
REMARK VINA RESULT:     -11.3     16.778     21.407
ROOT
ATOM    129  H38 UNL A   1      26.978  33.588  43.359  1.00  0.00    +0.000 H 
ATOM     33  C27 UNL A   1      26.086  35.414  45.366  1.00  0.00    +0.000 C 
ATOM     34  C28 UNL A   1      27.398  35.414  44.637  1.00  0.00    +0.000 C 
ATOM     35  N4  UNL A   1      28.402  36.246  44.754  1.00  0.00    +0.000 N 
ATOM     36  C29 UNL A   1      29.377  35.792  43.876  1.00  0.00    +0.000 C 
ATOM     37  C30 UNL A   1      30.594  36.331  43.623  1.00  0.00    +0.000 C 
ATOM     49  C37 UNL A   1      31.098  37.529  44.244  1.00  0.00    +0.000 C 
ATOM     50  C38 UNL A   1      32.294  38.186  44.009  1.00  0.00    +0.000 C 
ATOM     51  C39 UNL A   1      32.378  39.274  44.883  1.00  0.00    +0.000 C 
ATOM     52  C40 UNL A   1      31.214  39.323  45.632  1.00  0.00    +0.000 C 
ATOM     53  N5  UNL A   1      30.438  38.248  45.230  1.00  0.00    +0.000 N 
ATOM     54  C41 UNL A   1      30.842  40.276  46.645  1.00  0.00    +0.000 C 
ATOM     66  C48 UNL A   1      29.659  40.289  47.305  1.00  0.00    +0.000 C 
ATOM     67  N6  UNL A   1      28.583  39.423  47.183  1.00  0.00    +0.000 N 
ATOM     68  C49 UNL A   1      27.693  39.831  48.055  1.00  0.00    +0.000 C 
ATOM     69  C50 UNL A   1      26.334  39.270  48.351  1.00  0.00    +0.000 C 
ATOM     81  C57 UNL A   1      25.913  38.189  47.669  1.00  0.00    +0.000 C 
ATOM     82  C58 UNL A   1      24.627  37.528  47.853  1.00  0.00    +0.000 C 
ATOM     83  C59 UNL A   1      24.580  36.444  47.068  1.00  0.00    +0.000 C 
ATOM     84  C60 UNL A   1      25.814  36.364  46.282  1.00  0.00    +0.000 C 
ATOM     85  N7  UNL A   1      26.544  37.446  46.701  1.00  0.00    +0.000 N 
ATOM     86  C61 UNL A   1      28.111  41.000  48.840  1.00  0.00    +0.000 C 
ATOM     87  C62 UNL A   1      29.300  41.261  48.318  1.00  0.00    +0.000 C 
ATOM     88  C63 UNL A   1      28.853  34.602  43.242  1.00  0.00    +0.000 C 
ATOM     89  C64 UNL A   1      27.617  34.343  43.653  1.00  0.00    +0.000 C 
ATOM    120  H29 UNL A   1      33.003  37.918  43.307  1.00  0.00    +0.000 H 
ATOM    121  H30 UNL A   1      33.172  39.929  44.956  1.00  0.00    +0.000 H 
ATOM    122  H31 UNL A   1      29.549  38.028  45.591  1.00  0.00    +0.000 H 
ATOM    123  H32 UNL A   1      23.874  37.846  48.485  1.00  0.00    +0.000 H 
ATOM    124  H33 UNL A   1      23.799  35.770  47.025  1.00  0.00    +0.000 H 
ATOM    125  H34 UNL A   1      27.434  37.668  46.344  1.00  0.00    +0.000 H 
ATOM    126  H35 UNL A   1      27.609  41.489  49.598  1.00  0.00    +0.000 H 
ATOM    127  H36 UNL A   1      29.896  42.057  48.597  1.00  0.00    +0.000 H 
ATOM    128  H37 UNL A   1      29.372  34.027  42.559  1.00  0.00    +0.000 H 
ENDROOT
BRANCH   33   32
ATOM    130  H39 UNL A   1      25.726  32.990  46.537  1.00  0.00    +0.000 H 
ATOM    131  H40 UNL A   1      23.943  31.388  46.137  1.00  0.00    +0.000 H 
ATOM    118  H27 UNL A   1      22.193  34.033  43.371  1.00  0.00    +0.000 H 
ATOM    119  H28 UNL A   1      24.094  35.519  43.588  1.00  0.00    +0.000 H 
ATOM     90  C65 UNL A   1      24.998  33.192  45.833  1.00  0.00    +0.000 C 
ATOM     91  C66 UNL A   1      23.965  32.277  45.614  1.00  0.00    +0.000 C 
ATOM     29  C23 UNL A   1      22.962  32.569  44.685  1.00  0.00    +0.000 C 
ATOM     30  C24 UNL A   1      22.975  33.786  43.997  1.00  0.00    +0.000 C 
ATOM     31  C25 UNL A   1      24.042  34.662  44.159  1.00  0.00    +0.000 C 
ATOM     32  C26 UNL A   1      25.050  34.386  45.097  1.00  0.00    +0.000 C 
BRANCH   29    2
ATOM      1  O1  UNL A   1      22.035  30.417  44.788  1.00  0.00    +0.000 O 
ATOM      2  C1  UNL A   1      21.877  31.590  44.463  1.00  0.00    +0.000 C 
BRANCH    2    3
ATOM      3  N1  UNL A   1      20.702  32.000  43.882  1.00  0.00    +0.000 N 
ATOM     92  H1  UNL A   1      20.762  32.806  43.319  1.00  0.00    +0.000 H 
BRANCH    3    4
ATOM      4  C2  UNL A   1      19.382  31.402  43.989  1.00  0.00    +0.000 C 
ATOM     93  H2  UNL A   1      19.494  30.366  44.237  1.00  0.00    +0.000 H 
ATOM     94  H3  UNL A   1      18.888  31.527  43.049  1.00  0.00    +0.000 H 
BRANCH    4    5
ATOM      5  C3  UNL A   1      18.530  32.072  45.058  1.00  0.00    +0.000 C 
ATOM     95  H4  UNL A   1      19.174  32.377  45.856  1.00  0.00    +0.000 H 
ATOM     96  H5  UNL A   1      17.800  31.351  45.361  1.00  0.00    +0.000 H 
BRANCH    5    6
ATOM     97  H6  UNL A   1      18.318  33.758  43.790  1.00  0.00    +0.000 H 
ATOM     98  H7  UNL A   1      17.626  33.925  45.431  1.00  0.00    +0.000 H 
ATOM      6  C4  UNL A   1      17.755  33.299  44.574  1.00  0.00    +0.000 C 
BRANCH    6    7
ATOM     99  H8  UNL A   1      16.357  33.163  42.982  1.00  0.00    +0.000 H 
ATOM    100  H9  UNL A   1      15.692  33.676  44.565  1.00  0.00    +0.000 H 
ATOM      7  C5  UNL A   1      16.347  33.011  44.041  1.00  0.00    +0.000 C 
BRANCH    7    8
ATOM    101  H10 UNL A   1      14.883  31.680  44.829  1.00  0.00    +0.000 H 
ATOM    102  H11 UNL A   1      16.565  31.091  44.886  1.00  0.00    +0.000 H 
ATOM      8  C6  UNL A   1      15.816  31.596  44.311  1.00  0.00    +0.000 C 
BRANCH    8    9
ATOM      9  C7  UNL A   1      15.591  30.757  43.053  1.00  0.00    +0.000 C 
ATOM    103  H12 UNL A   1      15.720  31.379  42.191  1.00  0.00    +0.000 H 
ATOM    104  H13 UNL A   1      14.600  30.357  43.084  1.00  0.00    +0.000 H 
BRANCH    9   10
ATOM    105  H14 UNL A   1      17.374  29.855  42.523  1.00  0.00    +0.000 H 
ATOM     10  N2  UNL A   1      16.529  29.656  42.986  1.00  0.00    +0.000 N 
BRANCH   10   11
ATOM     11  C8  UNL A   1      16.417  28.383  43.471  1.00  0.00    +0.000 C 
ATOM     12  O2  UNL A   1      17.343  27.967  44.166  1.00  0.00    +0.000 O 
BRANCH   11   13
ATOM    106  H15 UNL A   1      14.378  28.215  43.413  1.00  0.00    +0.000 H 
ATOM    107  H16 UNL A   1      14.569  26.200  44.673  1.00  0.00    +0.000 H 
ATOM    108  H17 UNL A   1      16.144  25.863  44.059  1.00  0.00    +0.000 H 
ATOM     13  C9  UNL A   1      15.176  27.570  43.106  1.00  0.00    +0.000 C 
ATOM     14  C10 UNL A   1      15.159  26.175  43.780  1.00  0.00    +0.000 C 
ATOM     15  C11 UNL A   1      14.534  25.216  42.756  1.00  0.00    +0.000 C 
ATOM     16  N3  UNL A   1      14.742  25.898  41.491  1.00  0.00    +0.000 N 
ATOM    109  H18 UNL A   1      13.492  25.076  42.948  1.00  0.00    +0.000 H 
ATOM    110  H19 UNL A   1      14.967  24.237  42.780  1.00  0.00    +0.000 H 
ATOM     17  C12 UNL A   1      14.719  25.549  40.175  1.00  0.00    +0.000 C 
ATOM    116  H25 UNL A   1      15.207  26.793  38.474  1.00  0.00    +0.000 H 
ATOM    117  H26 UNL A   1      15.633  28.720  40.227  1.00  0.00    +0.000 H 
ATOM     26  C20 UNL A   1      15.108  26.708  39.497  1.00  0.00    +0.000 C 
ATOM     27  C21 UNL A   1      15.346  27.750  40.433  1.00  0.00    +0.000 C 
ATOM     28  C22 UNL A   1      15.117  27.200  41.664  1.00  0.00    +0.000 C 
BRANCH   17   18
ATOM     18  C13 UNL A   1      14.431  24.266  39.553  1.00  0.00    +0.000 C 
ATOM     19  O3  UNL A   1      13.715  23.415  40.079  1.00  0.00    +0.000 O 
BRANCH   18   20
ATOM    111  H20 UNL A   1      16.313  22.479  39.005  1.00  0.00    +0.000 H 
ATOM    112  H21 UNL A   1      17.250  21.876  36.848  1.00  0.00    +0.000 H 
ATOM    113  H22 UNL A   1      16.464  22.979  34.835  1.00  0.00    +0.000 H 
ATOM    114  H23 UNL A   1      14.778  24.717  34.975  1.00  0.00    +0.000 H 
ATOM    115  H24 UNL A   1      13.854  25.345  37.135  1.00  0.00    +0.000 H 
ATOM     20  C14 UNL A   1      14.981  23.924  38.224  1.00  0.00    +0.000 C 
ATOM     21  C15 UNL A   1      15.979  22.945  38.148  1.00  0.00    +0.000 C 
ATOM     22  C16 UNL A   1      16.520  22.603  36.909  1.00  0.00    +0.000 C 
ATOM     23  C17 UNL A   1      16.073  23.243  35.753  1.00  0.00    +0.000 C 
ATOM     24  C18 UNL A   1      15.099  24.240  35.832  1.00  0.00    +0.000 C 
ATOM     25  C19 UNL A   1      14.560  24.594  37.071  1.00  0.00    +0.000 C 
ENDBRANCH   18   20
ENDBRANCH   17   18
ENDBRANCH   11   13
ENDBRANCH   10   11
ENDBRANCH    9   10
ENDBRANCH    8    9
ENDBRANCH    7    8
ENDBRANCH    6    7
ENDBRANCH    5    6
ENDBRANCH    4    5
ENDBRANCH    3    4
ENDBRANCH    2    3
ENDBRANCH   29    2
ENDBRANCH   33   32
BRANCH   37   38
ATOM     38  C31 UNL A   1      31.485  35.632  42.639  1.00  0.00    +0.000 C 
ATOM     39  C32 UNL A   1      32.287  34.546  43.013  1.00  0.00    +0.000 C 
ATOM     40  F1  UNL A   1      32.348  34.164  44.299  1.00  0.00    +0.000 F 
ATOM     41  C33 UNL A   1      33.040  33.853  42.069  1.00  0.00    +0.000 C 
ATOM     42  F2  UNL A   1      33.817  32.829  42.453  1.00  0.00    +0.000 F 
ATOM     43  C34 UNL A   1      32.989  34.219  40.732  1.00  0.00    +0.000 C 
ATOM     44  F3  UNL A   1      33.701  33.538  39.822  1.00  0.00    +0.000 F 
ATOM     45  C35 UNL A   1      32.201  35.288  40.338  1.00  0.00    +0.000 C 
ATOM     46  F4  UNL A   1      32.141  35.635  39.045  1.00  0.00    +0.000 F 
ATOM     47  C36 UNL A   1      31.462  35.996  41.283  1.00  0.00    +0.000 C 
ATOM     48  F5  UNL A   1      30.706  37.025  40.871  1.00  0.00    +0.000 F 
ENDBRANCH   37   38
BRANCH   54   55
ATOM     65  F10 UNL A   1      30.558  42.975  45.796  1.00  0.00    +0.000 F 
ATOM     55  C42 UNL A   1      31.823  41.354  46.993  1.00  0.00    +0.000 C 
ATOM     56  C43 UNL A   1      32.964  41.083  47.763  1.00  0.00    +0.000 C 
ATOM     57  F6  UNL A   1      33.180  39.845  48.236  1.00  0.00    +0.000 F 
ATOM     58  C44 UNL A   1      33.864  42.094  48.087  1.00  0.00    +0.000 C 
ATOM     59  F7  UNL A   1      34.920  41.822  48.866  1.00  0.00    +0.000 F 
ATOM     60  C45 UNL A   1      33.658  43.384  47.622  1.00  0.00    +0.000 C 
ATOM     61  F8  UNL A   1      34.527  44.355  47.934  1.00  0.00    +0.000 F 
ATOM     62  C46 UNL A   1      32.548  43.669  46.842  1.00  0.00    +0.000 C 
ATOM     63  F9  UNL A   1      32.353  44.913  46.384  1.00  0.00    +0.000 F 
ATOM     64  C47 UNL A   1      31.632  42.667  46.539  1.00  0.00    +0.000 C 
ENDBRANCH   54   55
BRANCH   69   70
ATOM     70  C51 UNL A   1      25.460  39.877  49.387  1.00  0.00    +0.000 C 
ATOM     71  C52 UNL A   1      24.581  40.921  49.070  1.00  0.00    +0.000 C 
ATOM     72  F11 UNL A   1      24.535  41.401  47.819  1.00  0.00    +0.000 F 
ATOM     73  C53 UNL A   1      23.775  41.501  50.047  1.00  0.00    +0.000 C 
ATOM     74  F12 UNL A   1      22.976  42.529  49.729  1.00  0.00    +0.000 F 
ATOM     75  C54 UNL A   1      23.808  41.027  51.350  1.00  0.00    +0.000 C 
ATOM     76  F13 UNL A   1      23.029  41.583  52.287  1.00  0.00    +0.000 F 
ATOM     77  C55 UNL A   1      24.656  39.981  51.682  1.00  0.00    +0.000 C 
ATOM     78  F14 UNL A   1      24.681  39.509  52.936  1.00  0.00    +0.000 F 
ATOM     79  C56 UNL A   1      25.485  39.421  50.714  1.00  0.00    +0.000 C 
ATOM     80  F15 UNL A   1      26.304  38.419  51.065  1.00  0.00    +0.000 F 
ENDBRANCH   69   70
TORSDOF 17
ENDMDL
MODEL 4
REMARK VINA RESULT:     -11.1     20.803     25.773
ROOT
ATOM    129  H38 UNL A   1      54.397  18.705   9.358  1.00  0.00    +0.000 H 
ATOM     33  C27 UNL A   1      53.395  20.072  11.656  1.00  0.00    +0.000 C 
ATOM     34  C28 UNL A   1      54.747  19.448  11.472  1.00  0.00    +0.000 C 
ATOM     35  N4  UNL A   1      55.752  19.402  12.310  1.00  0.00    +0.000 N 
ATOM     36  C29 UNL A   1      56.756  18.693  11.664  1.00  0.00    +0.000 C 
ATOM     37  C30 UNL A   1      57.998  18.397  12.117  1.00  0.00    +0.000 C 
ATOM     49  C37 UNL A   1      58.513  18.799  13.400  1.00  0.00    +0.000 C 
ATOM     50  C38 UNL A   1      59.780  18.599  13.923  1.00  0.00    +0.000 C 
ATOM     51  C39 UNL A   1      59.806  19.115  15.223  1.00  0.00    +0.000 C 
ATOM     52  C40 UNL A   1      58.570  19.679  15.494  1.00  0.00    +0.000 C 
ATOM     53  N5  UNL A   1      57.787  19.479  14.368  1.00  0.00    +0.000 N 
ATOM     54  C41 UNL A   1      58.133  20.343  16.694  1.00  0.00    +0.000 C 
ATOM     66  C48 UNL A   1      56.918  20.916  16.869  1.00  0.00    +0.000 C 
ATOM     67  N6  UNL A   1      55.850  20.983  15.987  1.00  0.00    +0.000 N 
ATOM     68  C49 UNL A   1      54.893  21.606  16.630  1.00  0.00    +0.000 C 
ATOM     69  C50 UNL A   1      53.515  21.963  16.156  1.00  0.00    +0.000 C 
ATOM     81  C57 UNL A   1      53.141  21.611  14.913  1.00  0.00    +0.000 C 
ATOM     82  C58 UNL A   1      51.837  21.879  14.320  1.00  0.00    +0.000 C 
ATOM     83  C59 UNL A   1      51.790  21.319  13.104  1.00  0.00    +0.000 C 
ATOM     84  C60 UNL A   1      53.084  20.699  12.809  1.00  0.00    +0.000 C 
ATOM     85  N7  UNL A   1      53.827  20.927  13.938  1.00  0.00    +0.000 N 
ATOM     86  C61 UNL A   1      55.242  21.997  18.001  1.00  0.00    +0.000 C 
ATOM     87  C62 UNL A   1      56.499  21.586  18.084  1.00  0.00    +0.000 C 
ATOM     88  C63 UNL A   1      56.236  18.312  10.368  1.00  0.00    +0.000 C 
ATOM     89  C64 UNL A   1      55.009  18.784  10.185  1.00  0.00    +0.000 C 
ATOM    120  H29 UNL A   1      60.570  18.145  13.437  1.00  0.00    +0.000 H 
ATOM    121  H30 UNL A   1      60.610  19.082  15.869  1.00  0.00    +0.000 H 
ATOM    122  H31 UNL A   1      56.854  19.775  14.269  1.00  0.00    +0.000 H 
ATOM    123  H32 UNL A   1      51.075  22.414  14.765  1.00  0.00    +0.000 H 
ATOM    124  H33 UNL A   1      50.971  21.321  12.475  1.00  0.00    +0.000 H 
ATOM    125  H34 UNL A   1      54.760  20.630  14.040  1.00  0.00    +0.000 H 
ATOM    126  H35 UNL A   1      54.662  22.469  18.712  1.00  0.00    +0.000 H 
ATOM    127  H36 UNL A   1      57.104  21.725  18.909  1.00  0.00    +0.000 H 
ATOM    128  H37 UNL A   1      56.753  17.747   9.675  1.00  0.00    +0.000 H 
ENDROOT
BRANCH   33   32
ATOM    130  H39 UNL A   1      51.534  18.167  11.125  1.00  0.00    +0.000 H 
ATOM    131  H40 UNL A   1      49.803  18.204   9.422  1.00  0.00    +0.000 H 
ATOM    118  H27 UNL A   1      51.062  22.040   8.232  1.00  0.00    +0.000 H 
ATOM    119  H28 UNL A   1      52.935  21.900   9.762  1.00  0.00    +0.000 H 
ATOM     90  C65 UNL A   1      51.460  18.971  10.482  1.00  0.00    +0.000 C 
ATOM     91  C66 UNL A   1      50.455  18.998   9.512  1.00  0.00    +0.000 C 
ATOM     29  C23 UNL A   1      50.336  20.103   8.665  1.00  0.00    +0.000 C 
ATOM     30  C24 UNL A   1      51.200  21.193   8.805  1.00  0.00    +0.000 C 
ATOM     31  C25 UNL A   1      52.246  21.133   9.719  1.00  0.00    +0.000 C 
ATOM     32  C26 UNL A   1      52.372  20.034  10.583  1.00  0.00    +0.000 C 
BRANCH   29    2
ATOM      1  O1  UNL A   1      48.094  20.016   7.981  1.00  0.00    +0.000 O 
ATOM      2  C1  UNL A   1      49.269  20.117   7.641  1.00  0.00    +0.000 C 
BRANCH    2    3
ATOM      3  N1  UNL A   1      49.603  20.233   6.314  1.00  0.00    +0.000 N 
ATOM     92  H1  UNL A   1      50.019  21.086   6.051  1.00  0.00    +0.000 H 
BRANCH    3    4
ATOM      4  C2  UNL A   1      49.424  19.263   5.247  1.00  0.00    +0.000 C 
ATOM     93  H2  UNL A   1      49.973  19.592   4.389  1.00  0.00    +0.000 H 
ATOM     94  H3  UNL A   1      48.378  19.194   5.039  1.00  0.00    +0.000 H 
BRANCH    4    5
ATOM      5  C3  UNL A   1      49.915  17.877   5.640  1.00  0.00    +0.000 C 
ATOM     95  H4  UNL A   1      50.386  17.948   6.598  1.00  0.00    +0.000 H 
ATOM     96  H5  UNL A   1      50.584  17.561   4.867  1.00  0.00    +0.000 H 
BRANCH    5    6
ATOM     97  H6  UNL A   1      48.395  16.854   6.706  1.00  0.00    +0.000 H 
ATOM     98  H7  UNL A   1      49.288  15.882   5.498  1.00  0.00    +0.000 H 
ATOM      6  C4  UNL A   1      48.817  16.815   5.725  1.00  0.00    +0.000 C 
BRANCH    6    7
ATOM     99  H8  UNL A   1      47.727  16.152   4.028  1.00  0.00    +0.000 H 
ATOM    100  H9  UNL A   1      47.827  17.928   4.248  1.00  0.00    +0.000 H 
ATOM      7  C5  UNL A   1      47.678  16.974   4.711  1.00  0.00    +0.000 C 
BRANCH    7    8
ATOM    101  H10 UNL A   1      46.260  17.713   6.116  1.00  0.00    +0.000 H 
ATOM    102  H11 UNL A   1      46.039  16.013   5.625  1.00  0.00    +0.000 H 
ATOM      8  C6  UNL A   1      46.265  17.010   5.309  1.00  0.00    +0.000 C 
BRANCH    8    9
ATOM      9  C7  UNL A   1      45.172  17.413   4.318  1.00  0.00    +0.000 C 
ATOM    103  H12 UNL A   1      44.238  17.482   4.837  1.00  0.00    +0.000 H 
ATOM    104  H13 UNL A   1      45.121  16.672   3.549  1.00  0.00    +0.000 H 
BRANCH    9   10
ATOM    105  H14 UNL A   1      46.421  18.855   3.522  1.00  0.00    +0.000 H 
ATOM     10  N2  UNL A   1      45.469  18.692   3.707  1.00  0.00    +0.000 N 
BRANCH   10   11
ATOM     11  C8  UNL A   1      44.624  19.704   3.346  1.00  0.00    +0.000 C 
ATOM     12  O2  UNL A   1      44.735  20.767   3.955  1.00  0.00    +0.000 O 
BRANCH   11   13
ATOM    106  H15 UNL A   1      44.063  18.655   1.681  1.00  0.00    +0.000 H 
ATOM    107  H16 UNL A   1      43.876  20.726   0.514  1.00  0.00    +0.000 H 
ATOM    108  H17 UNL A   1      43.519  21.604   1.954  1.00  0.00    +0.000 H 
ATOM     13  C9  UNL A   1      43.603  19.443   2.240  1.00  0.00    +0.000 C 
ATOM     14  C10 UNL A   1      43.287  20.712   1.409  1.00  0.00    +0.000 C 
ATOM     15  C11 UNL A   1      41.793  20.634   1.064  1.00  0.00    +0.000 C 
ATOM     16  N3  UNL A   1      41.262  19.745   2.082  1.00  0.00    +0.000 N 
ATOM    109  H18 UNL A   1      41.646  20.227   0.086  1.00  0.00    +0.000 H 
ATOM    110  H19 UNL A   1      41.315  21.592   1.054  1.00  0.00    +0.000 H 
ATOM     17  C12 UNL A   1      40.029  19.447   2.576  1.00  0.00    +0.000 C 
ATOM    116  H25 UNL A   1      39.553  18.133   4.227  1.00  0.00    +0.000 H 
ATOM    117  H26 UNL A   1      42.150  17.700   4.403  1.00  0.00    +0.000 H 
ATOM     26  C20 UNL A   1      40.275  18.556   3.624  1.00  0.00    +0.000 C 
ATOM     27  C21 UNL A   1      41.672  18.320   3.731  1.00  0.00    +0.000 C 
ATOM     28  C22 UNL A   1      42.251  19.089   2.759  1.00  0.00    +0.000 C 
BRANCH   17   18
ATOM     18  C13 UNL A   1      38.721  19.956   2.192  1.00  0.00    +0.000 C 
ATOM     19  O3  UNL A   1      38.448  20.297   1.042  1.00  0.00    +0.000 O 
BRANCH   18   20
ATOM    111  H20 UNL A   1      37.736  22.184   3.242  1.00  0.00    +0.000 H 
ATOM    112  H21 UNL A   1      35.948  22.434   4.865  1.00  0.00    +0.000 H 
ATOM    113  H22 UNL A   1      34.824  20.470   5.741  1.00  0.00    +0.000 H 
ATOM    114  H23 UNL A   1      35.513  18.254   5.037  1.00  0.00    +0.000 H 
ATOM    115  H24 UNL A   1      37.321  17.995   3.432  1.00  0.00    +0.000 H 
ATOM     20  C14 UNL A   1      37.630  20.073   3.182  1.00  0.00    +0.000 C 
ATOM     21  C15 UNL A   1      37.256  21.350   3.614  1.00  0.00    +0.000 C 
ATOM     22  C16 UNL A   1      36.231  21.493   4.550  1.00  0.00    +0.000 C 
ATOM     23  C17 UNL A   1      35.591  20.363   5.060  1.00  0.00    +0.000 C 
ATOM     24  C18 UNL A   1      35.984  19.087   4.651  1.00  0.00    +0.000 C 
ATOM     25  C19 UNL A   1      37.015  18.937   3.721  1.00  0.00    +0.000 C 
ENDBRANCH   18   20
ENDBRANCH   17   18
ENDBRANCH   11   13
ENDBRANCH   10   11
ENDBRANCH    9   10
ENDBRANCH    8    9
ENDBRANCH    7    8
ENDBRANCH    6    7
ENDBRANCH    5    6
ENDBRANCH    4    5
ENDBRANCH    3    4
ENDBRANCH    2    3
ENDBRANCH   29    2
ENDBRANCH   33   32
BRANCH   37   38
ATOM     38  C31 UNL A   1      58.898  17.589  11.230  1.00  0.00    +0.000 C 
ATOM     39  C32 UNL A   1      59.767  18.197  10.313  1.00  0.00    +0.000 C 
ATOM     40  F1  UNL A   1      59.741  19.528  10.140  1.00  0.00    +0.000 F 
ATOM     41  C33 UNL A   1      60.659  17.438   9.560  1.00  0.00    +0.000 C 
ATOM     42  F2  UNL A   1      61.467  18.038   8.674  1.00  0.00    +0.000 F 
ATOM     43  C34 UNL A   1      60.715  16.061   9.725  1.00  0.00    +0.000 C 
ATOM     44  F3  UNL A   1      61.588  15.335   9.012  1.00  0.00    +0.000 F 
ATOM     45  C35 UNL A   1      59.867  15.439  10.627  1.00  0.00    +0.000 C 
ATOM     46  F4  UNL A   1      59.929  14.111  10.797  1.00  0.00    +0.000 F 
ATOM     47  C36 UNL A   1      58.960  16.193  11.367  1.00  0.00    +0.000 C 
ATOM     48  F5  UNL A   1      58.154  15.562  12.235  1.00  0.00    +0.000 F 
ENDBRANCH   37   38
BRANCH   54   55
ATOM     65  F10 UNL A   1      58.669  18.170  18.448  1.00  0.00    +0.000 F 
ATOM     55  C42 UNL A   1      59.095  20.431  17.840  1.00  0.00    +0.000 C 
ATOM     56  C43 UNL A   1      59.790  21.617  18.122  1.00  0.00    +0.000 C 
ATOM     57  F6  UNL A   1      59.629  22.695  17.339  1.00  0.00    +0.000 F 
ATOM     58  C44 UNL A   1      60.687  21.683  19.183  1.00  0.00    +0.000 C 
ATOM     59  F7  UNL A   1      61.378  22.811  19.404  1.00  0.00    +0.000 F 
ATOM     60  C45 UNL A   1      60.882  20.579  20.000  1.00  0.00    +0.000 C 
ATOM     61  F8  UNL A   1      61.746  20.647  21.023  1.00  0.00    +0.000 F 
ATOM     62  C46 UNL A   1      60.190  19.404  19.751  1.00  0.00    +0.000 C 
ATOM     63  F9  UNL A   1      60.370  18.340  20.545  1.00  0.00    +0.000 F 
ATOM     64  C47 UNL A   1      59.313  19.325  18.675  1.00  0.00    +0.000 C 
ENDBRANCH   54   55
BRANCH   69   70
ATOM     70  C51 UNL A   1      52.560  22.680  17.040  1.00  0.00    +0.000 C 
ATOM     71  C52 UNL A   1      52.428  24.073  16.981  1.00  0.00    +0.000 C 
ATOM     72  F11 UNL A   1      53.185  24.783  16.132  1.00  0.00    +0.000 F 
ATOM     73  C53 UNL A   1      51.545  24.745  17.823  1.00  0.00    +0.000 C 
ATOM     74  F12 UNL A   1      51.470  26.083  17.780  1.00  0.00    +0.000 F 
ATOM     75  C54 UNL A   1      50.754  24.036  18.715  1.00  0.00    +0.000 C 
ATOM     76  F13 UNL A   1      49.902  24.683  19.520  1.00  0.00    +0.000 F 
ATOM     77  C55 UNL A   1      50.854  22.654  18.776  1.00  0.00    +0.000 C 
ATOM     78  F14 UNL A   1      50.081  21.962  19.624  1.00  0.00    +0.000 F 
ATOM     79  C56 UNL A   1      51.759  21.983  17.958  1.00  0.00    +0.000 C 
ATOM     80  F15 UNL A   1      51.844  20.648  18.046  1.00  0.00    +0.000 F 
ENDBRANCH   69   70
TORSDOF 17
ENDMDL
MODEL 5
REMARK VINA RESULT:     -11.1     21.028     26.797
ROOT
ATOM    129  H38 UNL A   1      50.855  21.104  12.676  1.00  0.00    +0.000 H 
ATOM     33  C27 UNL A   1      53.247  19.858  11.737  1.00  0.00    +0.000 C 
ATOM     34  C28 UNL A   1      53.006  20.503  13.071  1.00  0.00    +0.000 C 
ATOM     35  N4  UNL A   1      53.826  20.626  14.084  1.00  0.00    +0.000 N 
ATOM     36  C29 UNL A   1      53.124  21.319  15.061  1.00  0.00    +0.000 C 
ATOM     37  C30 UNL A   1      53.540  21.673  16.300  1.00  0.00    +0.000 C 
ATOM     49  C37 UNL A   1      54.839  21.364  16.842  1.00  0.00    +0.000 C 
ATOM     50  C38 UNL A   1      55.331  21.629  18.108  1.00  0.00    +0.000 C 
ATOM     51  C39 UNL A   1      56.659  21.194  18.164  1.00  0.00    +0.000 C 
ATOM     52  C40 UNL A   1      56.982  20.618  16.946  1.00  0.00    +0.000 C 
ATOM     53  N5  UNL A   1      55.856  20.728  16.145  1.00  0.00    +0.000 N 
ATOM     54  C41 UNL A   1      58.226  20.018  16.541  1.00  0.00    +0.000 C 
ATOM     66  C48 UNL A   1      58.454  19.427  15.343  1.00  0.00    +0.000 C 
ATOM     67  N6  UNL A   1      57.592  19.279  14.267  1.00  0.00    +0.000 N 
ATOM     68  C49 UNL A   1      58.284  18.673  13.334  1.00  0.00    +0.000 C 
ATOM     69  C50 UNL A   1      57.853  18.253  11.960  1.00  0.00    +0.000 C 
ATOM     81  C57 UNL A   1      56.595  18.518  11.563  1.00  0.00    +0.000 C 
ATOM     82  C58 UNL A   1      56.037  18.181  10.259  1.00  0.00    +0.000 C 
ATOM     83  C59 UNL A   1      54.790  18.663  10.182  1.00  0.00    +0.000 C 
ATOM     84  C60 UNL A   1      54.440  19.296  11.457  1.00  0.00    +0.000 C 
ATOM     85  N7  UNL A   1      55.571  19.156  12.219  1.00  0.00    +0.000 N 
ATOM     86  C61 UNL A   1      59.672  18.376  13.710  1.00  0.00    +0.000 C 
ATOM     87  C62 UNL A   1      59.713  18.823  14.957  1.00  0.00    +0.000 C 
ATOM     88  C63 UNL A   1      51.814  21.605  14.516  1.00  0.00    +0.000 C 
ATOM     89  C64 UNL A   1      51.677  21.093  13.299  1.00  0.00    +0.000 C 
ATOM    120  H29 UNL A   1      54.807  22.070  18.881  1.00  0.00    +0.000 H 
ATOM    121  H30 UNL A   1      57.292  21.287  18.974  1.00  0.00    +0.000 H 
ATOM    122  H31 UNL A   1      55.789  20.402  15.218  1.00  0.00    +0.000 H 
ATOM    123  H32 UNL A   1      56.525  17.655   9.516  1.00  0.00    +0.000 H 
ATOM    124  H33 UNL A   1      54.174  18.601   9.356  1.00  0.00    +0.000 H 
ATOM    125  H34 UNL A   1      55.641  19.483  13.145  1.00  0.00    +0.000 H 
ATOM    126  H35 UNL A   1      60.419  17.935  13.151  1.00  0.00    +0.000 H 
ATOM    127  H36 UNL A   1      60.536  18.750  15.575  1.00  0.00    +0.000 H 
ATOM    128  H37 UNL A   1      51.081  22.139  15.009  1.00  0.00    +0.000 H 
ENDROOT
BRANCH   33   32
ATOM    130  H39 UNL A   1      52.488  21.762   9.957  1.00  0.00    +0.000 H 
ATOM    131  H40 UNL A   1      50.820  21.585   8.199  1.00  0.00    +0.000 H 
ATOM    118  H27 UNL A   1      50.131  17.572   9.266  1.00  0.00    +0.000 H 
ATOM    119  H28 UNL A   1      51.612  17.822  11.166  1.00  0.00    +0.000 H 
ATOM     90  C65 UNL A   1      51.957  20.885   9.836  1.00  0.00    +0.000 C 
ATOM     91  C66 UNL A   1      51.007  20.780   8.817  1.00  0.00    +0.000 C 
ATOM     29  C23 UNL A   1      50.314  19.580   8.634  1.00  0.00    +0.000 C 
ATOM     30  C24 UNL A   1      50.587  18.479   9.451  1.00  0.00    +0.000 C 
ATOM     31  C25 UNL A   1      51.476  18.608  10.512  1.00  0.00    +0.000 C 
ATOM     32  C26 UNL A   1      52.188  19.804  10.700  1.00  0.00    +0.000 C 
BRANCH   29    2
ATOM      1  O1  UNL A   1      48.462  20.360   7.424  1.00  0.00    +0.000 O 
ATOM      2  C1  UNL A   1      49.311  19.483   7.553  1.00  0.00    +0.000 C 
BRANCH    2    3
ATOM      3  N1  UNL A   1      49.330  18.404   6.703  1.00  0.00    +0.000 N 
ATOM     92  H1  UNL A   1      50.207  18.184   6.312  1.00  0.00    +0.000 H 
BRANCH    3    4
ATOM      4  C2  UNL A   1      48.229  17.544   6.306  1.00  0.00    +0.000 C 
ATOM     93  H2  UNL A   1      47.340  17.871   6.806  1.00  0.00    +0.000 H 
ATOM     94  H3  UNL A   1      48.482  16.540   6.575  1.00  0.00    +0.000 H 
BRANCH    4    5
ATOM      5  C3  UNL A   1      47.985  17.577   4.803  1.00  0.00    +0.000 C 
ATOM     95  H4  UNL A   1      47.759  16.584   4.479  1.00  0.00    +0.000 H 
ATOM     96  H5  UNL A   1      48.875  17.971   4.360  1.00  0.00    +0.000 H 
BRANCH    5    6
ATOM     97  H6  UNL A   1      47.230  19.485   4.269  1.00  0.00    +0.000 H 
ATOM     98  H7  UNL A   1      46.084  18.403   5.117  1.00  0.00    +0.000 H 
ATOM      6  C4  UNL A   1      46.840  18.494   4.367  1.00  0.00    +0.000 C 
BRANCH    6    7
ATOM     99  H8  UNL A   1      46.100  17.047   3.000  1.00  0.00    +0.000 H 
ATOM    100  H9  UNL A   1      46.785  18.533   2.270  1.00  0.00    +0.000 H 
ATOM      7  C5  UNL A   1      46.171  18.114   3.040  1.00  0.00    +0.000 C 
BRANCH    7    8
ATOM    101  H10 UNL A   1      44.313  18.843   3.780  1.00  0.00    +0.000 H 
ATOM    102  H11 UNL A   1      44.234  17.986   2.218  1.00  0.00    +0.000 H 
ATOM      8  C6  UNL A   1      44.766  18.692   2.822  1.00  0.00    +0.000 C 
BRANCH    8    9
ATOM      9  C7  UNL A   1      44.743  20.020   2.067  1.00  0.00    +0.000 C 
ATOM    103  H12 UNL A   1      45.749  20.351   1.909  1.00  0.00    +0.000 H 
ATOM    104  H13 UNL A   1      44.200  20.734   2.650  1.00  0.00    +0.000 H 
BRANCH    9   10
ATOM    105  H14 UNL A   1      44.684  19.698   0.025  1.00  0.00    +0.000 H 
ATOM     10  N2  UNL A   1      44.085  19.880   0.785  1.00  0.00    +0.000 N 
BRANCH   10   11
ATOM     11  C8  UNL A   1      42.757  19.959   0.472  1.00  0.00    +0.000 C 
ATOM     12  O2  UNL A   1      42.433  19.646  -0.674  1.00  0.00    +0.000 O 
BRANCH   11   13
ATOM    106  H15 UNL A   1      42.376  21.135   2.102  1.00  0.00    +0.000 H 
ATOM    107  H16 UNL A   1      41.755  19.169   3.300  1.00  0.00    +0.000 H 
ATOM    108  H17 UNL A   1      41.265  18.346   1.867  1.00  0.00    +0.000 H 
ATOM     13  C9  UNL A   1      41.781  20.441   1.545  1.00  0.00    +0.000 C 
ATOM     14  C10 UNL A   1      41.202  19.278   2.389  1.00  0.00    +0.000 C 
ATOM     15  C11 UNL A   1      39.745  19.657   2.692  1.00  0.00    +0.000 C 
ATOM     16  N3  UNL A   1      39.425  20.610   1.644  1.00  0.00    +0.000 N 
ATOM    109  H18 UNL A   1      39.659  20.107   3.658  1.00  0.00    +0.000 H 
ATOM    110  H19 UNL A   1      39.088  18.813   2.706  1.00  0.00    +0.000 H 
ATOM     17  C12 UNL A   1      38.286  21.134   1.112  1.00  0.00    +0.000 C 
ATOM    116  H25 UNL A   1      38.118  22.478  -0.574  1.00  0.00    +0.000 H 
ATOM    117  H26 UNL A   1      40.753  22.387  -0.687  1.00  0.00    +0.000 H 
ATOM     26  C20 UNL A   1      38.728  21.935   0.056  1.00  0.00    +0.000 C 
ATOM     27  C21 UNL A   1      40.146  21.888  -0.017  1.00  0.00    +0.000 C 
ATOM     28  C22 UNL A   1      40.539  21.043   0.983  1.00  0.00    +0.000 C 
BRANCH   17   18
ATOM     18  C13 UNL A   1      36.895  20.902   1.469  1.00  0.00    +0.000 C 
ATOM     19  O3  UNL A   1      36.002  20.777   0.633  1.00  0.00    +0.000 O 
BRANCH   18   20
ATOM    111  H20 UNL A   1      36.086  18.714   2.732  1.00  0.00    +0.000 H 
ATOM    112  H21 UNL A   1      35.402  18.465   5.048  1.00  0.00    +0.000 H 
ATOM    113  H22 UNL A   1      35.400  20.390   6.524  1.00  0.00    +0.000 H 
ATOM    114  H23 UNL A   1      36.033  22.575   5.682  1.00  0.00    +0.000 H 
ATOM    115  H24 UNL A   1      36.693  22.837   3.356  1.00  0.00    +0.000 H 
ATOM     20  C14 UNL A   1      36.483  20.785   2.884  1.00  0.00    +0.000 C 
ATOM     21  C15 UNL A   1      36.086  19.531   3.361  1.00  0.00    +0.000 C 
ATOM     22  C16 UNL A   1      35.689  19.389   4.691  1.00  0.00    +0.000 C 
ATOM     23  C17 UNL A   1      35.680  20.498   5.537  1.00  0.00    +0.000 C 
ATOM     24  C18 UNL A   1      36.049  21.755   5.054  1.00  0.00    +0.000 C 
ATOM     25  C19 UNL A   1      36.438  21.906   3.721  1.00  0.00    +0.000 C 
ENDBRANCH   18   20
ENDBRANCH   17   18
ENDBRANCH   11   13
ENDBRANCH   10   11
ENDBRANCH    9   10
ENDBRANCH    8    9
ENDBRANCH    7    8
ENDBRANCH    6    7
ENDBRANCH    5    6
ENDBRANCH    4    5
ENDBRANCH    3    4
ENDBRANCH    2    3
ENDBRANCH   29    2
ENDBRANCH   33   32
BRANCH   37   38
ATOM     38  C31 UNL A   1      52.593  22.447  17.169  1.00  0.00    +0.000 C 
ATOM     39  C32 UNL A   1      52.455  23.837  17.051  1.00  0.00    +0.000 C 
ATOM     40  F1  UNL A   1      53.248  24.526  16.215  1.00  0.00    +0.000 F 
ATOM     41  C33 UNL A   1      51.508  24.529  17.803  1.00  0.00    +0.000 C 
ATOM     42  F2  UNL A   1      51.408  25.861  17.690  1.00  0.00    +0.000 F 
ATOM     43  C34 UNL A   1      50.669  23.843  18.668  1.00  0.00    +0.000 C 
ATOM     44  F3  UNL A   1      49.746  24.509  19.377  1.00  0.00    +0.000 F 
ATOM     45  C35 UNL A   1      50.786  22.468  18.798  1.00  0.00    +0.000 C 
ATOM     46  F4  UNL A   1      49.966  21.802  19.625  1.00  0.00    +0.000 F 
ATOM     47  C36 UNL A   1      51.745  21.776  18.064  1.00  0.00    +0.000 C 
ATOM     48  F5  UNL A   1      51.832  20.445  18.209  1.00  0.00    +0.000 F 
ENDBRANCH   37   38
BRANCH   54   55
ATOM     65  F10 UNL A   1      59.904  22.275  16.963  1.00  0.00    +0.000 F 
ATOM     55  C42 UNL A   1      59.362  20.025  17.519  1.00  0.00    +0.000 C 
ATOM     56  C43 UNL A   1      59.673  18.894  18.288  1.00  0.00    +0.000 C 
ATOM     57  F6  UNL A   1      58.927  17.783  18.184  1.00  0.00    +0.000 F 
ATOM     58  C44 UNL A   1      60.724  18.916  19.199  1.00  0.00    +0.000 C 
ATOM     59  F7  UNL A   1      60.972  17.840  19.959  1.00  0.00    +0.000 F 
ATOM     60  C45 UNL A   1      61.503  20.055  19.334  1.00  0.00    +0.000 C 
ATOM     61  F8  UNL A   1      62.517  20.073  20.211  1.00  0.00    +0.000 F 
ATOM     62  C46 UNL A   1      61.227  21.178  18.570  1.00  0.00    +0.000 C 
ATOM     63  F9  UNL A   1      61.984  22.276  18.693  1.00  0.00    +0.000 F 
ATOM     64  C47 UNL A   1      60.159  21.169  17.678  1.00  0.00    +0.000 C 
ENDBRANCH   54   55
BRANCH   69   70
ATOM     70  C51 UNL A   1      58.791  17.568  11.035  1.00  0.00    +0.000 C 
ATOM     71  C52 UNL A   1      58.896  16.171  11.014  1.00  0.00    +0.000 C 
ATOM     72  F11 UNL A   1      58.156  15.432  11.853  1.00  0.00    +0.000 F 
ATOM     73  C53 UNL A   1      59.790  15.532  10.158  1.00  0.00    +0.000 C 
ATOM     74  F12 UNL A   1      59.904  14.197  10.190  1.00  0.00    +0.000 F 
ATOM     75  C54 UNL A   1      60.571  16.273   9.285  1.00  0.00    +0.000 C 
ATOM     76  F13 UNL A   1      61.427  15.657   8.460  1.00  0.00    +0.000 F 
ATOM     77  C55 UNL A   1      60.470  17.656   9.275  1.00  0.00    +0.000 C 
ATOM     78  F14 UNL A   1      61.211  18.377   8.422  1.00  0.00    +0.000 F 
ATOM     79  C56 UNL A   1      59.600  18.299  10.151  1.00  0.00    +0.000 C 
ATOM     80  F15 UNL A   1      59.531  19.638  10.128  1.00  0.00    +0.000 F 
ENDBRANCH   69   70
TORSDOF 17
ENDMDL
MODEL 6
REMARK VINA RESULT:     -11.0      1.648      2.419
ROOT
ATOM    129  H38 UNL A   1      37.775  28.755  27.330  1.00  0.00    +0.000 H 
ATOM     33  C27 UNL A   1      37.852  30.045  29.877  1.00  0.00    +0.000 C 
ATOM     34  C28 UNL A   1      38.881  29.134  29.273  1.00  0.00    +0.000 C 
ATOM     35  N4  UNL A   1      40.027  28.744  29.773  1.00  0.00    +0.000 N 
ATOM     36  C29 UNL A   1      40.583  27.891  28.829  1.00  0.00    +0.000 C 
ATOM     37  C30 UNL A   1      41.774  27.247  28.879  1.00  0.00    +0.000 C 
ATOM     49  C37 UNL A   1      42.712  27.356  29.967  1.00  0.00    +0.000 C 
ATOM     50  C38 UNL A   1      43.970  26.790  30.082  1.00  0.00    +0.000 C 
ATOM     51  C39 UNL A   1      44.492  27.127  31.335  1.00  0.00    +0.000 C 
ATOM     52  C40 UNL A   1      43.578  27.941  31.984  1.00  0.00    +0.000 C 
ATOM     53  N5  UNL A   1      42.492  28.074  31.134  1.00  0.00    +0.000 N 
ATOM     54  C41 UNL A   1      43.686  28.546  33.286  1.00  0.00    +0.000 C 
ATOM     66  C48 UNL A   1      42.767  29.375  33.838  1.00  0.00    +0.000 C 
ATOM     67  N6  UNL A   1      41.557  29.806  33.316  1.00  0.00    +0.000 N 
ATOM     68  C49 UNL A   1      41.019  30.565  34.239  1.00  0.00    +0.000 C 
ATOM     69  C50 UNL A   1      39.713  31.303  34.212  1.00  0.00    +0.000 C 
ATOM     81  C57 UNL A   1      38.931  31.203  33.122  1.00  0.00    +0.000 C 
ATOM     82  C58 UNL A   1      37.636  31.852  32.955  1.00  0.00    +0.000 C 
ATOM     83  C59 UNL A   1      37.106  31.468  31.786  1.00  0.00    +0.000 C 
ATOM     84  C60 UNL A   1      38.052  30.588  31.094  1.00  0.00    +0.000 C 
ATOM     85  N7  UNL A   1      39.110  30.492  31.960  1.00  0.00    +0.000 N 
ATOM     86  C61 UNL A   1      41.825  30.693  35.460  1.00  0.00    +0.000 C 
ATOM     87  C62 UNL A   1      42.897  29.979  35.149  1.00  0.00    +0.000 C 
ATOM     88  C63 UNL A   1      39.644  27.806  27.732  1.00  0.00    +0.000 C 
ATOM     89  C64 UNL A   1      38.588  28.583  27.941  1.00  0.00    +0.000 C 
ATOM    120  H29 UNL A   1      44.444  26.217  29.365  1.00  0.00    +0.000 H 
ATOM    121  H30 UNL A   1      45.403  26.821  31.711  1.00  0.00    +0.000 H 
ATOM    122  H31 UNL A   1      41.683  28.601  31.329  1.00  0.00    +0.000 H 
ATOM    123  H32 UNL A   1      37.200  32.502  33.628  1.00  0.00    +0.000 H 
ATOM    124  H33 UNL A   1      36.178  31.746  31.430  1.00  0.00    +0.000 H 
ATOM    125  H34 UNL A   1      39.919  29.964  31.768  1.00  0.00    +0.000 H 
ATOM    126  H35 UNL A   1      41.612  31.206  36.330  1.00  0.00    +0.000 H 
ATOM    127  H36 UNL A   1      43.719  29.867  35.762  1.00  0.00    +0.000 H 
ATOM    128  H37 UNL A   1      39.777  27.216  26.894  1.00  0.00    +0.000 H 
ENDROOT
BRANCH   33   32
ATOM    130  H39 UNL A   1      37.164  32.359  28.634  1.00  0.00    +0.000 H 
ATOM    131  H40 UNL A   1      35.145  32.831  27.367  1.00  0.00    +0.000 H 
ATOM    118  H27 UNL A   1      33.821  28.890  28.019  1.00  0.00    +0.000 H 
ATOM    119  H28 UNL A   1      35.711  28.495  29.480  1.00  0.00    +0.000 H 
ATOM     90  C65 UNL A   1      36.433  31.636  28.539  1.00  0.00    +0.000 C 
ATOM     91  C66 UNL A   1      35.279  31.904  27.798  1.00  0.00    +0.000 C 
ATOM     29  C23 UNL A   1      34.307  30.911  27.642  1.00  0.00    +0.000 C 
ATOM     30  C24 UNL A   1      34.501  29.644  28.200  1.00  0.00    +0.000 C 
ATOM     31  C25 UNL A   1      35.613  29.403  28.999  1.00  0.00    +0.000 C 
ATOM     32  C26 UNL A   1      36.602  30.387  29.156  1.00  0.00    +0.000 C 
BRANCH   29    2
ATOM      1  O1  UNL A   1      32.413  32.196  27.130  1.00  0.00    +0.000 O 
ATOM      2  C1  UNL A   1      33.090  31.209  26.858  1.00  0.00    +0.000 C 
BRANCH    2    3
ATOM      3  N1  UNL A   1      32.720  30.372  25.833  1.00  0.00    +0.000 N 
ATOM     92  H1  UNL A   1      32.395  30.815  25.016  1.00  0.00    +0.000 H 
BRANCH    3    4
ATOM      4  C2  UNL A   1      32.746  28.920  25.796  1.00  0.00    +0.000 C 
ATOM     93  H2  UNL A   1      31.798  28.569  25.447  1.00  0.00    +0.000 H 
ATOM     94  H3  UNL A   1      32.953  28.570  26.785  1.00  0.00    +0.000 H 
BRANCH    4    5
ATOM      5  C3  UNL A   1      33.835  28.387  24.875  1.00  0.00    +0.000 C 
ATOM     95  H4  UNL A   1      34.761  28.846  25.150  1.00  0.00    +0.000 H 
ATOM     96  H5  UNL A   1      33.531  28.623  23.876  1.00  0.00    +0.000 H 
BRANCH    5    6
ATOM     97  H6  UNL A   1      35.055  26.669  25.109  1.00  0.00    +0.000 H 
ATOM     98  H7  UNL A   1      33.674  26.497  23.984  1.00  0.00    +0.000 H 
ATOM      6  C4  UNL A   1      34.021  26.869  24.924  1.00  0.00    +0.000 C 
BRANCH    6    7
ATOM     99  H8  UNL A   1      32.164  26.237  25.738  1.00  0.00    +0.000 H 
ATOM    100  H9  UNL A   1      33.451  26.615  26.927  1.00  0.00    +0.000 H 
ATOM      7  C5  UNL A   1      33.199  26.147  25.998  1.00  0.00    +0.000 C 
BRANCH    7    8
ATOM    101  H10 UNL A   1      32.590  24.131  26.310  1.00  0.00    +0.000 H 
ATOM    102  H11 UNL A   1      34.162  24.578  27.026  1.00  0.00    +0.000 H 
ATOM      8  C6  UNL A   1      33.514  24.656  26.177  1.00  0.00    +0.000 C 
BRANCH    8    9
ATOM      9  C7  UNL A   1      34.257  24.024  25.000  1.00  0.00    +0.000 C 
ATOM    103  H12 UNL A   1      35.138  23.537  25.363  1.00  0.00    +0.000 H 
ATOM    104  H13 UNL A   1      34.513  24.796  24.305  1.00  0.00    +0.000 H 
BRANCH    9   10
ATOM    105  H14 UNL A   1      33.892  22.236  24.027  1.00  0.00    +0.000 H 
ATOM     10  N2  UNL A   1      33.426  23.051  24.321  1.00  0.00    +0.000 N 
BRANCH   10   11
ATOM     11  C8  UNL A   1      32.092  23.096  24.029  1.00  0.00    +0.000 C 
ATOM     12  O2  UNL A   1      31.345  22.408  24.724  1.00  0.00    +0.000 O 
BRANCH   11   13
ATOM    106  H15 UNL A   1      30.999  23.303  22.311  1.00  0.00    +0.000 H 
ATOM    107  H16 UNL A   1      33.001  23.946  21.187  1.00  0.00    +0.000 H 
ATOM    108  H17 UNL A   1      33.710  24.574  22.627  1.00  0.00    +0.000 H 
ATOM     13  C9  UNL A   1      31.628  23.969  22.864  1.00  0.00    +0.000 C 
ATOM     14  C10 UNL A   1      32.810  24.552  22.049  1.00  0.00    +0.000 C 
ATOM     15  C11 UNL A   1      32.378  25.963  21.624  1.00  0.00    +0.000 C 
ATOM     16  N3  UNL A   1      31.349  26.302  22.590  1.00  0.00    +0.000 N 
ATOM    109  H18 UNL A   1      31.984  25.960  20.629  1.00  0.00    +0.000 H 
ATOM    110  H19 UNL A   1      33.188  26.663  21.611  1.00  0.00    +0.000 H 
ATOM     17  C12 UNL A   1      30.738  27.444  23.010  1.00  0.00    +0.000 C 
ATOM    116  H25 UNL A   1      29.287  27.653  24.600  1.00  0.00    +0.000 H 
ATOM    117  H26 UNL A   1      29.502  25.040  24.903  1.00  0.00    +0.000 H 
ATOM     26  C20 UNL A   1      29.897  27.032  24.047  1.00  0.00    +0.000 C 
ATOM     27  C21 UNL A   1      30.009  25.626  24.222  1.00  0.00    +0.000 C 
ATOM     28  C22 UNL A   1      30.932  25.212  23.302  1.00  0.00    +0.000 C 
BRANCH   17   18
ATOM     18  C13 UNL A   1      30.922  28.818  22.569  1.00  0.00    +0.000 C 
ATOM     19  O3  UNL A   1      31.979  29.232  22.097  1.00  0.00    +0.000 O 
BRANCH   18   20
ATOM    111  H20 UNL A   1      29.137  29.395  20.694  1.00  0.00    +0.000 H 
ATOM    112  H21 UNL A   1      27.307  30.988  20.780  1.00  0.00    +0.000 H 
ATOM    113  H22 UNL A   1      26.943  32.307  22.783  1.00  0.00    +0.000 H 
ATOM    114  H23 UNL A   1      28.432  32.076  24.684  1.00  0.00    +0.000 H 
ATOM    115  H24 UNL A   1      30.283  30.502  24.595  1.00  0.00    +0.000 H 
ATOM     20  C14 UNL A   1      29.818  29.798  22.655  1.00  0.00    +0.000 C 
ATOM     21  C15 UNL A   1      28.980  29.956  21.545  1.00  0.00    +0.000 C 
ATOM     22  C16 UNL A   1      27.931  30.874  21.594  1.00  0.00    +0.000 C 
ATOM     23  C17 UNL A   1      27.728  31.638  22.743  1.00  0.00    +0.000 C 
ATOM     24  C18 UNL A   1      28.581  31.502  23.839  1.00  0.00    +0.000 C 
ATOM     25  C19 UNL A   1      29.639  30.591  23.794  1.00  0.00    +0.000 C 
ENDBRANCH   18   20
ENDBRANCH   17   18
ENDBRANCH   11   13
ENDBRANCH   10   11
ENDBRANCH    9   10
ENDBRANCH    8    9
ENDBRANCH    7    8
ENDBRANCH    6    7
ENDBRANCH    5    6
ENDBRANCH    4    5
ENDBRANCH    3    4
ENDBRANCH    2    3
ENDBRANCH   29    2
ENDBRANCH   33   32
BRANCH   37   38
ATOM     38  C31 UNL A   1      42.142  26.353  27.732  1.00  0.00    +0.000 C 
ATOM     39  C32 UNL A   1      43.039  26.765  26.737  1.00  0.00    +0.000 C 
ATOM     40  F1  UNL A   1      43.519  28.019  26.737  1.00  0.00    +0.000 F 
ATOM     41  C33 UNL A   1      43.439  25.892  25.728  1.00  0.00    +0.000 C 
ATOM     42  F2  UNL A   1      44.281  26.314  24.774  1.00  0.00    +0.000 F 
ATOM     43  C34 UNL A   1      42.968  24.588  25.707  1.00  0.00    +0.000 C 
ATOM     44  F3  UNL A   1      43.368  23.744  24.745  1.00  0.00    +0.000 F 
ATOM     45  C35 UNL A   1      42.082  24.158  26.683  1.00  0.00    +0.000 C 
ATOM     46  F4  UNL A   1      41.636  22.894  26.671  1.00  0.00    +0.000 F 
ATOM     47  C36 UNL A   1      41.664  25.034  27.681  1.00  0.00    +0.000 C 
ATOM     48  F5  UNL A   1      40.809  24.588  28.614  1.00  0.00    +0.000 F 
ENDBRANCH   37   38
BRANCH   54   55
ATOM     65  F10 UNL A   1      46.032  30.149  33.183  1.00  0.00    +0.000 F 
ATOM     55  C42 UNL A   1      44.913  28.258  34.097  1.00  0.00    +0.000 C 
ATOM     56  C43 UNL A   1      44.977  27.155  34.961  1.00  0.00    +0.000 C 
ATOM     57  F6  UNL A   1      43.914  26.348  35.103  1.00  0.00    +0.000 F 
ATOM     58  C44 UNL A   1      46.119  26.903  35.715  1.00  0.00    +0.000 C 
ATOM     59  F7  UNL A   1      46.139  25.872  36.571  1.00  0.00    +0.000 F 
ATOM     60  C45 UNL A   1      47.227  27.729  35.596  1.00  0.00    +0.000 C 
ATOM     61  F8  UNL A   1      48.326  27.483  36.323  1.00  0.00    +0.000 F 
ATOM     62  C46 UNL A   1      47.192  28.814  34.733  1.00  0.00    +0.000 C 
ATOM     63  F9  UNL A   1      48.266  29.606  34.610  1.00  0.00    +0.000 F 
ATOM     64  C47 UNL A   1      46.043  29.084  33.998  1.00  0.00    +0.000 C 
ENDBRANCH   54   55
BRANCH   69   70
ATOM     70  C51 UNL A   1      39.269  32.123  35.368  1.00  0.00    +0.000 C 
ATOM     71  C52 UNL A   1      38.484  31.571  36.387  1.00  0.00    +0.000 C 
ATOM     72  F11 UNL A   1      38.104  30.286  36.318  1.00  0.00    +0.000 F 
ATOM     73  C53 UNL A   1      38.053  32.346  37.461  1.00  0.00    +0.000 C 
ATOM     74  F12 UNL A   1      37.264  31.805  38.401  1.00  0.00    +0.000 F 
ATOM     75  C54 UNL A   1      38.426  33.678  37.554  1.00  0.00    +0.000 C 
ATOM     76  F13 UNL A   1      38.016  34.421  38.589  1.00  0.00    +0.000 F 
ATOM     77  C55 UNL A   1      39.220  34.241  36.566  1.00  0.00    +0.000 C 
ATOM     78  F14 UNL A   1      39.597  35.524  36.658  1.00  0.00    +0.000 F 
ATOM     79  C56 UNL A   1      39.625  33.477  35.476  1.00  0.00    +0.000 C 
ATOM     80  F15 UNL A   1      40.383  34.049  34.529  1.00  0.00    +0.000 F 
ENDBRANCH   69   70
TORSDOF 17
ENDMDL
MODEL 7
REMARK VINA RESULT:     -11.0      2.951      4.476
ROOT
ATOM    129  H38 UNL A   1      38.795  26.964  27.677  1.00  0.00    +0.000 H 
ATOM     33  C27 UNL A   1      39.765  28.969  29.466  1.00  0.00    +0.000 C 
ATOM     34  C28 UNL A   1      40.478  27.739  28.985  1.00  0.00    +0.000 C 
ATOM     35  N4  UNL A   1      41.688  27.327  29.270  1.00  0.00    +0.000 N 
ATOM     36  C29 UNL A   1      41.853  26.129  28.589  1.00  0.00    +0.000 C 
ATOM     37  C30 UNL A   1      42.946  25.329  28.553  1.00  0.00    +0.000 C 
ATOM     49  C37 UNL A   1      44.182  25.608  29.238  1.00  0.00    +0.000 C 
ATOM     50  C38 UNL A   1      45.364  24.888  29.213  1.00  0.00    +0.000 C 
ATOM     51  C39 UNL A   1      46.276  25.509  30.073  1.00  0.00    +0.000 C 
ATOM     52  C40 UNL A   1      45.677  26.642  30.600  1.00  0.00    +0.000 C 
ATOM     53  N5  UNL A   1      44.394  26.691  30.079  1.00  0.00    +0.000 N 
ATOM     54  C41 UNL A   1      46.233  27.604  31.516  1.00  0.00    +0.000 C 
ATOM     66  C48 UNL A   1      45.601  28.720  31.952  1.00  0.00    +0.000 C 
ATOM     67  N6  UNL A   1      44.326  29.174  31.649  1.00  0.00    +0.000 N 
ATOM     68  C49 UNL A   1      44.165  30.276  32.341  1.00  0.00    +0.000 C 
ATOM     69  C50 UNL A   1      42.978  31.193  32.393  1.00  0.00    +0.000 C 
ATOM     81  C57 UNL A   1      41.890  30.892  31.662  1.00  0.00    +0.000 C 
ATOM     82  C58 UNL A   1      40.663  31.678  31.619  1.00  0.00    +0.000 C 
ATOM     83  C59 UNL A   1      39.766  31.043  30.853  1.00  0.00    +0.000 C 
ATOM     84  C60 UNL A   1      40.377  29.829  30.304  1.00  0.00    +0.000 C 
ATOM     85  N7  UNL A   1      41.641  29.825  30.834  1.00  0.00    +0.000 N 
ATOM     86  C61 UNL A   1      45.318  30.640  33.172  1.00  0.00    +0.000 C 
ATOM     87  C62 UNL A   1      46.180  29.680  32.870  1.00  0.00    +0.000 C 
ATOM     88  C63 UNL A   1      40.615  25.869  27.887  1.00  0.00    +0.000 C 
ATOM     89  C64 UNL A   1      39.743  26.852  28.071  1.00  0.00    +0.000 C 
ATOM    120  H29 UNL A   1      45.543  24.038  28.655  1.00  0.00    +0.000 H 
ATOM    121  H30 UNL A   1      47.231  25.179  30.280  1.00  0.00    +0.000 H 
ATOM    122  H31 UNL A   1      43.731  27.392  30.276  1.00  0.00    +0.000 H 
ATOM    123  H32 UNL A   1      40.511  32.579  32.101  1.00  0.00    +0.000 H 
ATOM    124  H33 UNL A   1      38.799  31.357  30.679  1.00  0.00    +0.000 H 
ATOM    125  H34 UNL A   1      42.305  29.124  30.640  1.00  0.00    +0.000 H 
ATOM    126  H35 UNL A   1      45.429  31.436  33.821  1.00  0.00    +0.000 H 
ATOM    127  H36 UNL A   1      47.141  29.622  33.241  1.00  0.00    +0.000 H 
ATOM    128  H37 UNL A   1      40.433  25.027  27.316  1.00  0.00    +0.000 H 
ENDROOT
BRANCH   33   32
ATOM    130  H39 UNL A   1      37.445  28.835  30.871  1.00  0.00    +0.000 H 
ATOM    131  H40 UNL A   1      35.217  29.470  30.140  1.00  0.00    +0.000 H 
ATOM    118  H27 UNL A   1      36.786  30.682  26.427  1.00  0.00    +0.000 H 
ATOM    119  H28 UNL A   1      38.959  29.825  27.065  1.00  0.00    +0.000 H 
ATOM     90  C65 UNL A   1      37.298  29.188  29.912  1.00  0.00    +0.000 C 
ATOM     91  C66 UNL A   1      36.018  29.566  29.497  1.00  0.00    +0.000 C 
ATOM     29  C23 UNL A   1      35.827  30.076  28.210  1.00  0.00    +0.000 C 
ATOM     30  C24 UNL A   1      36.916  30.234  27.348  1.00  0.00    +0.000 C 
ATOM     31  C25 UNL A   1      38.174  29.787  27.734  1.00  0.00    +0.000 C 
ATOM     32  C26 UNL A   1      38.383  29.284  29.028  1.00  0.00    +0.000 C 
BRANCH   29    2
ATOM      1  O1  UNL A   1      33.983  31.525  28.184  1.00  0.00    +0.000 O 
ATOM      2  C1  UNL A   1      34.467  30.470  27.784  1.00  0.00    +0.000 C 
BRANCH    2    3
ATOM      3  N1  UNL A   1      33.751  29.647  26.950  1.00  0.00    +0.000 N 
ATOM     92  H1  UNL A   1      34.099  29.561  26.033  1.00  0.00    +0.000 H 
BRANCH    3    4
ATOM      4  C2  UNL A   1      32.549  28.885  27.243  1.00  0.00    +0.000 C 
ATOM     93  H2  UNL A   1      31.707  29.401  26.831  1.00  0.00    +0.000 H 
ATOM     94  H3  UNL A   1      32.470  28.793  28.306  1.00  0.00    +0.000 H 
BRANCH    4    5
ATOM      5  C3  UNL A   1      32.600  27.481  26.655  1.00  0.00    +0.000 C 
ATOM     95  H4  UNL A   1      31.623  27.234  26.297  1.00  0.00    +0.000 H 
ATOM     96  H5  UNL A   1      32.935  26.835  27.440  1.00  0.00    +0.000 H 
BRANCH    5    6
ATOM     97  H6  UNL A   1      34.367  28.035  25.624  1.00  0.00    +0.000 H 
ATOM     98  H7  UNL A   1      33.023  27.441  24.603  1.00  0.00    +0.000 H 
ATOM      6  C4  UNL A   1      33.589  27.312  25.501  1.00  0.00    +0.000 C 
BRANCH    6    7
ATOM     99  H8  UNL A   1      35.242  26.005  25.765  1.00  0.00    +0.000 H 
ATOM    100  H9  UNL A   1      34.179  25.650  24.367  1.00  0.00    +0.000 H 
ATOM      7  C5  UNL A   1      34.240  25.927  25.398  1.00  0.00    +0.000 C 
BRANCH    7    8
ATOM    101  H10 UNL A   1      32.490  24.848  25.952  1.00  0.00    +0.000 H 
ATOM    102  H11 UNL A   1      33.742  24.980  27.215  1.00  0.00    +0.000 H 
ATOM      8  C6  UNL A   1      33.536  24.809  26.179  1.00  0.00    +0.000 C 
BRANCH    8    9
ATOM      9  C7  UNL A   1      34.042  23.403  25.858  1.00  0.00    +0.000 C 
ATOM    103  H12 UNL A   1      33.634  22.714  26.569  1.00  0.00    +0.000 H 
ATOM    104  H13 UNL A   1      35.110  23.406  25.909  1.00  0.00    +0.000 H 
BRANCH    9   10
ATOM    105  H14 UNL A   1      34.386  22.861  23.893  1.00  0.00    +0.000 H 
ATOM     10  N2  UNL A   1      33.645  22.997  24.526  1.00  0.00    +0.000 N 
BRANCH   10   11
ATOM     11  C8  UNL A   1      32.396  22.774  24.017  1.00  0.00    +0.000 C 
ATOM     12  O2  UNL A   1      31.765  21.826  24.482  1.00  0.00    +0.000 O 
BRANCH   11   13
ATOM    106  H15 UNL A   1      31.281  23.034  22.322  1.00  0.00    +0.000 H 
ATOM    107  H16 UNL A   1      33.242  23.830  21.226  1.00  0.00    +0.000 H 
ATOM    108  H17 UNL A   1      33.936  24.403  22.696  1.00  0.00    +0.000 H 
ATOM     13  C9  UNL A   1      31.884  23.694  22.909  1.00  0.00    +0.000 C 
ATOM     14  C10 UNL A   1      33.032  24.375  22.123  1.00  0.00    +0.000 C 
ATOM     15  C11 UNL A   1      32.535  25.788  21.785  1.00  0.00    +0.000 C 
ATOM     16  N3  UNL A   1      31.501  26.024  22.776  1.00  0.00    +0.000 N 
ATOM    109  H18 UNL A   1      32.133  25.826  20.795  1.00  0.00    +0.000 H 
ATOM    110  H19 UNL A   1      33.314  26.523  21.809  1.00  0.00    +0.000 H 
ATOM     17  C12 UNL A   1      30.844  27.111  23.267  1.00  0.00    +0.000 C 
ATOM    116  H25 UNL A   1      29.399  27.161  24.876  1.00  0.00    +0.000 H 
ATOM    117  H26 UNL A   1      29.732  24.547  25.021  1.00  0.00    +0.000 H 
ATOM     26  C20 UNL A   1      30.031  26.601  24.283  1.00  0.00    +0.000 C 
ATOM     27  C21 UNL A   1      30.207  25.194  24.374  1.00  0.00    +0.000 C 
ATOM     28  C22 UNL A   1      31.139  24.877  23.425  1.00  0.00    +0.000 C 
BRANCH   17   18
ATOM     18  C13 UNL A   1      30.964  28.515  22.907  1.00  0.00    +0.000 C 
ATOM     19  O3  UNL A   1      31.998  29.003  22.455  1.00  0.00    +0.000 O 
BRANCH   18   20
ATOM    111  H20 UNL A   1      30.855  30.718  24.382  1.00  0.00    +0.000 H 
ATOM    112  H21 UNL A   1      29.006  32.267  24.659  1.00  0.00    +0.000 H 
ATOM    113  H22 UNL A   1      26.911  31.873  23.501  1.00  0.00    +0.000 H 
ATOM    114  H23 UNL A   1      26.639  29.909  22.104  1.00  0.00    +0.000 H 
ATOM    115  H24 UNL A   1      28.477  28.338  21.843  1.00  0.00    +0.000 H 
ATOM     20  C14 UNL A   1      29.818  29.438  23.056  1.00  0.00    +0.000 C 
ATOM     21  C15 UNL A   1      29.964  30.553  23.889  1.00  0.00    +0.000 C 
ATOM     22  C16 UNL A   1      28.900  31.440  24.051  1.00  0.00    +0.000 C 
ATOM     23  C17 UNL A   1      27.693  31.209  23.391  1.00  0.00    +0.000 C 
ATOM     24  C18 UNL A   1      27.537  30.081  22.583  1.00  0.00    +0.000 C 
ATOM     25  C19 UNL A   1      28.595  29.183  22.424  1.00  0.00    +0.000 C 
ENDBRANCH   18   20
ENDBRANCH   17   18
ENDBRANCH   11   13
ENDBRANCH   10   11
ENDBRANCH    9   10
ENDBRANCH    8    9
ENDBRANCH    7    8
ENDBRANCH    6    7
ENDBRANCH    5    6
ENDBRANCH    4    5
ENDBRANCH    3    4
ENDBRANCH    2    3
ENDBRANCH   29    2
ENDBRANCH   33   32
BRANCH   37   38
ATOM     38  C31 UNL A   1      42.866  24.061  27.754  1.00  0.00    +0.000 C 
ATOM     39  C32 UNL A   1      42.473  22.848  28.336  1.00  0.00    +0.000 C 
ATOM     40  F1  UNL A   1      42.248  22.775  29.657  1.00  0.00    +0.000 F 
ATOM     41  C33 UNL A   1      42.319  21.700  27.563  1.00  0.00    +0.000 C 
ATOM     42  F2  UNL A   1      41.961  20.545  28.143  1.00  0.00    +0.000 F 
ATOM     43  C34 UNL A   1      42.534  21.748  26.193  1.00  0.00    +0.000 C 
ATOM     44  F3  UNL A   1      42.367  20.645  25.449  1.00  0.00    +0.000 F 
ATOM     45  C35 UNL A   1      42.922  22.937  25.596  1.00  0.00    +0.000 C 
ATOM     46  F4  UNL A   1      43.117  22.987  24.271  1.00  0.00    +0.000 F 
ATOM     47  C36 UNL A   1      43.096  24.082  26.370  1.00  0.00    +0.000 C 
ATOM     48  F5  UNL A   1      43.469  25.219  25.763  1.00  0.00    +0.000 F 
ENDBRANCH   37   38
BRANCH   54   55
ATOM     65  F10 UNL A   1      46.811  26.089  33.853  1.00  0.00    +0.000 F 
ATOM     55  C42 UNL A   1      47.625  27.373  32.021  1.00  0.00    +0.000 C 
ATOM     56  C43 UNL A   1      48.740  27.910  31.362  1.00  0.00    +0.000 C 
ATOM     57  F6  UNL A   1      48.580  28.619  30.234  1.00  0.00    +0.000 F 
ATOM     58  C44 UNL A   1      50.028  27.681  31.835  1.00  0.00    +0.000 C 
ATOM     59  F7  UNL A   1      51.083  28.162  31.161  1.00  0.00    +0.000 F 
ATOM     60  C45 UNL A   1      50.223  26.940  32.992  1.00  0.00    +0.000 C 
ATOM     61  F8  UNL A   1      51.465  26.723  33.447  1.00  0.00    +0.000 F 
ATOM     62  C46 UNL A   1      49.133  26.417  33.670  1.00  0.00    +0.000 C 
ATOM     63  F9  UNL A   1      49.320  25.710  34.793  1.00  0.00    +0.000 F 
ATOM     64  C47 UNL A   1      47.845  26.621  33.185  1.00  0.00    +0.000 C 
ENDBRANCH   54   55
BRANCH   69   70
ATOM     70  C51 UNL A   1      42.983  32.408  33.246  1.00  0.00    +0.000 C 
ATOM     71  C52 UNL A   1      42.528  32.364  34.571  1.00  0.00    +0.000 C 
ATOM     72  F11 UNL A   1      42.061  31.215  35.080  1.00  0.00    +0.000 F 
ATOM     73  C53 UNL A   1      42.517  33.509  35.363  1.00  0.00    +0.000 C 
ATOM     74  F12 UNL A   1      42.035  33.451  36.613  1.00  0.00    +0.000 F 
ATOM     75  C54 UNL A   1      42.990  34.711  34.859  1.00  0.00    +0.000 C 
ATOM     76  F13 UNL A   1      42.982  35.811  35.624  1.00  0.00    +0.000 F 
ATOM     77  C55 UNL A   1      43.463  34.774  33.557  1.00  0.00    +0.000 C 
ATOM     78  F14 UNL A   1      43.935  35.930  33.070  1.00  0.00    +0.000 F 
ATOM     79  C56 UNL A   1      43.446  33.638  32.753  1.00  0.00    +0.000 C 
ATOM     80  F15 UNL A   1      43.898  33.729  31.494  1.00  0.00    +0.000 F 
ENDBRANCH   69   70
TORSDOF 17
ENDMDL
MODEL 8
REMARK VINA RESULT:     -10.9     24.034     27.545
ROOT
ATOM    129  H38 UNL A   1      46.524  48.621  19.498  1.00  0.00    +0.000 H 
ATOM     33  C27 UNL A   1      46.524  51.015  17.940  1.00  0.00    +0.000 C 
ATOM     34  C28 UNL A   1      47.513  50.598  18.990  1.00  0.00    +0.000 C 
ATOM     35  N4  UNL A   1      48.581  51.228  19.408  1.00  0.00    +0.000 N 
ATOM     36  C29 UNL A   1      49.131  50.429  20.402  1.00  0.00    +0.000 C 
ATOM     37  C30 UNL A   1      50.256  50.645  21.125  1.00  0.00    +0.000 C 
ATOM     49  C37 UNL A   1      51.117  51.789  20.967  1.00  0.00    +0.000 C 
ATOM     50  C38 UNL A   1      52.311  52.066  21.612  1.00  0.00    +0.000 C 
ATOM     51  C39 UNL A   1      52.766  53.315  21.177  1.00  0.00    +0.000 C 
ATOM     52  C40 UNL A   1      51.880  53.797  20.227  1.00  0.00    +0.000 C 
ATOM     53  N5  UNL A   1      50.874  52.851  20.107  1.00  0.00    +0.000 N 
ATOM     54  C41 UNL A   1      51.943  55.032  19.490  1.00  0.00    +0.000 C 
ATOM     66  C48 UNL A   1      51.060  55.415  18.536  1.00  0.00    +0.000 C 
ATOM     67  N6  UNL A   1      49.932  54.753  18.075  1.00  0.00    +0.000 N 
ATOM     68  C49 UNL A   1      49.395  55.543  17.178  1.00  0.00    +0.000 C 
ATOM     69  C50 UNL A   1      48.162  55.330  16.349  1.00  0.00    +0.000 C 
ATOM     81  C57 UNL A   1      47.456  54.196  16.511  1.00  0.00    +0.000 C 
ATOM     82  C58 UNL A   1      46.237  53.855  15.788  1.00  0.00    +0.000 C 
ATOM     83  C59 UNL A   1      45.764  52.694  16.259  1.00  0.00    +0.000 C 
ATOM     84  C60 UNL A   1      46.680  52.180  17.281  1.00  0.00    +0.000 C 
ATOM     85  N7  UNL A   1      47.659  53.135  17.360  1.00  0.00    +0.000 N 
ATOM     86  C61 UNL A   1      50.117  56.805  16.976  1.00  0.00    +0.000 C 
ATOM     87  C62 UNL A   1      51.144  56.661  17.800  1.00  0.00    +0.000 C 
ATOM     88  C63 UNL A   1      48.271  49.273  20.537  1.00  0.00    +0.000 C 
ATOM     89  C64 UNL A   1      47.273  49.312  19.663  1.00  0.00    +0.000 C 
ATOM    120  H29 UNL A   1      52.785  51.455  22.296  1.00  0.00    +0.000 H 
ATOM    121  H30 UNL A   1      53.618  53.795  21.507  1.00  0.00    +0.000 H 
ATOM    122  H31 UNL A   1      50.101  52.922  19.502  1.00  0.00    +0.000 H 
ATOM    123  H32 UNL A   1      45.810  54.418  15.035  1.00  0.00    +0.000 H 
ATOM    124  H33 UNL A   1      44.892  52.235  15.952  1.00  0.00    +0.000 H 
ATOM    125  H34 UNL A   1      48.432  53.067  17.966  1.00  0.00    +0.000 H 
ATOM    126  H35 UNL A   1      49.886  57.596  16.354  1.00  0.00    +0.000 H 
ATOM    127  H36 UNL A   1      51.907  57.348  17.906  1.00  0.00    +0.000 H 
ATOM    128  H37 UNL A   1      48.414  48.516  21.225  1.00  0.00    +0.000 H 
ENDROOT
BRANCH   33   32
ATOM    130  H39 UNL A   1      46.418  48.854  16.299  1.00  0.00    +0.000 H 
ATOM    131  H40 UNL A   1      44.512  47.418  15.840  1.00  0.00    +0.000 H 
ATOM    118  H27 UNL A   1      42.177  49.670  18.522  1.00  0.00    +0.000 H 
ATOM    119  H28 UNL A   1      44.001  51.241  18.792  1.00  0.00    +0.000 H 
ATOM     90  C65 UNL A   1      45.505  49.052  16.738  1.00  0.00    +0.000 C 
ATOM     91  C66 UNL A   1      44.413  48.218  16.485  1.00  0.00    +0.000 C 
ATOM     29  C23 UNL A   1      43.187  48.468  17.108  1.00  0.00    +0.000 C 
ATOM     30  C24 UNL A   1      43.059  49.533  18.005  1.00  0.00    +0.000 C 
ATOM     31  C25 UNL A   1      44.123  50.407  18.197  1.00  0.00    +0.000 C 
ATOM     32  C26 UNL A   1      45.364  50.161  17.587  1.00  0.00    +0.000 C 
BRANCH   29    2
ATOM      1  O1  UNL A   1      41.338  47.777  15.842  1.00  0.00    +0.000 O 
ATOM      2  C1  UNL A   1      42.040  47.579  16.829  1.00  0.00    +0.000 C 
BRANCH    2    3
ATOM      3  N1  UNL A   1      41.763  46.540  17.684  1.00  0.00    +0.000 N 
ATOM     92  H1  UNL A   1      41.698  46.778  18.638  1.00  0.00    +0.000 H 
BRANCH    3    4
ATOM      4  C2  UNL A   1      41.551  45.138  17.367  1.00  0.00    +0.000 C 
ATOM     93  H2  UNL A   1      42.503  44.652  17.308  1.00  0.00    +0.000 H 
ATOM     94  H3  UNL A   1      41.027  45.087  16.436  1.00  0.00    +0.000 H 
BRANCH    4    5
ATOM      5  C3  UNL A   1      40.705  44.432  18.418  1.00  0.00    +0.000 C 
ATOM     95  H4  UNL A   1      39.835  44.038  17.938  1.00  0.00    +0.000 H 
ATOM     96  H5  UNL A   1      40.477  45.163  19.166  1.00  0.00    +0.000 H 
BRANCH    5    6
ATOM     97  H6  UNL A   1      42.343  43.103  18.636  1.00  0.00    +0.000 H 
ATOM     98  H7  UNL A   1      40.743  42.452  19.105  1.00  0.00    +0.000 H 
ATOM      6  C4  UNL A   1      41.416  43.283  19.137  1.00  0.00    +0.000 C 
BRANCH    6    7
ATOM     99  H8  UNL A   1      40.818  43.869  21.088  1.00  0.00    +0.000 H 
ATOM    100  H9  UNL A   1      42.511  44.248  20.643  1.00  0.00    +0.000 H 
ATOM      7  C5  UNL A   1      41.718  43.530  20.620  1.00  0.00    +0.000 C 
BRANCH    7    8
ATOM    101  H10 UNL A   1      43.297  42.296  21.338  1.00  0.00    +0.000 H 
ATOM    102  H11 UNL A   1      41.775  41.449  20.955  1.00  0.00    +0.000 H 
ATOM      8  C6  UNL A   1      42.228  42.310  21.400  1.00  0.00    +0.000 C 
BRANCH    8    9
ATOM      9  C7  UNL A   1      41.835  42.299  22.877  1.00  0.00    +0.000 C 
ATOM    103  H12 UNL A   1      41.972  41.312  23.267  1.00  0.00    +0.000 H 
ATOM    104  H13 UNL A   1      40.811  42.596  22.959  1.00  0.00    +0.000 H 
BRANCH    9   10
ATOM    105  H14 UNL A   1      42.215  44.085  23.847  1.00  0.00    +0.000 H 
ATOM     10  N2  UNL A   1      42.646  43.225  23.639  1.00  0.00    +0.000 N 
BRANCH   10   11
ATOM     11  C8  UNL A   1      43.919  43.083  24.115  1.00  0.00    +0.000 C 
ATOM     12  O2  UNL A   1      44.098  42.229  24.984  1.00  0.00    +0.000 O 
BRANCH   11   13
ATOM    106  H15 UNL A   1      45.774  43.925  24.308  1.00  0.00    +0.000 H 
ATOM    107  H16 UNL A   1      44.753  46.071  24.117  1.00  0.00    +0.000 H 
ATOM    108  H17 UNL A   1      43.447  45.461  23.172  1.00  0.00    +0.000 H 
ATOM     13  C9  UNL A   1      45.013  43.993  23.558  1.00  0.00    +0.000 C 
ATOM     14  C10 UNL A   1      44.510  45.434  23.292  1.00  0.00    +0.000 C 
ATOM     15  C11 UNL A   1      45.232  45.908  22.022  1.00  0.00    +0.000 C 
ATOM     16  N3  UNL A   1      45.612  44.667  21.372  1.00  0.00    +0.000 N 
ATOM    109  H18 UNL A   1      46.094  46.492  22.266  1.00  0.00    +0.000 H 
ATOM    110  H19 UNL A   1      44.624  46.535  21.404  1.00  0.00    +0.000 H 
ATOM     17  C12 UNL A   1      46.009  44.296  20.123  1.00  0.00    +0.000 C 
ATOM    116  H25 UNL A   1      46.397  42.293  19.404  1.00  0.00    +0.000 H 
ATOM    117  H26 UNL A   1      45.810  41.490  21.849  1.00  0.00    +0.000 H 
ATOM     26  C20 UNL A   1      46.122  42.905  20.188  1.00  0.00    +0.000 C 
ATOM     27  C21 UNL A   1      45.802  42.461  21.499  1.00  0.00    +0.000 C 
ATOM     28  C22 UNL A   1      45.480  43.589  22.202  1.00  0.00    +0.000 C 
BRANCH   17   18
ATOM     18  C13 UNL A   1      46.218  45.104  18.932  1.00  0.00    +0.000 C 
ATOM     19  O3  UNL A   1      45.319  45.363  18.133  1.00  0.00    +0.000 O 
BRANCH   18   20
ATOM    111  H20 UNL A   1      48.356  45.129  20.501  1.00  0.00    +0.000 H 
ATOM    112  H21 UNL A   1      50.556  46.055  20.053  1.00  0.00    +0.000 H 
ATOM    113  H22 UNL A   1      51.004  47.141  17.931  1.00  0.00    +0.000 H 
ATOM    114  H23 UNL A   1      49.247  47.348  16.272  1.00  0.00    +0.000 H 
ATOM    115  H24 UNL A   1      47.034  46.448  16.724  1.00  0.00    +0.000 H 
ATOM     20  C14 UNL A   1      47.546  45.680  18.627  1.00  0.00    +0.000 C 
ATOM     21  C15 UNL A   1      48.549  45.590  19.599  1.00  0.00    +0.000 C 
ATOM     22  C16 UNL A   1      49.811  46.126  19.343  1.00  0.00    +0.000 C 
ATOM     23  C17 UNL A   1      50.066  46.757  18.125  1.00  0.00    +0.000 C 
ATOM     24  C18 UNL A   1      49.056  46.873  17.168  1.00  0.00    +0.000 C 
ATOM     25  C19 UNL A   1      47.788  46.347  17.421  1.00  0.00    +0.000 C 
ENDBRANCH   18   20
ENDBRANCH   17   18
ENDBRANCH   11   13
ENDBRANCH   10   11
ENDBRANCH    9   10
ENDBRANCH    8    9
ENDBRANCH    7    8
ENDBRANCH    6    7
ENDBRANCH    5    6
ENDBRANCH    4    5
ENDBRANCH    3    4
ENDBRANCH    2    3
ENDBRANCH   29    2
ENDBRANCH   33   32
BRANCH   37   38
ATOM     38  C31 UNL A   1      50.630  49.634  22.168  1.00  0.00    +0.000 C 
ATOM     39  C32 UNL A   1      50.172  49.734  23.489  1.00  0.00    +0.000 C 
ATOM     40  F1  UNL A   1      49.458  50.803  23.876  1.00  0.00    +0.000 F 
ATOM     41  C33 UNL A   1      50.455  48.741  24.422  1.00  0.00    +0.000 C 
ATOM     42  F2  UNL A   1      50.024  48.867  25.686  1.00  0.00    +0.000 F 
ATOM     43  C34 UNL A   1      51.182  47.620  24.049  1.00  0.00    +0.000 C 
ATOM     44  F3  UNL A   1      51.437  46.656  24.945  1.00  0.00    +0.000 F 
ATOM     45  C35 UNL A   1      51.643  47.498  22.747  1.00  0.00    +0.000 C 
ATOM     46  F4  UNL A   1      52.334  46.409  22.382  1.00  0.00    +0.000 F 
ATOM     47  C36 UNL A   1      51.378  48.500  21.817  1.00  0.00    +0.000 C 
ATOM     48  F5  UNL A   1      51.835  48.352  20.564  1.00  0.00    +0.000 F 
ENDBRANCH   37   38
BRANCH   54   55
ATOM     65  F10 UNL A   1      54.455  54.884  18.167  1.00  0.00    +0.000 F 
ATOM     55  C42 UNL A   1      53.078  55.967  19.778  1.00  0.00    +0.000 C 
ATOM     56  C43 UNL A   1      52.965  56.979  20.742  1.00  0.00    +0.000 C 
ATOM     57  F6  UNL A   1      51.811  57.152  21.406  1.00  0.00    +0.000 F 
ATOM     58  C44 UNL A   1      54.023  57.847  20.994  1.00  0.00    +0.000 C 
ATOM     59  F7  UNL A   1      53.876  58.839  21.883  1.00  0.00    +0.000 F 
ATOM     60  C45 UNL A   1      55.222  57.698  20.312  1.00  0.00    +0.000 C 
ATOM     61  F8  UNL A   1      56.240  58.534  20.558  1.00  0.00    +0.000 F 
ATOM     62  C46 UNL A   1      55.362  56.691  19.370  1.00  0.00    +0.000 C 
ATOM     63  F9  UNL A   1      56.523  56.541  18.718  1.00  0.00    +0.000 F 
ATOM     64  C47 UNL A   1      54.297  55.839  19.095  1.00  0.00    +0.000 C 
ENDBRANCH   54   55
BRANCH   69   70
ATOM     70  C51 UNL A   1      47.706  56.352  15.373  1.00  0.00    +0.000 C 
ATOM     71  C52 UNL A   1      46.983  57.478  15.789  1.00  0.00    +0.000 C 
ATOM     72  F11 UNL A   1      46.675  57.634  17.085  1.00  0.00    +0.000 F 
ATOM     73  C53 UNL A   1      46.541  58.426  14.869  1.00  0.00    +0.000 C 
ATOM     74  F12 UNL A   1      45.812  59.470  15.287  1.00  0.00    +0.000 F 
ATOM     75  C54 UNL A   1      46.841  58.284  13.523  1.00  0.00    +0.000 C 
ATOM     76  F13 UNL A   1      46.419  59.199  12.640  1.00  0.00    +0.000 F 
ATOM     77  C55 UNL A   1      47.572  57.188  13.091  1.00  0.00    +0.000 C 
ATOM     78  F14 UNL A   1      47.878  57.054  11.793  1.00  0.00    +0.000 F 
ATOM     79  C56 UNL A   1      47.988  56.223  14.004  1.00  0.00    +0.000 C 
ATOM     80  F15 UNL A   1      48.684  55.167  13.558  1.00  0.00    +0.000 F 
ENDBRANCH   69   70
TORSDOF 17
ENDMDL
MODEL 9
REMARK VINA RESULT:     -10.9      7.887     15.629
ROOT
ATOM    129  H38 UNL A   1      44.531  26.338  31.823  1.00  0.00    +0.000 H 
ATOM     33  C27 UNL A   1      43.019  28.101  33.485  1.00  0.00    +0.000 C 
ATOM     34  C28 UNL A   1      42.801  27.789  32.033  1.00  0.00    +0.000 C 
ATOM     35  N4  UNL A   1      41.877  28.244  31.225  1.00  0.00    +0.000 N 
ATOM     36  C29 UNL A   1      42.132  27.665  29.989  1.00  0.00    +0.000 C 
ATOM     37  C30 UNL A   1      41.438  27.812  28.835  1.00  0.00    +0.000 C 
ATOM     49  C37 UNL A   1      40.256  28.624  28.694  1.00  0.00    +0.000 C 
ATOM     50  C38 UNL A   1      39.450  28.788  27.581  1.00  0.00    +0.000 C 
ATOM     51  C39 UNL A   1      38.448  29.712  27.896  1.00  0.00    +0.000 C 
ATOM     52  C40 UNL A   1      38.602  30.090  29.220  1.00  0.00    +0.000 C 
ATOM     53  N5  UNL A   1      39.714  29.414  29.698  1.00  0.00    +0.000 N 
ATOM     54  C41 UNL A   1      37.799  31.004  29.989  1.00  0.00    +0.000 C 
ATOM     66  C48 UNL A   1      37.983  31.288  31.301  1.00  0.00    +0.000 C 
ATOM     67  N6  UNL A   1      38.948  30.805  32.170  1.00  0.00    +0.000 N 
ATOM     68  C49 UNL A   1      38.729  31.401  33.317  1.00  0.00    +0.000 C 
ATOM     69  C50 UNL A   1      39.465  31.252  34.615  1.00  0.00    +0.000 C 
ATOM     81  C57 UNL A   1      40.516  30.414  34.676  1.00  0.00    +0.000 C 
ATOM     82  C58 UNL A   1      41.331  30.173  35.860  1.00  0.00    +0.000 C 
ATOM     83  C59 UNL A   1      42.333  29.345  35.536  1.00  0.00    +0.000 C 
ATOM     84  C60 UNL A   1      42.198  28.952  34.131  1.00  0.00    +0.000 C 
ATOM     85  N7  UNL A   1      41.086  29.631  33.702  1.00  0.00    +0.000 N 
ATOM     86  C61 UNL A   1      37.602  32.342  33.301  1.00  0.00    +0.000 C 
ATOM     87  C62 UNL A   1      37.159  32.208  32.059  1.00  0.00    +0.000 C 
ATOM     88  C63 UNL A   1      43.307  26.835  30.147  1.00  0.00    +0.000 C 
ATOM     89  C64 UNL A   1      43.741  26.850  31.401  1.00  0.00    +0.000 C 
ATOM    120  H29 UNL A   1      39.567  28.310  26.673  1.00  0.00    +0.000 H 
ATOM    121  H30 UNL A   1      37.718  30.053  27.251  1.00  0.00    +0.000 H 
ATOM    122  H31 UNL A   1      40.067  29.485  30.614  1.00  0.00    +0.000 H 
ATOM    123  H32 UNL A   1      41.162  30.575  36.796  1.00  0.00    +0.000 H 
ATOM    124  H33 UNL A   1      43.083  29.036  36.173  1.00  0.00    +0.000 H 
ATOM    125  H34 UNL A   1      40.733  29.563  32.786  1.00  0.00    +0.000 H 
ATOM    126  H35 UNL A   1      37.248  32.948  34.058  1.00  0.00    +0.000 H 
ATOM    127  H36 UNL A   1      36.332  32.696  31.680  1.00  0.00    +0.000 H 
ATOM    128  H37 UNL A   1      43.751  26.301  29.382  1.00  0.00    +0.000 H 
ENDROOT
BRANCH   33   32
ATOM    130  H39 UNL A   1      42.979  25.908  35.085  1.00  0.00    +0.000 H 
ATOM    131  H40 UNL A   1      44.847  24.862  36.234  1.00  0.00    +0.000 H 
ATOM    118  H27 UNL A   1      47.461  27.703  34.559  1.00  0.00    +0.000 H 
ATOM    119  H28 UNL A   1      45.571  28.886  33.613  1.00  0.00    +0.000 H 
ATOM     90  C65 UNL A   1      43.925  26.314  35.008  1.00  0.00    +0.000 C 
ATOM     91  C66 UNL A   1      45.001  25.703  35.657  1.00  0.00    +0.000 C 
ATOM     29  C23 UNL A   1      46.287  26.235  35.523  1.00  0.00    +0.000 C 
ATOM     30  C24 UNL A   1      46.502  27.358  34.719  1.00  0.00    +0.000 C 
ATOM     31  C25 UNL A   1      45.421  28.009  34.135  1.00  0.00    +0.000 C 
ATOM     32  C26 UNL A   1      44.126  27.479  34.253  1.00  0.00    +0.000 C 
BRANCH   29    2
ATOM      1  O1  UNL A   1      48.476  26.180  36.363  1.00  0.00    +0.000 O 
ATOM      2  C1  UNL A   1      47.415  25.580  36.218  1.00  0.00    +0.000 C 
BRANCH    2    3
ATOM      3  N1  UNL A   1      47.271  24.298  36.688  1.00  0.00    +0.000 N 
ATOM     92  H1  UNL A   1      47.407  24.180  37.656  1.00  0.00    +0.000 H 
BRANCH    3    4
ATOM      4  C2  UNL A   1      46.943  23.093  35.946  1.00  0.00    +0.000 C 
ATOM     93  H2  UNL A   1      47.431  23.132  34.994  1.00  0.00    +0.000 H 
ATOM     94  H3  UNL A   1      45.880  23.052  35.839  1.00  0.00    +0.000 H 
BRANCH    4    5
ATOM      5  C3  UNL A   1      47.388  21.830  36.673  1.00  0.00    +0.000 C 
ATOM     95  H4  UNL A   1      47.268  21.989  37.723  1.00  0.00    +0.000 H 
ATOM     96  H5  UNL A   1      48.405  21.659  36.388  1.00  0.00    +0.000 H 
BRANCH    5    6
ATOM     97  H6  UNL A   1      47.140  20.083  35.498  1.00  0.00    +0.000 H 
ATOM     98  H7  UNL A   1      45.632  20.899  36.009  1.00  0.00    +0.000 H 
ATOM      6  C4  UNL A   1      46.610  20.570  36.288  1.00  0.00    +0.000 C 
BRANCH    6    7
ATOM     99  H8  UNL A   1      46.075  18.638  36.987  1.00  0.00    +0.000 H 
ATOM    100  H9  UNL A   1      45.705  19.999  38.092  1.00  0.00    +0.000 H 
ATOM      7  C5  UNL A   1      46.411  19.557  37.421  1.00  0.00    +0.000 C 
BRANCH    7    8
ATOM    101  H10 UNL A   1      48.233  20.154  38.347  1.00  0.00    +0.000 H 
ATOM    102  H11 UNL A   1      48.188  18.472  37.757  1.00  0.00    +0.000 H 
ATOM      8  C6  UNL A   1      47.660  19.254  38.261  1.00  0.00    +0.000 C 
BRANCH    8    9
ATOM      9  C7  UNL A   1      47.361  18.743  39.671  1.00  0.00    +0.000 C 
ATOM    103  H12 UNL A   1      47.610  19.506  40.379  1.00  0.00    +0.000 H 
ATOM    104  H13 UNL A   1      47.945  17.864  39.845  1.00  0.00    +0.000 H 
BRANCH    9   10
ATOM    105  H14 UNL A   1      45.330  19.121  39.586  1.00  0.00    +0.000 H 
ATOM     10  N2  UNL A   1      45.961  18.402  39.816  1.00  0.00    +0.000 N 
BRANCH   10   11
ATOM     11  C8  UNL A   1      45.386  17.230  40.223  1.00  0.00    +0.000 C 
ATOM     12  O2  UNL A   1      45.813  16.193  39.716  1.00  0.00    +0.000 O 
BRANCH   11   13
ATOM    106  H15 UNL A   1      43.813  18.244  41.051  1.00  0.00    +0.000 H 
ATOM    107  H16 UNL A   1      44.894  18.068  43.169  1.00  0.00    +0.000 H 
ATOM    108  H17 UNL A   1      45.708  16.613  42.730  1.00  0.00    +0.000 H 
ATOM     13  C9  UNL A   1      44.256  17.290  41.249  1.00  0.00    +0.000 C 
ATOM     14  C10 UNL A   1      44.762  17.113  42.703  1.00  0.00    +0.000 C 
ATOM     15  C11 UNL A   1      43.678  16.308  43.435  1.00  0.00    +0.000 C 
ATOM     16  N3  UNL A   1      42.974  15.639  42.356  1.00  0.00    +0.000 N 
ATOM    109  H18 UNL A   1      43.022  16.954  43.978  1.00  0.00    +0.000 H 
ATOM    110  H19 UNL A   1      44.079  15.628  44.159  1.00  0.00    +0.000 H 
ATOM     17  C12 UNL A   1      42.121  14.582  42.249  1.00  0.00    +0.000 C 
ATOM    116  H25 UNL A   1      41.313  13.720  40.438  1.00  0.00    +0.000 H 
ATOM    117  H26 UNL A   1      42.664  15.588  39.153  1.00  0.00    +0.000 H 
ATOM     26  C20 UNL A   1      41.908  14.440  40.875  1.00  0.00    +0.000 C 
ATOM     27  C21 UNL A   1      42.636  15.438  40.174  1.00  0.00    +0.000 C 
ATOM     28  C22 UNL A   1      43.295  16.156  41.133  1.00  0.00    +0.000 C 
BRANCH   17   18
ATOM     18  C13 UNL A   1      41.573  13.717  43.282  1.00  0.00    +0.000 C 
ATOM     19  O3  UNL A   1      40.534  13.973  43.886  1.00  0.00    +0.000 O 
BRANCH   18   20
ATOM    111  H20 UNL A   1      43.942  13.433  44.441  1.00  0.00    +0.000 H 
ATOM    112  H21 UNL A   1      45.089  11.386  45.066  1.00  0.00    +0.000 H 
ATOM    113  H22 UNL A   1      44.056   9.236  44.627  1.00  0.00    +0.000 H 
ATOM    114  H23 UNL A   1      41.901   9.121  43.519  1.00  0.00    +0.000 H 
ATOM    115  H24 UNL A   1      40.758  11.165  42.866  1.00  0.00    +0.000 H 
ATOM     20  C14 UNL A   1      42.245  12.452  43.648  1.00  0.00    +0.000 C 
ATOM     21  C15 UNL A   1      43.504  12.518  44.256  1.00  0.00    +0.000 C 
ATOM     22  C16 UNL A   1      44.164  11.341  44.611  1.00  0.00    +0.000 C 
ATOM     23  C17 UNL A   1      43.573  10.105  44.351  1.00  0.00    +0.000 C 
ATOM     24  C18 UNL A   1      42.330  10.038  43.718  1.00  0.00    +0.000 C 
ATOM     25  C19 UNL A   1      41.668  11.212  43.351  1.00  0.00    +0.000 C 
ENDBRANCH   18   20
ENDBRANCH   17   18
ENDBRANCH   11   13
ENDBRANCH   10   11
ENDBRANCH    9   10
ENDBRANCH    8    9
ENDBRANCH    7    8
ENDBRANCH    6    7
ENDBRANCH    5    6
ENDBRANCH    4    5
ENDBRANCH    3    4
ENDBRANCH    2    3
ENDBRANCH   29    2
ENDBRANCH   33   32
BRANCH   37   38
ATOM     38  C31 UNL A   1      41.934  27.091  27.616  1.00  0.00    +0.000 C 
ATOM     39  C32 UNL A   1      42.860  27.675  26.742  1.00  0.00    +0.000 C 
ATOM     40  F1  UNL A   1      43.255  28.945  26.926  1.00  0.00    +0.000 F 
ATOM     41  C33 UNL A   1      43.378  26.960  25.664  1.00  0.00    +0.000 C 
ATOM     42  F2  UNL A   1      44.247  27.545  24.828  1.00  0.00    +0.000 F 
ATOM     43  C34 UNL A   1      42.995  25.643  25.454  1.00  0.00    +0.000 C 
ATOM     44  F3  UNL A   1      43.509  24.951  24.427  1.00  0.00    +0.000 F 
ATOM     45  C35 UNL A   1      42.082  25.045  26.308  1.00  0.00    +0.000 C 
ATOM     46  F4  UNL A   1      41.722  23.768  26.113  1.00  0.00    +0.000 F 
ATOM     47  C36 UNL A   1      41.548  25.764  27.374  1.00  0.00    +0.000 C 
ATOM     48  F5  UNL A   1      40.669  25.156  28.185  1.00  0.00    +0.000 F 
ENDBRANCH   37   38
BRANCH   54   55
ATOM     65  F10 UNL A   1      35.448  29.643  29.148  1.00  0.00    +0.000 F 
ATOM     55  C42 UNL A   1      36.657  31.688  29.301  1.00  0.00    +0.000 C 
ATOM     56  C43 UNL A   1      36.689  33.062  29.019  1.00  0.00    +0.000 C 
ATOM     57  F6  UNL A   1      37.743  33.802  29.397  1.00  0.00    +0.000 F 
ATOM     58  C44 UNL A   1      35.619  33.687  28.388  1.00  0.00    +0.000 C 
ATOM     59  F7  UNL A   1      35.650  35.010  28.173  1.00  0.00    +0.000 F 
ATOM     60  C45 UNL A   1      34.512  32.947  27.998  1.00  0.00    +0.000 C 
ATOM     61  F8  UNL A   1      33.483  33.551  27.388  1.00  0.00    +0.000 F 
ATOM     62  C46 UNL A   1      34.468  31.584  28.248  1.00  0.00    +0.000 C 
ATOM     63  F9  UNL A   1      33.404  30.866  27.863  1.00  0.00    +0.000 F 
ATOM     64  C47 UNL A   1      35.525  30.960  28.904  1.00  0.00    +0.000 C 
ENDBRANCH   54   55
BRANCH   69   70
ATOM     70  C51 UNL A   1      39.063  32.021  35.820  1.00  0.00    +0.000 C 
ATOM     71  C52 UNL A   1      39.508  33.333  36.023  1.00  0.00    +0.000 C 
ATOM     72  F11 UNL A   1      40.329  33.907  35.130  1.00  0.00    +0.000 F 
ATOM     73  C53 UNL A   1      39.144  34.047  37.162  1.00  0.00    +0.000 C 
ATOM     74  F12 UNL A   1      39.621  35.285  37.355  1.00  0.00    +0.000 F 
ATOM     75  C54 UNL A   1      38.303  33.475  38.104  1.00  0.00    +0.000 C 
ATOM     76  F13 UNL A   1      37.950  34.163  39.197  1.00  0.00    +0.000 F 
ATOM     77  C55 UNL A   1      37.833  32.184  37.914  1.00  0.00    +0.000 C 
ATOM     78  F14 UNL A   1      37.006  31.632  38.814  1.00  0.00    +0.000 F 
ATOM     79  C56 UNL A   1      38.221  31.458  36.792  1.00  0.00    +0.000 C 
ATOM     80  F15 UNL A   1      37.762  30.207  36.640  1.00  0.00    +0.000 F 
ENDBRANCH   69   70
TORSDOF 17
ENDMDL
MODEL 10
REMARK VINA RESULT:     -10.9      2.324      5.034
ROOT
ATOM    129  H38 UNL A   1      38.136  28.730  27.358  1.00  0.00    +0.000 H 
ATOM     33  C27 UNL A   1      38.080  29.994  29.918  1.00  0.00    +0.000 C 
ATOM     34  C28 UNL A   1      39.175  29.155  29.329  1.00  0.00    +0.000 C 
ATOM     35  N4  UNL A   1      40.332  28.831  29.850  1.00  0.00    +0.000 N 
ATOM     36  C29 UNL A   1      40.960  28.024  28.911  1.00  0.00    +0.000 C 
ATOM     37  C30 UNL A   1      42.187  27.454  28.981  1.00  0.00    +0.000 C 
ATOM     49  C37 UNL A   1      43.093  27.609  30.091  1.00  0.00    +0.000 C 
ATOM     50  C38 UNL A   1      44.382  27.120  30.228  1.00  0.00    +0.000 C 
ATOM     51  C39 UNL A   1      44.854  27.476  31.495  1.00  0.00    +0.000 C 
ATOM     52  C40 UNL A   1      43.878  28.225  32.132  1.00  0.00    +0.000 C 
ATOM     53  N5  UNL A   1      42.804  28.300  31.259  1.00  0.00    +0.000 N 
ATOM     54  C41 UNL A   1      43.920  28.821  33.441  1.00  0.00    +0.000 C 
ATOM     66  C48 UNL A   1      42.941  29.586  33.981  1.00  0.00    +0.000 C 
ATOM     67  N6  UNL A   1      41.717  29.947  33.436  1.00  0.00    +0.000 N 
ATOM     68  C49 UNL A   1      41.114  30.662  34.354  1.00  0.00    +0.000 C 
ATOM     69  C50 UNL A   1      39.766  31.318  34.305  1.00  0.00    +0.000 C 
ATOM     81  C57 UNL A   1      39.015  31.182  33.197  1.00  0.00    +0.000 C 
ATOM     82  C58 UNL A   1      37.686  31.751  33.008  1.00  0.00    +0.000 C 
ATOM     83  C59 UNL A   1      37.206  31.348  31.824  1.00  0.00    +0.000 C 
ATOM     84  C60 UNL A   1      38.219  30.536  31.145  1.00  0.00    +0.000 C 
ATOM     85  N7  UNL A   1      39.262  30.496  32.033  1.00  0.00    +0.000 N 
ATOM     86  C61 UNL A   1      41.884  30.826  35.593  1.00  0.00    +0.000 C 
ATOM     87  C62 UNL A   1      43.004  30.183  35.299  1.00  0.00    +0.000 C 
ATOM     88  C63 UNL A   1      40.052  27.893  27.792  1.00  0.00    +0.000 C 
ATOM     89  C64 UNL A   1      38.946  28.601  27.986  1.00  0.00    +0.000 C 
ATOM    120  H29 UNL A   1      44.904  26.586  29.516  1.00  0.00    +0.000 H 
ATOM    121  H30 UNL A   1      45.774  27.223  31.888  1.00  0.00    +0.000 H 
ATOM    122  H31 UNL A   1      41.961  28.774  31.441  1.00  0.00    +0.000 H 
ATOM    123  H32 UNL A   1      37.196  32.366  33.677  1.00  0.00    +0.000 H 
ATOM    124  H33 UNL A   1      36.271  31.572  31.450  1.00  0.00    +0.000 H 
ATOM    125  H34 UNL A   1      40.106  30.021  31.854  1.00  0.00    +0.000 H 
ATOM    126  H35 UNL A   1      41.621  31.315  36.464  1.00  0.00    +0.000 H 
ATOM    127  H36 UNL A   1      43.819  30.115  35.929  1.00  0.00    +0.000 H 
ATOM    128  H37 UNL A   1      40.239  27.322  26.952  1.00  0.00    +0.000 H 
ENDROOT
BRANCH   33   32
ATOM    130  H39 UNL A   1      37.276  32.275  28.682  1.00  0.00    +0.000 H 
ATOM    131  H40 UNL A   1      35.260  32.635  27.376  1.00  0.00    +0.000 H 
ATOM    118  H27 UNL A   1      34.168  28.613  27.961  1.00  0.00    +0.000 H 
ATOM    119  H28 UNL A   1      36.047  28.320  29.461  1.00  0.00    +0.000 H 
ATOM     90  C65 UNL A   1      36.594  31.509  28.564  1.00  0.00    +0.000 C 
ATOM     91  C66 UNL A   1      35.441  31.713  27.801  1.00  0.00    +0.000 C 
ATOM     29  C23 UNL A   1      34.536  30.664  27.614  1.00  0.00    +0.000 C 
ATOM     30  C24 UNL A   1      34.796  29.405  28.165  1.00  0.00    +0.000 C 
ATOM     31  C25 UNL A   1      35.903  29.225  28.986  1.00  0.00    +0.000 C 
ATOM     32  C26 UNL A   1      36.826  30.266  29.173  1.00  0.00    +0.000 C 
BRANCH   29    2
ATOM      1  O1  UNL A   1      32.548  31.800  27.107  1.00  0.00    +0.000 O 
ATOM      2  C1  UNL A   1      33.320  30.895  26.806  1.00  0.00    +0.000 C 
BRANCH    2    3
ATOM      3  N1  UNL A   1      33.058  30.086  25.728  1.00  0.00    +0.000 N 
ATOM     92  H1  UNL A   1      33.847  29.756  25.239  1.00  0.00    +0.000 H 
BRANCH    3    4
ATOM      4  C2  UNL A   1      31.771  29.652  25.213  1.00  0.00    +0.000 C 
ATOM     93  H2  UNL A   1      31.156  30.514  25.053  1.00  0.00    +0.000 H 
ATOM     94  H3  UNL A   1      31.336  28.991  25.932  1.00  0.00    +0.000 H 
BRANCH    4    5
ATOM      5  C3  UNL A   1      31.901  28.894  23.899  1.00  0.00    +0.000 C 
ATOM     95  H4  UNL A   1      31.567  29.532  23.109  1.00  0.00    +0.000 H 
ATOM     96  H5  UNL A   1      31.310  28.007  24.000  1.00  0.00    +0.000 H 
BRANCH    5    6
ATOM     97  H6  UNL A   1      34.003  29.028  24.142  1.00  0.00    +0.000 H 
ATOM     98  H7  UNL A   1      33.436  28.547  22.515  1.00  0.00    +0.000 H 
ATOM      6  C4  UNL A   1      33.323  28.433  23.572  1.00  0.00    +0.000 C 
BRANCH    6    7
ATOM     99  H8  UNL A   1      34.499  26.680  23.338  1.00  0.00    +0.000 H 
ATOM    100  H9  UNL A   1      32.742  26.417  23.573  1.00  0.00    +0.000 H 
ATOM      7  C5  UNL A   1      33.615  26.958  23.874  1.00  0.00    +0.000 C 
BRANCH    7    8
ATOM    101  H10 UNL A   1      33.699  27.515  25.927  1.00  0.00    +0.000 H 
ATOM    102  H11 UNL A   1      34.823  26.219  25.436  1.00  0.00    +0.000 H 
ATOM      8  C6  UNL A   1      33.833  26.620  25.355  1.00  0.00    +0.000 C 
BRANCH    8    9
ATOM      9  C7  UNL A   1      32.883  25.556  25.904  1.00  0.00    +0.000 C 
ATOM    103  H12 UNL A   1      32.715  25.740  26.945  1.00  0.00    +0.000 H 
ATOM    104  H13 UNL A   1      33.329  24.594  25.760  1.00  0.00    +0.000 H 
BRANCH    9   10
ATOM    105  H14 UNL A   1      31.065  26.382  25.369  1.00  0.00    +0.000 H 
ATOM     10  N2  UNL A   1      31.613  25.582  25.208  1.00  0.00    +0.000 N 
BRANCH   10   11
ATOM     11  C8  UNL A   1      31.064  24.661  24.360  1.00  0.00    +0.000 C 
ATOM     12  O2  UNL A   1      30.194  25.063  23.588  1.00  0.00    +0.000 O 
BRANCH   11   13
ATOM    106  H15 UNL A   1      30.816  22.693  23.859  1.00  0.00    +0.000 H 
ATOM    107  H16 UNL A   1      30.803  22.166  26.184  1.00  0.00    +0.000 H 
ATOM    108  H17 UNL A   1      31.786  23.524  26.586  1.00  0.00    +0.000 H 
ATOM     13  C9  UNL A   1      31.548  23.214  24.439  1.00  0.00    +0.000 C 
ATOM     14  C10 UNL A   1      31.680  22.710  25.898  1.00  0.00    +0.000 C 
ATOM     15  C11 UNL A   1      32.910  21.790  25.921  1.00  0.00    +0.000 C 
ATOM     16  N3  UNL A   1      33.671  22.224  24.764  1.00  0.00    +0.000 N 
ATOM    109  H18 UNL A   1      32.622  20.764  25.827  1.00  0.00    +0.000 H 
ATOM    110  H19 UNL A   1      33.463  21.852  26.835  1.00  0.00    +0.000 H 
ATOM     17  C12 UNL A   1      34.953  22.081  24.325  1.00  0.00    +0.000 C 
ATOM    116  H25 UNL A   1      35.852  22.974  22.571  1.00  0.00    +0.000 H 
ATOM    117  H26 UNL A   1      33.483  24.046  22.118  1.00  0.00    +0.000 H 
ATOM     26  C20 UNL A   1      35.013  22.851  23.160  1.00  0.00    +0.000 C 
ATOM     27  C21 UNL A   1      33.744  23.438  22.910  1.00  0.00    +0.000 C 
ATOM     28  C22 UNL A   1      32.940  23.031  23.938  1.00  0.00    +0.000 C 
BRANCH   17   18
ATOM     18  C13 UNL A   1      36.069  21.362  24.919  1.00  0.00    +0.000 C 
ATOM     19  O3  UNL A   1      36.147  20.135  24.922  1.00  0.00    +0.000 O 
BRANCH   18   20
ATOM    111  H20 UNL A   1      36.093  23.883  25.744  1.00  0.00    +0.000 H 
ATOM    112  H21 UNL A   1      37.906  25.123  26.778  1.00  0.00    +0.000 H 
ATOM    113  H22 UNL A   1      40.046  24.046  27.163  1.00  0.00    +0.000 H 
ATOM    114  H23 UNL A   1      40.395  21.746  26.475  1.00  0.00    +0.000 H 
ATOM    115  H24 UNL A   1      38.593  20.506  25.415  1.00  0.00    +0.000 H 
ATOM     20  C14 UNL A   1      37.194  22.089  25.545  1.00  0.00    +0.000 C 
ATOM     21  C15 UNL A   1      37.003  23.426  25.910  1.00  0.00    +0.000 C 
ATOM     22  C16 UNL A   1      38.046  24.139  26.500  1.00  0.00    +0.000 C 
ATOM     23  C17 UNL A   1      39.279  23.522  26.714  1.00  0.00    +0.000 C 
ATOM     24  C18 UNL A   1      39.479  22.196  26.322  1.00  0.00    +0.000 C 
ATOM     25  C19 UNL A   1      38.441  21.480  25.723  1.00  0.00    +0.000 C 
ENDBRANCH   18   20
ENDBRANCH   17   18
ENDBRANCH   11   13
ENDBRANCH   10   11
ENDBRANCH    9   10
ENDBRANCH    8    9
ENDBRANCH    7    8
ENDBRANCH    6    7
ENDBRANCH    5    6
ENDBRANCH    4    5
ENDBRANCH    3    4
ENDBRANCH    2    3
ENDBRANCH   29    2
ENDBRANCH   33   32
BRANCH   37   38
ATOM     38  C31 UNL A   1      42.635  26.597  27.834  1.00  0.00    +0.000 C 
ATOM     39  C32 UNL A   1      43.399  27.118  26.781  1.00  0.00    +0.000 C 
ATOM     40  F1  UNL A   1      43.669  28.432  26.728  1.00  0.00    +0.000 F 
ATOM     41  C33 UNL A   1      43.881  26.291  25.770  1.00  0.00    +0.000 C 
ATOM     42  F2  UNL A   1      44.593  26.813  24.760  1.00  0.00    +0.000 F 
ATOM     43  C34 UNL A   1      43.627  24.928  25.803  1.00  0.00    +0.000 C 
ATOM     44  F3  UNL A   1      44.108  24.131  24.838  1.00  0.00    +0.000 F 
ATOM     45  C35 UNL A   1      42.876  24.391  26.837  1.00  0.00    +0.000 C 
ATOM     46  F4  UNL A   1      42.640  23.072  26.877  1.00  0.00    +0.000 F 
ATOM     47  C36 UNL A   1      42.375  25.218  27.839  1.00  0.00    +0.000 C 
ATOM     48  F5  UNL A   1      41.653  24.668  28.827  1.00  0.00    +0.000 F 
ENDBRANCH   37   38
BRANCH   54   55
ATOM     65  F10 UNL A   1      44.215  26.628  35.227  1.00  0.00    +0.000 F 
ATOM     55  C42 UNL A   1      45.145  28.601  34.276  1.00  0.00    +0.000 C 
ATOM     56  C43 UNL A   1      46.231  29.488  34.230  1.00  0.00    +0.000 C 
ATOM     57  F6  UNL A   1      46.204  30.543  33.400  1.00  0.00    +0.000 F 
ATOM     58  C44 UNL A   1      47.366  29.269  35.003  1.00  0.00    +0.000 C 
ATOM     59  F7  UNL A   1      48.412  30.102  34.905  1.00  0.00    +0.000 F 
ATOM     60  C45 UNL A   1      47.425  28.179  35.859  1.00  0.00    +0.000 C 
ATOM     61  F8  UNL A   1      48.519  27.971  36.605  1.00  0.00    +0.000 F 
ATOM     62  C46 UNL A   1      46.354  27.301  35.936  1.00  0.00    +0.000 C 
ATOM     63  F9  UNL A   1      46.406  26.254  36.770  1.00  0.00    +0.000 F 
ATOM     64  C47 UNL A   1      45.228  27.502  35.144  1.00  0.00    +0.000 C 
ENDBRANCH   54   55
BRANCH   69   70
ATOM     70  C51 UNL A   1      39.247  32.097  35.459  1.00  0.00    +0.000 C 
ATOM     71  C52 UNL A   1      38.457  31.491  36.443  1.00  0.00    +0.000 C 
ATOM     72  F11 UNL A   1      38.140  30.192  36.342  1.00  0.00    +0.000 F 
ATOM     73  C53 UNL A   1      37.956  32.227  37.515  1.00  0.00    +0.000 C 
ATOM     74  F12 UNL A   1      37.165  31.634  38.419  1.00  0.00    +0.000 F 
ATOM     75  C54 UNL A   1      38.263  33.574  37.640  1.00  0.00    +0.000 C 
ATOM     76  F13 UNL A   1      37.785  34.279  38.673  1.00  0.00    +0.000 F 
ATOM     77  C55 UNL A   1      39.061  34.190  36.687  1.00  0.00    +0.000 C 
ATOM     78  F14 UNL A   1      39.374  35.487  36.811  1.00  0.00    +0.000 F 
ATOM     79  C56 UNL A   1      39.535  33.464  35.599  1.00  0.00    +0.000 C 
ATOM     80  F15 UNL A   1      40.294  34.087  34.686  1.00  0.00    +0.000 F 
ENDBRANCH   69   70
TORSDOF 17
ENDMDL
