MODEL 1
REMARK VINA RESULT:     -10.5      0.000      0.000
ROOT
ATOM     19  C15 UNL A   1      23.938  36.057  47.104  1.00  0.00    +0.000 C 
ATOM     20  C16 UNL A   1      24.972  37.142  46.973  1.00  0.00    +0.000 C 
ATOM     21  N3  UNL A   1      24.873  38.418  47.253  1.00  0.00    +0.000 N 
ATOM     22  C17 UNL A   1      26.117  38.967  46.969  1.00  0.00    +0.000 C 
ATOM     23  C18 UNL A   1      26.501  40.266  47.012  1.00  0.00    +0.000 C 
ATOM     35  C25 UNL A   1      25.646  41.354  47.413  1.00  0.00    +0.000 C 
ATOM     36  C26 UNL A   1      25.935  42.706  47.466  1.00  0.00    +0.000 C 
ATOM     37  C27 UNL A   1      24.810  43.379  47.957  1.00  0.00    +0.000 C 
ATOM     38  C28 UNL A   1      23.800  42.451  48.158  1.00  0.00    +0.000 C 
ATOM     39  N4  UNL A   1      24.330  41.212  47.832  1.00  0.00    +0.000 N 
ATOM     40  C29 UNL A   1      22.452  42.678  48.610  1.00  0.00    +0.000 C 
ATOM     52  C36 UNL A   1      21.522  41.707  48.786  1.00  0.00    +0.000 C 
ATOM     53  N5  UNL A   1      21.638  40.338  48.586  1.00  0.00    +0.000 N 
ATOM     54  C37 UNL A   1      20.479  39.826  48.919  1.00  0.00    +0.000 C 
ATOM     55  C38 UNL A   1      20.023  38.391  48.870  1.00  0.00    +0.000 C 
ATOM     67  C45 UNL A   1      20.867  37.450  48.407  1.00  0.00    +0.000 C 
ATOM     68  C46 UNL A   1      20.556  36.030  48.273  1.00  0.00    +0.000 C 
ATOM     69  C47 UNL A   1      21.639  35.386  47.811  1.00  0.00    +0.000 C 
ATOM     70  C48 UNL A   1      22.713  36.353  47.583  1.00  0.00    +0.000 C 
ATOM     71  N6  UNL A   1      22.165  37.552  47.968  1.00  0.00    +0.000 N 
ATOM     72  C49 UNL A   1      19.502  40.814  49.396  1.00  0.00    +0.000 C 
ATOM     73  C50 UNL A   1      20.171  41.948  49.245  1.00  0.00    +0.000 C 
ATOM     74  C51 UNL A   1      26.975  37.876  46.561  1.00  0.00    +0.000 C 
ATOM     75  C52 UNL A   1      26.299  36.738  46.485  1.00  0.00    +0.000 C 
ATOM    108  H21 UNL A   1      26.828  43.145  47.191  1.00  0.00    +0.000 H 
ATOM    109  H22 UNL A   1      24.744  44.392  48.138  1.00  0.00    +0.000 H 
ATOM    110  H23 UNL A   1      23.845  40.357  47.889  1.00  0.00    +0.000 H 
ATOM    111  H24 UNL A   1      19.649  35.592  48.498  1.00  0.00    +0.000 H 
ATOM    112  H25 UNL A   1      21.704  34.369  47.643  1.00  0.00    +0.000 H 
ATOM    113  H26 UNL A   1      22.655  38.405  47.931  1.00  0.00    +0.000 H 
ATOM    114  H27 UNL A   1      18.546  40.664  49.754  1.00  0.00    +0.000 H 
ATOM    115  H28 UNL A   1      19.778  42.883  49.432  1.00  0.00    +0.000 H 
ATOM    116  H29 UNL A   1      27.982  37.971  46.356  1.00  0.00    +0.000 H 
ATOM    117  H30 UNL A   1      26.621  35.811  46.167  1.00  0.00    +0.000 H 
ENDROOT
BRANCH   19   18
ATOM    106  H19 UNL A   1      23.852  32.420  44.256  1.00  0.00    +0.000 H 
ATOM    107  H20 UNL A   1      23.487  34.761  44.775  1.00  0.00    +0.000 H 
ATOM     76  C53 UNL A   1      24.904  33.808  47.660  1.00  0.00    +0.000 C 
ATOM     77  C54 UNL A   1      25.196  32.485  47.325  1.00  0.00    +0.000 C 
ATOM     15  C11 UNL A   1      24.755  31.957  46.109  1.00  0.00    +0.000 C 
ATOM     16  C12 UNL A   1      24.139  32.795  45.174  1.00  0.00    +0.000 C 
ATOM     17  C13 UNL A   1      23.913  34.138  45.481  1.00  0.00    +0.000 C 
ATOM     18  C14 UNL A   1      24.260  34.650  46.742  1.00  0.00    +0.000 C 
ATOM    118  H31 UNL A   1      25.164  34.170  48.591  1.00  0.00    +0.000 H 
ATOM    119  H32 UNL A   1      25.739  31.897  47.976  1.00  0.00    +0.000 H 
BRANCH   15   13
ATOM     13  C10 UNL A   1      24.950  30.531  45.757  1.00  0.00    +0.000 C 
ATOM     14  O2  UNL A   1      26.072  30.037  45.842  1.00  0.00    +0.000 O 
BRANCH   13   12
ATOM    105  H18 UNL A   1      24.019  29.386  44.411  1.00  0.00    +0.000 H 
ATOM     12  N2  UNL A   1      23.903  29.762  45.312  1.00  0.00    +0.000 N 
BRANCH   12   11
ATOM     11  C9  UNL A   1      22.650  29.418  45.963  1.00  0.00    +0.000 C 
ATOM    103  H16 UNL A   1      22.455  28.378  45.801  1.00  0.00    +0.000 H 
ATOM    104  H17 UNL A   1      22.755  29.645  47.003  1.00  0.00    +0.000 H 
BRANCH   11   10
ATOM     10  C8  UNL A   1      21.465  30.225  45.437  1.00  0.00    +0.000 C 
ATOM    101  H14 UNL A   1      21.690  30.528  44.436  1.00  0.00    +0.000 H 
ATOM    102  H15 UNL A   1      20.615  29.580  45.514  1.00  0.00    +0.000 H 
BRANCH   10    9
ATOM      9  C7  UNL A   1      21.110  31.479  46.240  1.00  0.00    +0.000 C 
ATOM     99  H12 UNL A   1      20.411  31.196  46.999  1.00  0.00    +0.000 H 
ATOM    100  H13 UNL A   1      22.037  31.853  46.621  1.00  0.00    +0.000 H 
BRANCH    9    8
ATOM     97  H10 UNL A   1      21.237  33.394  45.337  1.00  0.00    +0.000 H 
ATOM     98  H11 UNL A   1      20.183  32.201  44.508  1.00  0.00    +0.000 H 
ATOM      8  C6  UNL A   1      20.495  32.629  45.438  1.00  0.00    +0.000 C 
BRANCH    8    7
ATOM     95  H8  UNL A   1      18.423  32.591  45.909  1.00  0.00    +0.000 H 
ATOM      7  C5  UNL A   1      19.240  33.268  46.045  1.00  0.00    +0.000 C 
ATOM     96  H9  UNL A   1      19.468  33.457  47.073  1.00  0.00    +0.000 H 
BRANCH    7    6
ATOM     94  H7  UNL A   1      19.713  35.038  44.982  1.00  0.00    +0.000 H 
ATOM     93  H6  UNL A   1      18.471  35.247  46.219  1.00  0.00    +0.000 H 
ATOM      6  C4  UNL A   1      18.845  34.616  45.440  1.00  0.00    +0.000 C 
BRANCH    6    5
ATOM     92  H5  UNL A   1      17.323  35.304  44.227  1.00  0.00    +0.000 H 
ATOM      5  N1  UNL A   1      17.819  34.475  44.418  1.00  0.00    +0.000 N 
BRANCH    5    3
ATOM      3  C3  UNL A   1      17.419  33.401  43.674  1.00  0.00    +0.000 C 
ATOM      4  O1  UNL A   1      17.871  33.312  42.529  1.00  0.00    +0.000 O 
BRANCH    3    2
ATOM      2  C2  UNL A   1      16.447  32.335  44.214  1.00  0.00    +0.000 C 
ATOM     91  H4  UNL A   1      16.531  32.277  45.279  1.00  0.00    +0.000 H 
BRANCH    2    1
ATOM      1  C1  UNL A   1      15.017  32.771  43.859  1.00  0.00    +0.000 C 
ATOM     90  H3  UNL A   1      14.339  32.406  44.602  1.00  0.00    +0.000 H 
ATOM     89  H2  UNL A   1      14.968  33.839  43.824  1.00  0.00    +0.000 H 
ATOM     88  H1  UNL A   1      14.749  32.370  42.903  1.00  0.00    +0.000 H 
ENDBRANCH    2    1
BRANCH    2   78
ATOM     78  C55 UNL A   1      16.798  30.917  43.770  1.00  0.00    +0.000 C 
ATOM     79  C56 UNL A   1      18.049  30.340  44.055  1.00  0.00    +0.000 C 
ATOM     80  C57 UNL A   1      18.205  28.954  44.042  1.00  0.00    +0.000 C 
ATOM     81  C58 UNL A   1      17.092  28.166  43.787  1.00  0.00    +0.000 C 
ATOM     82  C59 UNL A   1      15.908  28.732  43.317  1.00  0.00    +0.000 C 
ATOM     83  C60 UNL A   1      15.798  30.108  43.209  1.00  0.00    +0.000 C 
ATOM     84  O3  UNL A   1      14.756  28.020  43.123  1.00  0.00    +0.000 O 
ATOM     85  C61 UNL A   1      14.738  26.768  43.821  1.00  0.00    +0.000 C 
ATOM     86  C62 UNL A   1      15.876  26.596  44.822  1.00  0.00    +0.000 C 
ATOM     87  O4  UNL A   1      17.132  26.849  44.177  1.00  0.00    +0.000 O 
ATOM    120  H33 UNL A   1      18.856  30.946  44.276  1.00  0.00    +0.000 H 
ATOM    121  H34 UNL A   1      19.128  28.525  44.217  1.00  0.00    +0.000 H 
ATOM    122  H35 UNL A   1      14.993  30.533  42.721  1.00  0.00    +0.000 H 
ATOM    123  H36 UNL A   1      14.803  25.980  43.100  1.00  0.00    +0.000 H 
ATOM    124  H37 UNL A   1      13.827  26.741  44.383  1.00  0.00    +0.000 H 
ATOM    125  H38 UNL A   1      15.866  25.596  45.202  1.00  0.00    +0.000 H 
ATOM    126  H39 UNL A   1      15.746  27.289  45.627  1.00  0.00    +0.000 H 
ENDBRANCH    2   78
ENDBRANCH    3    2
ENDBRANCH    5    3
ENDBRANCH    6    5
ENDBRANCH    7    6
ENDBRANCH    8    7
ENDBRANCH    9    8
ENDBRANCH   10    9
ENDBRANCH   11   10
ENDBRANCH   12   11
ENDBRANCH   13   12
ENDBRANCH   15   13
ENDBRANCH   19   18
BRANCH   23   24
ATOM     33  C24 UNL A   1      28.295  40.514  45.250  1.00  0.00    +0.000 C 
ATOM     34  F5  UNL A   1      27.400  40.190  44.306  1.00  0.00    +0.000 F 
ATOM     24  C19 UNL A   1      27.908  40.589  46.597  1.00  0.00    +0.000 C 
ATOM     25  C20 UNL A   1      28.890  40.925  47.542  1.00  0.00    +0.000 C 
ATOM     26  F1  UNL A   1      28.570  41.021  48.842  1.00  0.00    +0.000 F 
ATOM     27  C21 UNL A   1      30.198  41.198  47.154  1.00  0.00    +0.000 C 
ATOM     28  F2  UNL A   1      31.107  41.560  48.070  1.00  0.00    +0.000 F 
ATOM     29  C22 UNL A   1      30.561  41.104  45.819  1.00  0.00    +0.000 C 
ATOM     30  F3  UNL A   1      31.824  41.355  45.447  1.00  0.00    +0.000 F 
ATOM     31  C23 UNL A   1      29.613  40.756  44.869  1.00  0.00    +0.000 C 
ATOM     32  F4  UNL A   1      29.965  40.651  43.581  1.00  0.00    +0.000 F 
ENDBRANCH   23   24
BRANCH   40   41
ATOM     41  C30 UNL A   1      22.027  44.092  48.885  1.00  0.00    +0.000 C 
ATOM     42  C31 UNL A   1      22.122  44.656  50.167  1.00  0.00    +0.000 C 
ATOM     43  F6  UNL A   1      22.574  43.921  51.196  1.00  0.00    +0.000 F 
ATOM     44  C32 UNL A   1      21.703  45.961  50.409  1.00  0.00    +0.000 C 
ATOM     45  F7  UNL A   1      21.746  46.456  51.653  1.00  0.00    +0.000 F 
ATOM     46  C33 UNL A   1      21.222  46.742  49.368  1.00  0.00    +0.000 C 
ATOM     47  F8  UNL A   1      20.821  47.998  49.603  1.00  0.00    +0.000 F 
ATOM     48  C34 UNL A   1      21.147  46.216  48.087  1.00  0.00    +0.000 C 
ATOM     49  F9  UNL A   1      20.697  46.974  47.079  1.00  0.00    +0.000 F 
ATOM     50  C35 UNL A   1      21.534  44.900  47.850  1.00  0.00    +0.000 C 
ATOM     51  F10 UNL A   1      21.430  44.415  46.604  1.00  0.00    +0.000 F 
ENDBRANCH   40   41
BRANCH   55   56
ATOM     65  C44 UNL A   1      18.304  38.023  50.672  1.00  0.00    +0.000 C 
ATOM     66  F15 UNL A   1      19.216  38.344  51.600  1.00  0.00    +0.000 F 
ATOM     56  C39 UNL A   1      18.655  38.014  49.315  1.00  0.00    +0.000 C 
ATOM     57  C40 UNL A   1      17.662  37.663  48.388  1.00  0.00    +0.000 C 
ATOM     58  F11 UNL A   1      17.942  37.658  47.076  1.00  0.00    +0.000 F 
ATOM     59  C41 UNL A   1      16.364  37.367  48.800  1.00  0.00    +0.000 C 
ATOM     60  F12 UNL A   1      15.420  37.094  47.888  1.00  0.00    +0.000 F 
ATOM     61  C42 UNL A   1      16.042  37.378  50.149  1.00  0.00    +0.000 C 
ATOM     62  F13 UNL A   1      14.794  37.095  50.544  1.00  0.00    +0.000 F 
ATOM     63  C43 UNL A   1      17.014  37.693  51.085  1.00  0.00    +0.000 C 
ATOM     64  F14 UNL A   1      16.713  37.688  52.391  1.00  0.00    +0.000 F 
ENDBRANCH   55   56
TORSDOF 17
ENDMDL
MODEL 2
REMARK VINA RESULT:     -10.5     21.821     26.870
ROOT
ATOM     19  C15 UNL A   1      38.070  30.053  29.849  1.00  0.00    +0.000 C 
ATOM     20  C16 UNL A   1      39.135  29.141  29.306  1.00  0.00    +0.000 C 
ATOM     21  N3  UNL A   1      40.250  28.742  29.868  1.00  0.00    +0.000 N 
ATOM     22  C17 UNL A   1      40.858  27.898  28.949  1.00  0.00    +0.000 C 
ATOM     23  C18 UNL A   1      42.071  27.296  29.022  1.00  0.00    +0.000 C 
ATOM     35  C25 UNL A   1      42.970  27.412  30.142  1.00  0.00    +0.000 C 
ATOM     36  C26 UNL A   1      44.229  26.861  30.299  1.00  0.00    +0.000 C 
ATOM     37  C27 UNL A   1      44.707  27.209  31.568  1.00  0.00    +0.000 C 
ATOM     38  C28 UNL A   1      43.767  28.023  32.180  1.00  0.00    +0.000 C 
ATOM     39  N4  UNL A   1      42.702  28.129  31.299  1.00  0.00    +0.000 N 
ATOM     40  C29 UNL A   1      43.837  28.659  33.470  1.00  0.00    +0.000 C 
ATOM     52  C36 UNL A   1      42.864  29.441  34.000  1.00  0.00    +0.000 C 
ATOM     53  N5  UNL A   1      41.636  29.796  33.459  1.00  0.00    +0.000 N 
ATOM     54  C37 UNL A   1      41.046  30.539  34.363  1.00  0.00    +0.000 C 
ATOM     55  C38 UNL A   1      39.708  31.227  34.303  1.00  0.00    +0.000 C 
ATOM     67  C45 UNL A   1      38.967  31.127  33.183  1.00  0.00    +0.000 C 
ATOM     68  C46 UNL A   1      37.670  31.761  32.969  1.00  0.00    +0.000 C 
ATOM     69  C47 UNL A   1      37.210  31.419  31.755  1.00  0.00    +0.000 C 
ATOM     70  C48 UNL A   1      38.196  30.567  31.090  1.00  0.00    +0.000 C 
ATOM     71  N6  UNL A   1      39.205  30.445  32.014  1.00  0.00    +0.000 N 
ATOM     72  C49 UNL A   1      41.826  30.717  35.595  1.00  0.00    +0.000 C 
ATOM     73  C50 UNL A   1      42.945  30.072  35.300  1.00  0.00    +0.000 C 
ATOM     74  C51 UNL A   1      39.958  27.785  27.821  1.00  0.00    +0.000 C 
ATOM     75  C52 UNL A   1      38.910  28.583  27.964  1.00  0.00    +0.000 C 
ATOM    108  H21 UNL A   1      44.731  26.291  29.601  1.00  0.00    +0.000 H 
ATOM    109  H22 UNL A   1      45.606  26.910  31.977  1.00  0.00    +0.000 H 
ATOM    110  H23 UNL A   1      41.877  28.638  31.470  1.00  0.00    +0.000 H 
ATOM    111  H24 UNL A   1      37.185  32.375  33.643  1.00  0.00    +0.000 H 
ATOM    112  H25 UNL A   1      36.304  31.711  31.355  1.00  0.00    +0.000 H 
ATOM    113  H26 UNL A   1      40.021  29.919  31.854  1.00  0.00    +0.000 H 
ATOM    114  H27 UNL A   1      41.570  31.214  36.462  1.00  0.00    +0.000 H 
ATOM    115  H28 UNL A   1      43.769  30.024  35.919  1.00  0.00    +0.000 H 
ATOM    116  H29 UNL A   1      40.113  27.164  27.012  1.00  0.00    +0.000 H 
ATOM    117  H30 UNL A   1      38.137  28.765  27.305  1.00  0.00    +0.000 H 
ENDROOT
BRANCH   19   18
ATOM    106  H19 UNL A   1      35.126  32.991  27.836  1.00  0.00    +0.000 H 
ATOM    107  H20 UNL A   1      37.193  32.461  28.989  1.00  0.00    +0.000 H 
ATOM     76  C53 UNL A   1      36.002  29.350  28.613  1.00  0.00    +0.000 C 
ATOM     77  C54 UNL A   1      34.859  29.650  27.869  1.00  0.00    +0.000 C 
ATOM     15  C11 UNL A   1      34.502  30.982  27.641  1.00  0.00    +0.000 C 
ATOM     16  C12 UNL A   1      35.363  32.008  28.043  1.00  0.00    +0.000 C 
ATOM     17  C13 UNL A   1      36.545  31.703  28.722  1.00  0.00    +0.000 C 
ATOM     18  C14 UNL A   1      36.858  30.373  29.047  1.00  0.00    +0.000 C 
ATOM    118  H31 UNL A   1      36.219  28.368  28.845  1.00  0.00    +0.000 H 
ATOM    119  H32 UNL A   1      34.278  28.888  27.488  1.00  0.00    +0.000 H 
BRANCH   15   13
ATOM     13  C10 UNL A   1      33.244  31.348  26.949  1.00  0.00    +0.000 C 
ATOM     14  O2  UNL A   1      32.675  32.397  27.247  1.00  0.00    +0.000 O 
BRANCH   13   12
ATOM    105  H18 UNL A   1      33.132  30.547  25.123  1.00  0.00    +0.000 H 
ATOM     12  N2  UNL A   1      32.691  30.522  26.002  1.00  0.00    +0.000 N 
BRANCH   12   11
ATOM     11  C9  UNL A   1      31.556  29.619  26.094  1.00  0.00    +0.000 C 
ATOM    103  H16 UNL A   1      30.717  30.163  26.475  1.00  0.00    +0.000 H 
ATOM    104  H17 UNL A   1      31.370  29.237  25.112  1.00  0.00    +0.000 H 
BRANCH   11   10
ATOM     10  C8  UNL A   1      31.818  28.424  27.008  1.00  0.00    +0.000 C 
ATOM    101  H14 UNL A   1      32.877  28.277  27.062  1.00  0.00    +0.000 H 
ATOM    102  H15 UNL A   1      31.365  28.667  27.945  1.00  0.00    +0.000 H 
BRANCH   10    9
ATOM      9  C7  UNL A   1      31.182  27.103  26.567  1.00  0.00    +0.000 C 
ATOM     99  H12 UNL A   1      30.517  26.784  27.343  1.00  0.00    +0.000 H 
ATOM    100  H13 UNL A   1      30.697  27.309  25.637  1.00  0.00    +0.000 H 
BRANCH    9    8
ATOM     97  H10 UNL A   1      32.212  25.348  27.163  1.00  0.00    +0.000 H 
ATOM     98  H11 UNL A   1      31.769  25.448  25.427  1.00  0.00    +0.000 H 
ATOM      8  C6  UNL A   1      32.158  25.957  26.285  1.00  0.00    +0.000 C 
BRANCH    8    7
ATOM     95  H8  UNL A   1      33.579  27.421  25.691  1.00  0.00    +0.000 H 
ATOM      7  C5  UNL A   1      33.585  26.374  25.911  1.00  0.00    +0.000 C 
ATOM     96  H9  UNL A   1      34.200  26.119  26.749  1.00  0.00    +0.000 H 
BRANCH    7    6
ATOM     94  H7  UNL A   1      34.403  24.640  25.010  1.00  0.00    +0.000 H 
ATOM     93  H6  UNL A   1      35.058  26.156  24.388  1.00  0.00    +0.000 H 
ATOM      6  C4  UNL A   1      34.177  25.640  24.708  1.00  0.00    +0.000 C 
BRANCH    6    5
ATOM     92  H5  UNL A   1      32.823  24.691  23.471  1.00  0.00    +0.000 H 
ATOM      5  N1  UNL A   1      33.242  25.574  23.595  1.00  0.00    +0.000 N 
BRANCH    5    3
ATOM      3  C3  UNL A   1      32.841  26.514  22.688  1.00  0.00    +0.000 C 
ATOM      4  O1  UNL A   1      32.845  26.184  21.498  1.00  0.00    +0.000 O 
BRANCH    3    2
ATOM      2  C2  UNL A   1      32.400  27.930  23.104  1.00  0.00    +0.000 C 
ATOM     91  H4  UNL A   1      32.402  28.010  24.171  1.00  0.00    +0.000 H 
BRANCH    2    1
ATOM      1  C1  UNL A   1      33.417  28.931  22.536  1.00  0.00    +0.000 C 
ATOM     90  H3  UNL A   1      33.418  28.870  21.467  1.00  0.00    +0.000 H 
ATOM     89  H2  UNL A   1      33.148  29.922  22.836  1.00  0.00    +0.000 H 
ATOM     88  H1  UNL A   1      34.393  28.698  22.907  1.00  0.00    +0.000 H 
ENDBRANCH    2    1
BRANCH    2   78
ATOM     78  C55 UNL A   1      30.948  28.240  22.745  1.00  0.00    +0.000 C 
ATOM     79  C56 UNL A   1      29.880  27.480  23.256  1.00  0.00    +0.000 C 
ATOM     80  C57 UNL A   1      28.590  28.008  23.286  1.00  0.00    +0.000 C 
ATOM     81  C58 UNL A   1      28.398  29.310  22.844  1.00  0.00    +0.000 C 
ATOM     82  C59 UNL A   1      29.407  29.989  22.163  1.00  0.00    +0.000 C 
ATOM     83  C60 UNL A   1      30.655  29.407  22.022  1.00  0.00    +0.000 C 
ATOM     84  O3  UNL A   1      29.306  31.297  21.774  1.00  0.00    +0.000 O 
ATOM     85  C61 UNL A   1      28.283  32.020  22.470  1.00  0.00    +0.000 C 
ATOM     86  C62 UNL A   1      27.692  31.271  23.661  1.00  0.00    +0.000 C 
ATOM     87  O4  UNL A   1      27.262  29.967  23.249  1.00  0.00    +0.000 O 
ATOM    120  H33 UNL A   1      30.053  26.526  23.612  1.00  0.00    +0.000 H 
ATOM    121  H34 UNL A   1      27.796  27.444  23.628  1.00  0.00    +0.000 H 
ATOM    122  H35 UNL A   1      31.360  29.824  21.394  1.00  0.00    +0.000 H 
ATOM    123  H36 UNL A   1      27.493  32.232  21.781  1.00  0.00    +0.000 H 
ATOM    124  H37 UNL A   1      28.742  32.905  22.860  1.00  0.00    +0.000 H 
ATOM    125  H38 UNL A   1      26.855  31.818  24.044  1.00  0.00    +0.000 H 
ATOM    126  H39 UNL A   1      28.438  31.174  24.422  1.00  0.00    +0.000 H 
ENDBRANCH    2   78
ENDBRANCH    3    2
ENDBRANCH    5    3
ENDBRANCH    6    5
ENDBRANCH    7    6
ENDBRANCH    8    7
ENDBRANCH    9    8
ENDBRANCH   10    9
ENDBRANCH   11   10
ENDBRANCH   12   11
ENDBRANCH   13   12
ENDBRANCH   15   13
ENDBRANCH   19   18
BRANCH   23   24
ATOM     33  C24 UNL A   1      42.147  25.118  27.744  1.00  0.00    +0.000 C 
ATOM     34  F5  UNL A   1      41.368  24.553  28.679  1.00  0.00    +0.000 F 
ATOM     24  C19 UNL A   1      42.508  26.469  27.847  1.00  0.00    +0.000 C 
ATOM     25  C20 UNL A   1      43.331  27.004  26.843  1.00  0.00    +0.000 C 
ATOM     26  F1  UNL A   1      43.698  28.295  26.888  1.00  0.00    +0.000 F 
ATOM     27  C21 UNL A   1      43.755  26.226  25.770  1.00  0.00    +0.000 C 
ATOM     28  F2  UNL A   1      44.503  26.772  24.801  1.00  0.00    +0.000 F 
ATOM     29  C22 UNL A   1      43.395  24.889  25.697  1.00  0.00    +0.000 C 
ATOM     30  F3  UNL A   1      43.814  24.137  24.669  1.00  0.00    +0.000 F 
ATOM     31  C23 UNL A   1      42.598  24.333  26.685  1.00  0.00    +0.000 C 
ATOM     32  F4  UNL A   1      42.262  23.038  26.623  1.00  0.00    +0.000 F 
ENDBRANCH   23   24
BRANCH   40   41
ATOM     41  C30 UNL A   1      45.085  28.469  34.285  1.00  0.00    +0.000 C 
ATOM     42  C31 UNL A   1      46.184  29.332  34.163  1.00  0.00    +0.000 C 
ATOM     43  F6  UNL A   1      46.154  30.344  33.281  1.00  0.00    +0.000 F 
ATOM     44  C32 UNL A   1      47.341  29.129  34.911  1.00  0.00    +0.000 C 
ATOM     45  F7  UNL A   1      48.400  29.931  34.732  1.00  0.00    +0.000 F 
ATOM     46  C33 UNL A   1      47.406  28.087  35.823  1.00  0.00    +0.000 C 
ATOM     47  F8  UNL A   1      48.520  27.893  36.542  1.00  0.00    +0.000 F 
ATOM     48  C34 UNL A   1      46.321  27.238  35.982  1.00  0.00    +0.000 C 
ATOM     49  F9  UNL A   1      46.378  26.240  36.873  1.00  0.00    +0.000 F 
ATOM     50  C35 UNL A   1      45.175  27.419  35.211  1.00  0.00    +0.000 C 
ATOM     51  F10 UNL A   1      44.151  26.569  35.373  1.00  0.00    +0.000 F 
ENDBRANCH   40   41
BRANCH   55   56
ATOM     65  C44 UNL A   1      38.391  31.440  36.439  1.00  0.00    +0.000 C 
ATOM     66  F15 UNL A   1      38.016  30.157  36.328  1.00  0.00    +0.000 F 
ATOM     56  C39 UNL A   1      39.209  32.020  35.459  1.00  0.00    +0.000 C 
ATOM     57  C40 UNL A   1      39.563  33.367  35.622  1.00  0.00    +0.000 C 
ATOM     58  F11 UNL A   1      40.360  33.963  34.722  1.00  0.00    +0.000 F 
ATOM     59  C41 UNL A   1      39.145  34.092  36.735  1.00  0.00    +0.000 C 
ATOM     60  F12 UNL A   1      39.549  35.360  36.896  1.00  0.00    +0.000 F 
ATOM     61  C42 UNL A   1      38.332  33.498  37.688  1.00  0.00    +0.000 C 
ATOM     62  F13 UNL A   1      37.931  34.196  38.760  1.00  0.00    +0.000 F 
ATOM     63  C43 UNL A   1      37.945  32.176  37.534  1.00  0.00    +0.000 C 
ATOM     64  F14 UNL A   1      37.145  31.602  38.444  1.00  0.00    +0.000 F 
ENDBRANCH   55   56
TORSDOF 17
ENDMDL
MODEL 3
REMARK VINA RESULT:     -10.5      3.238      4.903
ROOT
ATOM     19  C15 UNL A   1      21.309  35.716  47.522  1.00  0.00    +0.000 C 
ATOM     20  C16 UNL A   1      22.424  36.725  47.499  1.00  0.00    +0.000 C 
ATOM     21  N3  UNL A   1      22.445  37.948  47.968  1.00  0.00    +0.000 N 
ATOM     22  C17 UNL A   1      23.718  38.435  47.703  1.00  0.00    +0.000 C 
ATOM     23  C18 UNL A   1      24.212  39.680  47.918  1.00  0.00    +0.000 C 
ATOM     35  C25 UNL A   1      23.468  40.758  48.519  1.00  0.00    +0.000 C 
ATOM     36  C26 UNL A   1      23.873  42.060  48.755  1.00  0.00    +0.000 C 
ATOM     37  C27 UNL A   1      22.829  42.735  49.397  1.00  0.00    +0.000 C 
ATOM     38  C28 UNL A   1      21.753  41.869  49.512  1.00  0.00    +0.000 C 
ATOM     39  N4  UNL A   1      22.163  40.656  48.980  1.00  0.00    +0.000 N 
ATOM     40  C29 UNL A   1      20.448  42.128  50.062  1.00  0.00    +0.000 C 
ATOM     52  C36 UNL A   1      19.447  41.217  50.142  1.00  0.00    +0.000 C 
ATOM     53  N5  UNL A   1      19.439  39.889  49.737  1.00  0.00    +0.000 N 
ATOM     54  C37 UNL A   1      18.255  39.424  50.051  1.00  0.00    +0.000 C 
ATOM     55  C38 UNL A   1      17.679  38.053  49.815  1.00  0.00    +0.000 C 
ATOM     67  C45 UNL A   1      18.421  37.129  49.175  1.00  0.00    +0.000 C 
ATOM     68  C46 UNL A   1      17.986  35.774  48.850  1.00  0.00    +0.000 C 
ATOM     69  C47 UNL A   1      18.991  35.126  48.242  1.00  0.00    +0.000 C 
ATOM     70  C48 UNL A   1      20.133  36.031  48.103  1.00  0.00    +0.000 C 
ATOM     71  N6  UNL A   1      19.704  37.196  48.688  1.00  0.00    +0.000 N 
ATOM     72  C49 UNL A   1      17.385  40.401  50.718  1.00  0.00    +0.000 C 
ATOM     73  C50 UNL A   1      18.140  41.490  50.701  1.00  0.00    +0.000 C 
ATOM     74  C51 UNL A   1      24.464  37.355  47.095  1.00  0.00    +0.000 C 
ATOM     75  C52 UNL A   1      23.692  36.298  46.888  1.00  0.00    +0.000 C 
ATOM    108  H21 UNL A   1      24.787  42.464  48.501  1.00  0.00    +0.000 H 
ATOM    109  H22 UNL A   1      22.856  43.712  49.729  1.00  0.00    +0.000 H 
ATOM    110  H23 UNL A   1      21.611  39.843  48.936  1.00  0.00    +0.000 H 
ATOM    111  H24 UNL A   1      17.055  35.379  49.055  1.00  0.00    +0.000 H 
ATOM    112  H25 UNL A   1      18.964  34.144  47.923  1.00  0.00    +0.000 H 
ATOM    113  H26 UNL A   1      20.262  38.004  48.752  1.00  0.00    +0.000 H 
ATOM    114  H27 UNL A   1      16.435  40.273  51.100  1.00  0.00    +0.000 H 
ATOM    115  H28 UNL A   1      17.836  42.414  51.044  1.00  0.00    +0.000 H 
ATOM    116  H29 UNL A   1      25.466  37.402  46.854  1.00  0.00    +0.000 H 
ATOM    117  H30 UNL A   1      23.922  35.407  46.421  1.00  0.00    +0.000 H 
ENDROOT
BRANCH   19   18
ATOM    106  H19 UNL A   1      22.543  31.271  47.766  1.00  0.00    +0.000 H 
ATOM    107  H20 UNL A   1      22.070  33.434  48.755  1.00  0.00    +0.000 H 
ATOM     76  C53 UNL A   1      21.248  34.128  45.580  1.00  0.00    +0.000 C 
ATOM     77  C54 UNL A   1      21.433  32.857  45.031  1.00  0.00    +0.000 C 
ATOM     15  C11 UNL A   1      21.968  31.829  45.812  1.00  0.00    +0.000 C 
ATOM     16  C12 UNL A   1      22.190  32.041  47.176  1.00  0.00    +0.000 C 
ATOM     17  C13 UNL A   1      21.935  33.292  47.741  1.00  0.00    +0.000 C 
ATOM     18  C14 UNL A   1      21.496  34.359  46.941  1.00  0.00    +0.000 C 
ATOM    118  H31 UNL A   1      20.925  34.903  44.979  1.00  0.00    +0.000 H 
ATOM    119  H32 UNL A   1      21.174  32.678  44.049  1.00  0.00    +0.000 H 
BRANCH   15   13
ATOM     13  C10 UNL A   1      22.280  30.497  45.245  1.00  0.00    +0.000 C 
ATOM     14  O2  UNL A   1      23.315  30.343  44.599  1.00  0.00    +0.000 O 
BRANCH   13   12
ATOM    105  H18 UNL A   1      21.615  28.859  46.174  1.00  0.00    +0.000 H 
ATOM     12  N2  UNL A   1      21.419  29.440  45.405  1.00  0.00    +0.000 N 
BRANCH   12   11
ATOM     11  C9  UNL A   1      20.264  29.044  44.618  1.00  0.00    +0.000 C 
ATOM    103  H16 UNL A   1      20.571  28.921  43.600  1.00  0.00    +0.000 H 
ATOM    104  H17 UNL A   1      19.889  28.131  45.033  1.00  0.00    +0.000 H 
BRANCH   11   10
ATOM     10  C8  UNL A   1      19.131  30.066  44.666  1.00  0.00    +0.000 C 
ATOM    101  H14 UNL A   1      18.845  30.193  45.689  1.00  0.00    +0.000 H 
ATOM    102  H15 UNL A   1      19.517  30.953  44.210  1.00  0.00    +0.000 H 
BRANCH   10    9
ATOM      9  C7  UNL A   1      17.875  29.700  43.869  1.00  0.00    +0.000 C 
ATOM     99  H12 UNL A   1      17.026  30.064  44.410  1.00  0.00    +0.000 H 
ATOM    100  H13 UNL A   1      18.001  30.146  42.906  1.00  0.00    +0.000 H 
BRANCH    9    8
ATOM     97  H10 UNL A   1      18.187  27.949  42.716  1.00  0.00    +0.000 H 
ATOM     98  H11 UNL A   1      18.028  27.706  44.486  1.00  0.00    +0.000 H 
ATOM      8  C6  UNL A   1      17.664  28.206  43.613  1.00  0.00    +0.000 C 
BRANCH    8    7
ATOM     95  H8  UNL A   1      16.115  26.772  43.861  1.00  0.00    +0.000 H 
ATOM      7  C5  UNL A   1      16.207  27.757  43.453  1.00  0.00    +0.000 C 
ATOM     96  H9  UNL A   1      15.611  28.485  43.963  1.00  0.00    +0.000 H 
BRANCH    7    6
ATOM     94  H7  UNL A   1      16.525  27.495  41.374  1.00  0.00    +0.000 H 
ATOM     93  H6  UNL A   1      15.272  28.674  41.773  1.00  0.00    +0.000 H 
ATOM      6  C4  UNL A   1      15.697  27.722  42.012  1.00  0.00    +0.000 C 
BRANCH    6    5
ATOM     92  H5  UNL A   1      13.938  26.737  42.457  1.00  0.00    +0.000 H 
ATOM      5  N1  UNL A   1      14.684  26.695  41.816  1.00  0.00    +0.000 N 
BRANCH    5    3
ATOM      3  C3  UNL A   1      14.582  25.682  40.905  1.00  0.00    +0.000 C 
ATOM      4  O1  UNL A   1      14.227  25.989  39.762  1.00  0.00    +0.000 O 
BRANCH    3    2
ATOM      2  C2  UNL A   1      14.886  24.215  41.260  1.00  0.00    +0.000 C 
ATOM     91  H4  UNL A   1      15.892  23.978  40.982  1.00  0.00    +0.000 H 
BRANCH    2    1
ATOM      1  C1  UNL A   1      14.748  24.055  42.781  1.00  0.00    +0.000 C 
ATOM     90  H3  UNL A   1      14.793  25.018  43.247  1.00  0.00    +0.000 H 
ATOM     89  H2  UNL A   1      13.810  23.593  43.008  1.00  0.00    +0.000 H 
ATOM     88  H1  UNL A   1      15.546  23.443  43.150  1.00  0.00    +0.000 H 
ENDBRANCH    2    1
BRANCH    2   78
ATOM     78  C55 UNL A   1      14.067  23.214  40.447  1.00  0.00    +0.000 C 
ATOM     79  C56 UNL A   1      14.414  22.872  39.128  1.00  0.00    +0.000 C 
ATOM     80  C57 UNL A   1      13.952  21.683  38.564  1.00  0.00    +0.000 C 
ATOM     81  C58 UNL A   1      13.185  20.833  39.349  1.00  0.00    +0.000 C 
ATOM     82  C59 UNL A   1      12.682  21.255  40.578  1.00  0.00    +0.000 C 
ATOM     83  C60 UNL A   1      13.041  22.494  41.080  1.00  0.00    +0.000 C 
ATOM     84  O3  UNL A   1      11.990  20.439  41.431  1.00  0.00    +0.000 O 
ATOM     85  C61 UNL A   1      12.179  19.045  41.162  1.00  0.00    +0.000 C 
ATOM     86  C62 UNL A   1      13.291  18.749  40.161  1.00  0.00    +0.000 C 
ATOM     87  O4  UNL A   1      13.086  19.517  38.967  1.00  0.00    +0.000 O 
ATOM    120  H33 UNL A   1      15.014  23.504  38.574  1.00  0.00    +0.000 H 
ATOM    121  H34 UNL A   1      14.174  21.441  37.585  1.00  0.00    +0.000 H 
ATOM    122  H35 UNL A   1      12.562  22.884  41.907  1.00  0.00    +0.000 H 
ATOM    123  H36 UNL A   1      11.263  18.649  40.774  1.00  0.00    +0.000 H 
ATOM    124  H37 UNL A   1      12.467  18.588  42.086  1.00  0.00    +0.000 H 
ATOM    125  H38 UNL A   1      13.283  17.706  39.918  1.00  0.00    +0.000 H 
ATOM    126  H39 UNL A   1      14.235  19.011  40.592  1.00  0.00    +0.000 H 
ENDBRANCH    2   78
ENDBRANCH    3    2
ENDBRANCH    5    3
ENDBRANCH    6    5
ENDBRANCH    7    6
ENDBRANCH    8    7
ENDBRANCH    9    8
ENDBRANCH   10    9
ENDBRANCH   11   10
ENDBRANCH   12   11
ENDBRANCH   13   12
ENDBRANCH   15   13
ENDBRANCH   19   18
BRANCH   23   24
ATOM     33  C24 UNL A   1      26.682  39.903  48.400  1.00  0.00    +0.000 C 
ATOM     34  F5  UNL A   1      26.453  39.571  49.680  1.00  0.00    +0.000 F 
ATOM     24  C19 UNL A   1      25.623  39.952  47.481  1.00  0.00    +0.000 C 
ATOM     25  C20 UNL A   1      25.922  40.312  46.158  1.00  0.00    +0.000 C 
ATOM     26  F1  UNL A   1      24.947  40.364  45.236  1.00  0.00    +0.000 F 
ATOM     27  C21 UNL A   1      27.228  40.588  45.765  1.00  0.00    +0.000 C 
ATOM     28  F2  UNL A   1      27.494  40.886  44.486  1.00  0.00    +0.000 F 
ATOM     29  C22 UNL A   1      28.257  40.546  46.694  1.00  0.00    +0.000 C 
ATOM     30  F3  UNL A   1      29.512  40.824  46.318  1.00  0.00    +0.000 F 
ATOM     31  C23 UNL A   1      27.984  40.211  48.011  1.00  0.00    +0.000 C 
ATOM     32  F4  UNL A   1      28.974  40.183  48.913  1.00  0.00    +0.000 F 
ENDBRANCH   23   24
BRANCH   40   41
ATOM     41  C30 UNL A   1      20.156  43.514  50.565  1.00  0.00    +0.000 C 
ATOM     42  C31 UNL A   1      19.624  44.506  49.726  1.00  0.00    +0.000 C 
ATOM     43  F6  UNL A   1      19.389  44.241  48.432  1.00  0.00    +0.000 F 
ATOM     44  C32 UNL A   1      19.379  45.791  50.203  1.00  0.00    +0.000 C 
ATOM     45  F7  UNL A   1      18.928  46.737  49.368  1.00  0.00    +0.000 F 
ATOM     46  C33 UNL A   1      19.621  46.098  51.534  1.00  0.00    +0.000 C 
ATOM     47  F8  UNL A   1      19.384  47.335  51.990  1.00  0.00    +0.000 F 
ATOM     48  C34 UNL A   1      20.119  45.126  52.387  1.00  0.00    +0.000 C 
ATOM     49  F9  UNL A   1      20.339  45.417  53.676  1.00  0.00    +0.000 F 
ATOM     50  C35 UNL A   1      20.396  43.849  51.905  1.00  0.00    +0.000 C 
ATOM     51  F10 UNL A   1      20.897  42.937  52.752  1.00  0.00    +0.000 F 
ENDBRANCH   40   41
BRANCH   55   56
ATOM     65  C44 UNL A   1      16.009  37.547  51.630  1.00  0.00    +0.000 C 
ATOM     66  F15 UNL A   1      16.983  37.648  52.546  1.00  0.00    +0.000 F 
ATOM     56  C39 UNL A   1      16.302  37.720  50.270  1.00  0.00    +0.000 C 
ATOM     57  C40 UNL A   1      15.246  37.594  49.355  1.00  0.00    +0.000 C 
ATOM     58  F11 UNL A   1      15.471  37.771  48.045  1.00  0.00    +0.000 F 
ATOM     59  C41 UNL A   1      13.946  37.341  49.787  1.00  0.00    +0.000 C 
ATOM     60  F12 UNL A   1      12.946  37.287  48.896  1.00  0.00    +0.000 F 
ATOM     61  C42 UNL A   1      13.681  37.169  51.137  1.00  0.00    +0.000 C 
ATOM     62  F13 UNL A   1      12.430  36.927  51.552  1.00  0.00    +0.000 F 
ATOM     63  C43 UNL A   1      14.714  37.259  52.057  1.00  0.00    +0.000 C 
ATOM     64  F14 UNL A   1      14.467  37.077  53.362  1.00  0.00    +0.000 F 
ENDBRANCH   55   56
TORSDOF 17
ENDMDL
MODEL 4
REMARK VINA RESULT:     -10.4     24.482     29.246
ROOT
ATOM     19  C15 UNL A   1      41.618  26.200  27.641  1.00  0.00    +0.000 C 
ATOM     20  C16 UNL A   1      43.018  26.541  27.211  1.00  0.00    +0.000 C 
ATOM     21  N3  UNL A   1      43.698  27.645  27.403  1.00  0.00    +0.000 N 
ATOM     22  C17 UNL A   1      44.941  27.432  26.821  1.00  0.00    +0.000 C 
ATOM     23  C18 UNL A   1      45.972  28.301  26.680  1.00  0.00    +0.000 C 
ATOM     35  C25 UNL A   1      45.964  29.658  27.163  1.00  0.00    +0.000 C 
ATOM     36  C26 UNL A   1      46.949  30.623  27.046  1.00  0.00    +0.000 C 
ATOM     37  C27 UNL A   1      46.515  31.778  27.707  1.00  0.00    +0.000 C 
ATOM     38  C28 UNL A   1      45.236  31.551  28.188  1.00  0.00    +0.000 C 
ATOM     39  N4  UNL A   1      44.915  30.243  27.858  1.00  0.00    +0.000 N 
ATOM     40  C29 UNL A   1      44.369  32.459  28.893  1.00  0.00    +0.000 C 
ATOM     52  C36 UNL A   1      43.124  32.154  29.337  1.00  0.00    +0.000 C 
ATOM     53  N5  UNL A   1      42.426  30.959  29.227  1.00  0.00    +0.000 N 
ATOM     54  C37 UNL A   1      41.282  31.154  29.836  1.00  0.00    +0.000 C 
ATOM     55  C38 UNL A   1      40.118  30.212  29.997  1.00  0.00    +0.000 C 
ATOM     67  C45 UNL A   1      40.183  28.986  29.444  1.00  0.00    +0.000 C 
ATOM     68  C46 UNL A   1      39.126  27.981  29.492  1.00  0.00    +0.000 C 
ATOM     69  C47 UNL A   1      39.547  26.871  28.866  1.00  0.00    +0.000 C 
ATOM     70  C48 UNL A   1      40.894  27.098  28.341  1.00  0.00    +0.000 C 
ATOM     71  N6  UNL A   1      41.192  28.379  28.736  1.00  0.00    +0.000 N 
ATOM     72  C49 UNL A   1      41.137  32.491  30.426  1.00  0.00    +0.000 C 
ATOM     73  C50 UNL A   1      42.265  33.075  30.048  1.00  0.00    +0.000 C 
ATOM     74  C51 UNL A   1      44.948  26.070  26.331  1.00  0.00    +0.000 C 
ATOM     75  C52 UNL A   1      43.763  25.499  26.489  1.00  0.00    +0.000 C 
ATOM    108  H21 UNL A   1      47.850  30.510  26.556  1.00  0.00    +0.000 H 
ATOM    109  H22 UNL A   1      47.056  32.649  27.816  1.00  0.00    +0.000 H 
ATOM    110  H23 UNL A   1      44.067  29.795  28.084  1.00  0.00    +0.000 H 
ATOM    111  H24 UNL A   1      38.202  28.104  29.936  1.00  0.00    +0.000 H 
ATOM    112  H25 UNL A   1      39.007  25.997  28.769  1.00  0.00    +0.000 H 
ATOM    113  H26 UNL A   1      42.046  28.821  28.530  1.00  0.00    +0.000 H 
ATOM    114  H27 UNL A   1      40.361  32.874  30.987  1.00  0.00    +0.000 H 
ATOM    115  H28 UNL A   1      42.501  34.061  30.238  1.00  0.00    +0.000 H 
ATOM    116  H29 UNL A   1      45.769  25.606  25.913  1.00  0.00    +0.000 H 
ATOM    117  H30 UNL A   1      43.446  24.565  26.186  1.00  0.00    +0.000 H 
ENDROOT
BRANCH   19   18
ATOM    106  H19 UNL A   1      41.380  21.607  28.076  1.00  0.00    +0.000 H 
ATOM    107  H20 UNL A   1      42.220  23.792  28.711  1.00  0.00    +0.000 H 
ATOM     76  C53 UNL A   1      40.000  24.747  26.388  1.00  0.00    +0.000 C 
ATOM     77  C54 UNL A   1      39.454  23.498  26.091  1.00  0.00    +0.000 C 
ATOM     15  C11 UNL A   1      40.000  22.343  26.656  1.00  0.00    +0.000 C 
ATOM     16  C12 UNL A   1      41.005  22.454  27.622  1.00  0.00    +0.000 C 
ATOM     17  C13 UNL A   1      41.500  23.712  27.974  1.00  0.00    +0.000 C 
ATOM     18  C14 UNL A   1      41.029  24.869  27.333  1.00  0.00    +0.000 C 
ATOM    118  H31 UNL A   1      39.643  25.589  25.908  1.00  0.00    +0.000 H 
ATOM    119  H32 UNL A   1      38.646  23.427  25.453  1.00  0.00    +0.000 H 
BRANCH   15   13
ATOM     13  C10 UNL A   1      39.522  20.989  26.289  1.00  0.00    +0.000 C 
ATOM     14  O2  UNL A   1      40.161  20.004  26.655  1.00  0.00    +0.000 O 
BRANCH   13   12
ATOM    105  H18 UNL A   1      38.444  20.086  24.872  1.00  0.00    +0.000 H 
ATOM     12  N2  UNL A   1      38.394  20.820  25.525  1.00  0.00    +0.000 N 
BRANCH   12   11
ATOM     11  C9  UNL A   1      37.141  21.555  25.528  1.00  0.00    +0.000 C 
ATOM    103  H16 UNL A   1      36.389  20.945  25.985  1.00  0.00    +0.000 H 
ATOM    104  H17 UNL A   1      37.302  22.462  26.072  1.00  0.00    +0.000 H 
BRANCH   11   10
ATOM     10  C8  UNL A   1      36.672  21.939  24.127  1.00  0.00    +0.000 C 
ATOM    101  H14 UNL A   1      37.472  21.738  23.445  1.00  0.00    +0.000 H 
ATOM    102  H15 UNL A   1      35.791  21.362  23.944  1.00  0.00    +0.000 H 
BRANCH   10    9
ATOM      9  C7  UNL A   1      36.257  23.402  23.946  1.00  0.00    +0.000 C 
ATOM     99  H12 UNL A   1      36.416  23.905  24.878  1.00  0.00    +0.000 H 
ATOM    100  H13 UNL A   1      36.854  23.778  23.143  1.00  0.00    +0.000 H 
BRANCH    9    8
ATOM     97  H10 UNL A   1      34.754  23.580  22.462  1.00  0.00    +0.000 H 
ATOM     98  H11 UNL A   1      34.233  22.876  24.028  1.00  0.00    +0.000 H 
ATOM      8  C6  UNL A   1      34.802  23.633  23.529  1.00  0.00    +0.000 C 
BRANCH    8    7
ATOM     95  H8  UNL A   1      34.918  25.737  23.807  1.00  0.00    +0.000 H 
ATOM      7  C5  UNL A   1      34.189  24.970  23.963  1.00  0.00    +0.000 C 
ATOM     96  H9  UNL A   1      33.305  25.098  23.375  1.00  0.00    +0.000 H 
BRANCH    7    6
ATOM     94  H7  UNL A   1      33.539  26.053  25.664  1.00  0.00    +0.000 H 
ATOM     93  H6  UNL A   1      34.522  24.636  26.040  1.00  0.00    +0.000 H 
ATOM      6  C4  UNL A   1      33.743  25.031  25.424  1.00  0.00    +0.000 C 
BRANCH    6    5
ATOM     92  H5  UNL A   1      31.702  24.722  25.376  1.00  0.00    +0.000 H 
ATOM      5  N1  UNL A   1      32.528  24.264  25.656  1.00  0.00    +0.000 N 
BRANCH    5    3
ATOM      3  C3  UNL A   1      32.324  23.025  26.192  1.00  0.00    +0.000 C 
ATOM      4  O1  UNL A   1      31.279  22.853  26.828  1.00  0.00    +0.000 O 
BRANCH    3    2
ATOM      2  C2  UNL A   1      33.336  21.875  26.029  1.00  0.00    +0.000 C 
ATOM     91  H4  UNL A   1      34.141  22.190  25.399  1.00  0.00    +0.000 H 
BRANCH    2    1
ATOM      1  C1  UNL A   1      33.902  21.539  27.417  1.00  0.00    +0.000 C 
ATOM     90  H3  UNL A   1      33.110  21.554  28.138  1.00  0.00    +0.000 H 
ATOM     89  H2  UNL A   1      34.346  20.566  27.396  1.00  0.00    +0.000 H 
ATOM     88  H1  UNL A   1      34.643  22.264  27.685  1.00  0.00    +0.000 H 
ENDBRANCH    2    1
BRANCH    2   78
ATOM     78  C55 UNL A   1      32.769  20.673  25.276  1.00  0.00    +0.000 C 
ATOM     79  C56 UNL A   1      32.402  20.755  23.920  1.00  0.00    +0.000 C 
ATOM     80  C57 UNL A   1      32.307  19.600  23.145  1.00  0.00    +0.000 C 
ATOM     81  C58 UNL A   1      32.625  18.383  23.730  1.00  0.00    +0.000 C 
ATOM     82  C59 UNL A   1      32.798  18.277  25.110  1.00  0.00    +0.000 C 
ATOM     83  C60 UNL A   1      32.765  19.415  25.897  1.00  0.00    +0.000 C 
ATOM     84  O3  UNL A   1      33.189  17.125  25.735  1.00  0.00    +0.000 O 
ATOM     85  C61 UNL A   1      33.800  16.177  24.849  1.00  0.00    +0.000 C 
ATOM     86  C62 UNL A   1      34.114  16.732  23.464  1.00  0.00    +0.000 C 
ATOM     87  O4  UNL A   1      32.938  17.332  22.903  1.00  0.00    +0.000 O 
ATOM    120  H33 UNL A   1      32.203  21.676  23.497  1.00  0.00    +0.000 H 
ATOM    121  H34 UNL A   1      32.005  19.649  22.159  1.00  0.00    +0.000 H 
ATOM    122  H35 UNL A   1      32.736  19.340  26.926  1.00  0.00    +0.000 H 
ATOM    123  H36 UNL A   1      33.135  15.346  24.736  1.00  0.00    +0.000 H 
ATOM    124  H37 UNL A   1      34.735  15.901  25.290  1.00  0.00    +0.000 H 
ATOM    125  H38 UNL A   1      34.445  15.936  22.829  1.00  0.00    +0.000 H 
ATOM    126  H39 UNL A   1      34.884  17.471  23.545  1.00  0.00    +0.000 H 
ENDBRANCH    2   78
ENDBRANCH    3    2
ENDBRANCH    5    3
ENDBRANCH    6    5
ENDBRANCH    7    6
ENDBRANCH    8    7
ENDBRANCH    9    8
ENDBRANCH   10    9
ENDBRANCH   11   10
ENDBRANCH   12   11
ENDBRANCH   13   12
ENDBRANCH   15   13
ENDBRANCH   19   18
BRANCH   23   24
ATOM     33  C24 UNL A   1      48.316  27.358  26.662  1.00  0.00    +0.000 C 
ATOM     34  F5  UNL A   1      48.297  27.308  28.002  1.00  0.00    +0.000 F 
ATOM     24  C19 UNL A   1      47.194  27.816  25.954  1.00  0.00    +0.000 C 
ATOM     25  C20 UNL A   1      47.275  27.853  24.553  1.00  0.00    +0.000 C 
ATOM     26  F1  UNL A   1      46.226  28.273  23.828  1.00  0.00    +0.000 F 
ATOM     27  C21 UNL A   1      48.420  27.426  23.887  1.00  0.00    +0.000 C 
ATOM     28  F2  UNL A   1      48.456  27.429  22.548  1.00  0.00    +0.000 F 
ATOM     29  C22 UNL A   1      49.521  26.990  24.608  1.00  0.00    +0.000 C 
ATOM     30  F3  UNL A   1      50.628  26.591  23.967  1.00  0.00    +0.000 F 
ATOM     31  C23 UNL A   1      49.472  26.962  25.993  1.00  0.00    +0.000 C 
ATOM     32  F4  UNL A   1      50.540  26.554  26.692  1.00  0.00    +0.000 F 
ENDBRANCH   23   24
BRANCH   40   41
ATOM     41  C30 UNL A   1      44.860  33.858  29.138  1.00  0.00    +0.000 C 
ATOM     42  C31 UNL A   1      45.593  34.193  30.287  1.00  0.00    +0.000 C 
ATOM     43  F6  UNL A   1      45.849  33.262  31.219  1.00  0.00    +0.000 F 
ATOM     44  C32 UNL A   1      46.021  35.499  30.508  1.00  0.00    +0.000 C 
ATOM     45  F7  UNL A   1      46.666  35.807  31.641  1.00  0.00    +0.000 F 
ATOM     46  C33 UNL A   1      45.763  36.485  29.567  1.00  0.00    +0.000 C 
ATOM     47  F8  UNL A   1      46.177  37.741  29.782  1.00  0.00    +0.000 F 
ATOM     48  C34 UNL A   1      45.066  36.171  28.411  1.00  0.00    +0.000 C 
ATOM     49  F9  UNL A   1      44.829  37.119  27.495  1.00  0.00    +0.000 F 
ATOM     50  C35 UNL A   1      44.607  34.873  28.203  1.00  0.00    +0.000 C 
ATOM     51  F10 UNL A   1      43.918  34.606  27.084  1.00  0.00    +0.000 F 
ENDBRANCH   40   41
BRANCH   55   56
ATOM     65  C44 UNL A   1      38.821  30.479  32.139  1.00  0.00    +0.000 C 
ATOM     66  F15 UNL A   1      39.836  29.922  32.815  1.00  0.00    +0.000 F 
ATOM     56  C39 UNL A   1      38.903  30.629  30.748  1.00  0.00    +0.000 C 
ATOM     57  C40 UNL A   1      37.809  31.211  30.091  1.00  0.00    +0.000 C 
ATOM     58  F11 UNL A   1      37.846  31.394  28.762  1.00  0.00    +0.000 F 
ATOM     59  C41 UNL A   1      36.695  31.655  30.800  1.00  0.00    +0.000 C 
ATOM     60  F12 UNL A   1      35.691  32.263  30.154  1.00  0.00    +0.000 F 
ATOM     61  C42 UNL A   1      36.636  31.491  32.176  1.00  0.00    +0.000 C 
ATOM     62  F13 UNL A   1      35.566  31.920  32.859  1.00  0.00    +0.000 F 
ATOM     63  C43 UNL A   1      37.692  30.892  32.844  1.00  0.00    +0.000 C 
ATOM     64  F14 UNL A   1      37.633  30.716  34.171  1.00  0.00    +0.000 F 
ENDBRANCH   55   56
TORSDOF 17
ENDMDL
MODEL 5
REMARK VINA RESULT:     -10.3     24.535     30.079
ROOT
ATOM     19  C15 UNL A   1      41.396  26.253  27.550  1.00  0.00    +0.000 C 
ATOM     20  C16 UNL A   1      40.749  27.360  28.336  1.00  0.00    +0.000 C 
ATOM     21  N3  UNL A   1      41.254  28.506  28.723  1.00  0.00    +0.000 N 
ATOM     22  C17 UNL A   1      40.234  29.162  29.399  1.00  0.00    +0.000 C 
ATOM     23  C18 UNL A   1      40.278  30.345  30.061  1.00  0.00    +0.000 C 
ATOM     35  C25 UNL A   1      41.447  31.182  30.154  1.00  0.00    +0.000 C 
ATOM     36  C26 UNL A   1      41.598  32.384  30.823  1.00  0.00    +0.000 C 
ATOM     37  C27 UNL A   1      42.896  32.854  30.597  1.00  0.00    +0.000 C 
ATOM     38  C28 UNL A   1      43.573  31.917  29.832  1.00  0.00    +0.000 C 
ATOM     39  N4  UNL A   1      42.669  30.902  29.558  1.00  0.00    +0.000 N 
ATOM     40  C29 UNL A   1      44.942  31.942  29.387  1.00  0.00    +0.000 C 
ATOM     52  C36 UNL A   1      45.529  30.980  28.633  1.00  0.00    +0.000 C 
ATOM     53  N5  UNL A   1      44.981  29.806  28.133  1.00  0.00    +0.000 N 
ATOM     54  C37 UNL A   1      45.935  29.229  27.444  1.00  0.00    +0.000 C 
ATOM     55  C38 UNL A   1      45.916  27.914  26.710  1.00  0.00    +0.000 C 
ATOM     67  C45 UNL A   1      44.802  27.160  26.742  1.00  0.00    +0.000 C 
ATOM     68  C46 UNL A   1      44.646  25.855  26.106  1.00  0.00    +0.000 C 
ATOM     69  C47 UNL A   1      43.398  25.411  26.316  1.00  0.00    +0.000 C 
ATOM     70  C48 UNL A   1      42.672  26.385  27.133  1.00  0.00    +0.000 C 
ATOM     71  N6  UNL A   1      43.584  27.392  27.334  1.00  0.00    +0.000 N 
ATOM     72  C49 UNL A   1      47.191  29.989  27.407  1.00  0.00    +0.000 C 
ATOM     73  C50 UNL A   1      46.905  31.020  28.189  1.00  0.00    +0.000 C 
ATOM     74  C51 UNL A   1      39.060  28.320  29.310  1.00  0.00    +0.000 C 
ATOM     75  C52 UNL A   1      39.343  27.168  28.720  1.00  0.00    +0.000 C 
ATOM    108  H21 UNL A   1      40.876  32.854  31.391  1.00  0.00    +0.000 H 
ATOM    109  H22 UNL A   1      43.284  33.745  30.941  1.00  0.00    +0.000 H 
ATOM    110  H23 UNL A   1      42.864  30.101  29.019  1.00  0.00    +0.000 H 
ATOM    111  H24 UNL A   1      45.380  25.355  25.579  1.00  0.00    +0.000 H 
ATOM    112  H25 UNL A   1      43.011  24.522  25.960  1.00  0.00    +0.000 H 
ATOM    113  H26 UNL A   1      43.384  28.203  27.854  1.00  0.00    +0.000 H 
ATOM    114  H27 UNL A   1      48.067  29.776  26.904  1.00  0.00    +0.000 H 
ATOM    115  H28 UNL A   1      47.579  31.758  28.448  1.00  0.00    +0.000 H 
ATOM    116  H29 UNL A   1      38.127  28.583  29.661  1.00  0.00    +0.000 H 
ATOM    117  H30 UNL A   1      38.734  26.349  28.569  1.00  0.00    +0.000 H 
ENDROOT
BRANCH   19   18
ATOM    106  H19 UNL A   1      40.836  21.671  27.371  1.00  0.00    +0.000 H 
ATOM    107  H20 UNL A   1      41.987  23.675  28.105  1.00  0.00    +0.000 H 
ATOM     76  C53 UNL A   1      39.423  25.115  26.497  1.00  0.00    +0.000 C 
ATOM     77  C54 UNL A   1      38.714  23.961  26.155  1.00  0.00    +0.000 C 
ATOM     15  C11 UNL A   1      39.260  22.702  26.415  1.00  0.00    +0.000 C 
ATOM     16  C12 UNL A   1      40.452  22.600  27.138  1.00  0.00    +0.000 C 
ATOM     17  C13 UNL A   1      41.124  23.755  27.544  1.00  0.00    +0.000 C 
ATOM     18  C14 UNL A   1      40.635  25.025  27.196  1.00  0.00    +0.000 C 
ATOM    118  H31 UNL A   1      39.052  26.041  26.233  1.00  0.00    +0.000 H 
ATOM    119  H32 UNL A   1      37.786  24.041  25.710  1.00  0.00    +0.000 H 
BRANCH   15   13
ATOM     13  C10 UNL A   1      38.593  21.454  25.976  1.00  0.00    +0.000 C 
ATOM     14  O2  UNL A   1      39.261  20.432  25.831  1.00  0.00    +0.000 O 
BRANCH   13   12
ATOM    105  H18 UNL A   1      36.664  21.449  26.493  1.00  0.00    +0.000 H 
ATOM     12  N2  UNL A   1      37.248  21.428  25.702  1.00  0.00    +0.000 N 
BRANCH   12   11
ATOM     11  C9  UNL A   1      36.551  21.373  24.428  1.00  0.00    +0.000 C 
ATOM    103  H16 UNL A   1      36.996  20.606  23.828  1.00  0.00    +0.000 H 
ATOM    104  H17 UNL A   1      35.521  21.170  24.634  1.00  0.00    +0.000 H 
BRANCH   11   10
ATOM     10  C8  UNL A   1      36.612  22.691  23.658  1.00  0.00    +0.000 C 
ATOM    101  H14 UNL A   1      37.471  23.232  23.999  1.00  0.00    +0.000 H 
ATOM    102  H15 UNL A   1      36.650  22.424  22.624  1.00  0.00    +0.000 H 
BRANCH   10    9
ATOM      9  C7  UNL A   1      35.391  23.602  23.811  1.00  0.00    +0.000 C 
ATOM     99  H12 UNL A   1      35.290  24.168  22.908  1.00  0.00    +0.000 H 
ATOM    100  H13 UNL A   1      34.566  22.953  24.011  1.00  0.00    +0.000 H 
BRANCH    9    8
ATOM     97  H10 UNL A   1      35.863  24.080  25.822  1.00  0.00    +0.000 H 
ATOM     98  H11 UNL A   1      36.024  25.418  24.637  1.00  0.00    +0.000 H 
ATOM      8  C6  UNL A   1      35.440  24.589  24.981  1.00  0.00    +0.000 C 
BRANCH    8    7
ATOM     95  H8  UNL A   1      33.899  24.862  26.417  1.00  0.00    +0.000 H 
ATOM      7  C5  UNL A   1      34.093  25.177  25.413  1.00  0.00    +0.000 C 
ATOM     96  H9  UNL A   1      34.182  26.238  25.311  1.00  0.00    +0.000 H 
BRANCH    7    6
ATOM     94  H7  UNL A   1      33.278  24.242  23.695  1.00  0.00    +0.000 H 
ATOM     93  H6  UNL A   1      32.363  25.642  24.260  1.00  0.00    +0.000 H 
ATOM      6  C4  UNL A   1      32.901  24.764  24.549  1.00  0.00    +0.000 C 
BRANCH    6    5
ATOM     92  H5  UNL A   1      31.044  24.007  25.042  1.00  0.00    +0.000 H 
ATOM      5  N1  UNL A   1      31.996  23.872  25.258  1.00  0.00    +0.000 N 
BRANCH    5    3
ATOM      3  C3  UNL A   1      32.226  22.881  26.170  1.00  0.00    +0.000 C 
ATOM      4  O1  UNL A   1      31.551  22.902  27.204  1.00  0.00    +0.000 O 
BRANCH    3    2
ATOM      2  C2  UNL A   1      33.275  21.776  25.946  1.00  0.00    +0.000 C 
ATOM     91  H4  UNL A   1      34.042  22.135  25.293  1.00  0.00    +0.000 H 
BRANCH    2    1
ATOM      1  C1  UNL A   1      33.907  21.438  27.305  1.00  0.00    +0.000 C 
ATOM     90  H3  UNL A   1      33.794  22.271  27.968  1.00  0.00    +0.000 H 
ATOM     89  H2  UNL A   1      33.420  20.582  27.722  1.00  0.00    +0.000 H 
ATOM     88  H1  UNL A   1      34.948  21.227  27.172  1.00  0.00    +0.000 H 
ENDBRANCH    2    1
BRANCH    2   78
ATOM     78  C55 UNL A   1      32.726  20.567  25.192  1.00  0.00    +0.000 C 
ATOM     79  C56 UNL A   1      32.411  20.629  23.822  1.00  0.00    +0.000 C 
ATOM     80  C57 UNL A   1      32.336  19.462  23.063  1.00  0.00    +0.000 C 
ATOM     81  C58 UNL A   1      32.622  18.252  23.679  1.00  0.00    +0.000 C 
ATOM     82  C59 UNL A   1      32.742  18.168  25.065  1.00  0.00    +0.000 C 
ATOM     83  C60 UNL A   1      32.689  19.319  25.833  1.00  0.00    +0.000 C 
ATOM     84  O3  UNL A   1      33.101  17.023  25.723  1.00  0.00    +0.000 O 
ATOM     85  C61 UNL A   1      33.737  16.057  24.877  1.00  0.00    +0.000 C 
ATOM     86  C62 UNL A   1      34.107  16.587  23.495  1.00  0.00    +0.000 C 
ATOM     87  O4  UNL A   1      32.958  17.186  22.881  1.00  0.00    +0.000 O 
ATOM    120  H33 UNL A   1      32.236  21.544  23.377  1.00  0.00    +0.000 H 
ATOM    121  H34 UNL A   1      32.072  19.497  22.065  1.00  0.00    +0.000 H 
ATOM    122  H35 UNL A   1      32.622  19.260  26.861  1.00  0.00    +0.000 H 
ATOM    123  H36 UNL A   1      33.070  15.229  24.752  1.00  0.00    +0.000 H 
ATOM    124  H37 UNL A   1      34.653  15.781  25.357  1.00  0.00    +0.000 H 
ATOM    125  H38 UNL A   1      34.455  15.778  22.886  1.00  0.00    +0.000 H 
ATOM    126  H39 UNL A   1      34.879  17.321  23.594  1.00  0.00    +0.000 H 
ENDBRANCH    2   78
ENDBRANCH    3    2
ENDBRANCH    5    3
ENDBRANCH    6    5
ENDBRANCH    7    6
ENDBRANCH    8    7
ENDBRANCH    9    8
ENDBRANCH   10    9
ENDBRANCH   11   10
ENDBRANCH   12   11
ENDBRANCH   13   12
ENDBRANCH   15   13
ENDBRANCH   19   18
BRANCH   23   24
ATOM     33  C24 UNL A   1      38.023  31.485  30.057  1.00  0.00    +0.000 C 
ATOM     34  F5  UNL A   1      38.150  31.712  28.741  1.00  0.00    +0.000 F 
ATOM     24  C19 UNL A   1      39.026  30.798  30.757  1.00  0.00    +0.000 C 
ATOM     25  C20 UNL A   1      38.842  30.596  32.134  1.00  0.00    +0.000 C 
ATOM     26  F1  UNL A   1      39.767  29.936  32.849  1.00  0.00    +0.000 F 
ATOM     27  C21 UNL A   1      37.692  31.042  32.778  1.00  0.00    +0.000 C 
ATOM     28  F2  UNL A   1      37.519  30.797  34.085  1.00  0.00    +0.000 F 
ATOM     29  C22 UNL A   1      36.720  31.730  32.068  1.00  0.00    +0.000 C 
ATOM     30  F3  UNL A   1      35.618  32.169  32.692  1.00  0.00    +0.000 F 
ATOM     31  C23 UNL A   1      36.888  31.957  30.711  1.00  0.00    +0.000 C 
ATOM     32  F4  UNL A   1      35.956  32.634  30.027  1.00  0.00    +0.000 F 
ENDBRANCH   23   24
BRANCH   40   41
ATOM     41  C30 UNL A   1      45.800  33.102  29.807  1.00  0.00    +0.000 C 
ATOM     42  C31 UNL A   1      46.558  33.071  30.987  1.00  0.00    +0.000 C 
ATOM     43  F6  UNL A   1      46.510  31.998  31.792  1.00  0.00    +0.000 F 
ATOM     44  C32 UNL A   1      47.331  34.164  31.371  1.00  0.00    +0.000 C 
ATOM     45  F7  UNL A   1      47.998  34.134  32.533  1.00  0.00    +0.000 F 
ATOM     46  C33 UNL A   1      47.393  35.290  30.565  1.00  0.00    +0.000 C 
ATOM     47  F8  UNL A   1      48.138  36.341  30.936  1.00  0.00    +0.000 F 
ATOM     48  C34 UNL A   1      46.674  35.333  29.380  1.00  0.00    +0.000 C 
ATOM     49  F9  UNL A   1      46.745  36.414  28.593  1.00  0.00    +0.000 F 
ATOM     50  C35 UNL A   1      45.875  34.254  29.010  1.00  0.00    +0.000 C 
ATOM     51  F10 UNL A   1      45.176  34.335  27.868  1.00  0.00    +0.000 F 
ENDBRANCH   40   41
BRANCH   55   56
ATOM     65  C44 UNL A   1      47.280  27.720  24.602  1.00  0.00    +0.000 C 
ATOM     66  F15 UNL A   1      46.332  28.393  23.935  1.00  0.00    +0.000 F 
ATOM     56  C39 UNL A   1      47.116  27.443  25.967  1.00  0.00    +0.000 C 
ATOM     57  C40 UNL A   1      48.135  26.728  26.613  1.00  0.00    +0.000 C 
ATOM     58  F11 UNL A   1      48.034  26.455  27.923  1.00  0.00    +0.000 F 
ATOM     59  C41 UNL A   1      49.286  26.338  25.931  1.00  0.00    +0.000 C 
ATOM     60  F12 UNL A   1      50.271  25.710  26.588  1.00  0.00    +0.000 F 
ATOM     61  C42 UNL A   1      49.423  26.620  24.580  1.00  0.00    +0.000 C 
ATOM     62  F13 UNL A   1      50.530  26.246  23.925  1.00  0.00    +0.000 F 
ATOM     63  C43 UNL A   1      48.416  27.299  23.913  1.00  0.00    +0.000 C 
ATOM     64  F14 UNL A   1      48.536  27.559  22.604  1.00  0.00    +0.000 F 
ENDBRANCH   55   56
TORSDOF 17
ENDMDL
MODEL 6
REMARK VINA RESULT:     -10.3     47.492     53.202
ROOT
ATOM     19  C15 UNL A   1      24.583 -12.524  30.004  1.00  0.00    +0.000 C 
ATOM     20  C16 UNL A   1      23.935 -11.957  31.237  1.00  0.00    +0.000 C 
ATOM     21  N3  UNL A   1      24.277 -12.102  32.494  1.00  0.00    +0.000 N 
ATOM     22  C17 UNL A   1      23.360 -11.359  33.225  1.00  0.00    +0.000 C 
ATOM     23  C18 UNL A   1      23.234 -11.253  34.571  1.00  0.00    +0.000 C 
ATOM     35  C25 UNL A   1      24.097 -11.906  35.522  1.00  0.00    +0.000 C 
ATOM     36  C26 UNL A   1      24.035 -11.881  36.905  1.00  0.00    +0.000 C 
ATOM     37  C27 UNL A   1      25.107 -12.626  37.407  1.00  0.00    +0.000 C 
ATOM     38  C28 UNL A   1      25.806 -13.162  36.338  1.00  0.00    +0.000 C 
ATOM     39  N4  UNL A   1      25.183 -12.703  35.188  1.00  0.00    +0.000 N 
ATOM     40  C29 UNL A   1      26.954 -14.031  36.362  1.00  0.00    +0.000 C 
ATOM     52  C36 UNL A   1      27.585 -14.510  35.261  1.00  0.00    +0.000 C 
ATOM     53  N5  UNL A   1      27.295 -14.289  33.921  1.00  0.00    +0.000 N 
ATOM     54  C37 UNL A   1      28.206 -14.943  33.243  1.00  0.00    +0.000 C 
ATOM     55  C38 UNL A   1      28.362 -15.086  31.752  1.00  0.00    +0.000 C 
ATOM     67  C45 UNL A   1      27.461 -14.503  30.939  1.00  0.00    +0.000 C 
ATOM     68  C46 UNL A   1      27.466 -14.580  29.481  1.00  0.00    +0.000 C 
ATOM     69  C47 UNL A   1      26.443 -13.856  29.001  1.00  0.00    +0.000 C 
ATOM     70  C48 UNL A   1      25.687 -13.292  30.119  1.00  0.00    +0.000 C 
ATOM     71  N6  UNL A   1      26.367 -13.725  31.231  1.00  0.00    +0.000 N 
ATOM     72  C49 UNL A   1      29.196 -15.633  34.081  1.00  0.00    +0.000 C 
ATOM     73  C50 UNL A   1      28.741 -15.380  35.299  1.00  0.00    +0.000 C 
ATOM     74  C51 UNL A   1      22.490 -10.707  32.271  1.00  0.00    +0.000 C 
ATOM     75  C52 UNL A   1      22.762 -11.094  31.033  1.00  0.00    +0.000 C 
ATOM    108  H21 UNL A   1      23.321 -11.395  37.469  1.00  0.00    +0.000 H 
ATOM    109  H22 UNL A   1      25.337 -12.755  38.405  1.00  0.00    +0.000 H 
ATOM    110  H23 UNL A   1      25.469 -12.910  34.268  1.00  0.00    +0.000 H 
ATOM    111  H24 UNL A   1      28.148 -15.106  28.911  1.00  0.00    +0.000 H 
ATOM    112  H25 UNL A   1      26.223 -13.721  28.001  1.00  0.00    +0.000 H 
ATOM    113  H26 UNL A   1      26.095 -13.502  32.149  1.00  0.00    +0.000 H 
ATOM    114  H27 UNL A   1      30.027 -16.174  33.795  1.00  0.00    +0.000 H 
ATOM    115  H28 UNL A   1      29.159 -15.755  36.165  1.00  0.00    +0.000 H 
ATOM    116  H29 UNL A   1      21.753 -10.029  32.521  1.00  0.00    +0.000 H 
ATOM    117  H30 UNL A   1      22.278 -10.852  30.155  1.00  0.00    +0.000 H 
ENDROOT
BRANCH   19   18
ATOM    106  H19 UNL A   1      22.365 -13.662  26.114  1.00  0.00    +0.000 H 
ATOM    107  H20 UNL A   1      23.091 -14.095  28.388  1.00  0.00    +0.000 H 
ATOM     76  C53 UNL A   1      24.266 -10.973  28.057  1.00  0.00    +0.000 C 
ATOM     77  C54 UNL A   1      23.767 -10.693  26.783  1.00  0.00    +0.000 C 
ATOM     15  C11 UNL A   1      23.131 -11.695  26.046  1.00  0.00    +0.000 C 
ATOM     16  C12 UNL A   1      22.875 -12.935  26.639  1.00  0.00    +0.000 C 
ATOM     17  C13 UNL A   1      23.309 -13.189  27.942  1.00  0.00    +0.000 C 
ATOM     18  C14 UNL A   1      24.042 -12.223  28.651  1.00  0.00    +0.000 C 
ATOM    118  H31 UNL A   1      24.804 -10.253  28.566  1.00  0.00    +0.000 H 
ATOM    119  H32 UNL A   1      23.870  -9.746  26.387  1.00  0.00    +0.000 H 
BRANCH   15   13
ATOM     13  C10 UNL A   1      22.680 -11.474  24.652  1.00  0.00    +0.000 C 
ATOM     14  O2  UNL A   1      21.541 -11.804  24.327  1.00  0.00    +0.000 O 
BRANCH   13   12
ATOM    105  H18 UNL A   1      23.240 -10.061  23.356  1.00  0.00    +0.000 H 
ATOM     12  N2  UNL A   1      23.523 -10.934  23.712  1.00  0.00    +0.000 N 
BRANCH   12   11
ATOM     11  C9  UNL A   1      24.765 -11.448  23.161  1.00  0.00    +0.000 C 
ATOM    103  H16 UNL A   1      24.826 -12.495  23.374  1.00  0.00    +0.000 H 
ATOM    104  H17 UNL A   1      24.753 -11.256  22.108  1.00  0.00    +0.000 H 
BRANCH   11   10
ATOM     10  C8  UNL A   1      26.001 -10.761  23.737  1.00  0.00    +0.000 C 
ATOM    101  H14 UNL A   1      26.721 -10.663  22.950  1.00  0.00    +0.000 H 
ATOM    102  H15 UNL A   1      25.661  -9.827  24.130  1.00  0.00    +0.000 H 
BRANCH   10    9
ATOM      9  C7  UNL A   1      26.677 -11.485  24.904  1.00  0.00    +0.000 C 
ATOM     99  H12 UNL A   1      25.933 -12.075  25.399  1.00  0.00    +0.000 H 
ATOM    100  H13 UNL A   1      27.470 -12.058  24.473  1.00  0.00    +0.000 H 
BRANCH    9    8
ATOM     97  H10 UNL A   1      27.047 -10.940  26.920  1.00  0.00    +0.000 H 
ATOM     98  H11 UNL A   1      28.388 -10.642  25.766  1.00  0.00    +0.000 H 
ATOM      8  C6  UNL A   1      27.336 -10.584  25.952  1.00  0.00    +0.000 C 
BRANCH    8    7
ATOM     95  H8  UNL A   1      26.410  -8.937  24.980  1.00  0.00    +0.000 H 
ATOM      7  C5  UNL A   1      26.979  -9.096  25.872  1.00  0.00    +0.000 C 
ATOM     96  H9  UNL A   1      26.437  -8.869  26.766  1.00  0.00    +0.000 H 
BRANCH    7    6
ATOM     94  H7  UNL A   1      27.959  -7.360  25.153  1.00  0.00    +0.000 H 
ATOM     93  H6  UNL A   1      29.046  -8.693  25.549  1.00  0.00    +0.000 H 
ATOM      6  C4  UNL A   1      28.177  -8.145  25.845  1.00  0.00    +0.000 C 
BRANCH    6    5
ATOM     92  H5  UNL A   1      27.974  -6.677  27.282  1.00  0.00    +0.000 H 
ATOM      5  N1  UNL A   1      28.424  -7.543  27.146  1.00  0.00    +0.000 N 
BRANCH    5    3
ATOM      3  C3  UNL A   1      29.166  -7.960  28.214  1.00  0.00    +0.000 C 
ATOM      4  O1  UNL A   1      29.563  -7.090  28.996  1.00  0.00    +0.000 O 
BRANCH    3    2
ATOM      2  C2  UNL A   1      29.510  -9.441  28.456  1.00  0.00    +0.000 C 
ATOM     91  H4  UNL A   1      29.237 -10.020  27.598  1.00  0.00    +0.000 H 
BRANCH    2    1
ATOM      1  C1  UNL A   1      31.029  -9.551  28.658  1.00  0.00    +0.000 C 
ATOM     90  H3  UNL A   1      31.231 -10.134  29.533  1.00  0.00    +0.000 H 
ATOM     89  H2  UNL A   1      31.470 -10.023  27.805  1.00  0.00    +0.000 H 
ATOM     88  H1  UNL A   1      31.444  -8.571  28.778  1.00  0.00    +0.000 H 
ENDBRANCH    2    1
BRANCH    2   78
ATOM     78  C55 UNL A   1      28.683 -10.079  29.571  1.00  0.00    +0.000 C 
ATOM     79  C56 UNL A   1      29.255 -10.965  30.502  1.00  0.00    +0.000 C 
ATOM     80  C57 UNL A   1      28.635 -11.192  31.731  1.00  0.00    +0.000 C 
ATOM     81  C58 UNL A   1      27.474 -10.491  32.025  1.00  0.00    +0.000 C 
ATOM     82  C59 UNL A   1      26.807  -9.768  31.038  1.00  0.00    +0.000 C 
ATOM     83  C60 UNL A   1      27.363  -9.650  29.776  1.00  0.00    +0.000 C 
ATOM     84  O3  UNL A   1      25.705  -8.994  31.284  1.00  0.00    +0.000 O 
ATOM     85  C61 UNL A   1      25.546  -8.656  32.668  1.00  0.00    +0.000 C 
ATOM     86  C62 UNL A   1      26.749  -9.007  33.537  1.00  0.00    +0.000 C 
ATOM     87  O4  UNL A   1      27.103 -10.383  33.343  1.00  0.00    +0.000 O 
ATOM    120  H33 UNL A   1      30.138 -11.450  30.275  1.00  0.00    +0.000 H 
ATOM    121  H34 UNL A   1      29.031 -11.865  32.405  1.00  0.00    +0.000 H 
ATOM    122  H35 UNL A   1      26.814  -9.253  28.996  1.00  0.00    +0.000 H 
ATOM    123  H36 UNL A   1      24.693  -9.181  33.046  1.00  0.00    +0.000 H 
ATOM    124  H37 UNL A   1      25.431  -7.593  32.715  1.00  0.00    +0.000 H 
ATOM    125  H38 UNL A   1      26.503  -8.845  34.566  1.00  0.00    +0.000 H 
ATOM    126  H39 UNL A   1      27.576  -8.387  33.263  1.00  0.00    +0.000 H 
ENDBRANCH    2   78
ENDBRANCH    3    2
ENDBRANCH    5    3
ENDBRANCH    6    5
ENDBRANCH    7    6
ENDBRANCH    8    7
ENDBRANCH    9    8
ENDBRANCH   10    9
ENDBRANCH   11   10
ENDBRANCH   12   11
ENDBRANCH   13   12
ENDBRANCH   15   13
ENDBRANCH   19   18
BRANCH   23   24
ATOM     33  C24 UNL A   1      20.823 -10.954  35.263  1.00  0.00    +0.000 C 
ATOM     34  F5  UNL A   1      20.592 -12.246  34.988  1.00  0.00    +0.000 F 
ATOM     24  C19 UNL A   1      22.107 -10.413  35.099  1.00  0.00    +0.000 C 
ATOM     25  C20 UNL A   1      22.287  -9.053  35.396  1.00  0.00    +0.000 C 
ATOM     26  F1  UNL A   1      23.498  -8.488  35.266  1.00  0.00    +0.000 F 
ATOM     27  C21 UNL A   1      21.232  -8.273  35.861  1.00  0.00    +0.000 C 
ATOM     28  F2  UNL A   1      21.440  -6.988  36.180  1.00  0.00    +0.000 F 
ATOM     29  C22 UNL A   1      19.968  -8.826  36.003  1.00  0.00    +0.000 C 
ATOM     30  F3  UNL A   1      18.951  -8.071  36.438  1.00  0.00    +0.000 F 
ATOM     31  C23 UNL A   1      19.762 -10.162  35.698  1.00  0.00    +0.000 C 
ATOM     32  F4  UNL A   1      18.539 -10.694  35.821  1.00  0.00    +0.000 F 
ENDBRANCH   23   24
BRANCH   40   41
ATOM     41  C30 UNL A   1      27.483 -14.466  37.699  1.00  0.00    +0.000 C 
ATOM     42  C31 UNL A   1      28.599 -13.851  38.287  1.00  0.00    +0.000 C 
ATOM     43  F6  UNL A   1      29.244 -12.866  37.643  1.00  0.00    +0.000 F 
ATOM     44  C32 UNL A   1      29.089 -14.282  39.517  1.00  0.00    +0.000 C 
ATOM     45  F7  UNL A   1      30.193 -13.720  40.029  1.00  0.00    +0.000 F 
ATOM     46  C33 UNL A   1      28.450 -15.304  40.202  1.00  0.00    +0.000 C 
ATOM     47  F8  UNL A   1      28.923 -15.716  41.386  1.00  0.00    +0.000 F 
ATOM     48  C34 UNL A   1      27.328 -15.907  39.654  1.00  0.00    +0.000 C 
ATOM     49  F9  UNL A   1      26.701 -16.885  40.321  1.00  0.00    +0.000 F 
ATOM     50  C35 UNL A   1      26.856 -15.501  38.408  1.00  0.00    +0.000 C 
ATOM     51  F10 UNL A   1      25.781 -16.119  37.897  1.00  0.00    +0.000 F 
ENDBRANCH   40   41
BRANCH   55   56
ATOM     65  C44 UNL A   1      30.711 -15.259  30.862  1.00  0.00    +0.000 C 
ATOM     66  F15 UNL A   1      30.870 -13.940  31.044  1.00  0.00    +0.000 F 
ATOM     56  C39 UNL A   1      29.489 -15.869  31.179  1.00  0.00    +0.000 C 
ATOM     57  C40 UNL A   1      29.376 -17.250  30.961  1.00  0.00    +0.000 C 
ATOM     58  F11 UNL A   1      28.234 -17.885  31.266  1.00  0.00    +0.000 F 
ATOM     59  C41 UNL A   1      30.451 -17.994  30.479  1.00  0.00    +0.000 C 
ATOM     60  F12 UNL A   1      30.334 -19.322  30.338  1.00  0.00    +0.000 F 
ATOM     61  C42 UNL A   1      31.648 -17.367  30.169  1.00  0.00    +0.000 C 
ATOM     62  F13 UNL A   1      32.682 -18.083  29.707  1.00  0.00    +0.000 F 
ATOM     63  C43 UNL A   1      31.774 -15.998  30.348  1.00  0.00    +0.000 C 
ATOM     64  F14 UNL A   1      32.923 -15.385  30.033  1.00  0.00    +0.000 F 
ENDBRANCH   55   56
TORSDOF 17
ENDMDL
MODEL 7
REMARK VINA RESULT:     -10.2     40.380     45.555
ROOT
ATOM     19  C15 UNL A   1      22.066  19.779   4.590  1.00  0.00    +0.000 C 
ATOM     20  C16 UNL A   1      21.751  20.768   3.501  1.00  0.00    +0.000 C 
ATOM     21  N3  UNL A   1      20.596  21.282   3.158  1.00  0.00    +0.000 N 
ATOM     22  C17 UNL A   1      20.864  22.151   2.108  1.00  0.00    +0.000 C 
ATOM     23  C18 UNL A   1      19.991  22.863   1.352  1.00  0.00    +0.000 C 
ATOM     35  C25 UNL A   1      18.563  22.860   1.539  1.00  0.00    +0.000 C 
ATOM     36  C26 UNL A   1      17.595  23.527   0.809  1.00  0.00    +0.000 C 
ATOM     37  C27 UNL A   1      16.347  23.260   1.384  1.00  0.00    +0.000 C 
ATOM     38  C28 UNL A   1      16.532  22.382   2.440  1.00  0.00    +0.000 C 
ATOM     39  N4  UNL A   1      17.897  22.155   2.531  1.00  0.00    +0.000 N 
ATOM     40  C29 UNL A   1      15.540  21.792   3.299  1.00  0.00    +0.000 C 
ATOM     52  C36 UNL A   1      15.807  20.940   4.320  1.00  0.00    +0.000 C 
ATOM     53  N5  UNL A   1      17.034  20.460   4.759  1.00  0.00    +0.000 N 
ATOM     54  C37 UNL A   1      16.773  19.693   5.789  1.00  0.00    +0.000 C 
ATOM     55  C38 UNL A   1      17.718  18.885   6.638  1.00  0.00    +0.000 C 
ATOM     67  C45 UNL A   1      19.032  18.886   6.341  1.00  0.00    +0.000 C 
ATOM     68  C46 UNL A   1      20.059  18.131   7.052  1.00  0.00    +0.000 C 
ATOM     69  C47 UNL A   1      21.255  18.396   6.504  1.00  0.00    +0.000 C 
ATOM     70  C48 UNL A   1      21.076  19.314   5.379  1.00  0.00    +0.000 C 
ATOM     71  N6  UNL A   1      19.724  19.553   5.360  1.00  0.00    +0.000 N 
ATOM     72  C49 UNL A   1      15.347  19.621   6.136  1.00  0.00    +0.000 C 
ATOM     73  C50 UNL A   1      14.800  20.356   5.179  1.00  0.00    +0.000 C 
ATOM     74  C51 UNL A   1      22.298  22.151   1.916  1.00  0.00    +0.000 C 
ATOM     75  C52 UNL A   1      22.886  21.265   2.708  1.00  0.00    +0.000 C 
ATOM    108  H21 UNL A   1      17.763  24.121  -0.018  1.00  0.00    +0.000 H 
ATOM    109  H22 UNL A   1      15.444  23.650   1.074  1.00  0.00    +0.000 H 
ATOM    110  H23 UNL A   1      18.330  21.578   3.201  1.00  0.00    +0.000 H 
ATOM    111  H24 UNL A   1      19.891  17.496   7.848  1.00  0.00    +0.000 H 
ATOM    112  H25 UNL A   1      22.158  18.012   6.825  1.00  0.00    +0.000 H 
ATOM    113  H26 UNL A   1      19.292  20.146   4.704  1.00  0.00    +0.000 H 
ATOM    114  H27 UNL A   1      14.892  19.128   6.920  1.00  0.00    +0.000 H 
ATOM    115  H28 UNL A   1      13.784  20.496   5.062  1.00  0.00    +0.000 H 
ATOM    116  H29 UNL A   1      22.797  22.760   1.250  1.00  0.00    +0.000 H 
ATOM    117  H30 UNL A   1      23.880  20.996   2.755  1.00  0.00    +0.000 H 
ENDROOT
BRANCH   19   18
ATOM    106  H19 UNL A   1      25.551  16.776   4.162  1.00  0.00    +0.000 H 
ATOM    107  H20 UNL A   1      23.332  17.595   3.624  1.00  0.00    +0.000 H 
ATOM     76  C53 UNL A   1      24.326  20.085   5.637  1.00  0.00    +0.000 C 
ATOM     77  C54 UNL A   1      25.634  19.657   5.871  1.00  0.00    +0.000 C 
ATOM     15  C11 UNL A   1      26.063  18.418   5.389  1.00  0.00    +0.000 C 
ATOM     16  C12 UNL A   1      25.222  17.671   4.558  1.00  0.00    +0.000 C 
ATOM     17  C13 UNL A   1      23.938  18.134   4.263  1.00  0.00    +0.000 C 
ATOM     18  C14 UNL A   1      23.464  19.329   4.830  1.00  0.00    +0.000 C 
ATOM    118  H31 UNL A   1      23.991  20.964   6.061  1.00  0.00    +0.000 H 
ATOM    119  H32 UNL A   1      26.285  20.258   6.401  1.00  0.00    +0.000 H 
BRANCH   15   13
ATOM     13  C10 UNL A   1      27.406  17.877   5.702  1.00  0.00    +0.000 C 
ATOM     14  O2  UNL A   1      28.396  18.371   5.165  1.00  0.00    +0.000 O 
BRANCH   13   12
ATOM    105  H18 UNL A   1      27.744  15.955   6.125  1.00  0.00    +0.000 H 
ATOM     12  N2  UNL A   1      27.560  16.817   6.561  1.00  0.00    +0.000 N 
BRANCH   12   11
ATOM     11  C9  UNL A   1      27.492  16.768   8.011  1.00  0.00    +0.000 C 
ATOM    103  H16 UNL A   1      26.545  16.359   8.295  1.00  0.00    +0.000 H 
ATOM    104  H17 UNL A   1      28.305  16.161   8.350  1.00  0.00    +0.000 H 
BRANCH   11   10
ATOM     10  C8  UNL A   1      27.645  18.141   8.661  1.00  0.00    +0.000 C 
ATOM    101  H14 UNL A   1      28.609  18.181   9.125  1.00  0.00    +0.000 H 
ATOM    102  H15 UNL A   1      27.513  18.854   7.875  1.00  0.00    +0.000 H 
BRANCH   10    9
ATOM      9  C7  UNL A   1      26.598  18.491   9.722  1.00  0.00    +0.000 C 
ATOM     99  H12 UNL A   1      26.374  17.598  10.269  1.00  0.00    +0.000 H 
ATOM    100  H13 UNL A   1      27.033  19.266  10.317  1.00  0.00    +0.000 H 
BRANCH    9    8
ATOM     97  H10 UNL A   1      25.301  20.122   9.331  1.00  0.00    +0.000 H 
ATOM     98  H11 UNL A   1      25.224  18.759   8.167  1.00  0.00    +0.000 H 
ATOM      8  C6  UNL A   1      25.280  19.061   9.192  1.00  0.00    +0.000 C 
BRANCH    8    7
ATOM     95  H8  UNL A   1      23.926  18.964  10.827  1.00  0.00    +0.000 H 
ATOM      7  C5  UNL A   1      24.007  18.524   9.856  1.00  0.00    +0.000 C 
ATOM     96  H9  UNL A   1      23.198  18.782   9.204  1.00  0.00    +0.000 H 
BRANCH    7    6
ATOM     94  H7  UNL A   1      24.930  16.670  10.304  1.00  0.00    +0.000 H 
ATOM     93  H6  UNL A   1      23.653  16.568   9.090  1.00  0.00    +0.000 H 
ATOM      6  C4  UNL A   1      23.955  17.004  10.019  1.00  0.00    +0.000 C 
BRANCH    6    5
ATOM     92  H5  UNL A   1      22.100  16.447  10.732  1.00  0.00    +0.000 H 
ATOM      5  N1  UNL A   1      23.018  16.598  11.055  1.00  0.00    +0.000 N 
BRANCH    5    3
ATOM      3  C3  UNL A   1      23.181  16.389  12.395  1.00  0.00    +0.000 C 
ATOM      4  O1  UNL A   1      23.681  15.314  12.739  1.00  0.00    +0.000 O 
BRANCH    3    2
ATOM      2  C2  UNL A   1      22.767  17.430  13.452  1.00  0.00    +0.000 C 
ATOM     91  H4  UNL A   1      21.843  17.888  13.165  1.00  0.00    +0.000 H 
BRANCH    2    1
ATOM      1  C1  UNL A   1      22.556  16.696  14.785  1.00  0.00    +0.000 C 
ATOM     90  H3  UNL A   1      21.582  16.250  14.797  1.00  0.00    +0.000 H 
ATOM     89  H2  UNL A   1      23.298  15.933  14.895  1.00  0.00    +0.000 H 
ATOM     88  H1  UNL A   1      22.638  17.393  15.593  1.00  0.00    +0.000 H 
ENDBRANCH    2    1
BRANCH    2   78
ATOM     78  C55 UNL A   1      23.721  18.619  13.536  1.00  0.00    +0.000 C 
ATOM     79  C56 UNL A   1      25.117  18.454  13.465  1.00  0.00    +0.000 C 
ATOM     80  C57 UNL A   1      25.936  19.525  13.109  1.00  0.00    +0.000 C 
ATOM     81  C58 UNL A   1      25.338  20.736  12.786  1.00  0.00    +0.000 C 
ATOM     82  C59 UNL A   1      23.985  20.955  13.042  1.00  0.00    +0.000 C 
ATOM     83  C60 UNL A   1      23.198  19.921  13.518  1.00  0.00    +0.000 C 
ATOM     84  O3  UNL A   1      23.323  22.094  12.674  1.00  0.00    +0.000 O 
ATOM     85  C61 UNL A   1      24.004  22.845  11.661  1.00  0.00    +0.000 C 
ATOM     86  C62 UNL A   1      25.181  22.112  11.027  1.00  0.00    +0.000 C 
ATOM     87  O4  UNL A   1      26.067  21.638  12.051  1.00  0.00    +0.000 O 
ATOM    120  H33 UNL A   1      25.537  17.534  13.676  1.00  0.00    +0.000 H 
ATOM    121  H34 UNL A   1      26.962  19.421  13.087  1.00  0.00    +0.000 H 
ATOM    122  H35 UNL A   1      22.240  20.104  13.856  1.00  0.00    +0.000 H 
ATOM    123  H36 UNL A   1      24.370  23.750  12.102  1.00  0.00    +0.000 H 
ATOM    124  H37 UNL A   1      23.295  23.024  10.880  1.00  0.00    +0.000 H 
ATOM    125  H38 UNL A   1      25.710  22.781  10.380  1.00  0.00    +0.000 H 
ATOM    126  H39 UNL A   1      24.816  21.279  10.462  1.00  0.00    +0.000 H 
ENDBRANCH    2   78
ENDBRANCH    3    2
ENDBRANCH    5    3
ENDBRANCH    6    5
ENDBRANCH    7    6
ENDBRANCH    8    7
ENDBRANCH    9    8
ENDBRANCH   10    9
ENDBRANCH   11   10
ENDBRANCH   12   11
ENDBRANCH   13   12
ENDBRANCH   15   13
ENDBRANCH   19   18
BRANCH   23   24
ATOM     33  C24 UNL A   1      20.701  23.158  -1.055  1.00  0.00    +0.000 C 
ATOM     34  F5  UNL A   1      20.297  21.907  -1.319  1.00  0.00    +0.000 F 
ATOM     24  C19 UNL A   1      20.557  23.692   0.235  1.00  0.00    +0.000 C 
ATOM     25  C20 UNL A   1      21.005  25.004   0.454  1.00  0.00    +0.000 C 
ATOM     26  F1  UNL A   1      20.880  25.566   1.666  1.00  0.00    +0.000 F 
ATOM     27  C21 UNL A   1      21.552  25.759  -0.580  1.00  0.00    +0.000 C 
ATOM     28  F2  UNL A   1      21.931  27.025  -0.356  1.00  0.00    +0.000 F 
ATOM     29  C22 UNL A   1      21.697  25.206  -1.843  1.00  0.00    +0.000 C 
ATOM     30  F3  UNL A   1      22.235  25.929  -2.835  1.00  0.00    +0.000 F 
ATOM     31  C23 UNL A   1      21.279  23.906  -2.079  1.00  0.00    +0.000 C 
ATOM     32  F4  UNL A   1      21.431  23.365  -3.296  1.00  0.00    +0.000 F 
ENDBRANCH   23   24
BRANCH   40   41
ATOM     41  C30 UNL A   1      14.096  22.116   3.039  1.00  0.00    +0.000 C 
ATOM     42  C31 UNL A   1      13.381  21.513   1.993  1.00  0.00    +0.000 C 
ATOM     43  F6  UNL A   1      13.990  20.641   1.174  1.00  0.00    +0.000 F 
ATOM     44  C32 UNL A   1      12.049  21.841   1.752  1.00  0.00    +0.000 C 
ATOM     45  F7  UNL A   1      11.406  21.298   0.710  1.00  0.00    +0.000 F 
ATOM     46  C33 UNL A   1      11.396  22.747   2.575  1.00  0.00    +0.000 C 
ATOM     47  F8  UNL A   1      10.115  23.061   2.341  1.00  0.00    +0.000 F 
ATOM     48  C34 UNL A   1      12.074  23.334   3.632  1.00  0.00    +0.000 C 
ATOM     49  F9  UNL A   1      11.439  24.196   4.437  1.00  0.00    +0.000 F 
ATOM     50  C35 UNL A   1      13.415  23.032   3.855  1.00  0.00    +0.000 C 
ATOM     51  F10 UNL A   1      14.048  23.632   4.873  1.00  0.00    +0.000 F 
ENDBRANCH   40   41
BRANCH   55   56
ATOM     65  C44 UNL A   1      16.924  18.683   9.018  1.00  0.00    +0.000 C 
ATOM     66  F15 UNL A   1      17.132  19.996   9.193  1.00  0.00    +0.000 F 
ATOM     56  C39 UNL A   1      17.213  18.083   7.785  1.00  0.00    +0.000 C 
ATOM     57  C40 UNL A   1      16.983  16.705   7.662  1.00  0.00    +0.000 C 
ATOM     58  F11 UNL A   1      17.225  16.088   6.495  1.00  0.00    +0.000 F 
ATOM     59  C41 UNL A   1      16.454  15.966   8.717  1.00  0.00    +0.000 C 
ATOM     60  F12 UNL A   1      16.188  14.663   8.552  1.00  0.00    +0.000 F 
ATOM     61  C42 UNL A   1      16.181  16.581   9.930  1.00  0.00    +0.000 C 
ATOM     62  F13 UNL A   1      15.671  15.870  10.944  1.00  0.00    +0.000 F 
ATOM     63  C43 UNL A   1      16.427  17.936  10.084  1.00  0.00    +0.000 C 
ATOM     64  F14 UNL A   1      16.181  18.532  11.260  1.00  0.00    +0.000 F 
ENDBRANCH   55   56
TORSDOF 17
ENDMDL
MODEL 8
REMARK VINA RESULT:     -10.2     43.234     46.160
ROOT
ATOM     19  C15 UNL A   1      13.538  53.637   5.447  1.00  0.00    +0.000 C 
ATOM     20  C16 UNL A   1      14.457  54.141   4.369  1.00  0.00    +0.000 C 
ATOM     21  N3  UNL A   1      14.974  53.495   3.352  1.00  0.00    +0.000 N 
ATOM     22  C17 UNL A   1      15.733  54.427   2.657  1.00  0.00    +0.000 C 
ATOM     23  C18 UNL A   1      16.532  54.235   1.578  1.00  0.00    +0.000 C 
ATOM     35  C25 UNL A   1      16.715  52.969   0.915  1.00  0.00    +0.000 C 
ATOM     36  C26 UNL A   1      17.521  52.669  -0.168  1.00  0.00    +0.000 C 
ATOM     37  C27 UNL A   1      17.342  51.319  -0.491  1.00  0.00    +0.000 C 
ATOM     38  C28 UNL A   1      16.464  50.764   0.427  1.00  0.00    +0.000 C 
ATOM     39  N4  UNL A   1      16.078  51.790   1.276  1.00  0.00    +0.000 N 
ATOM     40  C29 UNL A   1      16.013  49.400   0.524  1.00  0.00    +0.000 C 
ATOM     52  C36 UNL A   1      15.143  48.938   1.456  1.00  0.00    +0.000 C 
ATOM     53  N5  UNL A   1      14.511  49.628   2.481  1.00  0.00    +0.000 N 
ATOM     54  C37 UNL A   1      13.749  48.752   3.089  1.00  0.00    +0.000 C 
ATOM     55  C38 UNL A   1      12.863  48.935   4.293  1.00  0.00    +0.000 C 
ATOM     67  C45 UNL A   1      12.814  50.138   4.896  1.00  0.00    +0.000 C 
ATOM     68  C46 UNL A   1      12.027  50.456   6.084  1.00  0.00    +0.000 C 
ATOM     69  C47 UNL A   1      12.194  51.753   6.386  1.00  0.00    +0.000 C 
ATOM     70  C48 UNL A   1      13.128  52.352   5.432  1.00  0.00    +0.000 C 
ATOM     71  N6  UNL A   1      13.441  51.320   4.582  1.00  0.00    +0.000 N 
ATOM     72  C49 UNL A   1      13.792  47.408   2.498  1.00  0.00    +0.000 C 
ATOM     73  C50 UNL A   1      14.695  47.564   1.541  1.00  0.00    +0.000 C 
ATOM     74  C51 UNL A   1      15.555  55.699   3.324  1.00  0.00    +0.000 C 
ATOM     75  C52 UNL A   1      14.828  55.563   4.424  1.00  0.00    +0.000 C 
ATOM    108  H21 UNL A   1      18.148  53.328  -0.656  1.00  0.00    +0.000 H 
ATOM    109  H22 UNL A   1      17.787  50.822  -1.278  1.00  0.00    +0.000 H 
ATOM    110  H23 UNL A   1      15.445  51.696   2.025  1.00  0.00    +0.000 H 
ATOM    111  H24 UNL A   1      11.438  49.790   6.607  1.00  0.00    +0.000 H 
ATOM    112  H25 UNL A   1      11.737  52.249   7.167  1.00  0.00    +0.000 H 
ATOM    113  H26 UNL A   1      14.056  51.417   3.820  1.00  0.00    +0.000 H 
ATOM    114  H27 UNL A   1      13.260  46.564   2.760  1.00  0.00    +0.000 H 
ATOM    115  H28 UNL A   1      15.034  46.803   0.932  1.00  0.00    +0.000 H 
ATOM    116  H29 UNL A   1      15.943  56.593   2.987  1.00  0.00    +0.000 H 
ATOM    117  H30 UNL A   1      14.585  56.272   5.133  1.00  0.00    +0.000 H 
ENDROOT
BRANCH   19   18
ATOM    106  H19 UNL A   1      13.773  55.562   9.640  1.00  0.00    +0.000 H 
ATOM    107  H20 UNL A   1      14.669  54.217   7.832  1.00  0.00    +0.000 H 
ATOM     76  C53 UNL A   1      11.851  55.263   6.348  1.00  0.00    +0.000 C 
ATOM     77  C54 UNL A   1      11.384  56.109   7.355  1.00  0.00    +0.000 C 
ATOM     15  C11 UNL A   1      12.048  56.170   8.583  1.00  0.00    +0.000 C 
ATOM     16  C12 UNL A   1      13.255  55.485   8.751  1.00  0.00    +0.000 C 
ATOM     17  C13 UNL A   1      13.762  54.696   7.715  1.00  0.00    +0.000 C 
ATOM     18  C14 UNL A   1      13.046  54.547   6.516  1.00  0.00    +0.000 C 
ATOM    118  H31 UNL A   1      11.314  55.163   5.472  1.00  0.00    +0.000 H 
ATOM    119  H32 UNL A   1      10.547  56.690   7.192  1.00  0.00    +0.000 H 
BRANCH   15   13
ATOM     13  C10 UNL A   1      11.529  56.971   9.715  1.00  0.00    +0.000 C 
ATOM     14  O2  UNL A   1      11.768  58.177   9.760  1.00  0.00    +0.000 O 
BRANCH   13   12
ATOM    105  H18 UNL A   1       9.858  56.237  10.527  1.00  0.00    +0.000 H 
ATOM     12  N2  UNL A   1      10.810  56.385  10.727  1.00  0.00    +0.000 N 
BRANCH   12   11
ATOM     11  C9  UNL A   1      11.233  55.950  12.048  1.00  0.00    +0.000 C 
ATOM    103  H16 UNL A   1      12.023  56.590  12.381  1.00  0.00    +0.000 H 
ATOM    104  H17 UNL A   1      10.380  56.003  12.692  1.00  0.00    +0.000 H 
BRANCH   11   10
ATOM     10  C8  UNL A   1      11.732  54.507  12.068  1.00  0.00    +0.000 C 
ATOM    101  H14 UNL A   1      11.261  54.007  12.889  1.00  0.00    +0.000 H 
ATOM    102  H15 UNL A   1      11.485  54.098  11.112  1.00  0.00    +0.000 H 
BRANCH   10    9
ATOM      9  C7  UNL A   1      13.246  54.334  12.218  1.00  0.00    +0.000 C 
ATOM     99  H12 UNL A   1      13.720  55.184  11.774  1.00  0.00    +0.000 H 
ATOM    100  H13 UNL A   1      13.426  54.235  13.267  1.00  0.00    +0.000 H 
BRANCH    9    8
ATOM     97  H10 UNL A   1      13.321  52.906  10.652  1.00  0.00    +0.000 H 
ATOM     98  H11 UNL A   1      14.883  53.275  11.455  1.00  0.00    +0.000 H 
ATOM      8  C6  UNL A   1      13.838  53.077  11.574  1.00  0.00    +0.000 C 
BRANCH    8    7
ATOM     95  H8  UNL A   1      13.122  51.990  13.254  1.00  0.00    +0.000 H 
ATOM      7  C5  UNL A   1      13.748  51.795  12.409  1.00  0.00    +0.000 C 
ATOM     96  H9  UNL A   1      13.358  51.040  11.758  1.00  0.00    +0.000 H 
BRANCH    7    6
ATOM     94  H7  UNL A   1      15.010  50.201  13.006  1.00  0.00    +0.000 H 
ATOM     93  H6  UNL A   1      15.295  51.714  13.871  1.00  0.00    +0.000 H 
ATOM      6  C4  UNL A   1      15.087  51.264  12.923  1.00  0.00    +0.000 C 
BRANCH    6    5
ATOM     92  H5  UNL A   1      16.452  52.513  12.007  1.00  0.00    +0.000 H 
ATOM      5  N1  UNL A   1      16.180  51.566  12.011  1.00  0.00    +0.000 N 
BRANCH    5    3
ATOM      3  C3  UNL A   1      16.896  50.775  11.158  1.00  0.00    +0.000 C 
ATOM      4  O1  UNL A   1      17.745  50.032  11.661  1.00  0.00    +0.000 O 
BRANCH    3    2
ATOM      2  C2  UNL A   1      16.677  50.790   9.633  1.00  0.00    +0.000 C 
ATOM     91  H4  UNL A   1      16.163  51.685   9.351  1.00  0.00    +0.000 H 
BRANCH    2    1
ATOM      1  C1  UNL A   1      18.055  50.782   8.955  1.00  0.00    +0.000 C 
ATOM     90  H3  UNL A   1      18.421  51.786   8.879  1.00  0.00    +0.000 H 
ATOM     89  H2  UNL A   1      18.737  50.198   9.536  1.00  0.00    +0.000 H 
ATOM     88  H1  UNL A   1      17.968  50.359   7.975  1.00  0.00    +0.000 H 
ENDBRANCH    2    1
BRANCH    2   78
ATOM     78  C55 UNL A   1      15.734  49.691   9.148  1.00  0.00    +0.000 C 
ATOM     79  C56 UNL A   1      16.201  48.404   8.825  1.00  0.00    +0.000 C 
ATOM     80  C57 UNL A   1      15.323  47.320   8.810  1.00  0.00    +0.000 C 
ATOM     81  C58 UNL A   1      13.999  47.536   9.162  1.00  0.00    +0.000 C 
ATOM     82  C59 UNL A   1      13.496  48.829   9.292  1.00  0.00    +0.000 C 
ATOM     83  C60 UNL A   1      14.348  49.914   9.180  1.00  0.00    +0.000 C 
ATOM     84  O3  UNL A   1      12.224  49.106   9.714  1.00  0.00    +0.000 O 
ATOM     85  C61 UNL A   1      11.602  48.010  10.397  1.00  0.00    +0.000 C 
ATOM     86  C62 UNL A   1      12.552  46.866  10.734  1.00  0.00    +0.000 C 
ATOM     87  O4  UNL A   1      13.251  46.452   9.552  1.00  0.00    +0.000 O 
ATOM    120  H33 UNL A   1      17.198  48.261   8.599  1.00  0.00    +0.000 H 
ATOM    121  H34 UNL A   1      15.652  46.379   8.541  1.00  0.00    +0.000 H 
ATOM    122  H35 UNL A   1      13.971  50.873   9.119  1.00  0.00    +0.000 H 
ATOM    123  H36 UNL A   1      10.820  47.626   9.776  1.00  0.00    +0.000 H 
ATOM    124  H37 UNL A   1      11.239  48.394  11.329  1.00  0.00    +0.000 H 
ATOM    125  H38 UNL A   1      11.991  46.041  11.123  1.00  0.00    +0.000 H 
ATOM    126  H39 UNL A   1      13.259  47.197  11.466  1.00  0.00    +0.000 H 
ENDBRANCH    2   78
ENDBRANCH    3    2
ENDBRANCH    5    3
ENDBRANCH    6    5
ENDBRANCH    7    6
ENDBRANCH    8    7
ENDBRANCH    9    8
ENDBRANCH   10    9
ENDBRANCH   11   10
ENDBRANCH   12   11
ENDBRANCH   13   12
ENDBRANCH   15   13
ENDBRANCH   19   18
BRANCH   23   24
ATOM     33  C24 UNL A   1      18.583  55.710   1.513  1.00  0.00    +0.000 C 
ATOM     34  F5  UNL A   1      19.182  54.902   2.400  1.00  0.00    +0.000 F 
ATOM     24  C19 UNL A   1      17.289  55.423   1.054  1.00  0.00    +0.000 C 
ATOM     25  C20 UNL A   1      16.710  56.309   0.131  1.00  0.00    +0.000 C 
ATOM     26  F1  UNL A   1      15.478  56.074  -0.347  1.00  0.00    +0.000 F 
ATOM     27  C21 UNL A   1      17.406  57.422  -0.330  1.00  0.00    +0.000 C 
ATOM     28  F2  UNL A   1      16.849  58.227  -1.245  1.00  0.00    +0.000 F 
ATOM     29  C22 UNL A   1      18.679  57.693   0.147  1.00  0.00    +0.000 C 
ATOM     30  F3  UNL A   1      19.344  58.771  -0.289  1.00  0.00    +0.000 F 
ATOM     31  C23 UNL A   1      19.265  56.843   1.073  1.00  0.00    +0.000 C 
ATOM     32  F4  UNL A   1      20.489  57.111   1.546  1.00  0.00    +0.000 F 
ENDBRANCH   23   24
BRANCH   40   41
ATOM     41  C30 UNL A   1      16.561  48.403  -0.457  1.00  0.00    +0.000 C 
ATOM     42  C31 UNL A   1      17.841  47.848  -0.309  1.00  0.00    +0.000 C 
ATOM     43  F6  UNL A   1      18.626  48.224   0.713  1.00  0.00    +0.000 F 
ATOM     44  C32 UNL A   1      18.341  46.941  -1.240  1.00  0.00    +0.000 C 
ATOM     45  F7  UNL A   1      19.590  46.472  -1.110  1.00  0.00    +0.000 F 
ATOM     46  C33 UNL A   1      17.558  46.541  -2.312  1.00  0.00    +0.000 C 
ATOM     47  F8  UNL A   1      18.041  45.668  -3.206  1.00  0.00    +0.000 F 
ATOM     48  C34 UNL A   1      16.279  47.054  -2.463  1.00  0.00    +0.000 C 
ATOM     49  F9  UNL A   1      15.516  46.657  -3.490  1.00  0.00    +0.000 F 
ATOM     50  C35 UNL A   1      15.789  47.986  -1.552  1.00  0.00    +0.000 C 
ATOM     51  F10 UNL A   1      14.556  48.479  -1.738  1.00  0.00    +0.000 F 
ENDBRANCH   40   41
BRANCH   55   56
ATOM     65  C44 UNL A   1      12.624  46.845   5.676  1.00  0.00    +0.000 C 
ATOM     66  F15 UNL A   1      13.921  46.921   6.004  1.00  0.00    +0.000 F 
ATOM     56  C39 UNL A   1      12.058  47.802   4.822  1.00  0.00    +0.000 C 
ATOM     57  C40 UNL A   1      10.698  47.668   4.506  1.00  0.00    +0.000 C 
ATOM     58  F11 UNL A   1      10.104  48.570   3.708  1.00  0.00    +0.000 F 
ATOM     59  C41 UNL A   1       9.929  46.641   5.049  1.00  0.00    +0.000 C 
ATOM     60  F12 UNL A   1       8.619  46.573   4.777  1.00  0.00    +0.000 F 
ATOM     61  C42 UNL A   1      10.513  45.703   5.887  1.00  0.00    +0.000 C 
ATOM     62  F13 UNL A   1       9.773  44.716   6.410  1.00  0.00    +0.000 F 
ATOM     63  C43 UNL A   1      11.862  45.798   6.191  1.00  0.00    +0.000 C 
ATOM     64  F14 UNL A   1      12.435  44.884   6.987  1.00  0.00    +0.000 F 
ENDBRANCH   55   56
TORSDOF 17
ENDMDL
MODEL 9
REMARK VINA RESULT:     -10.2      3.113      8.114
ROOT
ATOM     19  C15 UNL A   1      21.492  38.418  49.024  1.00  0.00    +0.000 C 
ATOM     20  C16 UNL A   1      22.214  39.737  49.004  1.00  0.00    +0.000 C 
ATOM     21  N3  UNL A   1      23.378  40.035  48.481  1.00  0.00    +0.000 N 
ATOM     22  C17 UNL A   1      23.568  41.390  48.725  1.00  0.00    +0.000 C 
ATOM     23  C18 UNL A   1      24.654  42.156  48.457  1.00  0.00    +0.000 C 
ATOM     35  C25 UNL A   1      25.848  41.677  47.810  1.00  0.00    +0.000 C 
ATOM     36  C26 UNL A   1      27.010  42.370  47.518  1.00  0.00    +0.000 C 
ATOM     37  C27 UNL A   1      27.881  41.505  46.846  1.00  0.00    +0.000 C 
ATOM     38  C28 UNL A   1      27.285  40.257  46.769  1.00  0.00    +0.000 C 
ATOM     39  N4  UNL A   1      26.033  40.379  47.353  1.00  0.00    +0.000 N 
ATOM     40  C29 UNL A   1      27.816  39.042  46.208  1.00  0.00    +0.000 C 
ATOM     52  C36 UNL A   1      27.160  37.856  46.169  1.00  0.00    +0.000 C 
ATOM     53  N5  UNL A   1      25.888  37.544  46.631  1.00  0.00    +0.000 N 
ATOM     54  C37 UNL A   1      25.697  36.282  46.337  1.00  0.00    +0.000 C 
ATOM     55  C38 UNL A   1      24.509  35.405  46.633  1.00  0.00    +0.000 C 
ATOM     67  C45 UNL A   1      23.466  35.919  47.312  1.00  0.00    +0.000 C 
ATOM     68  C46 UNL A   1      22.264  35.185  47.695  1.00  0.00    +0.000 C 
ATOM     69  C47 UNL A   1      21.426  36.019  48.331  1.00  0.00    +0.000 C 
ATOM     70  C48 UNL A   1      22.046  37.341  48.430  1.00  0.00    +0.000 C 
ATOM     71  N6  UNL A   1      23.254  37.188  47.795  1.00  0.00    +0.000 N 
ATOM     72  C49 UNL A   1      26.821  35.655  45.628  1.00  0.00    +0.000 C 
ATOM     73  C50 UNL A   1      27.704  36.642  45.598  1.00  0.00    +0.000 C 
ATOM     74  C51 UNL A   1      22.371  41.871  49.379  1.00  0.00    +0.000 C 
ATOM     75  C52 UNL A   1      21.531  40.877  49.633  1.00  0.00    +0.000 C 
ATOM    108  H21 UNL A   1      27.201  43.356  47.753  1.00  0.00    +0.000 H 
ATOM    109  H22 UNL A   1      28.810  41.754  46.473  1.00  0.00    +0.000 H 
ATOM    110  H23 UNL A   1      25.373  39.654  47.433  1.00  0.00    +0.000 H 
ATOM    111  H24 UNL A   1      22.087  34.186  47.508  1.00  0.00    +0.000 H 
ATOM    112  H25 UNL A   1      20.492  35.768  48.692  1.00  0.00    +0.000 H 
ATOM    113  H26 UNL A   1      23.907  37.918  47.696  1.00  0.00    +0.000 H 
ATOM    114  H27 UNL A   1      26.901  34.697  45.253  1.00  0.00    +0.000 H 
ATOM    115  H28 UNL A   1      28.659  36.557  45.215  1.00  0.00    +0.000 H 
ATOM    116  H29 UNL A   1      22.194  42.859  49.618  1.00  0.00    +0.000 H 
ATOM    117  H30 UNL A   1      20.632  40.899  50.138  1.00  0.00    +0.000 H 
ENDROOT
BRANCH   19   18
ATOM    106  H19 UNL A   1      18.702  37.332  52.543  1.00  0.00    +0.000 H 
ATOM    107  H20 UNL A   1      20.888  37.708  51.561  1.00  0.00    +0.000 H 
ATOM     76  C53 UNL A   1      18.989  38.577  48.939  1.00  0.00    +0.000 C 
ATOM     77  C54 UNL A   1      17.733  38.447  49.535  1.00  0.00    +0.000 C 
ATOM     15  C11 UNL A   1      17.622  37.930  50.829  1.00  0.00    +0.000 C 
ATOM     16  C12 UNL A   1      18.779  37.671  51.571  1.00  0.00    +0.000 C 
ATOM     17  C13 UNL A   1      20.037  37.871  50.999  1.00  0.00    +0.000 C 
ATOM     18  C14 UNL A   1      20.155  38.290  49.664  1.00  0.00    +0.000 C 
ATOM    118  H31 UNL A   1      19.060  38.885  47.956  1.00  0.00    +0.000 H 
ATOM    119  H32 UNL A   1      16.887  38.734  49.020  1.00  0.00    +0.000 H 
BRANCH   15   13
ATOM     13  C10 UNL A   1      16.307  37.677  51.461  1.00  0.00    +0.000 C 
ATOM     14  O2  UNL A   1      16.075  38.140  52.576  1.00  0.00    +0.000 O 
BRANCH   13   12
ATOM    105  H18 UNL A   1      15.495  35.941  50.900  1.00  0.00    +0.000 H 
ATOM     12  N2  UNL A   1      15.355  36.912  50.833  1.00  0.00    +0.000 N 
BRANCH   12   11
ATOM     11  C9  UNL A   1      14.175  37.312  50.085  1.00  0.00    +0.000 C 
ATOM    103  H16 UNL A   1      13.307  37.080  50.667  1.00  0.00    +0.000 H 
ATOM    104  H17 UNL A   1      14.257  38.362  49.894  1.00  0.00    +0.000 H 
BRANCH   11   10
ATOM     10  C8  UNL A   1      14.060  36.610  48.734  1.00  0.00    +0.000 C 
ATOM    101  H14 UNL A   1      13.444  35.745  48.864  1.00  0.00    +0.000 H 
ATOM    102  H15 UNL A   1      13.653  37.335  48.061  1.00  0.00    +0.000 H 
BRANCH   10    9
ATOM      9  C7  UNL A   1      15.383  36.157  48.110  1.00  0.00    +0.000 C 
ATOM     99  H12 UNL A   1      16.150  36.275  48.846  1.00  0.00    +0.000 H 
ATOM    100  H13 UNL A   1      15.228  35.145  47.802  1.00  0.00    +0.000 H 
BRANCH    9    8
ATOM     97  H10 UNL A   1      14.940  37.121  46.274  1.00  0.00    +0.000 H 
ATOM     98  H11 UNL A   1      16.324  37.790  47.199  1.00  0.00    +0.000 H 
ATOM      8  C6  UNL A   1      15.817  36.914  46.851  1.00  0.00    +0.000 C 
BRANCH    8    7
ATOM     95  H8  UNL A   1      16.375  35.259  45.641  1.00  0.00    +0.000 H 
ATOM      7  C5  UNL A   1      16.816  36.185  45.946  1.00  0.00    +0.000 C 
ATOM     96  H9  UNL A   1      17.021  36.847  45.131  1.00  0.00    +0.000 H 
BRANCH    7    6
ATOM     94  H7  UNL A   1      18.017  35.805  47.650  1.00  0.00    +0.000 H 
ATOM     93  H6  UNL A   1      18.854  36.657  46.350  1.00  0.00    +0.000 H 
ATOM      6  C4  UNL A   1      18.166  35.875  46.594  1.00  0.00    +0.000 C 
BRANCH    6    5
ATOM     92  H5  UNL A   1      18.250  33.815  46.484  1.00  0.00    +0.000 H 
ATOM      5  N1  UNL A   1      18.715  34.609  46.132  1.00  0.00    +0.000 N 
BRANCH    5    3
ATOM      3  C3  UNL A   1      19.759  34.320  45.299  1.00  0.00    +0.000 C 
ATOM      4  O1  UNL A   1      20.287  35.270  44.712  1.00  0.00    +0.000 O 
BRANCH    3    2
ATOM      2  C2  UNL A   1      20.273  32.885  45.081  1.00  0.00    +0.000 C 
ATOM     91  H4  UNL A   1      21.199  32.911  44.546  1.00  0.00    +0.000 H 
BRANCH    2    1
ATOM      1  C1  UNL A   1      20.521  32.255  46.460  1.00  0.00    +0.000 C 
ATOM     90  H3  UNL A   1      21.565  32.047  46.574  1.00  0.00    +0.000 H 
ATOM     89  H2  UNL A   1      20.207  32.933  47.225  1.00  0.00    +0.000 H 
ATOM     88  H1  UNL A   1      19.966  31.343  46.541  1.00  0.00    +0.000 H 
ENDBRANCH    2    1
BRANCH    2   78
ATOM     78  C55 UNL A   1      19.377  32.055  44.165  1.00  0.00    +0.000 C 
ATOM     79  C56 UNL A   1      18.960  30.757  44.515  1.00  0.00    +0.000 C 
ATOM     80  C57 UNL A   1      17.834  30.194  43.916  1.00  0.00    +0.000 C 
ATOM     81  C58 UNL A   1      17.115  30.958  43.008  1.00  0.00    +0.000 C 
ATOM     82  C59 UNL A   1      17.630  32.158  42.519  1.00  0.00    +0.000 C 
ATOM     83  C60 UNL A   1      18.819  32.654  43.025  1.00  0.00    +0.000 C 
ATOM     84  O3  UNL A   1      16.937  32.993  41.686  1.00  0.00    +0.000 O 
ATOM     85  C61 UNL A   1      15.523  32.755  41.692  1.00  0.00    +0.000 C 
ATOM     86  C62 UNL A   1      15.055  31.808  42.792  1.00  0.00    +0.000 C 
ATOM     87  O4  UNL A   1      15.817  30.594  42.744  1.00  0.00    +0.000 O 
ATOM    120  H33 UNL A   1      19.491  30.219  45.219  1.00  0.00    +0.000 H 
ATOM    121  H34 UNL A   1      17.542  29.230  44.143  1.00  0.00    +0.000 H 
ATOM    122  H35 UNL A   1      19.290  33.453  42.571  1.00  0.00    +0.000 H 
ATOM    123  H36 UNL A   1      15.249  32.334  40.747  1.00  0.00    +0.000 H 
ATOM    124  H37 UNL A   1      15.052  33.699  41.876  1.00  0.00    +0.000 H 
ATOM    125  H38 UNL A   1      14.018  31.583  42.649  1.00  0.00    +0.000 H 
ATOM    126  H39 UNL A   1      15.194  32.276  43.744  1.00  0.00    +0.000 H 
ENDBRANCH    2   78
ENDBRANCH    3    2
ENDBRANCH    5    3
ENDBRANCH    6    5
ENDBRANCH    7    6
ENDBRANCH    8    7
ENDBRANCH    9    8
ENDBRANCH   10    9
ENDBRANCH   11   10
ENDBRANCH   12   11
ENDBRANCH   13   12
ENDBRANCH   15   13
ENDBRANCH   19   18
BRANCH   23   24
ATOM     33  C24 UNL A   1      24.028  44.571  48.056  1.00  0.00    +0.000 C 
ATOM     34  F5  UNL A   1      23.466  44.223  46.889  1.00  0.00    +0.000 F 
ATOM     24  C19 UNL A   1      24.609  43.597  48.881  1.00  0.00    +0.000 C 
ATOM     25  C20 UNL A   1      25.188  44.021  50.087  1.00  0.00    +0.000 C 
ATOM     26  F1  UNL A   1      25.747  43.128  50.918  1.00  0.00    +0.000 F 
ATOM     27  C21 UNL A   1      25.166  45.361  50.463  1.00  0.00    +0.000 C 
ATOM     28  F2  UNL A   1      25.686  45.735  51.640  1.00  0.00    +0.000 F 
ATOM     29  C22 UNL A   1      24.598  46.309  49.624  1.00  0.00    +0.000 C 
ATOM     30  F3  UNL A   1      24.588  47.600  49.981  1.00  0.00    +0.000 F 
ATOM     31  C23 UNL A   1      24.036  45.916  48.420  1.00  0.00    +0.000 C 
ATOM     32  F4  UNL A   1      23.500  46.832  47.602  1.00  0.00    +0.000 F 
ENDBRANCH   23   24
BRANCH   40   41
ATOM     41  C30 UNL A   1      29.209  39.073  45.647  1.00  0.00    +0.000 C 
ATOM     42  C31 UNL A   1      29.470  39.528  44.345  1.00  0.00    +0.000 C 
ATOM     43  F6  UNL A   1      28.461  39.923  43.553  1.00  0.00    +0.000 F 
ATOM     44  C32 UNL A   1      30.765  39.530  43.833  1.00  0.00    +0.000 C 
ATOM     45  F7  UNL A   1      30.981  39.911  42.566  1.00  0.00    +0.000 F 
ATOM     46  C33 UNL A   1      31.827  39.118  44.624  1.00  0.00    +0.000 C 
ATOM     47  F8  UNL A   1      33.072  39.122  44.129  1.00  0.00    +0.000 F 
ATOM     48  C34 UNL A   1      31.597  38.692  45.923  1.00  0.00    +0.000 C 
ATOM     49  F9  UNL A   1      32.624  38.309  46.693  1.00  0.00    +0.000 F 
ATOM     50  C35 UNL A   1      30.299  38.658  46.426  1.00  0.00    +0.000 C 
ATOM     51  F10 UNL A   1      30.108  38.221  47.680  1.00  0.00    +0.000 F 
ENDBRANCH   40   41
BRANCH   55   56
ATOM     65  C44 UNL A   1      25.121  32.982  46.939  1.00  0.00    +0.000 C 
ATOM     66  F15 UNL A   1      25.793  33.299  48.055  1.00  0.00    +0.000 F 
ATOM     56  C39 UNL A   1      24.486  33.984  46.192  1.00  0.00    +0.000 C 
ATOM     57  C40 UNL A   1      23.804  33.596  45.030  1.00  0.00    +0.000 C 
ATOM     58  F11 UNL A   1      23.163  34.515  44.291  1.00  0.00    +0.000 F 
ATOM     59  C41 UNL A   1      23.731  32.258  44.650  1.00  0.00    +0.000 C 
ATOM     60  F12 UNL A   1      23.022  31.909  43.568  1.00  0.00    +0.000 F 
ATOM     61  C42 UNL A   1      24.372  31.285  45.402  1.00  0.00    +0.000 C 
ATOM     62  F13 UNL A   1      24.302  29.998  45.037  1.00  0.00    +0.000 F 
ATOM     63  C43 UNL A   1      25.077  31.648  46.539  1.00  0.00    +0.000 C 
ATOM     64  F14 UNL A   1      25.713  30.714  47.260  1.00  0.00    +0.000 F 
ENDBRANCH   55   56
TORSDOF 17
ENDMDL
MODEL 10
REMARK VINA RESULT:     -10.2     46.144     51.082
ROOT
ATOM     19  C15 UNL A   1      53.321  19.808  11.616  1.00  0.00    +0.000 C 
ATOM     20  C16 UNL A   1      54.662  19.145  11.458  1.00  0.00    +0.000 C 
ATOM     21  N3  UNL A   1      55.657  19.076  12.308  1.00  0.00    +0.000 N 
ATOM     22  C17 UNL A   1      56.648  18.338  11.674  1.00  0.00    +0.000 C 
ATOM     23  C18 UNL A   1      57.904  18.058  12.103  1.00  0.00    +0.000 C 
ATOM     35  C25 UNL A   1      58.442  18.477  13.372  1.00  0.00    +0.000 C 
ATOM     36  C26 UNL A   1      59.709  18.264  13.885  1.00  0.00    +0.000 C 
ATOM     37  C27 UNL A   1      59.762  18.815  15.171  1.00  0.00    +0.000 C 
ATOM     38  C28 UNL A   1      58.543  19.419  15.437  1.00  0.00    +0.000 C 
ATOM     39  N4  UNL A   1      57.739  19.194  14.330  1.00  0.00    +0.000 N 
ATOM     40  C29 UNL A   1      58.143  20.151  16.611  1.00  0.00    +0.000 C 
ATOM     52  C36 UNL A   1      56.921  20.710  16.795  1.00  0.00    +0.000 C 
ATOM     53  N5  UNL A   1      55.823  20.710  15.945  1.00  0.00    +0.000 N 
ATOM     54  C37 UNL A   1      54.876  21.354  16.582  1.00  0.00    +0.000 C 
ATOM     55  C38 UNL A   1      53.479  21.687  16.127  1.00  0.00    +0.000 C 
ATOM     67  C45 UNL A   1      53.087  21.322  14.891  1.00  0.00    +0.000 C 
ATOM     68  C46 UNL A   1      51.781  21.601  14.303  1.00  0.00    +0.000 C 
ATOM     69  C47 UNL A   1      51.729  21.064  13.074  1.00  0.00    +0.000 C 
ATOM     70  C48 UNL A   1      53.014  20.431  12.772  1.00  0.00    +0.000 C 
ATOM     71  N6  UNL A   1      53.756  20.631  13.910  1.00  0.00    +0.000 N 
ATOM     72  C49 UNL A   1      55.260  21.811  17.924  1.00  0.00    +0.000 C 
ATOM     73  C50 UNL A   1      56.530  21.439  17.982  1.00  0.00    +0.000 C 
ATOM     74  C51 UNL A   1      56.110  17.921  10.397  1.00  0.00    +0.000 C 
ATOM     75  C52 UNL A   1      54.912  18.447  10.188  1.00  0.00    +0.000 C 
ATOM    108  H21 UNL A   1      60.484  17.782  13.403  1.00  0.00    +0.000 H 
ATOM    109  H22 UNL A   1      60.570  18.778  15.811  1.00  0.00    +0.000 H 
ATOM    110  H23 UNL A   1      56.807  19.497  14.238  1.00  0.00    +0.000 H 
ATOM    111  H24 UNL A   1      51.019  22.127  14.760  1.00  0.00    +0.000 H 
ATOM    112  H25 UNL A   1      50.914  21.094  12.442  1.00  0.00    +0.000 H 
ATOM    113  H26 UNL A   1      54.681  20.310  14.013  1.00  0.00    +0.000 H 
ATOM    114  H27 UNL A   1      54.690  22.296  18.635  1.00  0.00    +0.000 H 
ATOM    115  H28 UNL A   1      57.160  21.643  18.774  1.00  0.00    +0.000 H 
ATOM    116  H29 UNL A   1      56.597  17.297   9.736  1.00  0.00    +0.000 H 
ATOM    117  H30 UNL A   1      54.311  18.383   9.352  1.00  0.00    +0.000 H 
ENDROOT
BRANCH   19   18
ATOM    106  H19 UNL A   1      51.050  21.629   8.029  1.00  0.00    +0.000 H 
ATOM    107  H20 UNL A   1      52.813  21.639   9.695  1.00  0.00    +0.000 H 
ATOM     76  C53 UNL A   1      51.479  18.640  10.375  1.00  0.00    +0.000 C 
ATOM     77  C54 UNL A   1      50.525  18.597   9.356  1.00  0.00    +0.000 C 
ATOM     15  C11 UNL A   1      50.322  19.713   8.540  1.00  0.00    +0.000 C 
ATOM     16  C12 UNL A   1      51.167  20.821   8.660  1.00  0.00    +0.000 C 
ATOM     17  C13 UNL A   1      52.170  20.833   9.631  1.00  0.00    +0.000 C 
ATOM     18  C14 UNL A   1      52.313  19.758  10.524  1.00  0.00    +0.000 C 
ATOM    118  H31 UNL A   1      51.571  17.843  11.024  1.00  0.00    +0.000 H 
ATOM    119  H32 UNL A   1      49.970  17.740   9.206  1.00  0.00    +0.000 H 
BRANCH   15   13
ATOM     13  C10 UNL A   1      49.251  19.751   7.518  1.00  0.00    +0.000 C 
ATOM     14  O2  UNL A   1      48.076  19.795   7.876  1.00  0.00    +0.000 O 
BRANCH   13   12
ATOM    105  H18 UNL A   1      49.367  20.543   5.688  1.00  0.00    +0.000 H 
ATOM     12  N2  UNL A   1      49.549  19.710   6.178  1.00  0.00    +0.000 N 
BRANCH   12   11
ATOM     11  C9  UNL A   1      50.091  18.630   5.371  1.00  0.00    +0.000 C 
ATOM    103  H16 UNL A   1      49.694  18.712   4.381  1.00  0.00    +0.000 H 
ATOM    104  H17 UNL A   1      51.157  18.726   5.381  1.00  0.00    +0.000 H 
BRANCH   11   10
ATOM     10  C8  UNL A   1      49.751  17.247   5.921  1.00  0.00    +0.000 C 
ATOM    101  H14 UNL A   1      50.607  16.619   5.785  1.00  0.00    +0.000 H 
ATOM    102  H15 UNL A   1      49.482  17.397   6.945  1.00  0.00    +0.000 H 
BRANCH   10    9
ATOM      9  C7  UNL A   1      48.550  16.554   5.272  1.00  0.00    +0.000 C 
ATOM     99  H12 UNL A   1      48.405  16.988   4.304  1.00  0.00    +0.000 H 
ATOM    100  H13 UNL A   1      48.792  15.513   5.248  1.00  0.00    +0.000 H 
BRANCH    9    8
ATOM     97  H10 UNL A   1      46.799  15.680   6.086  1.00  0.00    +0.000 H 
ATOM     98  H11 UNL A   1      47.478  17.071   6.993  1.00  0.00    +0.000 H 
ATOM      8  C6  UNL A   1      47.229  16.659   6.037  1.00  0.00    +0.000 C 
BRANCH    8    7
ATOM     95  H8  UNL A   1      45.271  17.057   5.312  1.00  0.00    +0.000 H 
ATOM      7  C5  UNL A   1      46.183  17.604   5.435  1.00  0.00    +0.000 C 
ATOM     96  H9  UNL A   1      46.097  18.426   6.114  1.00  0.00    +0.000 H 
BRANCH    7    6
ATOM     94  H7  UNL A   1      46.352  17.477   3.327  1.00  0.00    +0.000 H 
ATOM     93  H6  UNL A   1      47.598  18.463   4.095  1.00  0.00    +0.000 H 
ATOM      6  C4  UNL A   1      46.560  18.206   4.081  1.00  0.00    +0.000 C 
BRANCH    6    5
ATOM     92  H5  UNL A   1      45.788  20.074   4.498  1.00  0.00    +0.000 H 
ATOM      5  N1  UNL A   1      45.785  19.400   3.780  1.00  0.00    +0.000 N 
BRANCH    5    3
ATOM      3  C3  UNL A   1      45.054  19.755   2.682  1.00  0.00    +0.000 C 
ATOM      4  O1  UNL A   1      45.403  19.279   1.597  1.00  0.00    +0.000 O 
BRANCH    3    2
ATOM      2  C2  UNL A   1      43.845  20.706   2.764  1.00  0.00    +0.000 C 
ATOM     91  H4  UNL A   1      43.519  20.788   3.780  1.00  0.00    +0.000 H 
BRANCH    2    1
ATOM      1  C1  UNL A   1      44.296  22.092   2.281  1.00  0.00    +0.000 C 
ATOM     90  H3  UNL A   1      43.766  22.849   2.823  1.00  0.00    +0.000 H 
ATOM     89  H2  UNL A   1      45.347  22.205   2.448  1.00  0.00    +0.000 H 
ATOM     88  H1  UNL A   1      44.088  22.191   1.235  1.00  0.00    +0.000 H 
ENDBRANCH    2    1
BRANCH    2   78
ATOM     78  C55 UNL A   1      42.604  20.168   2.054  1.00  0.00    +0.000 C 
ATOM     79  C56 UNL A   1      41.765  19.210   2.653  1.00  0.00    +0.000 C 
ATOM     80  C57 UNL A   1      40.450  19.054   2.215  1.00  0.00    +0.000 C 
ATOM     81  C58 UNL A   1      39.983  19.893   1.213  1.00  0.00    +0.000 C 
ATOM     82  C59 UNL A   1      40.859  20.701   0.491  1.00  0.00    +0.000 C 
ATOM     83  C60 UNL A   1      42.196  20.758   0.848  1.00  0.00    +0.000 C 
ATOM     84  O3  UNL A   1      40.450  21.605  -0.451  1.00  0.00    +0.000 O 
ATOM     85  C61 UNL A   1      39.063  21.949  -0.343  1.00  0.00    +0.000 C 
ATOM     86  C62 UNL A   1      38.393  21.444   0.931  1.00  0.00    +0.000 C 
ATOM     87  O4  UNL A   1      38.623  20.036   1.075  1.00  0.00    +0.000 O 
ATOM    120  H33 UNL A   1      42.125  18.621   3.421  1.00  0.00    +0.000 H 
ATOM    121  H34 UNL A   1      39.840  18.331   2.627  1.00  0.00    +0.000 H 
ATOM    122  H35 UNL A   1      42.882  21.226   0.235  1.00  0.00    +0.000 H 
ATOM    123  H36 UNL A   1      38.546  21.532  -1.182  1.00  0.00    +0.000 H 
ATOM    124  H37 UNL A   1      39.011  23.018  -0.315  1.00  0.00    +0.000 H 
ATOM    125  H38 UNL A   1      37.340  21.628   0.876  1.00  0.00    +0.000 H 
ATOM    126  H39 UNL A   1      38.804  21.958   1.775  1.00  0.00    +0.000 H 
ENDBRANCH    2   78
ENDBRANCH    3    2
ENDBRANCH    5    3
ENDBRANCH    6    5
ENDBRANCH    7    6
ENDBRANCH    8    7
ENDBRANCH    9    8
ENDBRANCH   10    9
ENDBRANCH   11   10
ENDBRANCH   12   11
ENDBRANCH   13   12
ENDBRANCH   15   13
ENDBRANCH   19   18
BRANCH   23   24
ATOM     33  C24 UNL A   1      58.874  15.878  11.273  1.00  0.00    +0.000 C 
ATOM     34  F5  UNL A   1      58.123  15.215  12.164  1.00  0.00    +0.000 F 
ATOM     24  C19 UNL A   1      58.794  17.276  11.181  1.00  0.00    +0.000 C 
ATOM     25  C20 UNL A   1      59.610  17.917  10.235  1.00  0.00    +0.000 C 
ATOM     26  F1  UNL A   1      59.564  19.251  10.098  1.00  0.00    +0.000 F 
ATOM     27  C21 UNL A   1      60.452  17.187   9.401  1.00  0.00    +0.000 C 
ATOM     28  F2  UNL A   1      61.188  17.819   8.475  1.00  0.00    +0.000 F 
ATOM     29  C22 UNL A   1      60.525  15.808   9.519  1.00  0.00    +0.000 C 
ATOM     30  F3  UNL A   1      61.345  15.108   8.724  1.00  0.00    +0.000 F 
ATOM     31  C23 UNL A   1      59.743  15.154  10.458  1.00  0.00    +0.000 C 
ATOM     32  F4  UNL A   1      59.822  13.823  10.584  1.00  0.00    +0.000 F 
ENDBRANCH   23   24
BRANCH   40   41
ATOM     41  C30 UNL A   1      59.154  20.336  17.707  1.00  0.00    +0.000 C 
ATOM     42  C31 UNL A   1      59.877  21.530  17.850  1.00  0.00    +0.000 C 
ATOM     43  F6  UNL A   1      59.698  22.536  16.980  1.00  0.00    +0.000 F 
ATOM     44  C32 UNL A   1      60.825  21.676  18.859  1.00  0.00    +0.000 C 
ATOM     45  F7  UNL A   1      61.547  22.803  18.938  1.00  0.00    +0.000 F 
ATOM     46  C33 UNL A   1      61.040  20.650  19.768  1.00  0.00    +0.000 C 
ATOM     47  F8  UNL A   1      61.953  20.794  20.738  1.00  0.00    +0.000 F 
ATOM     48  C34 UNL A   1      60.316  19.472  19.663  1.00  0.00    +0.000 C 
ATOM     49  F9  UNL A   1      60.512  18.487  20.549  1.00  0.00    +0.000 F 
ATOM     50  C35 UNL A   1      59.391  19.311  18.635  1.00  0.00    +0.000 C 
ATOM     51  F10 UNL A   1      58.722  18.151  18.549  1.00  0.00    +0.000 F 
ENDBRANCH   40   41
BRANCH   55   56
ATOM     65  C44 UNL A   1      52.370  23.806  16.911  1.00  0.00    +0.000 C 
ATOM     66  F15 UNL A   1      53.078  24.503  16.010  1.00  0.00    +0.000 F 
ATOM     56  C39 UNL A   1      52.544  22.420  17.021  1.00  0.00    +0.000 C 
ATOM     57  C40 UNL A   1      51.783  21.743  17.986  1.00  0.00    +0.000 C 
ATOM     58  F11 UNL A   1      51.898  20.413  18.117  1.00  0.00    +0.000 F 
ATOM     59  C41 UNL A   1      50.863  22.421  18.783  1.00  0.00    +0.000 C 
ATOM     60  F12 UNL A   1      50.106  21.740  19.654  1.00  0.00    +0.000 F 
ATOM     61  C42 UNL A   1      50.713  23.794  18.659  1.00  0.00    +0.000 C 
ATOM     62  F13 UNL A   1      49.827  24.445  19.425  1.00  0.00    +0.000 F 
ATOM     63  C43 UNL A   1      51.475  24.488  17.733  1.00  0.00    +0.000 C 
ATOM     64  F14 UNL A   1      51.346  25.818  17.620  1.00  0.00    +0.000 F 
ENDBRANCH   55   56
TORSDOF 17
ENDMDL
