MODEL 1
REMARK VINA RESULT:     -11.5      0.000      0.000
ROOT
ATOM    135  H36 UNL A   1      46.647  28.548  30.292  1.00  0.00    +0.000 H 
ATOM    136  H37 UNL A   1      45.216  28.563  32.537  1.00  0.00    +0.000 H 
ATOM    137  H38 UNL A   1      44.539  31.976  30.482  1.00  0.00    +0.000 H 
ATOM    138  H39 UNL A   1      37.074  28.585  30.578  1.00  0.00    +0.000 H 
ATOM    139  H40 UNL A   1      38.515  26.659  29.736  1.00  0.00    +0.000 H 
ATOM    140  H41 UNL A   1      41.004  29.960  30.110  1.00  0.00    +0.000 H 
ATOM    141  H42 UNL A   1      40.182  33.032  29.636  1.00  0.00    +0.000 H 
ATOM    142  H43 UNL A   1      42.658  32.471  30.105  1.00  0.00    +0.000 H 
ATOM    143  H44 UNL A   1      44.040  29.244  25.731  1.00  0.00    +0.000 H 
ATOM    144  H45 UNL A   1      41.676  28.259  26.024  1.00  0.00    +0.000 H 
ATOM     39  C34 UNL A   1      41.109  27.540  28.747  1.00  0.00    +0.000 C 
ATOM     40  C35 UNL A   1      42.289  28.271  28.211  1.00  0.00    +0.000 C 
ATOM     41  N3  UNL A   1      43.344  28.656  28.850  1.00  0.00    +0.000 N 
ATOM     42  C36 UNL A   1      44.127  29.343  27.924  1.00  0.00    +0.000 C 
ATOM     43  C37 UNL A   1      45.024  30.287  28.325  1.00  0.00    +0.000 C 
ATOM     55  C44 UNL A   1      45.308  30.160  29.732  1.00  0.00    +0.000 C 
ATOM     56  C45 UNL A   1      45.860  29.172  30.525  1.00  0.00    +0.000 C 
ATOM     57  C46 UNL A   1      45.106  29.204  31.735  1.00  0.00    +0.000 C 
ATOM     58  C47 UNL A   1      44.192  30.252  31.643  1.00  0.00    +0.000 C 
ATOM     59  N4  UNL A   1      44.654  31.005  30.595  1.00  0.00    +0.000 N 
ATOM     60  C48 UNL A   1      42.968  30.540  32.347  1.00  0.00    +0.000 C 
ATOM     72  C55 UNL A   1      41.980  31.361  31.889  1.00  0.00    +0.000 C 
ATOM     73  N5  UNL A   1      40.694  31.262  32.395  1.00  0.00    +0.000 N 
ATOM     74  C56 UNL A   1      39.930  31.658  31.417  1.00  0.00    +0.000 C 
ATOM     75  C57 UNL A   1      38.648  30.999  31.081  1.00  0.00    +0.000 C 
ATOM     87  C64 UNL A   1      38.940  29.776  30.576  1.00  0.00    +0.000 C 
ATOM     88  C65 UNL A   1      38.085  28.631  30.373  1.00  0.00    +0.000 C 
ATOM     89  C66 UNL A   1      38.835  27.632  29.866  1.00  0.00    +0.000 C 
ATOM     90  C67 UNL A   1      40.174  28.132  29.524  1.00  0.00    +0.000 C 
ATOM     91  N6  UNL A   1      40.201  29.392  30.073  1.00  0.00    +0.000 N 
ATOM     92  C68 UNL A   1      40.582  32.439  30.379  1.00  0.00    +0.000 C 
ATOM     93  C69 UNL A   1      41.855  32.159  30.672  1.00  0.00    +0.000 C 
ATOM     94  C70 UNL A   1      43.572  29.047  26.630  1.00  0.00    +0.000 C 
ATOM     95  C71 UNL A   1      42.369  28.485  26.755  1.00  0.00    +0.000 C 
ENDROOT
BRANCH   39   38
ATOM     97  C73 UNL A   1      41.437  23.911  28.193  1.00  0.00    +0.000 C 
ATOM     35  C30 UNL A   1      40.459  23.671  27.235  1.00  0.00    +0.000 C 
ATOM     36  C31 UNL A   1      39.754  24.728  26.649  1.00  0.00    +0.000 C 
ATOM    133  H34 UNL A   1      39.066  24.550  25.901  1.00  0.00    +0.000 H 
ATOM     37  C32 UNL A   1      40.000  26.025  27.094  1.00  0.00    +0.000 C 
ATOM     38  C33 UNL A   1      40.888  26.223  28.162  1.00  0.00    +0.000 C 
ATOM    134  H35 UNL A   1      39.536  26.829  26.644  1.00  0.00    +0.000 H 
ATOM    145  H46 UNL A   1      42.091  25.289  29.620  1.00  0.00    +0.000 H 
ATOM    146  H47 UNL A   1      42.083  23.157  28.475  1.00  0.00    +0.000 H 
ATOM     96  C72 UNL A   1      41.539  25.151  28.760  1.00  0.00    +0.000 C 
BRANCH   35   33
ATOM     33  C29 UNL A   1      40.166  22.265  26.894  1.00  0.00    +0.000 C 
ATOM     34  O2  UNL A   1      40.596  21.360  27.572  1.00  0.00    +0.000 O 
BRANCH   33   32
ATOM    132  H33 UNL A   1      39.860  21.880  24.925  1.00  0.00    +0.000 H 
ATOM     32  N2  UNL A   1      39.382  22.021  25.773  1.00  0.00    +0.000 N 
BRANCH   32   31
ATOM    130  H31 UNL A   1      37.628  21.627  24.745  1.00  0.00    +0.000 H 
ATOM    131  H32 UNL A   1      37.600  21.263  26.474  1.00  0.00    +0.000 H 
ATOM     31  C28 UNL A   1      37.922  21.951  25.720  1.00  0.00    +0.000 C 
BRANCH   31   30
ATOM    129  H30 UNL A   1      38.059  24.011  26.082  1.00  0.00    +0.000 H 
ATOM     30  C27 UNL A   1      37.271  23.293  26.008  1.00  0.00    +0.000 C 
ATOM    128  H29 UNL A   1      36.706  23.206  26.912  1.00  0.00    +0.000 H 
BRANCH   30   29
ATOM     29  C26 UNL A   1      36.328  23.781  24.896  1.00  0.00    +0.000 C 
ATOM    126  H27 UNL A   1      35.325  23.699  25.262  1.00  0.00    +0.000 H 
ATOM    127  H28 UNL A   1      36.644  24.780  24.678  1.00  0.00    +0.000 H 
BRANCH   29   28
ATOM    124  H25 UNL A   1      36.833  23.692  22.832  1.00  0.00    +0.000 H 
ATOM     28  C25 UNL A   1      36.395  23.035  23.555  1.00  0.00    +0.000 C 
ATOM    125  H26 UNL A   1      36.971  22.151  23.740  1.00  0.00    +0.000 H 
BRANCH   28   27
ATOM    122  H23 UNL A   1      35.248  21.827  22.238  1.00  0.00    +0.000 H 
ATOM     27  C24 UNL A   1      35.054  22.553  23.000  1.00  0.00    +0.000 C 
ATOM    123  H24 UNL A   1      34.509  22.152  23.829  1.00  0.00    +0.000 H 
BRANCH   27   26
ATOM    121  H22 UNL A   1      34.745  24.120  21.618  1.00  0.00    +0.000 H 
ATOM     26  C23 UNL A   1      34.183  23.653  22.399  1.00  0.00    +0.000 C 
ATOM    120  H21 UNL A   1      33.927  24.348  23.171  1.00  0.00    +0.000 H 
BRANCH   26   25
ATOM     25  N1  UNL A   1      32.966  23.142  21.815  1.00  0.00    +0.000 N 
ATOM    119  H20 UNL A   1      32.879  23.261  20.841  1.00  0.00    +0.000 H 
BRANCH   25   23
ATOM     23  C22 UNL A   1      31.918  22.517  22.429  1.00  0.00    +0.000 C 
ATOM     24  O1  UNL A   1      31.777  21.309  22.224  1.00  0.00    +0.000 O 
BRANCH   23   22
ATOM    118  H19 UNL A   1      30.286  22.583  23.751  1.00  0.00    +0.000 H 
ATOM    117  H18 UNL A   1      30.381  23.964  22.632  1.00  0.00    +0.000 H 
ATOM     22  C21 UNL A   1      30.921  23.300  23.275  1.00  0.00    +0.000 C 
BRANCH   22   21
ATOM      2  C2  UNL A   1      33.340  22.378  27.100  1.00  0.00    +0.000 C 
ATOM     99  C74 UNL A   1      32.861  22.230  25.625  1.00  0.00    +0.000 C 
ATOM      4  C4  UNL A   1      33.707  23.895  27.226  1.00  0.00    +0.000 C 
ATOM      5  C5  UNL A   1      32.849  24.509  26.184  1.00  0.00    +0.000 C 
ATOM     98  N7  UNL A   1      32.383  23.570  25.307  1.00  0.00    +0.000 N 
ATOM      6  C6  UNL A   1      32.348  25.722  25.801  1.00  0.00    +0.000 C 
ATOM    106  H7  UNL A   1      34.744  24.062  27.024  1.00  0.00    +0.000 H 
ATOM    107  H8  UNL A   1      33.550  24.296  28.205  1.00  0.00    +0.000 H 
ATOM     13  C13 UNL A   1      31.537  25.481  24.634  1.00  0.00    +0.000 C 
ATOM    147  H48 UNL A   1      32.073  21.510  25.546  1.00  0.00    +0.000 H 
ATOM    148  H49 UNL A   1      33.627  21.884  24.964  1.00  0.00    +0.000 H 
ATOM     21  C20 UNL A   1      31.557  24.112  24.364  1.00  0.00    +0.000 C 
BRANCH    2    1
ATOM      1  C1  UNL A   1      34.534  21.469  27.389  1.00  0.00    +0.000 C 
ATOM    100  H1  UNL A   1      35.398  22.067  27.588  1.00  0.00    +0.000 H 
ATOM    101  H2  UNL A   1      34.720  20.843  26.542  1.00  0.00    +0.000 H 
ATOM    102  H3  UNL A   1      34.319  20.859  28.242  1.00  0.00    +0.000 H 
ENDBRANCH    2    1
BRANCH    2    3
ATOM    105  H6  UNL A   1      32.377  21.059  28.497  1.00  0.00    +0.000 H 
ATOM      3  C3  UNL A   1      32.208  22.033  28.086  1.00  0.00    +0.000 C 
ATOM    103  H4  UNL A   1      31.270  22.044  27.570  1.00  0.00    +0.000 H 
ATOM    104  H5  UNL A   1      32.189  22.755  28.875  1.00  0.00    +0.000 H 
ENDBRANCH    2    3
BRANCH    6    7
ATOM      7  C7  UNL A   1      32.619  27.000  26.420  1.00  0.00    +0.000 C 
ATOM      8  C8  UNL A   1      33.866  27.608  26.257  1.00  0.00    +0.000 C 
ATOM      9  C9  UNL A   1      34.028  28.950  26.596  1.00  0.00    +0.000 C 
ATOM     10  C10 UNL A   1      32.954  29.680  27.111  1.00  0.00    +0.000 C 
ATOM     11  C11 UNL A   1      31.726  29.059  27.335  1.00  0.00    +0.000 C 
ATOM     12  C12 UNL A   1      31.559  27.721  26.989  1.00  0.00    +0.000 C 
ATOM    108  H9  UNL A   1      34.663  27.065  25.888  1.00  0.00    +0.000 H 
ATOM    109  H10 UNL A   1      34.944  29.407  26.466  1.00  0.00    +0.000 H 
ATOM    111  H12 UNL A   1      30.946  29.589  27.755  1.00  0.00    +0.000 H 
ATOM    112  H13 UNL A   1      30.652  27.258  27.151  1.00  0.00    +0.000 H 
ATOM    110  H11 UNL A   1      33.068  30.683  27.326  1.00  0.00    +0.000 H 
ENDBRANCH    6    7
BRANCH   13   14
ATOM     14  C14 UNL A   1      30.848  26.503  23.853  1.00  0.00    +0.000 C 
ATOM     15  C15 UNL A   1      31.599  27.468  23.166  1.00  0.00    +0.000 C 
ATOM     16  C16 UNL A   1      30.969  28.552  22.550  1.00  0.00    +0.000 C 
ATOM    113  H14 UNL A   1      32.626  27.376  23.114  1.00  0.00    +0.000 H 
ATOM     17  C17 UNL A   1      29.581  28.667  22.609  1.00  0.00    +0.000 C 
ATOM     19  C18 UNL A   1      28.823  27.713  23.284  1.00  0.00    +0.000 C 
ATOM     20  C19 UNL A   1      29.459  26.643  23.919  1.00  0.00    +0.000 C 
ATOM    116  H17 UNL A   1      28.898  25.950  24.439  1.00  0.00    +0.000 H 
ATOM    114  H15 UNL A   1      31.527  29.264  22.054  1.00  0.00    +0.000 H 
ATOM    115  H16 UNL A   1      27.795  27.796  23.314  1.00  0.00    +0.000 H 
ATOM     18 Cl1  UNL A   1      28.802  30.013  21.872  1.00  0.00    +0.000 Cl
ENDBRANCH   13   14
ENDBRANCH   22   21
ENDBRANCH   23   22
ENDBRANCH   25   23
ENDBRANCH   26   25
ENDBRANCH   27   26
ENDBRANCH   28   27
ENDBRANCH   29   28
ENDBRANCH   30   29
ENDBRANCH   31   30
ENDBRANCH   32   31
ENDBRANCH   33   32
ENDBRANCH   35   33
ENDBRANCH   39   38
BRANCH   43   44
ATOM     44  C38 UNL A   1      45.366  31.539  27.548  1.00  0.00    +0.000 C 
ATOM     45  C39 UNL A   1      46.680  31.706  27.062  1.00  0.00    +0.000 C 
ATOM     46  F1  UNL A   1      47.542  30.678  27.054  1.00  0.00    +0.000 F 
ATOM     47  C40 UNL A   1      47.170  32.951  26.657  1.00  0.00    +0.000 C 
ATOM     48  F2  UNL A   1      48.461  33.083  26.326  1.00  0.00    +0.000 F 
ATOM     49  C41 UNL A   1      46.349  34.063  26.663  1.00  0.00    +0.000 C 
ATOM     50  F3  UNL A   1      46.832  35.268  26.334  1.00  0.00    +0.000 F 
ATOM     51  C42 UNL A   1      45.037  33.928  27.058  1.00  0.00    +0.000 C 
ATOM     52  F4  UNL A   1      44.228  34.997  27.085  1.00  0.00    +0.000 F 
ATOM     53  C43 UNL A   1      44.561  32.699  27.514  1.00  0.00    +0.000 C 
ATOM     54  F5  UNL A   1      43.322  32.726  28.015  1.00  0.00    +0.000 F 
ENDBRANCH   43   44
BRANCH   60   61
ATOM     65  F7  UNL A   1      41.323  26.444  34.568  1.00  0.00    +0.000 F 
ATOM     66  C52 UNL A   1      42.316  28.137  35.877  1.00  0.00    +0.000 C 
ATOM     67  F8  UNL A   1      42.173  27.389  36.980  1.00  0.00    +0.000 F 
ATOM     68  C53 UNL A   1      42.917  29.384  35.955  1.00  0.00    +0.000 C 
ATOM     69  F9  UNL A   1      43.374  29.833  37.132  1.00  0.00    +0.000 F 
ATOM     70  C54 UNL A   1      43.074  30.163  34.812  1.00  0.00    +0.000 C 
ATOM     71  F10 UNL A   1      43.676  31.357  34.921  1.00  0.00    +0.000 F 
ATOM     61  C49 UNL A   1      42.657  29.703  33.559  1.00  0.00    +0.000 C 
ATOM     62  C50 UNL A   1      42.081  28.421  33.500  1.00  0.00    +0.000 C 
ATOM     63  F6  UNL A   1      41.743  27.872  32.327  1.00  0.00    +0.000 F 
ATOM     64  C51 UNL A   1      41.890  27.656  34.651  1.00  0.00    +0.000 C 
ENDBRANCH   60   61
BRANCH   75   76
ATOM     76  C58 UNL A   1      37.424  31.789  30.857  1.00  0.00    +0.000 C 
ATOM     77  C59 UNL A   1      36.837  32.544  31.884  1.00  0.00    +0.000 C 
ATOM     78  F11 UNL A   1      37.218  32.356  33.156  1.00  0.00    +0.000 F 
ATOM     79  C60 UNL A   1      35.921  33.563  31.607  1.00  0.00    +0.000 C 
ATOM     80  F12 UNL A   1      35.413  34.302  32.603  1.00  0.00    +0.000 F 
ATOM     81  C61 UNL A   1      35.606  33.879  30.297  1.00  0.00    +0.000 C 
ATOM     82  F13 UNL A   1      34.798  34.910  30.017  1.00  0.00    +0.000 F 
ATOM     83  C62 UNL A   1      36.190  33.161  29.270  1.00  0.00    +0.000 C 
ATOM     84  F14 UNL A   1      36.036  33.569  28.009  1.00  0.00    +0.000 F 
ATOM     85  C63 UNL A   1      37.051  32.104  29.541  1.00  0.00    +0.000 C 
ATOM     86  F15 UNL A   1      37.623  31.481  28.499  1.00  0.00    +0.000 F 
ENDBRANCH   75   76
TORSDOF 20
ENDMDL
MODEL 2
REMARK VINA RESULT:     -11.2      4.929      9.626
ROOT
ATOM    135  H36 UNL A   1      46.471  29.623  30.404  1.00  0.00    +0.000 H 
ATOM    136  H37 UNL A   1      44.999  29.386  32.609  1.00  0.00    +0.000 H 
ATOM    137  H38 UNL A   1      43.818  32.653  30.544  1.00  0.00    +0.000 H 
ATOM    138  H39 UNL A   1      37.020  28.069  30.432  1.00  0.00    +0.000 H 
ATOM    139  H40 UNL A   1      38.783  26.414  29.625  1.00  0.00    +0.000 H 
ATOM    140  H41 UNL A   1      40.678  30.079  30.073  1.00  0.00    +0.000 H 
ATOM    141  H42 UNL A   1      39.370  32.976  29.583  1.00  0.00    +0.000 H 
ATOM    142  H43 UNL A   1      41.892  32.830  30.117  1.00  0.00    +0.000 H 
ATOM    143  H44 UNL A   1      43.905  29.906  25.775  1.00  0.00    +0.000 H 
ATOM    144  H45 UNL A   1      41.731  28.540  26.002  1.00  0.00    +0.000 H 
ATOM     39  C34 UNL A   1      41.220  27.720  28.708  1.00  0.00    +0.000 C 
ATOM     40  C35 UNL A   1      42.276  28.640  28.205  1.00  0.00    +0.000 C 
ATOM     41  N3  UNL A   1      43.234  29.190  28.873  1.00  0.00    +0.000 N 
ATOM     42  C36 UNL A   1      43.916  30.004  27.970  1.00  0.00    +0.000 C 
ATOM     43  C37 UNL A   1      44.633  31.081  28.397  1.00  0.00    +0.000 C 
ATOM     55  C44 UNL A   1      44.897  30.994  29.811  1.00  0.00    +0.000 C 
ATOM     56  C45 UNL A   1      45.585  30.107  30.617  1.00  0.00    +0.000 C 
ATOM     57  C46 UNL A   1      44.804  30.004  31.806  1.00  0.00    +0.000 C 
ATOM     58  C47 UNL A   1      43.732  30.887  31.692  1.00  0.00    +0.000 C 
ATOM     59  N4  UNL A   1      44.090  31.714  30.658  1.00  0.00    +0.000 N 
ATOM     60  C48 UNL A   1      42.459  30.963  32.363  1.00  0.00    +0.000 C 
ATOM     72  C55 UNL A   1      41.361  31.612  31.880  1.00  0.00    +0.000 C 
ATOM     73  N5  UNL A   1      40.096  31.297  32.351  1.00  0.00    +0.000 N 
ATOM     74  C56 UNL A   1      39.303  31.567  31.353  1.00  0.00    +0.000 C 
ATOM     75  C57 UNL A   1      38.158  30.707  30.981  1.00  0.00    +0.000 C 
ATOM     87  C64 UNL A   1      38.662  29.552  30.482  1.00  0.00    +0.000 C 
ATOM     88  C65 UNL A   1      38.014  28.283  30.253  1.00  0.00    +0.000 C 
ATOM     89  C66 UNL A   1      38.933  27.425  29.765  1.00  0.00    +0.000 C 
ATOM     90  C67 UNL A   1      40.179  28.143  29.461  1.00  0.00    +0.000 C 
ATOM     91  N6  UNL A   1      39.982  29.386  30.013  1.00  0.00    +0.000 N 
ATOM     92  C68 UNL A   1      39.843  32.452  30.335  1.00  0.00    +0.000 C 
ATOM     93  C69 UNL A   1      41.137  32.386  30.662  1.00  0.00    +0.000 C 
ATOM     94  C70 UNL A   1      43.453  29.629  26.661  1.00  0.00    +0.000 C 
ATOM     95  C71 UNL A   1      42.357  28.873  26.752  1.00  0.00    +0.000 C 
ENDROOT
BRANCH   39   38
ATOM     97  C73 UNL A   1      42.010  24.146  28.269  1.00  0.00    +0.000 C 
ATOM     35  C30 UNL A   1      41.233  23.808  27.169  1.00  0.00    +0.000 C 
ATOM     36  C31 UNL A   1      40.528  24.786  26.459  1.00  0.00    +0.000 C 
ATOM    133  H34 UNL A   1      39.993  24.538  25.612  1.00  0.00    +0.000 H 
ATOM     37  C32 UNL A   1      40.561  26.100  26.919  1.00  0.00    +0.000 C 
ATOM     38  C33 UNL A   1      41.236  26.388  28.115  1.00  0.00    +0.000 C 
ATOM    134  H35 UNL A   1      40.096  26.852  26.387  1.00  0.00    +0.000 H 
ATOM    145  H46 UNL A   1      42.274  25.582  29.763  1.00  0.00    +0.000 H 
ATOM    146  H47 UNL A   1      42.676  23.464  28.664  1.00  0.00    +0.000 H 
ATOM     96  C72 UNL A   1      41.888  25.389  28.827  1.00  0.00    +0.000 C 
BRANCH   35   33
ATOM     33  C29 UNL A   1      41.148  22.379  26.805  1.00  0.00    +0.000 C 
ATOM     34  O2  UNL A   1      40.420  21.627  27.411  1.00  0.00    +0.000 O 
BRANCH   33   32
ATOM    132  H33 UNL A   1      41.472  21.406  25.053  1.00  0.00    +0.000 H 
ATOM     32  N2  UNL A   1      41.930  21.933  25.747  1.00  0.00    +0.000 N 
BRANCH   32   31
ATOM    130  H31 UNL A   1      43.803  22.403  26.496  1.00  0.00    +0.000 H 
ATOM    131  H32 UNL A   1      43.783  21.274  25.137  1.00  0.00    +0.000 H 
ATOM     31  C28 UNL A   1      43.361  22.165  25.552  1.00  0.00    +0.000 C 
BRANCH   31   30
ATOM    129  H30 UNL A   1      42.739  23.887  24.532  1.00  0.00    +0.000 H 
ATOM     30  C27 UNL A   1      43.633  23.303  24.583  1.00  0.00    +0.000 C 
ATOM    128  H29 UNL A   1      43.906  22.882  23.638  1.00  0.00    +0.000 H 
BRANCH   30   29
ATOM     29  C26 UNL A   1      44.757  24.250  25.033  1.00  0.00    +0.000 C 
ATOM    126  H27 UNL A   1      45.288  23.769  25.829  1.00  0.00    +0.000 H 
ATOM    127  H28 UNL A   1      45.340  24.432  24.154  1.00  0.00    +0.000 H 
BRANCH   29   28
ATOM    124  H25 UNL A   1      44.738  26.369  24.861  1.00  0.00    +0.000 H 
ATOM     28  C25 UNL A   1      44.333  25.640  25.531  1.00  0.00    +0.000 C 
ATOM    125  H26 UNL A   1      43.263  25.627  25.560  1.00  0.00    +0.000 H 
BRANCH   28   27
ATOM    122  H23 UNL A   1      45.153  27.005  26.935  1.00  0.00    +0.000 H 
ATOM     27  C24 UNL A   1      44.786  26.000  26.947  1.00  0.00    +0.000 C 
ATOM    123  H24 UNL A   1      43.933  25.873  27.580  1.00  0.00    +0.000 H 
BRANCH   27   26
ATOM    121  H22 UNL A   1      46.823  25.561  27.294  1.00  0.00    +0.000 H 
ATOM     26  C23 UNL A   1      45.882  25.100  27.511  1.00  0.00    +0.000 C 
ATOM    120  H21 UNL A   1      45.802  24.135  27.055  1.00  0.00    +0.000 H 
BRANCH   26   25
ATOM     25  N1  UNL A   1      45.792  24.944  28.943  1.00  0.00    +0.000 N 
ATOM    119  H20 UNL A   1      45.348  24.122  29.254  1.00  0.00    +0.000 H 
BRANCH   25   23
ATOM     23  C22 UNL A   1      46.240  25.781  29.925  1.00  0.00    +0.000 C 
ATOM     24  O1  UNL A   1      45.416  26.535  30.448  1.00  0.00    +0.000 O 
BRANCH   23   22
ATOM    118  H19 UNL A   1      48.255  25.346  29.521  1.00  0.00    +0.000 H 
ATOM    117  H18 UNL A   1      47.836  25.343  31.250  1.00  0.00    +0.000 H 
ATOM     22  C21 UNL A   1      47.714  25.831  30.305  1.00  0.00    +0.000 C 
BRANCH   22   21
ATOM      2  C2  UNL A   1      48.778  28.688  33.774  1.00  0.00    +0.000 C 
ATOM     99  C74 UNL A   1      48.651  27.342  33.002  1.00  0.00    +0.000 C 
ATOM      4  C4  UNL A   1      49.505  29.637  32.763  1.00  0.00    +0.000 C 
ATOM      5  C5  UNL A   1      49.130  29.042  31.457  1.00  0.00    +0.000 C 
ATOM     98  N7  UNL A   1      48.653  27.770  31.608  1.00  0.00    +0.000 N 
ATOM      6  C6  UNL A   1      49.091  29.346  30.125  1.00  0.00    +0.000 C 
ATOM    106  H7  UNL A   1      50.565  29.619  32.908  1.00  0.00    +0.000 H 
ATOM    107  H8  UNL A   1      49.231  30.665  32.862  1.00  0.00    +0.000 H 
ATOM     13  C13 UNL A   1      48.556  28.187  29.455  1.00  0.00    +0.000 C 
ATOM    147  H48 UNL A   1      47.740  26.839  33.250  1.00  0.00    +0.000 H 
ATOM    148  H49 UNL A   1      49.429  26.646  33.233  1.00  0.00    +0.000 H 
ATOM     21  C20 UNL A   1      48.264  27.222  30.419  1.00  0.00    +0.000 C 
BRANCH    2    1
ATOM      1  C1  UNL A   1      49.567  28.512  35.071  1.00  0.00    +0.000 C 
ATOM    100  H1  UNL A   1      49.790  29.472  35.487  1.00  0.00    +0.000 H 
ATOM    101  H2  UNL A   1      50.478  27.992  34.866  1.00  0.00    +0.000 H 
ATOM    102  H3  UNL A   1      48.984  27.948  35.769  1.00  0.00    +0.000 H 
ENDBRANCH    2    1
BRANCH    2    3
ATOM    105  H6  UNL A   1      46.902  29.580  33.220  1.00  0.00    +0.000 H 
ATOM      3  C3  UNL A   1      47.389  29.261  34.118  1.00  0.00    +0.000 C 
ATOM    103  H4  UNL A   1      47.501  30.096  34.778  1.00  0.00    +0.000 H 
ATOM    104  H5  UNL A   1      46.800  28.506  34.595  1.00  0.00    +0.000 H 
ENDBRANCH    2    3
BRANCH    6    7
ATOM      7  C7  UNL A   1      49.543  30.573  29.507  1.00  0.00    +0.000 C 
ATOM      8  C8  UNL A   1      48.672  31.657  29.381  1.00  0.00    +0.000 C 
ATOM      9  C9  UNL A   1      49.180  32.916  29.064  1.00  0.00    +0.000 C 
ATOM     10  C10 UNL A   1      50.550  33.089  28.858  1.00  0.00    +0.000 C 
ATOM     11  C11 UNL A   1      51.414  31.997  28.920  1.00  0.00    +0.000 C 
ATOM     12  C12 UNL A   1      50.911  30.741  29.246  1.00  0.00    +0.000 C 
ATOM    108  H9  UNL A   1      47.657  31.526  29.520  1.00  0.00    +0.000 H 
ATOM    109  H10 UNL A   1      48.541  33.723  28.981  1.00  0.00    +0.000 H 
ATOM    111  H12 UNL A   1      52.420  32.120  28.726  1.00  0.00    +0.000 H 
ATOM    112  H13 UNL A   1      51.546  29.930  29.294  1.00  0.00    +0.000 H 
ATOM    110  H11 UNL A   1      50.927  34.030  28.660  1.00  0.00    +0.000 H 
ENDBRANCH    6    7
BRANCH   13   14
ATOM     14  C14 UNL A   1      48.386  28.043  28.013  1.00  0.00    +0.000 C 
ATOM     15  C15 UNL A   1      47.296  28.661  27.381  1.00  0.00    +0.000 C 
ATOM     16  C16 UNL A   1      47.015  28.403  26.037  1.00  0.00    +0.000 C 
ATOM    113  H14 UNL A   1      46.698  29.312  27.914  1.00  0.00    +0.000 H 
ATOM     17  C17 UNL A   1      47.832  27.536  25.316  1.00  0.00    +0.000 C 
ATOM     19  C18 UNL A   1      48.921  26.919  25.929  1.00  0.00    +0.000 C 
ATOM     20  C19 UNL A   1      49.185  27.160  27.280  1.00  0.00    +0.000 C 
ATOM    116  H17 UNL A   1      49.977  26.684  27.740  1.00  0.00    +0.000 H 
ATOM    114  H15 UNL A   1      46.206  28.853  25.581  1.00  0.00    +0.000 H 
ATOM    115  H16 UNL A   1      49.530  26.287  25.387  1.00  0.00    +0.000 H 
ATOM     18 Cl1  UNL A   1      47.476  27.198  23.667  1.00  0.00    +0.000 Cl
ENDBRANCH   13   14
ENDBRANCH   22   21
ENDBRANCH   23   22
ENDBRANCH   25   23
ENDBRANCH   26   25
ENDBRANCH   27   26
ENDBRANCH   28   27
ENDBRANCH   29   28
ENDBRANCH   30   29
ENDBRANCH   31   30
ENDBRANCH   32   31
ENDBRANCH   33   32
ENDBRANCH   35   33
ENDBRANCH   39   38
BRANCH   43   44
ATOM     44  C38 UNL A   1      44.783  32.378  27.633  1.00  0.00    +0.000 C 
ATOM     45  C39 UNL A   1      45.975  32.616  26.915  1.00  0.00    +0.000 C 
ATOM     46  F1  UNL A   1      46.849  31.624  26.693  1.00  0.00    +0.000 F 
ATOM     47  C40 UNL A   1      46.340  33.895  26.486  1.00  0.00    +0.000 C 
ATOM     48  F2  UNL A   1      47.539  34.092  25.923  1.00  0.00    +0.000 F 
ATOM     49  C41 UNL A   1      45.503  34.973  26.702  1.00  0.00    +0.000 C 
ATOM     50  F3  UNL A   1      45.877  36.210  26.348  1.00  0.00    +0.000 F 
ATOM     51  C42 UNL A   1      44.295  34.771  27.332  1.00  0.00    +0.000 C 
ATOM     52  F4  UNL A   1      43.474  35.806  27.564  1.00  0.00    +0.000 F 
ATOM     53  C43 UNL A   1      43.952  33.506  27.809  1.00  0.00    +0.000 C 
ATOM     54  F5  UNL A   1      42.831  33.463  28.536  1.00  0.00    +0.000 F 
ENDBRANCH   43   44
BRANCH   60   61
ATOM     65  F7  UNL A   1      41.487  26.630  34.531  1.00  0.00    +0.000 F 
ATOM     66  C52 UNL A   1      42.122  28.465  35.871  1.00  0.00    +0.000 C 
ATOM     67  F8  UNL A   1      42.076  27.698  36.969  1.00  0.00    +0.000 F 
ATOM     68  C53 UNL A   1      42.491  29.798  35.968  1.00  0.00    +0.000 C 
ATOM     69  F9  UNL A   1      42.822  30.315  37.159  1.00  0.00    +0.000 F 
ATOM     70  C54 UNL A   1      42.547  30.598  34.830  1.00  0.00    +0.000 C 
ATOM     71  F10 UNL A   1      42.925  31.879  34.958  1.00  0.00    +0.000 F 
ATOM     61  C49 UNL A   1      42.260  30.078  33.564  1.00  0.00    +0.000 C 
ATOM     62  C50 UNL A   1      41.921  28.715  33.487  1.00  0.00    +0.000 C 
ATOM     63  F6  UNL A   1      41.725  28.122  32.304  1.00  0.00    +0.000 F 
ATOM     64  C51 UNL A   1      41.829  27.923  34.632  1.00  0.00    +0.000 C 
ENDBRANCH   60   61
BRANCH   75   76
ATOM     76  C58 UNL A   1      36.826  31.285  30.726  1.00  0.00    +0.000 C 
ATOM     77  C59 UNL A   1      35.998  31.716  31.773  1.00  0.00    +0.000 C 
ATOM     78  F11 UNL A   1      36.282  31.373  33.038  1.00  0.00    +0.000 F 
ATOM     79  C60 UNL A   1      34.924  32.582  31.544  1.00  0.00    +0.000 C 
ATOM     80  F12 UNL A   1      34.180  33.019  32.569  1.00  0.00    +0.000 F 
ATOM     81  C61 UNL A   1      34.682  33.068  30.271  1.00  0.00    +0.000 C 
ATOM     82  F13 UNL A   1      33.711  33.966  30.055  1.00  0.00    +0.000 F 
ATOM     83  C62 UNL A   1      35.499  32.671  29.229  1.00  0.00    +0.000 C 
ATOM     84  F14 UNL A   1      35.389  33.267  28.041  1.00  0.00    +0.000 F 
ATOM     85  C63 UNL A   1      36.527  31.760  29.440  1.00  0.00    +0.000 C 
ATOM     86  F15 UNL A   1      37.315  31.455  28.397  1.00  0.00    +0.000 F 
ENDBRANCH   75   76
TORSDOF 20
ENDMDL
MODEL 3
REMARK VINA RESULT:     -11.0     25.268     32.106
ROOT
ATOM    135  H36 UNL A   1      25.248  20.370   9.740  1.00  0.00    +0.000 H 
ATOM    136  H37 UNL A   1      26.695  19.274   7.792  1.00  0.00    +0.000 H 
ATOM    137  H38 UNL A   1      25.217  16.364  10.176  1.00  0.00    +0.000 H 
ATOM    138  H39 UNL A   1      21.688  14.580   2.992  1.00  0.00    +0.000 H 
ATOM    139  H40 UNL A   1      21.149  17.058   3.241  1.00  0.00    +0.000 H 
ATOM    140  H41 UNL A   1      23.094  15.888   6.716  1.00  0.00    +0.000 H 
ATOM    141  H42 UNL A   1      22.914  13.002   8.124  1.00  0.00    +0.000 H 
ATOM    142  H43 UNL A   1      24.218  14.883   9.318  1.00  0.00    +0.000 H 
ATOM    143  H44 UNL A   1      20.243  18.717  10.289  1.00  0.00    +0.000 H 
ATOM    144  H45 UNL A   1      19.377  18.055   7.953  1.00  0.00    +0.000 H 
ATOM     39  C34 UNL A   1      21.461  18.011   5.976  1.00  0.00    +0.000 C 
ATOM     40  C35 UNL A   1      21.587  18.192   7.448  1.00  0.00    +0.000 C 
ATOM     41  N3  UNL A   1      22.654  18.452   8.128  1.00  0.00    +0.000 N 
ATOM     42  C36 UNL A   1      22.264  18.469   9.466  1.00  0.00    +0.000 C 
ATOM     43  C37 UNL A   1      23.158  18.215  10.462  1.00  0.00    +0.000 C 
ATOM     55  C44 UNL A   1      24.512  18.343   9.982  1.00  0.00    +0.000 C 
ATOM     56  C45 UNL A   1      25.259  19.379   9.455  1.00  0.00    +0.000 C 
ATOM     57  C46 UNL A   1      26.050  18.780   8.430  1.00  0.00    +0.000 C 
ATOM     58  C47 UNL A   1      25.798  17.409   8.440  1.00  0.00    +0.000 C 
ATOM     59  N4  UNL A   1      25.183  17.193   9.647  1.00  0.00    +0.000 N 
ATOM     60  C48 UNL A   1      25.995  16.376   7.455  1.00  0.00    +0.000 C 
ATOM     72  C55 UNL A   1      25.342  15.179   7.440  1.00  0.00    +0.000 C 
ATOM     73  N5  UNL A   1      25.264  14.436   6.273  1.00  0.00    +0.000 N 
ATOM     74  C56 UNL A   1      24.155  13.763   6.391  1.00  0.00    +0.000 C 
ATOM     75  C57 UNL A   1      23.218  13.553   5.265  1.00  0.00    +0.000 C 
ATOM     87  C64 UNL A   1      22.654  14.751   4.977  1.00  0.00    +0.000 C 
ATOM     88  C65 UNL A   1      21.916  15.170   3.809  1.00  0.00    +0.000 C 
ATOM     89  C66 UNL A   1      21.574  16.464   3.970  1.00  0.00    +0.000 C 
ATOM     90  C67 UNL A   1      21.896  16.902   5.335  1.00  0.00    +0.000 C 
ATOM     91  N6  UNL A   1      22.634  15.862   5.846  1.00  0.00    +0.000 N 
ATOM     92  C68 UNL A   1      23.629  13.638   7.740  1.00  0.00    +0.000 C 
ATOM     93  C69 UNL A   1      24.349  14.593   8.337  1.00  0.00    +0.000 C 
ATOM     94  C70 UNL A   1      20.826  18.503   9.465  1.00  0.00    +0.000 C 
ATOM     95  C71 UNL A   1      20.353  18.217   8.252  1.00  0.00    +0.000 C 
ENDROOT
BRANCH   39   38
ATOM     97  C73 UNL A   1      20.469  21.017   4.087  1.00  0.00    +0.000 C 
ATOM     35  C30 UNL A   1      19.104  20.818   3.916  1.00  0.00    +0.000 C 
ATOM     36  C31 UNL A   1      18.451  19.748   4.538  1.00  0.00    +0.000 C 
ATOM    133  H34 UNL A   1      17.429  19.634   4.451  1.00  0.00    +0.000 H 
ATOM     37  C32 UNL A   1      19.207  18.841   5.277  1.00  0.00    +0.000 C 
ATOM     38  C33 UNL A   1      20.602  18.985   5.312  1.00  0.00    +0.000 C 
ATOM    134  H35 UNL A   1      18.748  18.073   5.791  1.00  0.00    +0.000 H 
ATOM    145  H46 UNL A   1      22.259  20.058   4.572  1.00  0.00    +0.000 H 
ATOM    146  H47 UNL A   1      20.904  21.905   3.793  1.00  0.00    +0.000 H 
ATOM     96  C72 UNL A   1      21.231  20.029   4.646  1.00  0.00    +0.000 C 
BRANCH   35   33
ATOM     33  C29 UNL A   1      18.383  21.749   3.026  1.00  0.00    +0.000 C 
ATOM     34  O2  UNL A   1      17.639  21.335   2.166  1.00  0.00    +0.000 O 
BRANCH   33   32
ATOM    132  H33 UNL A   1      18.582  23.433   4.141  1.00  0.00    +0.000 H 
ATOM     32  N2  UNL A   1      18.588  23.111   3.211  1.00  0.00    +0.000 N 
BRANCH   32   31
ATOM    130  H31 UNL A   1      18.230  23.859   1.313  1.00  0.00    +0.000 H 
ATOM    131  H32 UNL A   1      18.524  25.067   2.569  1.00  0.00    +0.000 H 
ATOM     31  C28 UNL A   1      18.812  24.116   2.172  1.00  0.00    +0.000 C 
BRANCH   31   30
ATOM    129  H30 UNL A   1      20.380  23.636   0.867  1.00  0.00    +0.000 H 
ATOM     30  C27 UNL A   1      20.272  24.207   1.765  1.00  0.00    +0.000 C 
ATOM    128  H29 UNL A   1      20.869  23.828   2.568  1.00  0.00    +0.000 H 
BRANCH   30   29
ATOM     29  C26 UNL A   1      20.744  25.634   1.443  1.00  0.00    +0.000 C 
ATOM    126  H27 UNL A   1      20.005  26.312   1.820  1.00  0.00    +0.000 H 
ATOM    127  H28 UNL A   1      21.707  25.722   1.902  1.00  0.00    +0.000 H 
BRANCH   29   28
ATOM    124  H25 UNL A   1      20.297  26.760  -0.304  1.00  0.00    +0.000 H 
ATOM     28  C25 UNL A   1      20.970  25.971  -0.038  1.00  0.00    +0.000 C 
ATOM    125  H26 UNL A   1      22.003  26.236  -0.124  1.00  0.00    +0.000 H 
BRANCH   28   27
ATOM    122  H23 UNL A   1      21.552  24.824  -1.728  1.00  0.00    +0.000 H 
ATOM     27  C24 UNL A   1      20.751  24.817  -1.018  1.00  0.00    +0.000 C 
ATOM    123  H24 UNL A   1      20.720  23.923  -0.432  1.00  0.00    +0.000 H 
BRANCH   27   26
ATOM    121  H22 UNL A   1      18.804  24.099  -1.411  1.00  0.00    +0.000 H 
ATOM     26  C23 UNL A   1      19.434  24.877  -1.787  1.00  0.00    +0.000 C 
ATOM    120  H21 UNL A   1      19.639  24.750  -2.829  1.00  0.00    +0.000 H 
BRANCH   26   25
ATOM     25  N1  UNL A   1      18.739  26.129  -1.602  1.00  0.00    +0.000 N 
ATOM    119  H20 UNL A   1      18.750  26.490  -0.686  1.00  0.00    +0.000 H 
BRANCH   25   23
ATOM     23  C22 UNL A   1      18.067  26.879  -2.524  1.00  0.00    +0.000 C 
ATOM     24  O1  UNL A   1      17.032  26.405  -2.999  1.00  0.00    +0.000 O 
BRANCH   23   22
ATOM    118  H19 UNL A   1      18.047  28.980  -2.514  1.00  0.00    +0.000 H 
ATOM    117  H18 UNL A   1      18.530  28.258  -4.067  1.00  0.00    +0.000 H 
ATOM     22  C21 UNL A   1      18.617  28.218  -3.001  1.00  0.00    +0.000 C 
BRANCH   22   21
ATOM      2  C2  UNL A   1      22.696  26.676  -4.523  1.00  0.00    +0.000 C 
ATOM     99  C74 UNL A   1      21.223  27.175  -4.600  1.00  0.00    +0.000 C 
ATOM      4  C4  UNL A   1      23.421  27.770  -3.670  1.00  0.00    +0.000 C 
ATOM      5  C5  UNL A   1      22.307  28.323  -2.864  1.00  0.00    +0.000 C 
ATOM     98  N7  UNL A   1      21.093  27.979  -3.391  1.00  0.00    +0.000 N 
ATOM      6  C6  UNL A   1      22.077  29.070  -1.742  1.00  0.00    +0.000 C 
ATOM    106  H7  UNL A   1      23.860  28.520  -4.294  1.00  0.00    +0.000 H 
ATOM    107  H8  UNL A   1      24.232  27.392  -3.083  1.00  0.00    +0.000 H 
ATOM     13  C13 UNL A   1      20.646  29.166  -1.599  1.00  0.00    +0.000 C 
ATOM    147  H48 UNL A   1      20.536  26.355  -4.593  1.00  0.00    +0.000 H 
ATOM    148  H49 UNL A   1      21.006  27.718  -5.496  1.00  0.00    +0.000 H 
ATOM     21  C20 UNL A   1      20.054  28.446  -2.637  1.00  0.00    +0.000 C 
BRANCH    2    1
ATOM      1  C1  UNL A   1      23.306  26.530  -5.916  1.00  0.00    +0.000 C 
ATOM    100  H1  UNL A   1      23.051  25.573  -6.320  1.00  0.00    +0.000 H 
ATOM    101  H2  UNL A   1      24.369  26.619  -5.852  1.00  0.00    +0.000 H 
ATOM    102  H3  UNL A   1      22.922  27.299  -6.556  1.00  0.00    +0.000 H 
ENDBRANCH    2    1
BRANCH    2    3
ATOM    105  H6  UNL A   1      22.146  25.326  -2.943  1.00  0.00    +0.000 H 
ATOM      3  C3  UNL A   1      22.781  25.315  -3.804  1.00  0.00    +0.000 C 
ATOM    103  H4  UNL A   1      23.791  25.135  -3.500  1.00  0.00    +0.000 H 
ATOM    104  H5  UNL A   1      22.466  24.540  -4.471  1.00  0.00    +0.000 H 
ENDBRANCH    2    3
BRANCH    6    7
ATOM      7  C7  UNL A   1      23.077  29.681  -0.894  1.00  0.00    +0.000 C 
ATOM      8  C8  UNL A   1      22.849  29.809   0.478  1.00  0.00    +0.000 C 
ATOM      9  C9  UNL A   1      23.910  30.120   1.326  1.00  0.00    +0.000 C 
ATOM     10  C10 UNL A   1      25.191  30.318   0.806  1.00  0.00    +0.000 C 
ATOM     11  C11 UNL A   1      25.408  30.254  -0.569  1.00  0.00    +0.000 C 
ATOM     12  C12 UNL A   1      24.352  29.934  -1.418  1.00  0.00    +0.000 C 
ATOM    108  H9  UNL A   1      21.899  29.676   0.861  1.00  0.00    +0.000 H 
ATOM    109  H10 UNL A   1      23.749  30.204   2.343  1.00  0.00    +0.000 H 
ATOM    111  H12 UNL A   1      26.347  30.442  -0.955  1.00  0.00    +0.000 H 
ATOM    112  H13 UNL A   1      24.509  29.884  -2.436  1.00  0.00    +0.000 H 
ATOM    110  H11 UNL A   1      25.982  30.511   1.441  1.00  0.00    +0.000 H 
ENDBRANCH    6    7
BRANCH   13   14
ATOM     14  C14 UNL A   1      19.945  29.920  -0.565  1.00  0.00    +0.000 C 
ATOM     15  C15 UNL A   1      19.321  29.232   0.487  1.00  0.00    +0.000 C 
ATOM     16  C16 UNL A   1      18.504  29.912   1.394  1.00  0.00    +0.000 C 
ATOM    113  H14 UNL A   1      19.467  28.216   0.591  1.00  0.00    +0.000 H 
ATOM     17  C17 UNL A   1      18.320  31.286   1.261  1.00  0.00    +0.000 C 
ATOM     19  C18 UNL A   1      18.938  31.983   0.224  1.00  0.00    +0.000 C 
ATOM     20  C19 UNL A   1      19.734  31.296  -0.697  1.00  0.00    +0.000 C 
ATOM    116  H17 UNL A   1      20.172  31.809  -1.478  1.00  0.00    +0.000 H 
ATOM    114  H15 UNL A   1      18.040  29.399   2.159  1.00  0.00    +0.000 H 
ATOM    115  H16 UNL A   1      18.807  33.003   0.136  1.00  0.00    +0.000 H 
ATOM     18 Cl1  UNL A   1      17.297  32.124   2.362  1.00  0.00    +0.000 Cl
ENDBRANCH   13   14
ENDBRANCH   22   21
ENDBRANCH   23   22
ENDBRANCH   25   23
ENDBRANCH   26   25
ENDBRANCH   27   26
ENDBRANCH   28   27
ENDBRANCH   29   28
ENDBRANCH   30   29
ENDBRANCH   31   30
ENDBRANCH   32   31
ENDBRANCH   33   32
ENDBRANCH   35   33
ENDBRANCH   39   38
BRANCH   43   44
ATOM     44  C38 UNL A   1      22.832  17.503  11.756  1.00  0.00    +0.000 C 
ATOM     45  C39 UNL A   1      22.407  18.263  12.867  1.00  0.00    +0.000 C 
ATOM     46  F1  UNL A   1      22.048  19.547  12.721  1.00  0.00    +0.000 F 
ATOM     47  C40 UNL A   1      22.426  17.751  14.168  1.00  0.00    +0.000 C 
ATOM     48  F2  UNL A   1      22.137  18.551  15.202  1.00  0.00    +0.000 F 
ATOM     49  C41 UNL A   1      22.811  16.445  14.402  1.00  0.00    +0.000 C 
ATOM     50  F3  UNL A   1      22.890  15.970  15.652  1.00  0.00    +0.000 F 
ATOM     51  C42 UNL A   1      23.160  15.646  13.336  1.00  0.00    +0.000 C 
ATOM     52  F4  UNL A   1      23.550  14.379  13.543  1.00  0.00    +0.000 F 
ATOM     53  C43 UNL A   1      23.194  16.169  12.044  1.00  0.00    +0.000 C 
ATOM     54  F5  UNL A   1      23.695  15.347  11.116  1.00  0.00    +0.000 F 
ENDBRANCH   43   44
BRANCH   60   61
ATOM     65  F7  UNL A   1      26.634  18.605   3.091  1.00  0.00    +0.000 F 
ATOM     66  C52 UNL A   1      28.468  17.518   4.102  1.00  0.00    +0.000 C 
ATOM     67  F8  UNL A   1      29.270  17.904   3.100  1.00  0.00    +0.000 F 
ATOM     68  C53 UNL A   1      28.981  16.780   5.158  1.00  0.00    +0.000 C 
ATOM     69  F9  UNL A   1      30.285  16.470   5.186  1.00  0.00    +0.000 F 
ATOM     70  C54 UNL A   1      28.155  16.381   6.205  1.00  0.00    +0.000 C 
ATOM     71  F10 UNL A   1      28.689  15.683   7.220  1.00  0.00    +0.000 F 
ATOM     61  C49 UNL A   1      26.802  16.733   6.236  1.00  0.00    +0.000 C 
ATOM     62  C50 UNL A   1      26.313  17.510   5.170  1.00  0.00    +0.000 C 
ATOM     63  F6  UNL A   1      25.054  17.965   5.173  1.00  0.00    +0.000 F 
ATOM     64  C51 UNL A   1      27.132  17.877   4.102  1.00  0.00    +0.000 C 
ENDBRANCH   60   61
BRANCH   75   76
ATOM     76  C58 UNL A   1      22.675  12.215   4.967  1.00  0.00    +0.000 C 
ATOM     77  C59 UNL A   1      23.382  11.293   4.181  1.00  0.00    +0.000 C 
ATOM     78  F11 UNL A   1      24.441  11.695   3.463  1.00  0.00    +0.000 F 
ATOM     79  C60 UNL A   1      23.067   9.930   4.196  1.00  0.00    +0.000 C 
ATOM     80  F12 UNL A   1      23.791   9.064   3.474  1.00  0.00    +0.000 F 
ATOM     81  C61 UNL A   1      22.070   9.456   5.030  1.00  0.00    +0.000 C 
ATOM     82  F13 UNL A   1      21.819   8.142   5.118  1.00  0.00    +0.000 F 
ATOM     83  C62 UNL A   1      21.377  10.346   5.828  1.00  0.00    +0.000 C 
ATOM     84  F14 UNL A   1      20.542   9.884   6.761  1.00  0.00    +0.000 F 
ATOM     85  C63 UNL A   1      21.640  11.709   5.769  1.00  0.00    +0.000 C 
ATOM     86  F15 UNL A   1      20.967  12.514   6.606  1.00  0.00    +0.000 F 
ENDBRANCH   75   76
TORSDOF 20
ENDMDL
MODEL 4
REMARK VINA RESULT:     -11.0     28.671     35.180
ROOT
ATOM    135  H36 UNL A   1      23.036  28.446   1.208  1.00  0.00    +0.000 H 
ATOM    136  H37 UNL A   1      22.907  25.972   2.182  1.00  0.00    +0.000 H 
ATOM    137  H38 UNL A   1      19.180  27.282   1.329  1.00  0.00    +0.000 H 
ATOM    138  H39 UNL A   1      19.887  20.869  -3.732  1.00  0.00    +0.000 H 
ATOM    139  H40 UNL A   1      22.020  22.171  -4.232  1.00  0.00    +0.000 H 
ATOM    140  H41 UNL A   1      19.830  24.429  -1.525  1.00  0.00    +0.000 H 
ATOM    141  H42 UNL A   1      16.625  24.605  -1.339  1.00  0.00    +0.000 H 
ATOM    142  H43 UNL A   1      18.039  26.140   0.180  1.00  0.00    +0.000 H 
ATOM    143  H44 UNL A   1      20.800  29.329  -3.515  1.00  0.00    +0.000 H 
ATOM    144  H45 UNL A   1      20.983  27.154  -4.886  1.00  0.00    +0.000 H 
ATOM     39  C34 UNL A   1      21.899  24.932  -3.312  1.00  0.00    +0.000 C 
ATOM     40  C35 UNL A   1      21.523  26.296  -2.853  1.00  0.00    +0.000 C 
ATOM     41  N3  UNL A   1      21.615  26.788  -1.662  1.00  0.00    +0.000 N 
ATOM     42  C36 UNL A   1      21.087  28.075  -1.734  1.00  0.00    +0.000 C 
ATOM     43  C37 UNL A   1      20.568  28.685  -0.632  1.00  0.00    +0.000 C 
ATOM     55  C44 UNL A   1      21.004  28.025   0.573  1.00  0.00    +0.000 C 
ATOM     56  C45 UNL A   1      22.232  27.801   1.166  1.00  0.00    +0.000 C 
ATOM     57  C46 UNL A   1      22.147  26.485   1.707  1.00  0.00    +0.000 C 
ATOM     58  C47 UNL A   1      20.855  26.011   1.483  1.00  0.00    +0.000 C 
ATOM     59  N4  UNL A   1      20.140  27.137   1.164  1.00  0.00    +0.000 N 
ATOM     60  C48 UNL A   1      20.295  24.683   1.461  1.00  0.00    +0.000 C 
ATOM     72  C55 UNL A   1      19.133  24.338   0.839  1.00  0.00    +0.000 C 
ATOM     73  N5  UNL A   1      18.881  23.017   0.504  1.00  0.00    +0.000 N 
ATOM     74  C56 UNL A   1      18.104  23.090  -0.539  1.00  0.00    +0.000 C 
ATOM     75  C57 UNL A   1      18.240  22.191  -1.707  1.00  0.00    +0.000 C 
ATOM     87  C64 UNL A   1      19.395  22.517  -2.338  1.00  0.00    +0.000 C 
ATOM     88  C65 UNL A   1      20.145  21.784  -3.331  1.00  0.00    +0.000 C 
ATOM     89  C66 UNL A   1      21.242  22.504  -3.643  1.00  0.00    +0.000 C 
ATOM     90  C67 UNL A   1      21.163  23.834  -3.022  1.00  0.00    +0.000 C 
ATOM     91  N6  UNL A   1      20.088  23.734  -2.172  1.00  0.00    +0.000 N 
ATOM     92  C68 UNL A   1      17.428  24.361  -0.739  1.00  0.00    +0.000 C 
ATOM     93  C69 UNL A   1      18.155  25.120   0.086  1.00  0.00    +0.000 C 
ATOM     94  C70 UNL A   1      20.972  28.385  -3.135  1.00  0.00    +0.000 C 
ATOM     95  C71 UNL A   1      21.118  27.282  -3.870  1.00  0.00    +0.000 C 
ENDROOT
BRANCH   39   38
ATOM     97  C73 UNL A   1      25.237  24.414  -4.786  1.00  0.00    +0.000 C 
ATOM     35  C30 UNL A   1      25.002  24.650  -6.134  1.00  0.00    +0.000 C 
ATOM     36  C31 UNL A   1      23.759  25.119  -6.575  1.00  0.00    +0.000 C 
ATOM    133  H34 UNL A   1      23.604  25.342  -7.570  1.00  0.00    +0.000 H 
ATOM     37  C32 UNL A   1      22.735  25.277  -5.644  1.00  0.00    +0.000 C 
ATOM     38  C33 UNL A   1      22.958  24.893  -4.313  1.00  0.00    +0.000 C 
ATOM    134  H35 UNL A   1      21.825  25.671  -5.929  1.00  0.00    +0.000 H 
ATOM    145  H46 UNL A   1      24.305  23.990  -2.965  1.00  0.00    +0.000 H 
ATOM    146  H47 UNL A   1      26.200  24.260  -4.446  1.00  0.00    +0.000 H 
ATOM     96  C72 UNL A   1      24.187  24.385  -3.911  1.00  0.00    +0.000 C 
BRANCH   35   33
ATOM     33  C29 UNL A   1      26.094  24.350  -7.083  1.00  0.00    +0.000 C 
ATOM     34  O2  UNL A   1      26.442  25.166  -7.905  1.00  0.00    +0.000 O 
BRANCH   33   32
ATOM    132  H33 UNL A   1      26.194  22.340  -7.345  1.00  0.00    +0.000 H 
ATOM     32  N2  UNL A   1      26.703  23.105  -6.994  1.00  0.00    +0.000 N 
BRANCH   32   31
ATOM    130  H31 UNL A   1      28.538  22.148  -7.098  1.00  0.00    +0.000 H 
ATOM    131  H32 UNL A   1      28.546  23.737  -6.324  1.00  0.00    +0.000 H 
ATOM     31  C28 UNL A   1      28.023  22.810  -6.435  1.00  0.00    +0.000 C 
BRANCH   31   30
ATOM    129  H30 UNL A   1      27.743  22.942  -4.362  1.00  0.00    +0.000 H 
ATOM     30  C27 UNL A   1      27.935  22.159  -5.065  1.00  0.00    +0.000 C 
ATOM    128  H29 UNL A   1      28.857  21.651  -4.875  1.00  0.00    +0.000 H 
BRANCH   30   29
ATOM     29  C26 UNL A   1      26.787  21.146  -4.927  1.00  0.00    +0.000 C 
ATOM    126  H27 UNL A   1      26.008  21.446  -5.599  1.00  0.00    +0.000 H 
ATOM    127  H28 UNL A   1      27.224  20.195  -5.146  1.00  0.00    +0.000 H 
BRANCH   29   28
ATOM    124  H25 UNL A   1      26.663  20.188  -3.034  1.00  0.00    +0.000 H 
ATOM     28  C25 UNL A   1      26.164  20.993  -3.532  1.00  0.00    +0.000 C 
ATOM    125  H26 UNL A   1      26.286  21.941  -3.051  1.00  0.00    +0.000 H 
BRANCH   28   27
ATOM    122  H23 UNL A   1      24.252  21.134  -2.620  1.00  0.00    +0.000 H 
ATOM     27  C24 UNL A   1      24.663  20.701  -3.509  1.00  0.00    +0.000 C 
ATOM    123  H24 UNL A   1      24.258  21.122  -4.405  1.00  0.00    +0.000 H 
BRANCH   27   26
ATOM    121  H22 UNL A   1      24.624  18.818  -4.464  1.00  0.00    +0.000 H 
ATOM     26  C23 UNL A   1      24.304  19.217  -3.525  1.00  0.00    +0.000 C 
ATOM    120  H21 UNL A   1      23.247  19.119  -3.393  1.00  0.00    +0.000 H 
BRANCH   26   25
ATOM     25  N1  UNL A   1      24.971  18.472  -2.484  1.00  0.00    +0.000 N 
ATOM    119  H20 UNL A   1      25.922  18.274  -2.645  1.00  0.00    +0.000 H 
BRANCH   25   23
ATOM     23  C22 UNL A   1      24.462  18.003  -1.306  1.00  0.00    +0.000 C 
ATOM     24  O1  UNL A   1      24.112  16.821  -1.269  1.00  0.00    +0.000 O 
BRANCH   23   22
ATOM    118  H19 UNL A   1      23.235  18.866   0.165  1.00  0.00    +0.000 H 
ATOM    117  H18 UNL A   1      24.557  19.916  -0.397  1.00  0.00    +0.000 H 
ATOM     22  C21 UNL A   1      24.266  18.927  -0.110  1.00  0.00    +0.000 C 
BRANCH   22   21
ATOM      2  C2  UNL A   1      23.431  16.591   3.785  1.00  0.00    +0.000 C 
ATOM     99  C74 UNL A   1      23.352  16.946   2.271  1.00  0.00    +0.000 C 
ATOM      4  C4  UNL A   1      24.967  16.549   4.083  1.00  0.00    +0.000 C 
ATOM      5  C5  UNL A   1      25.509  17.454   3.040  1.00  0.00    +0.000 C 
ATOM     98  N7  UNL A   1      24.598  17.668   2.045  1.00  0.00    +0.000 N 
ATOM      6  C6  UNL A   1      26.634  18.169   2.736  1.00  0.00    +0.000 C 
ATOM    106  H7  UNL A   1      25.356  15.558   3.977  1.00  0.00    +0.000 H 
ATOM    107  H8  UNL A   1      25.222  16.840   5.080  1.00  0.00    +0.000 H 
ATOM     13  C13 UNL A   1      26.366  18.846   1.492  1.00  0.00    +0.000 C 
ATOM    147  H48 UNL A   1      22.504  17.565   2.064  1.00  0.00    +0.000 H 
ATOM    148  H49 UNL A   1      23.237  16.090   1.641  1.00  0.00    +0.000 H 
ATOM     21  C20 UNL A   1      25.065  18.532   1.096  1.00  0.00    +0.000 C 
BRANCH    2    1
ATOM      1  C1  UNL A   1      22.749  15.256   4.079  1.00  0.00    +0.000 C 
ATOM    100  H1  UNL A   1      23.408  14.454   3.821  1.00  0.00    +0.000 H 
ATOM    101  H2  UNL A   1      21.851  15.180   3.503  1.00  0.00    +0.000 H 
ATOM    102  H3  UNL A   1      22.509  15.199   5.120  1.00  0.00    +0.000 H 
ENDBRANCH    2    1
BRANCH    2    3
ATOM    105  H6  UNL A   1      22.500  17.276   5.598  1.00  0.00    +0.000 H 
ATOM      3  C3  UNL A   1      22.765  17.684   4.644  1.00  0.00    +0.000 C 
ATOM    103  H4  UNL A   1      21.884  18.038   4.150  1.00  0.00    +0.000 H 
ATOM    104  H5  UNL A   1      23.448  18.496   4.781  1.00  0.00    +0.000 H 
ENDBRANCH    2    3
BRANCH    6    7
ATOM      7  C7  UNL A   1      27.867  18.200   3.492  1.00  0.00    +0.000 C 
ATOM      8  C8  UNL A   1      27.938  18.921   4.686  1.00  0.00    +0.000 C 
ATOM      9  C9  UNL A   1      29.011  18.713   5.553  1.00  0.00    +0.000 C 
ATOM     10  C10 UNL A   1      30.016  17.802   5.222  1.00  0.00    +0.000 C 
ATOM     11  C11 UNL A   1      29.979  17.129   4.002  1.00  0.00    +0.000 C 
ATOM     12  C12 UNL A   1      28.905  17.327   3.139  1.00  0.00    +0.000 C 
ATOM    108  H9  UNL A   1      27.202  19.604   4.925  1.00  0.00    +0.000 H 
ATOM    109  H10 UNL A   1      29.062  19.236   6.442  1.00  0.00    +0.000 H 
ATOM    111  H12 UNL A   1      30.745  16.487   3.740  1.00  0.00    +0.000 H 
ATOM    112  H13 UNL A   1      28.873  16.829   2.236  1.00  0.00    +0.000 H 
ATOM    110  H11 UNL A   1      30.788  17.624   5.883  1.00  0.00    +0.000 H 
ENDBRANCH    6    7
BRANCH   13   14
ATOM     14  C14 UNL A   1      27.310  19.684   0.761  1.00  0.00    +0.000 C 
ATOM     15  C15 UNL A   1      27.624  20.960   1.252  1.00  0.00    +0.000 C 
ATOM     16  C16 UNL A   1      28.391  21.845   0.490  1.00  0.00    +0.000 C 
ATOM    113  H14 UNL A   1      27.286  21.247   2.184  1.00  0.00    +0.000 H 
ATOM     17  C17 UNL A   1      28.859  21.451  -0.762  1.00  0.00    +0.000 C 
ATOM     19  C18 UNL A   1      28.559  20.184  -1.259  1.00  0.00    +0.000 C 
ATOM     20  C19 UNL A   1      27.772  19.310  -0.505  1.00  0.00    +0.000 C 
ATOM    116  H17 UNL A   1      27.530  18.382  -0.885  1.00  0.00    +0.000 H 
ATOM    114  H15 UNL A   1      28.610  22.786   0.852  1.00  0.00    +0.000 H 
ATOM    115  H16 UNL A   1      28.918  19.893  -2.182  1.00  0.00    +0.000 H 
ATOM     18 Cl1  UNL A   1      29.784  22.546  -1.714  1.00  0.00    +0.000 Cl
ENDBRANCH   13   14
ENDBRANCH   22   21
ENDBRANCH   23   22
ENDBRANCH   25   23
ENDBRANCH   26   25
ENDBRANCH   27   26
ENDBRANCH   28   27
ENDBRANCH   29   28
ENDBRANCH   30   29
ENDBRANCH   31   30
ENDBRANCH   32   31
ENDBRANCH   33   32
ENDBRANCH   35   33
ENDBRANCH   39   38
BRANCH   43   44
ATOM     44  C38 UNL A   1      19.392  29.637  -0.642  1.00  0.00    +0.000 C 
ATOM     45  C39 UNL A   1      19.448  30.803   0.151  1.00  0.00    +0.000 C 
ATOM     46  F1  UNL A   1      20.604  31.202   0.700  1.00  0.00    +0.000 F 
ATOM     47  C40 UNL A   1      18.302  31.536   0.473  1.00  0.00    +0.000 C 
ATOM     48  F2  UNL A   1      18.387  32.560   1.333  1.00  0.00    +0.000 F 
ATOM     49  C41 UNL A   1      17.069  31.171  -0.034  1.00  0.00    +0.000 C 
ATOM     50  F3  UNL A   1      15.961  31.834   0.322  1.00  0.00    +0.000 F 
ATOM     51  C42 UNL A   1      16.983  30.083  -0.874  1.00  0.00    +0.000 C 
ATOM     52  F4  UNL A   1      15.795  29.703  -1.365  1.00  0.00    +0.000 F 
ATOM     53  C43 UNL A   1      18.115  29.318  -1.153  1.00  0.00    +0.000 C 
ATOM     54  F5  UNL A   1      17.882  28.202  -1.853  1.00  0.00    +0.000 F 
ENDBRANCH   43   44
BRANCH   60   61
ATOM     65  F7  UNL A   1      21.585  21.246   4.769  1.00  0.00    +0.000 F 
ATOM     66  C52 UNL A   1      22.721  21.331   2.703  1.00  0.00    +0.000 C 
ATOM     67  F8  UNL A   1      23.451  20.260   3.042  1.00  0.00    +0.000 F 
ATOM     68  C53 UNL A   1      22.897  21.929   1.464  1.00  0.00    +0.000 C 
ATOM     69  F9  UNL A   1      23.783  21.421   0.597  1.00  0.00    +0.000 F 
ATOM     70  C54 UNL A   1      22.137  23.038   1.103  1.00  0.00    +0.000 C 
ATOM     71  F10 UNL A   1      22.320  23.580  -0.111  1.00  0.00    +0.000 F 
ATOM     61  C49 UNL A   1      21.165  23.562   1.962  1.00  0.00    +0.000 C 
ATOM     62  C50 UNL A   1      20.983  22.918   3.199  1.00  0.00    +0.000 C 
ATOM     63  F6  UNL A   1      20.010  23.300   4.035  1.00  0.00    +0.000 F 
ATOM     64  C51 UNL A   1      21.770  21.830   3.576  1.00  0.00    +0.000 C 
ENDBRANCH   60   61
BRANCH   75   76
ATOM     76  C58 UNL A   1      17.066  21.515  -2.286  1.00  0.00    +0.000 C 
ATOM     77  C59 UNL A   1      16.390  20.495  -1.598  1.00  0.00    +0.000 C 
ATOM     78  F11 UNL A   1      16.950  19.930  -0.519  1.00  0.00    +0.000 F 
ATOM     79  C60 UNL A   1      15.093  20.111  -1.953  1.00  0.00    +0.000 C 
ATOM     80  F12 UNL A   1      14.452  19.170  -1.247  1.00  0.00    +0.000 F 
ATOM     81  C61 UNL A   1      14.429  20.768  -2.975  1.00  0.00    +0.000 C 
ATOM     82  F13 UNL A   1      13.156  20.468  -3.266  1.00  0.00    +0.000 F 
ATOM     83  C62 UNL A   1      15.070  21.789  -3.651  1.00  0.00    +0.000 C 
ATOM     84  F14 UNL A   1      14.383  22.543  -4.510  1.00  0.00    +0.000 F 
ATOM     85  C63 UNL A   1      16.382  22.130  -3.346  1.00  0.00    +0.000 C 
ATOM     86  F15 UNL A   1      16.929  23.163  -4.005  1.00  0.00    +0.000 F 
ENDBRANCH   75   76
TORSDOF 20
ENDMDL
MODEL 5
REMARK VINA RESULT:     -10.9      6.031     11.544
ROOT
ATOM    135  H36 UNL A   1      45.776  30.845  29.250  1.00  0.00    +0.000 H 
ATOM    136  H37 UNL A   1      43.274  30.157  28.655  1.00  0.00    +0.000 H 
ATOM    137  H38 UNL A   1      45.794  28.583  25.915  1.00  0.00    +0.000 H 
ATOM    138  H39 UNL A   1      42.525  21.836  29.237  1.00  0.00    +0.000 H 
ATOM    139  H40 UNL A   1      43.269  23.131  31.302  1.00  0.00    +0.000 H 
ATOM    140  H41 UNL A   1      44.527  25.301  27.995  1.00  0.00    +0.000 H 
ATOM    141  H42 UNL A   1      45.468  24.094  25.166  1.00  0.00    +0.000 H 
ATOM    142  H43 UNL A   1      45.674  26.638  25.558  1.00  0.00    +0.000 H 
ATOM    143  H44 UNL A   1      49.313  26.939  29.815  1.00  0.00    +0.000 H 
ATOM    144  H45 UNL A   1      48.060  24.873  30.711  1.00  0.00    +0.000 H 
ATOM     39  C34 UNL A   1      45.208  25.217  30.688  1.00  0.00    +0.000 C 
ATOM     40  C35 UNL A   1      46.250  26.109  30.114  1.00  0.00    +0.000 C 
ATOM     41  N3  UNL A   1      46.091  27.267  29.562  1.00  0.00    +0.000 N 
ATOM     42  C36 UNL A   1      47.355  27.669  29.137  1.00  0.00    +0.000 C 
ATOM     43  C37 UNL A   1      47.503  28.554  28.111  1.00  0.00    +0.000 C 
ATOM     55  C44 UNL A   1      46.270  29.256  27.857  1.00  0.00    +0.000 C 
ATOM     56  C45 UNL A   1      45.471  30.110  28.594  1.00  0.00    +0.000 C 
ATOM     57  C46 UNL A   1      44.134  29.753  28.251  1.00  0.00    +0.000 C 
ATOM     58  C47 UNL A   1      44.192  28.760  27.274  1.00  0.00    +0.000 C 
ATOM     59  N4  UNL A   1      45.485  28.816  26.820  1.00  0.00    +0.000 N 
ATOM     60  C48 UNL A   1      43.235  27.782  26.822  1.00  0.00    +0.000 C 
ATOM     72  C55 UNL A   1      43.550  26.631  26.162  1.00  0.00    +0.000 C 
ATOM     73  N5  UNL A   1      42.659  25.570  26.137  1.00  0.00    +0.000 N 
ATOM     74  C56 UNL A   1      43.415  24.515  26.022  1.00  0.00    +0.000 C 
ATOM     75  C57 UNL A   1      43.158  23.258  26.760  1.00  0.00    +0.000 C 
ATOM     87  C64 UNL A   1      43.407  23.498  28.070  1.00  0.00    +0.000 C 
ATOM     88  C65 UNL A   1      43.042  22.730  29.237  1.00  0.00    +0.000 C 
ATOM     89  C66 UNL A   1      43.493  23.384  30.327  1.00  0.00    +0.000 C 
ATOM     90  C67 UNL A   1      44.349  24.507  29.921  1.00  0.00    +0.000 C 
ATOM     91  N6  UNL A   1      44.168  24.580  28.561  1.00  0.00    +0.000 N 
ATOM     92  C68 UNL A   1      44.765  24.752  25.538  1.00  0.00    +0.000 C 
ATOM     93  C69 UNL A   1      44.825  26.074  25.717  1.00  0.00    +0.000 C 
ATOM     94  C70 UNL A   1      48.294  26.782  29.771  1.00  0.00    +0.000 C 
ATOM     95  C71 UNL A   1      47.663  25.729  30.292  1.00  0.00    +0.000 C 
ENDROOT
BRANCH   39   38
ATOM     97  C73 UNL A   1      46.010  25.786  34.241  1.00  0.00    +0.000 C 
ATOM     35  C30 UNL A   1      45.532  24.626  34.838  1.00  0.00    +0.000 C 
ATOM     36  C31 UNL A   1      45.051  23.565  34.063  1.00  0.00    +0.000 C 
ATOM    133  H34 UNL A   1      44.745  22.686  34.508  1.00  0.00    +0.000 H 
ATOM     37  C32 UNL A   1      44.993  23.719  32.680  1.00  0.00    +0.000 C 
ATOM     38  C33 UNL A   1      45.347  24.954  32.115  1.00  0.00    +0.000 C 
ATOM    134  H35 UNL A   1      44.694  22.936  32.078  1.00  0.00    +0.000 H 
ATOM    145  H46 UNL A   1      45.914  26.946  32.506  1.00  0.00    +0.000 H 
ATOM    146  H47 UNL A   1      46.539  26.476  34.797  1.00  0.00    +0.000 H 
ATOM     96  C72 UNL A   1      45.776  26.008  32.912  1.00  0.00    +0.000 C 
BRANCH   35   33
ATOM     33  C29 UNL A   1      45.512  24.575  36.314  1.00  0.00    +0.000 C 
ATOM     34  O2  UNL A   1      46.527  24.374  36.940  1.00  0.00    +0.000 O 
BRANCH   33   32
ATOM    132  H33 UNL A   1      43.677  24.000  36.962  1.00  0.00    +0.000 H 
ATOM     32  N2  UNL A   1      44.294  24.767  36.952  1.00  0.00    +0.000 N 
BRANCH   32   31
ATOM    130  H31 UNL A   1      43.012  25.741  38.255  1.00  0.00    +0.000 H 
ATOM    131  H32 UNL A   1      44.651  26.395  38.162  1.00  0.00    +0.000 H 
ATOM     31  C28 UNL A   1      43.829  25.988  37.612  1.00  0.00    +0.000 C 
BRANCH   31   30
ATOM    129  H30 UNL A   1      44.244  27.390  36.110  1.00  0.00    +0.000 H 
ATOM     30  C27 UNL A   1      43.370  27.040  36.618  1.00  0.00    +0.000 C 
ATOM    128  H29 UNL A   1      42.868  27.816  37.157  1.00  0.00    +0.000 H 
BRANCH   30   29
ATOM     29  C26 UNL A   1      42.414  26.505  35.540  1.00  0.00    +0.000 C 
ATOM    126  H27 UNL A   1      42.578  25.451  35.455  1.00  0.00    +0.000 H 
ATOM    127  H28 UNL A   1      41.434  26.780  35.871  1.00  0.00    +0.000 H 
BRANCH   29   28
ATOM    124  H25 UNL A   1      43.484  27.628  34.085  1.00  0.00    +0.000 H 
ATOM     28  C25 UNL A   1      42.548  27.110  34.134  1.00  0.00    +0.000 C 
ATOM    125  H26 UNL A   1      42.474  26.288  33.453  1.00  0.00    +0.000 H 
BRANCH   28   27
ATOM    122  H23 UNL A   1      41.288  27.998  32.675  1.00  0.00    +0.000 H 
ATOM     27  C24 UNL A   1      41.446  28.091  33.729  1.00  0.00    +0.000 C 
ATOM    123  H24 UNL A   1      40.584  27.832  34.306  1.00  0.00    +0.000 H 
BRANCH   27   26
ATOM    121  H22 UNL A   1      41.543  29.716  35.074  1.00  0.00    +0.000 H 
ATOM     26  C23 UNL A   1      41.753  29.554  34.038  1.00  0.00    +0.000 C 
ATOM    120  H21 UNL A   1      41.146  30.171  33.410  1.00  0.00    +0.000 H 
BRANCH   26   25
ATOM     25  N1  UNL A   1      43.139  29.890  33.816  1.00  0.00    +0.000 N 
ATOM    119  H20 UNL A   1      43.764  29.610  34.524  1.00  0.00    +0.000 H 
BRANCH   25   23
ATOM     23  C22 UNL A   1      43.702  30.546  32.758  1.00  0.00    +0.000 C 
ATOM     24  O1  UNL A   1      44.220  29.859  31.874  1.00  0.00    +0.000 O 
BRANCH   23   22
ATOM    118  H19 UNL A   1      44.536  32.375  33.369  1.00  0.00    +0.000 H 
ATOM    117  H18 UNL A   1      42.795  32.446  33.008  1.00  0.00    +0.000 H 
ATOM     22  C21 UNL A   1      43.751  32.068  32.711  1.00  0.00    +0.000 C 
BRANCH   22   21
ATOM      2  C2  UNL A   1      47.511  33.801  30.664  1.00  0.00    +0.000 C 
ATOM     99  C74 UNL A   1      46.670  32.860  31.576  1.00  0.00    +0.000 C 
ATOM      4  C4  UNL A   1      46.781  33.738  29.281  1.00  0.00    +0.000 C 
ATOM      5  C5  UNL A   1      45.395  33.390  29.679  1.00  0.00    +0.000 C 
ATOM     98  N7  UNL A   1      45.350  32.909  30.958  1.00  0.00    +0.000 N 
ATOM      6  C6  UNL A   1      44.118  33.396  29.192  1.00  0.00    +0.000 C 
ATOM    106  H7  UNL A   1      47.205  32.985  28.651  1.00  0.00    +0.000 H 
ATOM    107  H8  UNL A   1      46.851  34.643  28.714  1.00  0.00    +0.000 H 
ATOM     13  C13 UNL A   1      43.273  32.894  30.246  1.00  0.00    +0.000 C 
ATOM    147  H48 UNL A   1      46.639  33.224  32.582  1.00  0.00    +0.000 H 
ATOM    148  H49 UNL A   1      47.069  31.870  31.647  1.00  0.00    +0.000 H 
ATOM     21  C20 UNL A   1      44.076  32.622  31.355  1.00  0.00    +0.000 C 
BRANCH    2    1
ATOM      1  C1  UNL A   1      48.963  33.332  30.572  1.00  0.00    +0.000 C 
ATOM    100  H1  UNL A   1      49.604  34.067  31.011  1.00  0.00    +0.000 H 
ATOM    101  H2  UNL A   1      49.229  33.193  29.546  1.00  0.00    +0.000 H 
ATOM    102  H3  UNL A   1      49.072  32.405  31.097  1.00  0.00    +0.000 H 
ENDBRANCH    2    1
BRANCH    2    3
ATOM    105  H6  UNL A   1      48.456  35.491  31.597  1.00  0.00    +0.000 H 
ATOM      3  C3  UNL A   1      47.494  35.247  31.196  1.00  0.00    +0.000 C 
ATOM    103  H4  UNL A   1      46.755  35.335  31.965  1.00  0.00    +0.000 H 
ATOM    104  H5  UNL A   1      47.259  35.918  30.397  1.00  0.00    +0.000 H 
ENDBRANCH    2    3
BRANCH    6    7
ATOM      7  C7  UNL A   1      43.704  33.785  27.861  1.00  0.00    +0.000 C 
ATOM      8  C8  UNL A   1      43.099  35.026  27.651  1.00  0.00    +0.000 C 
ATOM      9  C9  UNL A   1      42.973  35.520  26.353  1.00  0.00    +0.000 C 
ATOM     10  C10 UNL A   1      43.435  34.771  25.268  1.00  0.00    +0.000 C 
ATOM     11  C11 UNL A   1      43.982  33.505  25.471  1.00  0.00    +0.000 C 
ATOM     12  C12 UNL A   1      44.117  33.014  26.766  1.00  0.00    +0.000 C 
ATOM    108  H9  UNL A   1      42.745  35.574  28.452  1.00  0.00    +0.000 H 
ATOM    109  H10 UNL A   1      42.537  36.442  26.193  1.00  0.00    +0.000 H 
ATOM    111  H12 UNL A   1      44.284  32.936  24.664  1.00  0.00    +0.000 H 
ATOM    112  H13 UNL A   1      44.523  32.078  26.921  1.00  0.00    +0.000 H 
ATOM    110  H11 UNL A   1      43.374  35.157  24.313  1.00  0.00    +0.000 H 
ENDBRANCH    6    7
BRANCH   13   14
ATOM     14  C14 UNL A   1      41.834  32.675  30.151  1.00  0.00    +0.000 C 
ATOM     15  C15 UNL A   1      40.960  33.762  30.300  1.00  0.00    +0.000 C 
ATOM     16  C16 UNL A   1      39.580  33.558  30.381  1.00  0.00    +0.000 C 
ATOM    113  H14 UNL A   1      41.340  34.721  30.350  1.00  0.00    +0.000 H 
ATOM     17  C17 UNL A   1      39.068  32.265  30.298  1.00  0.00    +0.000 C 
ATOM     19  C18 UNL A   1      39.925  31.176  30.145  1.00  0.00    +0.000 C 
ATOM     20  C19 UNL A   1      41.306  31.382  30.089  1.00  0.00    +0.000 C 
ATOM    116  H17 UNL A   1      41.941  30.573  29.999  1.00  0.00    +0.000 H 
ATOM    114  H15 UNL A   1      38.943  34.361  30.501  1.00  0.00    +0.000 H 
ATOM    115  H16 UNL A   1      39.540  30.222  30.072  1.00  0.00    +0.000 H 
ATOM     18 Cl1  UNL A   1      37.372  32.006  30.420  1.00  0.00    +0.000 Cl
ENDBRANCH   13   14
ENDBRANCH   22   21
ENDBRANCH   23   22
ENDBRANCH   25   23
ENDBRANCH   26   25
ENDBRANCH   27   26
ENDBRANCH   28   27
ENDBRANCH   29   28
ENDBRANCH   30   29
ENDBRANCH   31   30
ENDBRANCH   32   31
ENDBRANCH   33   32
ENDBRANCH   35   33
ENDBRANCH   39   38
BRANCH   43   44
ATOM     44  C38 UNL A   1      48.634  28.531  27.106  1.00  0.00    +0.000 C 
ATOM     45  C39 UNL A   1      48.842  27.366  26.336  1.00  0.00    +0.000 C 
ATOM     46  F1  UNL A   1      47.916  26.396  26.299  1.00  0.00    +0.000 F 
ATOM     47  C40 UNL A   1      50.042  27.128  25.660  1.00  0.00    +0.000 C 
ATOM     48  F2  UNL A   1      50.240  25.952  25.050  1.00  0.00    +0.000 F 
ATOM     49  C41 UNL A   1      51.054  28.069  25.674  1.00  0.00    +0.000 C 
ATOM     50  F3  UNL A   1      52.227  27.819  25.079  1.00  0.00    +0.000 F 
ATOM     51  C42 UNL A   1      50.861  29.253  26.351  1.00  0.00    +0.000 C 
ATOM     52  F4  UNL A   1      51.836  30.173  26.390  1.00  0.00    +0.000 F 
ATOM     53  C43 UNL A   1      49.687  29.470  27.072  1.00  0.00    +0.000 C 
ATOM     54  F5  UNL A   1      49.678  30.584  27.811  1.00  0.00    +0.000 F 
ENDBRANCH   43   44
BRANCH   60   61
ATOM     65  F7  UNL A   1      39.652  27.206  30.175  1.00  0.00    +0.000 F 
ATOM     66  C52 UNL A   1      39.201  28.443  28.217  1.00  0.00    +0.000 C 
ATOM     67  F8  UNL A   1      37.960  28.706  28.650  1.00  0.00    +0.000 F 
ATOM     68  C53 UNL A   1      39.636  28.950  27.002  1.00  0.00    +0.000 C 
ATOM     69  F9  UNL A   1      38.821  29.723  26.270  1.00  0.00    +0.000 F 
ATOM     70  C54 UNL A   1      40.925  28.685  26.549  1.00  0.00    +0.000 C 
ATOM     71  F10 UNL A   1      41.319  29.207  25.377  1.00  0.00    +0.000 F 
ATOM     61  C49 UNL A   1      41.820  27.927  27.312  1.00  0.00    +0.000 C 
ATOM     62  C50 UNL A   1      41.366  27.452  28.555  1.00  0.00    +0.000 C 
ATOM     63  F6  UNL A   1      42.191  26.800  29.384  1.00  0.00    +0.000 F 
ATOM     64  C51 UNL A   1      40.062  27.686  28.992  1.00  0.00    +0.000 C 
ENDBRANCH   60   61
BRANCH   75   76
ATOM     76  C58 UNL A   1      43.176  21.956  26.070  1.00  0.00    +0.000 C 
ATOM     77  C59 UNL A   1      44.379  21.287  25.792  1.00  0.00    +0.000 C 
ATOM     78  F11 UNL A   1      45.547  21.934  25.906  1.00  0.00    +0.000 F 
ATOM     79  C60 UNL A   1      44.400  19.923  25.485  1.00  0.00    +0.000 C 
ATOM     80  F12 UNL A   1      45.566  19.299  25.273  1.00  0.00    +0.000 F 
ATOM     81  C61 UNL A   1      43.226  19.190  25.492  1.00  0.00    +0.000 C 
ATOM     82  F13 UNL A   1      43.245  17.866  25.287  1.00  0.00    +0.000 F 
ATOM     83  C62 UNL A   1      42.034  19.826  25.785  1.00  0.00    +0.000 C 
ATOM     84  F14 UNL A   1      40.929  19.103  25.971  1.00  0.00    +0.000 F 
ATOM     85  C63 UNL A   1      41.999  21.194  26.026  1.00  0.00    +0.000 C 
ATOM     86  F15 UNL A   1      40.817  21.741  26.353  1.00  0.00    +0.000 F 
ENDBRANCH   75   76
TORSDOF 20
ENDMDL
MODEL 6
REMARK VINA RESULT:     -10.9     24.608     30.562
ROOT
ATOM    135  H36 UNL A   1      19.250  37.404  44.314  1.00  0.00    +0.000 H 
ATOM    136  H37 UNL A   1      18.459  38.566  46.575  1.00  0.00    +0.000 H 
ATOM    137  H38 UNL A   1      19.142  34.639  47.242  1.00  0.00    +0.000 H 
ATOM    138  H39 UNL A   1      24.675  38.150  52.172  1.00  0.00    +0.000 H 
ATOM    139  H40 UNL A   1      25.118  39.333  49.958  1.00  0.00    +0.000 H 
ATOM    140  H41 UNL A   1      22.210  36.461  49.235  1.00  0.00    +0.000 H 
ATOM    141  H42 UNL A   1      21.951  33.601  50.684  1.00  0.00    +0.000 H 
ATOM    142  H43 UNL A   1      20.350  34.152  48.735  1.00  0.00    +0.000 H 
ATOM    143  H44 UNL A   1      23.852  34.778  44.400  1.00  0.00    +0.000 H 
ATOM    144  H45 UNL A   1      25.382  35.938  46.119  1.00  0.00    +0.000 H 
ATOM     39  C34 UNL A   1      23.994  37.913  47.676  1.00  0.00    +0.000 C 
ATOM     40  C35 UNL A   1      23.429  36.938  46.705  1.00  0.00    +0.000 C 
ATOM     41  N3  UNL A   1      22.207  36.838  46.299  1.00  0.00    +0.000 N 
ATOM     42  C36 UNL A   1      22.174  35.740  45.441  1.00  0.00    +0.000 C 
ATOM     43  C37 UNL A   1      21.020  35.047  45.230  1.00  0.00    +0.000 C 
ATOM     55  C44 UNL A   1      19.875  35.815  45.652  1.00  0.00    +0.000 C 
ATOM     56  C45 UNL A   1      19.324  37.023  45.269  1.00  0.00    +0.000 C 
ATOM     57  C46 UNL A   1      18.879  37.628  46.482  1.00  0.00    +0.000 C 
ATOM     58  C47 UNL A   1      19.114  36.729  47.521  1.00  0.00    +0.000 C 
ATOM     59  N4  UNL A   1      19.335  35.535  46.883  1.00  0.00    +0.000 N 
ATOM     60  C48 UNL A   1      19.223  36.897  48.948  1.00  0.00    +0.000 C 
ATOM     72  C55 UNL A   1      19.847  36.025  49.790  1.00  0.00    +0.000 C 
ATOM     73  N5  UNL A   1      20.274  36.441  51.041  1.00  0.00    +0.000 N 
ATOM     74  C56 UNL A   1      21.294  35.676  51.306  1.00  0.00    +0.000 C 
ATOM     75  C57 UNL A   1      22.527  36.176  51.954  1.00  0.00    +0.000 C 
ATOM     87  C64 UNL A   1      23.154  36.984  51.064  1.00  0.00    +0.000 C 
ATOM     88  C65 UNL A   1      24.212  37.944  51.272  1.00  0.00    +0.000 C 
ATOM     89  C66 UNL A   1      24.491  38.524  50.087  1.00  0.00    +0.000 C 
ATOM     90  C67 UNL A   1      23.772  37.832  49.008  1.00  0.00    +0.000 C 
ATOM     91  N6  UNL A   1      22.912  36.993  49.675  1.00  0.00    +0.000 N 
ATOM     92  C68 UNL A   1      21.386  34.451  50.530  1.00  0.00    +0.000 C 
ATOM     93  C69 UNL A   1      20.522  34.751  49.557  1.00  0.00    +0.000 C 
ATOM     94  C70 UNL A   1      23.545  35.413  45.153  1.00  0.00    +0.000 C 
ATOM     95  C71 UNL A   1      24.363  36.045  45.996  1.00  0.00    +0.000 C 
ENDROOT
BRANCH   39   38
ATOM     97  C73 UNL A   1      27.313  39.108  46.605  1.00  0.00    +0.000 C 
ATOM     35  C30 UNL A   1      27.006  40.321  46.000  1.00  0.00    +0.000 C 
ATOM     36  C31 UNL A   1      25.707  40.840  46.049  1.00  0.00    +0.000 C 
ATOM    133  H34 UNL A   1      25.495  41.765  45.644  1.00  0.00    +0.000 H 
ATOM     37  C32 UNL A   1      24.707  40.083  46.655  1.00  0.00    +0.000 C 
ATOM     38  C33 UNL A   1      25.015  38.799  47.129  1.00  0.00    +0.000 C 
ATOM    134  H35 UNL A   1      23.752  40.461  46.754  1.00  0.00    +0.000 H 
ATOM    145  H46 UNL A   1      26.494  37.301  47.259  1.00  0.00    +0.000 H 
ATOM    146  H47 UNL A   1      28.297  38.828  46.736  1.00  0.00    +0.000 H 
ATOM     96  C72 UNL A   1      26.303  38.287  47.024  1.00  0.00    +0.000 C 
BRANCH   35   33
ATOM     33  C29 UNL A   1      28.088  41.016  45.274  1.00  0.00    +0.000 C 
ATOM     34  O2  UNL A   1      28.370  40.707  44.139  1.00  0.00    +0.000 O 
BRANCH   33   32
ATOM    132  H33 UNL A   1      29.552  41.766  46.462  1.00  0.00    +0.000 H 
ATOM     32  N2  UNL A   1      28.763  42.032  45.937  1.00  0.00    +0.000 N 
BRANCH   32   31
ATOM    130  H31 UNL A   1      29.194  43.990  45.414  1.00  0.00    +0.000 H 
ATOM    131  H32 UNL A   1      27.478  43.569  45.461  1.00  0.00    +0.000 H 
ATOM     31  C28 UNL A   1      28.429  43.457  45.937  1.00  0.00    +0.000 C 
BRANCH   31   30
ATOM    129  H30 UNL A   1      28.694  45.019  47.308  1.00  0.00    +0.000 H 
ATOM     30  C27 UNL A   1      28.314  44.021  47.343  1.00  0.00    +0.000 C 
ATOM    128  H29 UNL A   1      28.870  43.390  48.004  1.00  0.00    +0.000 H 
BRANCH   30   29
ATOM     29  C26 UNL A   1      26.870  44.113  47.862  1.00  0.00    +0.000 C 
ATOM    126  H27 UNL A   1      26.759  45.063  48.344  1.00  0.00    +0.000 H 
ATOM    127  H28 UNL A   1      26.251  43.973  47.001  1.00  0.00    +0.000 H 
BRANCH   29   28
ATOM    124  H25 UNL A   1      26.079  43.523  49.746  1.00  0.00    +0.000 H 
ATOM     28  C25 UNL A   1      26.424  43.032  48.859  1.00  0.00    +0.000 C 
ATOM    125  H26 UNL A   1      25.667  42.465  48.358  1.00  0.00    +0.000 H 
BRANCH   28   27
ATOM    122  H23 UNL A   1      28.090  41.799  48.403  1.00  0.00    +0.000 H 
ATOM     27  C24 UNL A   1      27.500  42.025  49.267  1.00  0.00    +0.000 C 
ATOM    123  H24 UNL A   1      28.065  42.485  50.051  1.00  0.00    +0.000 H 
BRANCH   27   26
ATOM    121  H22 UNL A   1      27.442  39.914  49.309  1.00  0.00    +0.000 H 
ATOM     26  C23 UNL A   1      26.961  40.714  49.832  1.00  0.00    +0.000 C 
ATOM    120  H21 UNL A   1      25.900  40.692  49.697  1.00  0.00    +0.000 H 
BRANCH   26   25
ATOM     25  N1  UNL A   1      27.252  40.552  51.237  1.00  0.00    +0.000 N 
ATOM    119  H20 UNL A   1      27.353  39.623  51.546  1.00  0.00    +0.000 H 
BRANCH   25   23
ATOM     23  C22 UNL A   1      27.404  41.514  52.196  1.00  0.00    +0.000 C 
ATOM     24  O1  UNL A   1      28.470  41.533  52.817  1.00  0.00    +0.000 O 
BRANCH   23   22
ATOM    118  H19 UNL A   1      26.008  42.977  51.625  1.00  0.00    +0.000 H 
ATOM    117  H18 UNL A   1      26.616  43.151  53.288  1.00  0.00    +0.000 H 
ATOM     22  C21 UNL A   1      26.272  42.476  52.532  1.00  0.00    +0.000 C 
BRANCH   22   21
ATOM      2  C2  UNL A   1      25.238  39.649  56.035  1.00  0.00    +0.000 C 
ATOM     99  C74 UNL A   1      25.929  40.829  55.289  1.00  0.00    +0.000 C 
ATOM      4  C4  UNL A   1      23.713  39.867  55.753  1.00  0.00    +0.000 C 
ATOM      5  C5  UNL A   1      23.739  40.617  54.474  1.00  0.00    +0.000 C 
ATOM     98  N7  UNL A   1      24.978  41.140  54.229  1.00  0.00    +0.000 N 
ATOM      6  C6  UNL A   1      22.928  40.962  53.429  1.00  0.00    +0.000 C 
ATOM    106  H7  UNL A   1      23.252  40.440  56.530  1.00  0.00    +0.000 H 
ATOM    107  H8  UNL A   1      23.149  38.959  55.709  1.00  0.00    +0.000 H 
ATOM     13  C13 UNL A   1      23.737  41.729  52.516  1.00  0.00    +0.000 C 
ATOM    147  H48 UNL A   1      26.874  40.529  54.885  1.00  0.00    +0.000 H 
ATOM    148  H49 UNL A   1      26.146  41.662  55.923  1.00  0.00    +0.000 H 
ATOM     21  C20 UNL A   1      25.031  41.799  53.034  1.00  0.00    +0.000 C 
BRANCH    2    1
ATOM      1  C1  UNL A   1      25.558  39.674  57.529  1.00  0.00    +0.000 C 
ATOM    100  H1  UNL A   1      25.101  38.833  58.006  1.00  0.00    +0.000 H 
ATOM    101  H2  UNL A   1      25.182  40.577  57.960  1.00  0.00    +0.000 H 
ATOM    102  H3  UNL A   1      26.619  39.628  57.667  1.00  0.00    +0.000 H 
ENDBRANCH    2    1
BRANCH    2    3
ATOM    105  H6  UNL A   1      26.121  37.700  56.235  1.00  0.00    +0.000 H 
ATOM      3  C3  UNL A   1      25.685  38.292  55.458  1.00  0.00    +0.000 C 
ATOM    103  H4  UNL A   1      26.409  38.455  54.685  1.00  0.00    +0.000 H 
ATOM    104  H5  UNL A   1      24.838  37.781  55.051  1.00  0.00    +0.000 H 
ENDBRANCH    2    3
BRANCH    6    7
ATOM      7  C7  UNL A   1      21.520  40.657  53.294  1.00  0.00    +0.000 C 
ATOM      8  C8  UNL A   1      21.106  39.342  53.074  1.00  0.00    +0.000 C 
ATOM      9  C9  UNL A   1      19.763  39.006  53.238  1.00  0.00    +0.000 C 
ATOM     10  C10 UNL A   1      18.834  39.982  53.605  1.00  0.00    +0.000 C 
ATOM     11  C11 UNL A   1      19.234  41.308  53.763  1.00  0.00    +0.000 C 
ATOM     12  C12 UNL A   1      20.575  41.644  53.609  1.00  0.00    +0.000 C 
ATOM    108  H9  UNL A   1      21.791  38.623  52.790  1.00  0.00    +0.000 H 
ATOM    109  H10 UNL A   1      19.454  38.032  53.087  1.00  0.00    +0.000 H 
ATOM    111  H12 UNL A   1      18.538  42.035  53.993  1.00  0.00    +0.000 H 
ATOM    112  H13 UNL A   1      20.876  42.624  53.727  1.00  0.00    +0.000 H 
ATOM    110  H11 UNL A   1      17.848  39.721  53.761  1.00  0.00    +0.000 H 
ENDBRANCH    6    7
BRANCH   13   14
ATOM     14  C14 UNL A   1      23.269  42.351  51.283  1.00  0.00    +0.000 C 
ATOM     15  C15 UNL A   1      23.258  41.605  50.094  1.00  0.00    +0.000 C 
ATOM     16  C16 UNL A   1      22.975  42.220  48.872  1.00  0.00    +0.000 C 
ATOM    113  H14 UNL A   1      23.460  40.593  50.124  1.00  0.00    +0.000 H 
ATOM     17  C17 UNL A   1      22.688  43.583  48.836  1.00  0.00    +0.000 C 
ATOM     19  C18 UNL A   1      22.690  44.335  50.010  1.00  0.00    +0.000 C 
ATOM     20  C19 UNL A   1      22.997  43.721  51.227  1.00  0.00    +0.000 C 
ATOM    116  H17 UNL A   1      23.022  44.284  52.092  1.00  0.00    +0.000 H 
ATOM    114  H15 UNL A   1      22.979  41.668  48.001  1.00  0.00    +0.000 H 
ATOM    115  H16 UNL A   1      22.465  45.341  49.979  1.00  0.00    +0.000 H 
ATOM     18 Cl1  UNL A   1      22.362  44.349  47.331  1.00  0.00    +0.000 Cl
ENDBRANCH   13   14
ENDBRANCH   22   21
ENDBRANCH   23   22
ENDBRANCH   25   23
ENDBRANCH   26   25
ENDBRANCH   27   26
ENDBRANCH   28   27
ENDBRANCH   29   28
ENDBRANCH   30   29
ENDBRANCH   31   30
ENDBRANCH   32   31
ENDBRANCH   33   32
ENDBRANCH   35   33
ENDBRANCH   39   38
BRANCH   43   44
ATOM     44  C38 UNL A   1      20.938  33.556  44.989  1.00  0.00    +0.000 C 
ATOM     45  C39 UNL A   1      19.980  33.061  44.078  1.00  0.00    +0.000 C 
ATOM     46  F1  UNL A   1      19.331  33.892  43.249  1.00  0.00    +0.000 F 
ATOM     47  C40 UNL A   1      19.600  31.716  44.058  1.00  0.00    +0.000 C 
ATOM     48  F2  UNL A   1      18.596  31.320  43.265  1.00  0.00    +0.000 F 
ATOM     49  C41 UNL A   1      20.205  30.804  44.902  1.00  0.00    +0.000 C 
ATOM     50  F3  UNL A   1      19.800  29.527  44.929  1.00  0.00    +0.000 F 
ATOM     51  C42 UNL A   1      21.199  31.232  45.753  1.00  0.00    +0.000 C 
ATOM     52  F4  UNL A   1      21.788  30.365  46.590  1.00  0.00    +0.000 F 
ATOM     53  C43 UNL A   1      21.542  32.582  45.814  1.00  0.00    +0.000 C 
ATOM     54  F5  UNL A   1      22.407  32.900  46.783  1.00  0.00    +0.000 F 
ENDBRANCH   43   44
BRANCH   60   61
ATOM     65  F7  UNL A   1      20.000  41.676  49.936  1.00  0.00    +0.000 F 
ATOM     66  C52 UNL A   1      17.890  40.735  50.416  1.00  0.00    +0.000 C 
ATOM     67  F8  UNL A   1      17.435  41.926  50.828  1.00  0.00    +0.000 F 
ATOM     68  C53 UNL A   1      17.052  39.630  50.421  1.00  0.00    +0.000 C 
ATOM     69  F9  UNL A   1      15.779  39.760  50.819  1.00  0.00    +0.000 F 
ATOM     70  C54 UNL A   1      17.516  38.391  49.988  1.00  0.00    +0.000 C 
ATOM     71  F10 UNL A   1      16.673  37.348  49.989  1.00  0.00    +0.000 F 
ATOM     61  C49 UNL A   1      18.823  38.232  49.515  1.00  0.00    +0.000 C 
ATOM     62  C50 UNL A   1      19.643  39.374  49.489  1.00  0.00    +0.000 C 
ATOM     63  F6  UNL A   1      20.874  39.324  48.964  1.00  0.00    +0.000 F 
ATOM     64  C51 UNL A   1      19.190  40.607  49.958  1.00  0.00    +0.000 C 
ENDBRANCH   60   61
BRANCH   75   76
ATOM     76  C58 UNL A   1      23.132  35.459  53.091  1.00  0.00    +0.000 C 
ATOM     77  C59 UNL A   1      24.361  34.792  52.971  1.00  0.00    +0.000 C 
ATOM     78  F11 UNL A   1      24.885  34.565  51.758  1.00  0.00    +0.000 F 
ATOM     79  C60 UNL A   1      25.109  34.436  54.097  1.00  0.00    +0.000 C 
ATOM     80  F12 UNL A   1      26.303  33.845  53.953  1.00  0.00    +0.000 F 
ATOM     81  C61 UNL A   1      24.667  34.777  55.363  1.00  0.00    +0.000 C 
ATOM     82  F13 UNL A   1      25.417  34.519  56.443  1.00  0.00    +0.000 F 
ATOM     83  C62 UNL A   1      23.469  35.453  55.501  1.00  0.00    +0.000 C 
ATOM     84  F14 UNL A   1      23.121  35.942  56.692  1.00  0.00    +0.000 F 
ATOM     85  C63 UNL A   1      22.689  35.751  54.390  1.00  0.00    +0.000 C 
ATOM     86  F15 UNL A   1      21.562  36.453  54.588  1.00  0.00    +0.000 F 
ENDBRANCH   75   76
TORSDOF 20
ENDMDL
MODEL 7
REMARK VINA RESULT:     -10.9     35.730     42.708
ROOT
ATOM    135  H36 UNL A   1      11.000  34.256  -1.177  1.00  0.00    +0.000 H 
ATOM    136  H37 UNL A   1      10.937  32.983  -3.514  1.00  0.00    +0.000 H 
ATOM    137  H38 UNL A   1      14.364  32.074  -1.575  1.00  0.00    +0.000 H 
ATOM    138  H39 UNL A   1      10.762  24.727  -2.118  1.00  0.00    +0.000 H 
ATOM    139  H40 UNL A   1       8.891  26.159  -1.144  1.00  0.00    +0.000 H 
ATOM    140  H41 UNL A   1      12.255  28.577  -1.408  1.00  0.00    +0.000 H 
ATOM    141  H42 UNL A   1      15.310  27.641  -1.050  1.00  0.00    +0.000 H 
ATOM    142  H43 UNL A   1      14.811  30.158  -1.337  1.00  0.00    +0.000 H 
ATOM    143  H44 UNL A   1      11.699  31.322   3.181  1.00  0.00    +0.000 H 
ATOM    144  H45 UNL A   1      10.643  29.012   2.746  1.00  0.00    +0.000 H 
ATOM     39  C34 UNL A   1       9.862  28.654   0.005  1.00  0.00    +0.000 C 
ATOM     40  C35 UNL A   1      10.635  29.774   0.606  1.00  0.00    +0.000 C 
ATOM     41  N3  UNL A   1      11.039  30.859   0.034  1.00  0.00    +0.000 N 
ATOM     42  C36 UNL A   1      11.763  31.557   0.998  1.00  0.00    +0.000 C 
ATOM     43  C37 UNL A   1      12.726  32.454   0.642  1.00  0.00    +0.000 C 
ATOM     55  C44 UNL A   1      12.583  32.837  -0.741  1.00  0.00    +0.000 C 
ATOM     56  C45 UNL A   1      11.598  33.470  -1.475  1.00  0.00    +0.000 C 
ATOM     57  C46 UNL A   1      11.588  32.800  -2.734  1.00  0.00    +0.000 C 
ATOM     58  C47 UNL A   1      12.611  31.854  -2.725  1.00  0.00    +0.000 C 
ATOM     59  N4  UNL A   1      13.395  32.223  -1.662  1.00  0.00    +0.000 N 
ATOM     60  C48 UNL A   1      12.853  30.674  -3.516  1.00  0.00    +0.000 C 
ATOM     72  C55 UNL A   1      13.653  29.635  -3.142  1.00  0.00    +0.000 C 
ATOM     73  N5  UNL A   1      13.509  28.390  -3.733  1.00  0.00    +0.000 N 
ATOM     74  C56 UNL A   1      13.899  27.550  -2.817  1.00  0.00    +0.000 C 
ATOM     75  C57 UNL A   1      13.211  26.267  -2.557  1.00  0.00    +0.000 C 
ATOM     87  C64 UNL A   1      12.004  26.556  -2.011  1.00  0.00    +0.000 C 
ATOM     88  C65 UNL A   1      10.839  25.720  -1.845  1.00  0.00    +0.000 C 
ATOM     89  C66 UNL A   1       9.870  26.460  -1.269  1.00  0.00    +0.000 C 
ATOM     90  C67 UNL A   1      10.414  27.758  -0.846  1.00  0.00    +0.000 C 
ATOM     91  N6  UNL A   1      11.665  27.789  -1.416  1.00  0.00    +0.000 N 
ATOM     92  C68 UNL A   1      14.716  28.108  -1.752  1.00  0.00    +0.000 C 
ATOM     93  C69 UNL A   1      14.467  29.405  -1.952  1.00  0.00    +0.000 C 
ATOM     94  C70 UNL A   1      11.474  30.923   2.257  1.00  0.00    +0.000 C 
ATOM     95  C71 UNL A   1      10.876  29.747   2.060  1.00  0.00    +0.000 C 
ENDROOT
BRANCH   39   38
ATOM     97  C73 UNL A   1       6.463  29.370   1.237  1.00  0.00    +0.000 C 
ATOM     35  C30 UNL A   1       6.001  28.104   1.573  1.00  0.00    +0.000 C 
ATOM     36  C31 UNL A   1       6.850  26.993   1.525  1.00  0.00    +0.000 C 
ATOM    133  H34 UNL A   1       6.517  26.063   1.824  1.00  0.00    +0.000 H 
ATOM     37  C32 UNL A   1       8.154  27.167   1.065  1.00  0.00    +0.000 C 
ATOM     38  C33 UNL A   1       8.550  28.429   0.597  1.00  0.00    +0.000 C 
ATOM    134  H35 UNL A   1       8.819  26.378   1.069  1.00  0.00    +0.000 H 
ATOM    145  H46 UNL A   1       7.926  30.393   0.152  1.00  0.00    +0.000 H 
ATOM    146  H47 UNL A   1       5.899  30.205   1.460  1.00  0.00    +0.000 H 
ATOM     96  C72 UNL A   1       7.671  29.505   0.610  1.00  0.00    +0.000 C 
BRANCH   35   33
ATOM     33  C29 UNL A   1       4.576  27.971   1.939  1.00  0.00    +0.000 C 
ATOM     34  O2  UNL A   1       4.151  26.942   2.412  1.00  0.00    +0.000 O 
BRANCH   33   32
ATOM    132  H33 UNL A   1       3.855  29.826   2.338  1.00  0.00    +0.000 H 
ATOM     32  N2  UNL A   1       3.748  29.065   1.724  1.00  0.00    +0.000 N 
BRANCH   32   31
ATOM    130  H31 UNL A   1       2.273  28.257   0.514  1.00  0.00    +0.000 H 
ATOM    131  H32 UNL A   1       2.022  29.935   1.011  1.00  0.00    +0.000 H 
ATOM     31  C28 UNL A   1       2.734  29.208   0.679  1.00  0.00    +0.000 C 
BRANCH   31   30
ATOM    129  H30 UNL A   1       3.507  28.836  -1.234  1.00  0.00    +0.000 H 
ATOM     30  C27 UNL A   1       3.323  29.701  -0.632  1.00  0.00    +0.000 C 
ATOM    128  H29 UNL A   1       4.216  30.249  -0.414  1.00  0.00    +0.000 H 
BRANCH   30   29
ATOM     29  C26 UNL A   1       2.382  30.611  -1.437  1.00  0.00    +0.000 C 
ATOM    126  H27 UNL A   1       1.681  31.041  -0.751  1.00  0.00    +0.000 H 
ATOM    127  H28 UNL A   1       3.022  31.317  -1.924  1.00  0.00    +0.000 H 
BRANCH   29   28
ATOM    124  H25 UNL A   1       2.039  29.009  -2.793  1.00  0.00    +0.000 H 
ATOM     28  C25 UNL A   1       1.579  29.949  -2.567  1.00  0.00    +0.000 C 
ATOM    125  H26 UNL A   1       0.576  29.862  -2.202  1.00  0.00    +0.000 H 
BRANCH   28   27
ATOM    122  H23 UNL A   1       0.448  30.867  -4.111  1.00  0.00    +0.000 H 
ATOM     27  C24 UNL A   1       1.483  30.750  -3.866  1.00  0.00    +0.000 C 
ATOM    123  H24 UNL A   1       1.978  31.681  -3.685  1.00  0.00    +0.000 H 
BRANCH   27   26
ATOM    121  H22 UNL A   1       1.451  29.567  -5.615  1.00  0.00    +0.000 H 
ATOM     26  C23 UNL A   1       2.186  30.110  -5.060  1.00  0.00    +0.000 C 
ATOM    120  H21 UNL A   1       2.961  29.468  -4.698  1.00  0.00    +0.000 H 
BRANCH   26   25
ATOM     25  N1  UNL A   1       2.772  31.085  -5.949  1.00  0.00    +0.000 N 
ATOM    119  H20 UNL A   1       2.426  32.003  -5.861  1.00  0.00    +0.000 H 
BRANCH   25   23
ATOM     23  C22 UNL A   1       3.739  30.908  -6.897  1.00  0.00    +0.000 C 
ATOM     24  O1  UNL A   1       3.412  30.345  -7.945  1.00  0.00    +0.000 O 
BRANCH   23   22
ATOM    118  H19 UNL A   1       5.274  32.341  -6.949  1.00  0.00    +0.000 H 
ATOM    117  H18 UNL A   1       5.825  30.666  -7.184  1.00  0.00    +0.000 H 
ATOM     22  C21 UNL A   1       5.182  31.323  -6.637  1.00  0.00    +0.000 C 
BRANCH   22   21
ATOM      2  C2  UNL A   1       5.940  27.986  -3.535  1.00  0.00    +0.000 C 
ATOM     99  C74 UNL A   1       5.959  28.701  -4.919  1.00  0.00    +0.000 C 
ATOM      4  C4  UNL A   1       6.554  29.043  -2.557  1.00  0.00    +0.000 C 
ATOM      5  C5  UNL A   1       6.240  30.319  -3.244  1.00  0.00    +0.000 C 
ATOM     98  N7  UNL A   1       5.907  30.111  -4.553  1.00  0.00    +0.000 N 
ATOM      6  C6  UNL A   1       6.161  31.663  -3.003  1.00  0.00    +0.000 C 
ATOM    106  H7  UNL A   1       7.610  28.908  -2.451  1.00  0.00    +0.000 H 
ATOM    107  H8  UNL A   1       6.168  28.984  -1.561  1.00  0.00    +0.000 H 
ATOM     13  C13 UNL A   1       5.754  32.279  -4.240  1.00  0.00    +0.000 C 
ATOM    147  H48 UNL A   1       5.110  28.423  -5.508  1.00  0.00    +0.000 H 
ATOM    148  H49 UNL A   1       6.810  28.448  -5.515  1.00  0.00    +0.000 H 
ATOM     21  C20 UNL A   1       5.575  31.272  -5.190  1.00  0.00    +0.000 C 
BRANCH    2    1
ATOM      1  C1  UNL A   1       6.750  26.691  -3.569  1.00  0.00    +0.000 C 
ATOM    100  H1  UNL A   1       7.794  26.924  -3.604  1.00  0.00    +0.000 H 
ATOM    101  H2  UNL A   1       6.481  26.124  -4.434  1.00  0.00    +0.000 H 
ATOM    102  H3  UNL A   1       6.543  26.118  -2.689  1.00  0.00    +0.000 H 
ENDBRANCH    2    1
BRANCH    2    3
ATOM    105  H6  UNL A   1       3.809  28.217  -3.699  1.00  0.00    +0.000 H 
ATOM      3  C3  UNL A   1       4.498  27.654  -3.104  1.00  0.00    +0.000 C 
ATOM    103  H4  UNL A   1       4.368  27.906  -2.072  1.00  0.00    +0.000 H 
ATOM    104  H5  UNL A   1       4.318  26.608  -3.241  1.00  0.00    +0.000 H 
ENDBRANCH    2    3
BRANCH    6    7
ATOM      7  C7  UNL A   1       6.473  32.336  -1.761  1.00  0.00    +0.000 C 
ATOM      8  C8  UNL A   1       5.518  32.407  -0.744  1.00  0.00    +0.000 C 
ATOM      9  C9  UNL A   1       5.907  32.785   0.540  1.00  0.00    +0.000 C 
ATOM     10  C10 UNL A   1       7.240  33.106   0.805  1.00  0.00    +0.000 C 
ATOM     11  C11 UNL A   1       8.182  33.097  -0.222  1.00  0.00    +0.000 C 
ATOM     12  C12 UNL A   1       7.799  32.711  -1.503  1.00  0.00    +0.000 C 
ATOM    108  H9  UNL A   1       4.530  32.183  -0.943  1.00  0.00    +0.000 H 
ATOM    109  H10 UNL A   1       5.207  32.829   1.298  1.00  0.00    +0.000 H 
ATOM    111  H12 UNL A   1       9.158  33.375  -0.033  1.00  0.00    +0.000 H 
ATOM    112  H13 UNL A   1       8.493  32.701  -2.266  1.00  0.00    +0.000 H 
ATOM    110  H11 UNL A   1       7.531  33.349   1.765  1.00  0.00    +0.000 H 
ENDBRANCH    6    7
BRANCH   13   14
ATOM     14  C14 UNL A   1       5.594  33.711  -4.464  1.00  0.00    +0.000 C 
ATOM     15  C15 UNL A   1       4.340  34.215  -4.839  1.00  0.00    +0.000 C 
ATOM     16  C16 UNL A   1       4.196  35.551  -5.221  1.00  0.00    +0.000 C 
ATOM    113  H14 UNL A   1       3.516  33.594  -4.831  1.00  0.00    +0.000 H 
ATOM     17  C17 UNL A   1       5.306  36.393  -5.217  1.00  0.00    +0.000 C 
ATOM     19  C18 UNL A   1       6.558  35.907  -4.842  1.00  0.00    +0.000 C 
ATOM     20  C19 UNL A   1       6.702  34.564  -4.484  1.00  0.00    +0.000 C 
ATOM    116  H17 UNL A   1       7.634  34.199  -4.230  1.00  0.00    +0.000 H 
ATOM    114  H15 UNL A   1       3.273  35.914  -5.505  1.00  0.00    +0.000 H 
ATOM    115  H16 UNL A   1       7.374  36.537  -4.829  1.00  0.00    +0.000 H 
ATOM     18 Cl1  UNL A   1       5.139  38.033  -5.709  1.00  0.00    +0.000 Cl
ENDBRANCH   13   14
ENDBRANCH   22   21
ENDBRANCH   23   22
ENDBRANCH   25   23
ENDBRANCH   26   25
ENDBRANCH   27   26
ENDBRANCH   28   27
ENDBRANCH   29   28
ENDBRANCH   30   29
ENDBRANCH   31   30
ENDBRANCH   32   31
ENDBRANCH   33   32
ENDBRANCH   35   33
ENDBRANCH   39   38
BRANCH   43   44
ATOM     44  C38 UNL A   1      14.000  32.708   1.416  1.00  0.00    +0.000 C 
ATOM     45  C39 UNL A   1      14.097  33.868   2.214  1.00  0.00    +0.000 C 
ATOM     46  F1  UNL A   1      13.008  34.598   2.494  1.00  0.00    +0.000 F 
ATOM     47  C40 UNL A   1      15.326  34.356   2.668  1.00  0.00    +0.000 C 
ATOM     48  F2  UNL A   1      15.379  35.529   3.312  1.00  0.00    +0.000 F 
ATOM     49  C41 UNL A   1      16.496  33.672   2.396  1.00  0.00    +0.000 C 
ATOM     50  F3  UNL A   1      17.680  34.169   2.776  1.00  0.00    +0.000 F 
ATOM     51  C42 UNL A   1      16.437  32.494   1.685  1.00  0.00    +0.000 C 
ATOM     52  F4  UNL A   1      17.562  31.823   1.398  1.00  0.00    +0.000 F 
ATOM     53  C43 UNL A   1      15.220  32.034   1.184  1.00  0.00    +0.000 C 
ATOM     54  F5  UNL A   1      15.308  30.968   0.382  1.00  0.00    +0.000 F 
ENDBRANCH   43   44
BRANCH   60   61
ATOM     65  F7  UNL A   1       8.622  29.444  -5.755  1.00  0.00    +0.000 F 
ATOM     66  C52 UNL A   1      10.387  30.331  -7.046  1.00  0.00    +0.000 C 
ATOM     67  F8  UNL A   1       9.624  30.283  -8.148  1.00  0.00    +0.000 F 
ATOM     68  C53 UNL A   1      11.680  30.826  -7.116  1.00  0.00    +0.000 C 
ATOM     69  F9  UNL A   1      12.160  31.279  -8.282  1.00  0.00    +0.000 F 
ATOM     70  C54 UNL A   1      12.474  30.884  -5.974  1.00  0.00    +0.000 C 
ATOM     71  F10 UNL A   1      13.714  31.387  -6.074  1.00  0.00    +0.000 F 
ATOM     61  C49 UNL A   1      11.986  30.471  -4.730  1.00  0.00    +0.000 C 
ATOM     62  C50 UNL A   1      10.661  30.003  -4.679  1.00  0.00    +0.000 C 
ATOM     63  F6  UNL A   1      10.091  29.678  -3.513  1.00  0.00    +0.000 F 
ATOM     64  C51 UNL A   1       9.878  29.910  -5.830  1.00  0.00    +0.000 C 
ENDBRANCH   60   61
BRANCH   75   76
ATOM     76  C58 UNL A   1      13.969  25.009  -2.432  1.00  0.00    +0.000 C 
ATOM     77  C59 UNL A   1      14.580  24.405  -3.542  1.00  0.00    +0.000 C 
ATOM     78  F11 UNL A   1      14.268  24.809  -4.782  1.00  0.00    +0.000 F 
ATOM     79  C60 UNL A   1      15.585  23.445  -3.388  1.00  0.00    +0.000 C 
ATOM     80  F12 UNL A   1      16.187  22.921  -4.464  1.00  0.00    +0.000 F 
ATOM     81  C61 UNL A   1      16.031  23.101  -2.123  1.00  0.00    +0.000 C 
ATOM     82  F13 UNL A   1      17.053  22.249  -1.967  1.00  0.00    +0.000 F 
ATOM     83  C62 UNL A   1      15.456  23.701  -1.018  1.00  0.00    +0.000 C 
ATOM     84  F14 UNL A   1      15.995  23.514   0.188  1.00  0.00    +0.000 F 
ATOM     85  C63 UNL A   1      14.412  24.607  -1.163  1.00  0.00    +0.000 C 
ATOM     86  F15 UNL A   1      13.933  25.190  -0.054  1.00  0.00    +0.000 F 
ENDBRANCH   75   76
TORSDOF 20
ENDMDL
MODEL 8
REMARK VINA RESULT:     -10.8     35.598     42.698
ROOT
ATOM    135  H36 UNL A   1       3.748  16.953  40.408  1.00  0.00    +0.000 H 
ATOM    136  H37 UNL A   1       5.480  16.147  38.553  1.00  0.00    +0.000 H 
ATOM    137  H38 UNL A   1       5.853  13.831  41.844  1.00  0.00    +0.000 H 
ATOM    138  H39 UNL A   1       3.526   8.348  36.207  1.00  0.00    +0.000 H 
ATOM    139  H40 UNL A   1       1.769  10.173  35.922  1.00  0.00    +0.000 H 
ATOM    140  H41 UNL A   1       4.171  11.293  39.116  1.00  0.00    +0.000 H 
ATOM    141  H42 UNL A   1       5.595   9.319  41.217  1.00  0.00    +0.000 H 
ATOM    142  H43 UNL A   1       5.755  11.866  41.608  1.00  0.00    +0.000 H 
ATOM    143  H44 UNL A   1       0.395  13.338  42.351  1.00  0.00    +0.000 H 
ATOM    144  H45 UNL A   1      -0.079  11.627  40.483  1.00  0.00    +0.000 H 
ATOM     39  C34 UNL A   1       1.636  11.977  38.205  1.00  0.00    +0.000 C 
ATOM     40  C35 UNL A   1       1.705  12.658  39.526  1.00  0.00    +0.000 C 
ATOM     41  N3  UNL A   1       2.498  13.610  39.890  1.00  0.00    +0.000 N 
ATOM     42  C36 UNL A   1       2.210  13.862  41.230  1.00  0.00    +0.000 C 
ATOM     43  C37 UNL A   1       3.140  14.415  42.057  1.00  0.00    +0.000 C 
ATOM     55  C44 UNL A   1       4.203  15.027  41.299  1.00  0.00    +0.000 C 
ATOM     56  C45 UNL A   1       4.270  16.063  40.387  1.00  0.00    +0.000 C 
ATOM     57  C46 UNL A   1       5.218  15.636  39.411  1.00  0.00    +0.000 C 
ATOM     58  C47 UNL A   1       5.728  14.404  39.819  1.00  0.00    +0.000 C 
ATOM     59  N4  UNL A   1       5.366  14.316  41.139  1.00  0.00    +0.000 N 
ATOM     60  C48 UNL A   1       6.403  13.347  39.110  1.00  0.00    +0.000 C 
ATOM     72  C55 UNL A   1       6.481  12.052  39.530  1.00  0.00    +0.000 C 
ATOM     73  N5  UNL A   1       6.761  11.037  38.630  1.00  0.00    +0.000 N 
ATOM     74  C56 UNL A   1       6.180   9.986  39.135  1.00  0.00    +0.000 C 
ATOM     75  C57 UNL A   1       5.453   8.996  38.311  1.00  0.00    +0.000 C 
ATOM     87  C64 UNL A   1       4.331   9.598  37.848  1.00  0.00    +0.000 C 
ATOM     88  C65 UNL A   1       3.439   9.200  36.784  1.00  0.00    +0.000 C 
ATOM     89  C66 UNL A   1       2.472  10.134  36.677  1.00  0.00    +0.000 C 
ATOM     90  C67 UNL A   1       2.566  11.085  37.793  1.00  0.00    +0.000 C 
ATOM     91  N6  UNL A   1       3.761  10.768  38.392  1.00  0.00    +0.000 N 
ATOM     92  C68 UNL A   1       5.852  10.061  40.549  1.00  0.00    +0.000 C 
ATOM     93  C69 UNL A   1       5.981  11.379  40.727  1.00  0.00    +0.000 C 
ATOM     94  C70 UNL A   1       0.971  13.185  41.509  1.00  0.00    +0.000 C 
ATOM     95  C71 UNL A   1       0.674  12.332  40.528  1.00  0.00    +0.000 C 
ENDROOT
BRANCH   39   38
ATOM     97  C73 UNL A   1      -1.840  11.318  37.171  1.00  0.00    +0.000 C 
ATOM     35  C30 UNL A   1      -2.109  12.400  36.343  1.00  0.00    +0.000 C 
ATOM     36  C31 UNL A   1      -1.102  13.308  35.997  1.00  0.00    +0.000 C 
ATOM    133  H34 UNL A   1      -1.293  14.081  35.340  1.00  0.00    +0.000 H 
ATOM     37  C32 UNL A   1       0.163  13.148  36.557  1.00  0.00    +0.000 C 
ATOM     38  C33 UNL A   1       0.368  12.132  37.502  1.00  0.00    +0.000 C 
ATOM    134  H35 UNL A   1       0.940  13.769  36.280  1.00  0.00    +0.000 H 
ATOM    145  H46 UNL A   1      -0.541  10.612  38.647  1.00  0.00    +0.000 H 
ATOM    146  H47 UNL A   1      -2.525  10.552  37.263  1.00  0.00    +0.000 H 
ATOM     96  C72 UNL A   1      -0.663  11.274  37.865  1.00  0.00    +0.000 C 
BRANCH   35   33
ATOM     33  C29 UNL A   1      -3.500  12.577  35.878  1.00  0.00    +0.000 C 
ATOM     34  O2  UNL A   1      -4.175  13.497  36.278  1.00  0.00    +0.000 O 
BRANCH   33   32
ATOM    132  H33 UNL A   1      -4.910  11.319  35.137  1.00  0.00    +0.000 H 
ATOM     32  N2  UNL A   1      -4.000  11.653  34.969  1.00  0.00    +0.000 N 
BRANCH   32   31
ATOM    130  H31 UNL A   1      -3.940  11.286  32.931  1.00  0.00    +0.000 H 
ATOM    131  H32 UNL A   1      -2.384  11.638  33.692  1.00  0.00    +0.000 H 
ATOM     31  C28 UNL A   1      -3.319  11.126  33.786  1.00  0.00    +0.000 C 
BRANCH   31   30
ATOM    129  H30 UNL A   1      -3.174   9.215  32.936  1.00  0.00    +0.000 H 
ATOM     30  C27 UNL A   1      -3.025   9.641  33.906  1.00  0.00    +0.000 C 
ATOM    128  H29 UNL A   1      -3.681   9.227  34.643  1.00  0.00    +0.000 H 
BRANCH   30   29
ATOM     29  C26 UNL A   1      -1.577   9.321  34.313  1.00  0.00    +0.000 C 
ATOM    126  H27 UNL A   1      -1.010   9.186  33.415  1.00  0.00    +0.000 H 
ATOM    127  H28 UNL A   1      -1.267  10.148  34.918  1.00  0.00    +0.000 H 
BRANCH   29   28
ATOM    124  H25 UNL A   1      -0.903   7.324  34.586  1.00  0.00    +0.000 H 
ATOM     28  C25 UNL A   1      -1.364   8.077  35.189  1.00  0.00    +0.000 C 
ATOM    125  H26 UNL A   1      -0.761   8.399  36.013  1.00  0.00    +0.000 H 
BRANCH   28   27
ATOM    122  H23 UNL A   1      -3.399   7.486  35.061  1.00  0.00    +0.000 H 
ATOM     27  C24 UNL A   1      -2.630   7.479  35.805  1.00  0.00    +0.000 C 
ATOM    123  H24 UNL A   1      -2.372   6.493  36.130  1.00  0.00    +0.000 H 
BRANCH   27   26
ATOM    121  H22 UNL A   1      -3.860   8.944  36.698  1.00  0.00    +0.000 H 
ATOM     26  C23 UNL A   1      -3.150   8.219  37.034  1.00  0.00    +0.000 C 
ATOM    120  H21 UNL A   1      -2.322   8.679  37.533  1.00  0.00    +0.000 H 
BRANCH   26   25
ATOM     25  N1  UNL A   1      -3.824   7.346  37.965  1.00  0.00    +0.000 N 
ATOM    119  H20 UNL A   1      -4.638   6.908  37.625  1.00  0.00    +0.000 H 
BRANCH   25   23
ATOM     23  C22 UNL A   1      -3.487   7.046  39.255  1.00  0.00    +0.000 C 
ATOM     24  O1  UNL A   1      -3.652   7.925  40.105  1.00  0.00    +0.000 O 
BRANCH   23   22
ATOM    118  H19 UNL A   1      -3.627   4.963  39.493  1.00  0.00    +0.000 H 
ATOM    117  H18 UNL A   1      -2.499   5.757  40.617  1.00  0.00    +0.000 H 
ATOM     22  C21 UNL A   1      -2.864   5.703  39.613  1.00  0.00    +0.000 C 
BRANCH   22   21
ATOM      2  C2  UNL A   1      -2.266   2.684  36.168  1.00  0.00    +0.000 C 
ATOM     99  C74 UNL A   1      -2.992   3.748  37.045  1.00  0.00    +0.000 C 
ATOM      4  C4  UNL A   1      -0.889   3.348  35.832  1.00  0.00    +0.000 C 
ATOM      5  C5  UNL A   1      -0.708   4.278  36.974  1.00  0.00    +0.000 C 
ATOM     98  N7  UNL A   1      -1.883   4.484  37.639  1.00  0.00    +0.000 N 
ATOM      6  C6  UNL A   1       0.261   5.007  37.605  1.00  0.00    +0.000 C 
ATOM    106  H7  UNL A   1      -0.929   3.877  34.903  1.00  0.00    +0.000 H 
ATOM    107  H8  UNL A   1      -0.089   2.648  35.716  1.00  0.00    +0.000 H 
ATOM     13  C13 UNL A   1      -0.381   5.677  38.707  1.00  0.00    +0.000 C 
ATOM    147  H48 UNL A   1      -3.594   3.282  37.797  1.00  0.00    +0.000 H 
ATOM    148  H49 UNL A   1      -3.664   4.367  36.490  1.00  0.00    +0.000 H 
ATOM     21  C20 UNL A   1      -1.726   5.306  38.719  1.00  0.00    +0.000 C 
BRANCH    2    1
ATOM      1  C1  UNL A   1      -3.072   2.358  34.912  1.00  0.00    +0.000 C 
ATOM    100  H1  UNL A   1      -3.133   1.296  34.792  1.00  0.00    +0.000 H 
ATOM    101  H2  UNL A   1      -2.592   2.786  34.058  1.00  0.00    +0.000 H 
ATOM    102  H3  UNL A   1      -4.059   2.762  35.006  1.00  0.00    +0.000 H 
ENDBRANCH    2    1
BRANCH    2    3
ATOM    105  H6  UNL A   1      -1.169   1.486  37.575  1.00  0.00    +0.000 H 
ATOM      3  C3  UNL A   1      -2.037   1.381  36.958  1.00  0.00    +0.000 C 
ATOM    103  H4  UNL A   1      -1.892   0.570  36.274  1.00  0.00    +0.000 H 
ATOM    104  H5  UNL A   1      -2.889   1.181  37.572  1.00  0.00    +0.000 H 
ENDBRANCH    2    3
BRANCH    6    7
ATOM      7  C7  UNL A   1       1.649   5.119  37.212  1.00  0.00    +0.000 C 
ATOM      8  C8  UNL A   1       2.565   4.134  37.587  1.00  0.00    +0.000 C 
ATOM      9  C9  UNL A   1       3.815   4.086  36.970  1.00  0.00    +0.000 C 
ATOM     10  C10 UNL A   1       4.155   5.026  35.995  1.00  0.00    +0.000 C 
ATOM     11  C11 UNL A   1       3.267   6.048  35.666  1.00  0.00    +0.000 C 
ATOM     12  C12 UNL A   1       2.015   6.094  36.272  1.00  0.00    +0.000 C 
ATOM    108  H9  UNL A   1       2.319   3.447  38.316  1.00  0.00    +0.000 H 
ATOM    109  H10 UNL A   1       4.492   3.352  37.235  1.00  0.00    +0.000 H 
ATOM    111  H12 UNL A   1       3.536   6.767  34.976  1.00  0.00    +0.000 H 
ATOM    112  H13 UNL A   1       1.353   6.847  36.030  1.00  0.00    +0.000 H 
ATOM    110  H11 UNL A   1       5.066   4.964  35.515  1.00  0.00    +0.000 H 
ENDBRANCH    6    7
BRANCH   13   14
ATOM     14  C14 UNL A   1       0.262   6.610  39.626  1.00  0.00    +0.000 C 
ATOM     15  C15 UNL A   1       0.651   6.166  40.899  1.00  0.00    +0.000 C 
ATOM     16  C16 UNL A   1       1.114   7.073  41.856  1.00  0.00    +0.000 C 
ATOM    113  H14 UNL A   1       0.595   5.162  41.130  1.00  0.00    +0.000 H 
ATOM     17  C17 UNL A   1       1.203   8.426  41.538  1.00  0.00    +0.000 C 
ATOM     19  C18 UNL A   1       0.826   8.879  40.275  1.00  0.00    +0.000 C 
ATOM     20  C19 UNL A   1       0.340   7.974  39.329  1.00  0.00    +0.000 C 
ATOM    116  H17 UNL A   1       0.038   8.314  38.402  1.00  0.00    +0.000 H 
ATOM    114  H15 UNL A   1       1.389   6.742  42.794  1.00  0.00    +0.000 H 
ATOM    115  H16 UNL A   1       0.905   9.881  40.041  1.00  0.00    +0.000 H 
ATOM     18 Cl1  UNL A   1       1.751   9.550  42.720  1.00  0.00    +0.000 Cl
ENDBRANCH   13   14
ENDBRANCH   22   21
ENDBRANCH   23   22
ENDBRANCH   25   23
ENDBRANCH   26   25
ENDBRANCH   27   26
ENDBRANCH   28   27
ENDBRANCH   29   28
ENDBRANCH   30   29
ENDBRANCH   31   30
ENDBRANCH   32   31
ENDBRANCH   33   32
ENDBRANCH   35   33
ENDBRANCH   39   38
BRANCH   43   44
ATOM     44  C38 UNL A   1       3.289  14.094  43.528  1.00  0.00    +0.000 C 
ATOM     45  C39 UNL A   1       3.203  15.142  44.469  1.00  0.00    +0.000 C 
ATOM     46  F1  UNL A   1       2.746  16.350  44.109  1.00  0.00    +0.000 F 
ATOM     47  C40 UNL A   1       3.669  15.003  45.780  1.00  0.00    +0.000 C 
ATOM     48  F2  UNL A   1       3.684  16.064  46.598  1.00  0.00    +0.000 F 
ATOM     49  C41 UNL A   1       4.180  13.796  46.218  1.00  0.00    +0.000 C 
ATOM     50  F3  UNL A   1       4.684  13.676  47.454  1.00  0.00    +0.000 F 
ATOM     51  C42 UNL A   1       4.211  12.725  45.353  1.00  0.00    +0.000 C 
ATOM     52  F4  UNL A   1       4.716  11.549  45.754  1.00  0.00    +0.000 F 
ATOM     53  C43 UNL A   1       3.798  12.876  44.030  1.00  0.00    +0.000 C 
ATOM     54  F5  UNL A   1       4.017  11.815  43.246  1.00  0.00    +0.000 F 
ENDBRANCH   43   44
BRANCH   60   61
ATOM     65  F7  UNL A   1       5.606  14.031  34.281  1.00  0.00    +0.000 F 
ATOM     66  C52 UNL A   1       7.766  14.409  35.151  1.00  0.00    +0.000 C 
ATOM     67  F8  UNL A   1       8.202  14.793  33.943  1.00  0.00    +0.000 F 
ATOM     68  C53 UNL A   1       8.629  14.418  36.237  1.00  0.00    +0.000 C 
ATOM     69  F9  UNL A   1       9.893  14.833  36.082  1.00  0.00    +0.000 F 
ATOM     70  C54 UNL A   1       8.181  14.026  37.495  1.00  0.00    +0.000 C 
ATOM     71  F10 UNL A   1       9.036  14.066  38.528  1.00  0.00    +0.000 F 
ATOM     61  C49 UNL A   1       6.852  13.640  37.704  1.00  0.00    +0.000 C 
ATOM     62  C50 UNL A   1       5.989  13.670  36.593  1.00  0.00    +0.000 C 
ATOM     63  F6  UNL A   1       4.684  13.405  36.730  1.00  0.00    +0.000 F 
ATOM     64  C51 UNL A   1       6.448  14.027  35.325  1.00  0.00    +0.000 C 
ENDBRANCH   60   61
BRANCH   75   76
ATOM     76  C58 UNL A   1       5.688   7.550  38.478  1.00  0.00    +0.000 C 
ATOM     77  C59 UNL A   1       6.933   6.969  38.193  1.00  0.00    +0.000 C 
ATOM     78  F11 UNL A   1       7.856   7.662  37.512  1.00  0.00    +0.000 F 
ATOM     79  C60 UNL A   1       7.277   5.705  38.684  1.00  0.00    +0.000 C 
ATOM     80  F12 UNL A   1       8.491   5.195  38.438  1.00  0.00    +0.000 F 
ATOM     81  C61 UNL A   1       6.402   5.017  39.506  1.00  0.00    +0.000 C 
ATOM     82  F13 UNL A   1       6.756   3.846  40.053  1.00  0.00    +0.000 F 
ATOM     83  C62 UNL A   1       5.179   5.582  39.816  1.00  0.00    +0.000 C 
ATOM     84  F14 UNL A   1       4.407   5.015  40.744  1.00  0.00    +0.000 F 
ATOM     85  C63 UNL A   1       4.805   6.807  39.278  1.00  0.00    +0.000 C 
ATOM     86  F15 UNL A   1       3.626   7.324  39.658  1.00  0.00    +0.000 F 
ENDBRANCH   75   76
TORSDOF 20
ENDMDL
MODEL 9
REMARK VINA RESULT:     -10.8     31.534     40.408
ROOT
ATOM    135  H36 UNL A   1       6.344  29.804  -5.051  1.00  0.00    +0.000 H 
ATOM    136  H37 UNL A   1       8.685  28.563  -5.312  1.00  0.00    +0.000 H 
ATOM    137  H38 UNL A   1       9.299  32.542  -4.964  1.00  0.00    +0.000 H 
ATOM    138  H39 UNL A   1      13.157  29.677   1.680  1.00  0.00    +0.000 H 
ATOM    139  H40 UNL A   1      10.878  28.550   1.868  1.00  0.00    +0.000 H 
ATOM    140  H41 UNL A   1      10.711  31.078  -1.419  1.00  0.00    +0.000 H 
ATOM    141  H42 UNL A   1      12.234  33.891  -1.742  1.00  0.00    +0.000 H 
ATOM    142  H43 UNL A   1      10.574  33.164  -3.581  1.00  0.00    +0.000 H 
ATOM    143  H44 UNL A   1       5.699  32.930  -0.820  1.00  0.00    +0.000 H 
ATOM    144  H45 UNL A   1       7.113  31.950   1.099  1.00  0.00    +0.000 H 
ATOM     39  C34 UNL A   1       8.846  29.833   0.223  1.00  0.00    +0.000 C 
ATOM     40  C35 UNL A   1       8.002  30.738  -0.603  1.00  0.00    +0.000 C 
ATOM     41  N3  UNL A   1       7.811  30.700  -1.880  1.00  0.00    +0.000 N 
ATOM     42  C36 UNL A   1       6.991  31.787  -2.180  1.00  0.00    +0.000 C 
ATOM     43  C37 UNL A   1       6.991  32.346  -3.422  1.00  0.00    +0.000 C 
ATOM     55  C44 UNL A   1       7.586  31.455  -4.386  1.00  0.00    +0.000 C 
ATOM     56  C45 UNL A   1       7.280  30.192  -4.858  1.00  0.00    +0.000 C 
ATOM     57  C46 UNL A   1       8.539  29.543  -5.020  1.00  0.00    +0.000 C 
ATOM     58  C47 UNL A   1       9.540  30.463  -4.713  1.00  0.00    +0.000 C 
ATOM     59  N4  UNL A   1       8.896  31.674  -4.737  1.00  0.00    +0.000 N 
ATOM     60  C48 UNL A   1      10.925  30.309  -4.345  1.00  0.00    +0.000 C 
ATOM     72  C55 UNL A   1      11.665  31.246  -3.687  1.00  0.00    +0.000 C 
ATOM     73  N5  UNL A   1      12.818  30.882  -3.010  1.00  0.00    +0.000 N 
ATOM     74  C56 UNL A   1      12.921  31.757  -2.051  1.00  0.00    +0.000 C 
ATOM     75  C57 UNL A   1      13.341  31.399  -0.678  1.00  0.00    +0.000 C 
ATOM     87  C64 UNL A   1      12.344  30.665  -0.126  1.00  0.00    +0.000 C 
ATOM     88  C65 UNL A   1      12.352  29.829   1.051  1.00  0.00    +0.000 C 
ATOM     89  C66 UNL A   1      11.127  29.284   1.187  1.00  0.00    +0.000 C 
ATOM     90  C67 UNL A   1      10.197  29.890   0.223  1.00  0.00    +0.000 C 
ATOM     91  N6  UNL A   1      11.015  30.628  -0.599  1.00  0.00    +0.000 N 
ATOM     92  C68 UNL A   1      12.162  32.984  -2.228  1.00  0.00    +0.000 C 
ATOM     93  C69 UNL A   1      11.344  32.588  -3.207  1.00  0.00    +0.000 C 
ATOM     94  C70 UNL A   1       6.481  32.265  -0.922  1.00  0.00    +0.000 C 
ATOM     95  C71 UNL A   1       7.162  31.729   0.092  1.00  0.00    +0.000 C 
ENDROOT
BRANCH   39   38
ATOM     97  C73 UNL A   1       7.379  28.932   3.483  1.00  0.00    +0.000 C 
ATOM     35  C30 UNL A   1       6.661  27.784   3.173  1.00  0.00    +0.000 C 
ATOM     36  C31 UNL A   1       6.752  27.200   1.905  1.00  0.00    +0.000 C 
ATOM    133  H34 UNL A   1       6.258  26.319   1.695  1.00  0.00    +0.000 H 
ATOM     37  C32 UNL A   1       7.521  27.833   0.931  1.00  0.00    +0.000 C 
ATOM     38  C33 UNL A   1       8.118  29.067   1.228  1.00  0.00    +0.000 C 
ATOM    134  H35 UNL A   1       7.650  27.399   0.003  1.00  0.00    +0.000 H 
ATOM    145  H46 UNL A   1       8.307  30.609   2.653  1.00  0.00    +0.000 H 
ATOM    146  H47 UNL A   1       7.464  29.243   4.463  1.00  0.00    +0.000 H 
ATOM     96  C72 UNL A   1       7.972  29.649   2.481  1.00  0.00    +0.000 C 
BRANCH   35   33
ATOM     33  C29 UNL A   1       5.773  27.230   4.216  1.00  0.00    +0.000 C 
ATOM     34  O2  UNL A   1       4.660  27.672   4.380  1.00  0.00    +0.000 O 
BRANCH   33   32
ATOM    132  H33 UNL A   1       5.675  25.867   5.716  1.00  0.00    +0.000 H 
ATOM     32  N2  UNL A   1       6.261  26.188   4.994  1.00  0.00    +0.000 N 
BRANCH   32   31
ATOM    130  H31 UNL A   1       7.431  24.482   5.098  1.00  0.00    +0.000 H 
ATOM    131  H32 UNL A   1       7.879  25.641   3.842  1.00  0.00    +0.000 H 
ATOM     31  C28 UNL A   1       7.552  25.515   4.853  1.00  0.00    +0.000 C 
BRANCH   31   30
ATOM    129  H30 UNL A   1       8.975  25.317   6.380  1.00  0.00    +0.000 H 
ATOM     30  C27 UNL A   1       8.614  26.112   5.761  1.00  0.00    +0.000 C 
ATOM    128  H29 UNL A   1       8.167  26.903   6.326  1.00  0.00    +0.000 H 
BRANCH   30   29
ATOM     29  C26 UNL A   1       9.830  26.680   5.012  1.00  0.00    +0.000 C 
ATOM    126  H27 UNL A   1       9.718  27.744   4.973  1.00  0.00    +0.000 H 
ATOM    127  H28 UNL A   1      10.683  26.340   5.561  1.00  0.00    +0.000 H 
BRANCH   29   28
ATOM    124  H25 UNL A   1       9.099  25.912   3.169  1.00  0.00    +0.000 H 
ATOM     28  C25 UNL A   1      10.051  26.183   3.575  1.00  0.00    +0.000 C 
ATOM    125  H26 UNL A   1      10.528  26.989   3.057  1.00  0.00    +0.000 H 
BRANCH   28   27
ATOM    122  H23 UNL A   1      11.945  25.254   3.812  1.00  0.00    +0.000 H 
ATOM     27  C24 UNL A   1      10.984  24.980   3.429  1.00  0.00    +0.000 C 
ATOM    123  H24 UNL A   1      10.531  24.177   3.972  1.00  0.00    +0.000 H 
BRANCH   27   26
ATOM    121  H22 UNL A   1      11.886  25.120   1.525  1.00  0.00    +0.000 H 
ATOM     26  C23 UNL A   1      11.165  24.487   1.996  1.00  0.00    +0.000 C 
ATOM    120  H21 UNL A   1      10.219  24.526   1.498  1.00  0.00    +0.000 H 
BRANCH   26   25
ATOM     25  N1  UNL A   1      11.664  23.134   1.932  1.00  0.00    +0.000 N 
ATOM    119  H20 UNL A   1      11.405  22.622   1.131  1.00  0.00    +0.000 H 
BRANCH   25   23
ATOM     23  C22 UNL A   1      12.446  22.466   2.832  1.00  0.00    +0.000 C 
ATOM     24  O1  UNL A   1      11.997  21.422   3.310  1.00  0.00    +0.000 O 
BRANCH   23   22
ATOM    118  H19 UNL A   1      13.614  24.042   3.586  1.00  0.00    +0.000 H 
ATOM    117  H18 UNL A   1      14.473  22.963   2.462  1.00  0.00    +0.000 H 
ATOM     22  C21 UNL A   1      13.788  23.032   3.280  1.00  0.00    +0.000 C 
BRANCH   22   21
ATOM      2  C2  UNL A   1      16.860  19.634   3.868  1.00  0.00    +0.000 C 
ATOM     99  C74 UNL A   1      16.221  20.908   3.241  1.00  0.00    +0.000 C 
ATOM      4  C4  UNL A   1      16.912  19.953   5.399  1.00  0.00    +0.000 C 
ATOM      5  C5  UNL A   1      15.805  20.929   5.550  1.00  0.00    +0.000 C 
ATOM     98  N7  UNL A   1      15.430  21.446   4.341  1.00  0.00    +0.000 N 
ATOM      6  C6  UNL A   1      15.010  21.492   6.508  1.00  0.00    +0.000 C 
ATOM    106  H7  UNL A   1      17.851  20.385   5.675  1.00  0.00    +0.000 H 
ATOM    107  H8  UNL A   1      16.813  19.090   6.023  1.00  0.00    +0.000 H 
ATOM     13  C13 UNL A   1      14.113  22.388   5.823  1.00  0.00    +0.000 C 
ATOM    147  H48 UNL A   1      15.600  20.657   2.406  1.00  0.00    +0.000 H 
ATOM    148  H49 UNL A   1      16.942  21.600   2.858  1.00  0.00    +0.000 H 
ATOM     21  C20 UNL A   1      14.384  22.316   4.456  1.00  0.00    +0.000 C 
BRANCH    2    1
ATOM      1  C1  UNL A   1      18.248  19.367   3.286  1.00  0.00    +0.000 C 
ATOM    100  H1  UNL A   1      18.672  18.505   3.758  1.00  0.00    +0.000 H 
ATOM    101  H2  UNL A   1      18.876  20.214   3.458  1.00  0.00    +0.000 H 
ATOM    102  H3  UNL A   1      18.166  19.191   2.233  1.00  0.00    +0.000 H 
ENDBRANCH    2    1
BRANCH    2    3
ATOM    105  H6  UNL A   1      15.759  17.923   4.559  1.00  0.00    +0.000 H 
ATOM      3  C3  UNL A   1      15.977  18.395   3.624  1.00  0.00    +0.000 C 
ATOM    103  H4  UNL A   1      16.496  17.707   2.989  1.00  0.00    +0.000 H 
ATOM    104  H5  UNL A   1      15.064  18.696   3.154  1.00  0.00    +0.000 H 
ENDBRANCH    2    3
BRANCH    6    7
ATOM      7  C7  UNL A   1      15.088  21.267   7.935  1.00  0.00    +0.000 C 
ATOM      8  C8  UNL A   1      14.220  20.361   8.550  1.00  0.00    +0.000 C 
ATOM      9  C9  UNL A   1      14.485  19.928   9.848  1.00  0.00    +0.000 C 
ATOM     10  C10 UNL A   1      15.602  20.407  10.536  1.00  0.00    +0.000 C 
ATOM     11  C11 UNL A   1      16.433  21.359   9.948  1.00  0.00    +0.000 C 
ATOM     12  C12 UNL A   1      16.177  21.787   8.649  1.00  0.00    +0.000 C 
ATOM    108  H9  UNL A   1      13.388  20.017   8.046  1.00  0.00    +0.000 H 
ATOM    109  H10 UNL A   1      13.853  19.249  10.303  1.00  0.00    +0.000 H 
ATOM    111  H12 UNL A   1      17.234  21.744  10.474  1.00  0.00    +0.000 H 
ATOM    112  H13 UNL A   1      16.790  22.490   8.209  1.00  0.00    +0.000 H 
ATOM    110  H11 UNL A   1      15.814  20.056  11.483  1.00  0.00    +0.000 H 
ENDBRANCH    6    7
BRANCH   13   14
ATOM     14  C14 UNL A   1      13.120  23.247   6.459  1.00  0.00    +0.000 C 
ATOM     15  C15 UNL A   1      13.542  24.391   7.155  1.00  0.00    +0.000 C 
ATOM     16  C16 UNL A   1      12.635  25.136   7.912  1.00  0.00    +0.000 C 
ATOM    113  H14 UNL A   1      14.531  24.683   7.106  1.00  0.00    +0.000 H 
ATOM     17  C17 UNL A   1      11.298  24.749   7.965  1.00  0.00    +0.000 C 
ATOM     19  C18 UNL A   1      10.864  23.619   7.274  1.00  0.00    +0.000 C 
ATOM     20  C19 UNL A   1      11.779  22.861   6.538  1.00  0.00    +0.000 C 
ATOM    116  H17 UNL A   1      11.461  22.010   6.047  1.00  0.00    +0.000 H 
ATOM    114  H15 UNL A   1      12.953  25.970   8.429  1.00  0.00    +0.000 H 
ATOM    115  H16 UNL A   1       9.870  23.343   7.307  1.00  0.00    +0.000 H 
ATOM     18 Cl1  UNL A   1      10.182  25.651   8.914  1.00  0.00    +0.000 Cl
ENDBRANCH   13   14
ENDBRANCH   22   21
ENDBRANCH   23   22
ENDBRANCH   25   23
ENDBRANCH   26   25
ENDBRANCH   27   26
ENDBRANCH   28   27
ENDBRANCH   29   28
ENDBRANCH   30   29
ENDBRANCH   31   30
ENDBRANCH   32   31
ENDBRANCH   33   32
ENDBRANCH   35   33
ENDBRANCH   39   38
BRANCH   43   44
ATOM     44  C38 UNL A   1       6.794  33.819  -3.708  1.00  0.00    +0.000 C 
ATOM     45  C39 UNL A   1       5.674  34.225  -4.464  1.00  0.00    +0.000 C 
ATOM     46  F1  UNL A   1       4.667  33.374  -4.707  1.00  0.00    +0.000 F 
ATOM     47  C40 UNL A   1       5.602  35.486  -5.064  1.00  0.00    +0.000 C 
ATOM     48  F2  UNL A   1       4.578  35.778  -5.878  1.00  0.00    +0.000 F 
ATOM     49  C41 UNL A   1       6.614  36.408  -4.882  1.00  0.00    +0.000 C 
ATOM     50  F3  UNL A   1       6.578  37.594  -5.506  1.00  0.00    +0.000 F 
ATOM     51  C42 UNL A   1       7.690  36.078  -4.089  1.00  0.00    +0.000 C 
ATOM     52  F4  UNL A   1       8.690  36.954  -3.911  1.00  0.00    +0.000 F 
ATOM     53  C43 UNL A   1       7.791  34.803  -3.533  1.00  0.00    +0.000 C 
ATOM     54  F5  UNL A   1       8.948  34.549  -2.913  1.00  0.00    +0.000 F 
ENDBRANCH   43   44
BRANCH   60   61
ATOM     65  F7  UNL A   1      11.726  25.666  -2.858  1.00  0.00    +0.000 F 
ATOM     66  C52 UNL A   1      12.522  26.345  -4.973  1.00  0.00    +0.000 C 
ATOM     67  F8  UNL A   1      12.981  25.109  -5.214  1.00  0.00    +0.000 F 
ATOM     68  C53 UNL A   1      12.664  27.339  -5.929  1.00  0.00    +0.000 C 
ATOM     69  F9  UNL A   1      13.241  27.058  -7.105  1.00  0.00    +0.000 F 
ATOM     70  C54 UNL A   1      12.184  28.623  -5.687  1.00  0.00    +0.000 C 
ATOM     71  F10 UNL A   1      12.321  29.556  -6.641  1.00  0.00    +0.000 F 
ATOM     61  C49 UNL A   1      11.527  28.938  -4.492  1.00  0.00    +0.000 C 
ATOM     62  C50 UNL A   1      11.366  27.904  -3.552  1.00  0.00    +0.000 C 
ATOM     63  F6  UNL A   1      10.668  28.101  -2.427  1.00  0.00    +0.000 F 
ATOM     64  C51 UNL A   1      11.880  26.628  -3.780  1.00  0.00    +0.000 C 
ENDBRANCH   60   61
BRANCH   75   76
ATOM     76  C58 UNL A   1      14.372  32.179   0.029  1.00  0.00    +0.000 C 
ATOM     77  C59 UNL A   1      14.034  33.214   0.914  1.00  0.00    +0.000 C 
ATOM     78  F11 UNL A   1      12.782  33.694   0.938  1.00  0.00    +0.000 F 
ATOM     79  C60 UNL A   1      14.953  33.703   1.849  1.00  0.00    +0.000 C 
ATOM     80  F12 UNL A   1      14.588  34.656   2.717  1.00  0.00    +0.000 F 
ATOM     81  C61 UNL A   1      16.212  33.138   1.947  1.00  0.00    +0.000 C 
ATOM     82  F13 UNL A   1      17.069  33.538   2.897  1.00  0.00    +0.000 F 
ATOM     83  C62 UNL A   1      16.557  32.103   1.098  1.00  0.00    +0.000 C 
ATOM     84  F14 UNL A   1      17.693  31.435   1.300  1.00  0.00    +0.000 F 
ATOM     85  C63 UNL A   1      15.672  31.658   0.124  1.00  0.00    +0.000 C 
ATOM     86  F15 UNL A   1      16.049  30.617  -0.635  1.00  0.00    +0.000 F 
ENDBRANCH   75   76
TORSDOF 20
ENDMDL
MODEL 10
REMARK VINA RESULT:     -10.8     35.949     42.052
ROOT
ATOM    135  H36 UNL A   1       6.372  29.774  -5.104  1.00  0.00    +0.000 H 
ATOM    136  H37 UNL A   1       8.716  28.537  -5.358  1.00  0.00    +0.000 H 
ATOM    137  H38 UNL A   1       9.321  32.516  -4.994  1.00  0.00    +0.000 H 
ATOM    138  H39 UNL A   1      13.151  29.638   1.660  1.00  0.00    +0.000 H 
ATOM    139  H40 UNL A   1      10.874  28.505   1.834  1.00  0.00    +0.000 H 
ATOM    140  H41 UNL A   1      10.718  31.044  -1.447  1.00  0.00    +0.000 H 
ATOM    141  H42 UNL A   1      12.238  33.861  -1.754  1.00  0.00    +0.000 H 
ATOM    142  H43 UNL A   1      10.589  33.136  -3.603  1.00  0.00    +0.000 H 
ATOM    143  H44 UNL A   1       5.700  32.885  -0.867  1.00  0.00    +0.000 H 
ATOM    144  H45 UNL A   1       7.106  31.902   1.056  1.00  0.00    +0.000 H 
ATOM     39  C34 UNL A   1       8.847  29.790   0.182  1.00  0.00    +0.000 C 
ATOM     40  C35 UNL A   1       8.007  30.697  -0.646  1.00  0.00    +0.000 C 
ATOM     41  N3  UNL A   1       7.821  30.662  -1.924  1.00  0.00    +0.000 N 
ATOM     42  C36 UNL A   1       7.001  31.748  -2.224  1.00  0.00    +0.000 C 
ATOM     43  C37 UNL A   1       7.006  32.311  -3.464  1.00  0.00    +0.000 C 
ATOM     55  C44 UNL A   1       7.608  31.424  -4.428  1.00  0.00    +0.000 C 
ATOM     56  C45 UNL A   1       7.306  30.162  -4.905  1.00  0.00    +0.000 C 
ATOM     57  C46 UNL A   1       8.567  29.515  -5.063  1.00  0.00    +0.000 C 
ATOM     58  C47 UNL A   1       9.565  30.437  -4.748  1.00  0.00    +0.000 C 
ATOM     59  N4  UNL A   1       8.918  31.646  -4.772  1.00  0.00    +0.000 N 
ATOM     60  C48 UNL A   1      10.948  30.284  -4.374  1.00  0.00    +0.000 C 
ATOM     72  C55 UNL A   1      11.683  31.220  -3.709  1.00  0.00    +0.000 C 
ATOM     73  N5  UNL A   1      12.833  30.856  -3.028  1.00  0.00    +0.000 N 
ATOM     74  C56 UNL A   1      12.930  31.728  -2.066  1.00  0.00    +0.000 C 
ATOM     75  C57 UNL A   1      13.344  31.366  -0.692  1.00  0.00    +0.000 C 
ATOM     87  C64 UNL A   1      12.345  30.630  -0.147  1.00  0.00    +0.000 C 
ATOM     88  C65 UNL A   1      12.349  29.790   1.028  1.00  0.00    +0.000 C 
ATOM     89  C66 UNL A   1      11.124  29.242   1.156  1.00  0.00    +0.000 C 
ATOM     90  C67 UNL A   1      10.199  29.849   0.189  1.00  0.00    +0.000 C 
ATOM     91  N6  UNL A   1      11.019  30.591  -0.626  1.00  0.00    +0.000 N 
ATOM     92  C68 UNL A   1      12.170  32.955  -2.242  1.00  0.00    +0.000 C 
ATOM     93  C69 UNL A   1      11.358  32.560  -3.227  1.00  0.00    +0.000 C 
ATOM     94  C70 UNL A   1       6.484  32.222  -0.967  1.00  0.00    +0.000 C 
ATOM     95  C71 UNL A   1       7.161  31.684   0.048  1.00  0.00    +0.000 C 
ENDROOT
BRANCH   39   38
ATOM     97  C73 UNL A   1       7.535  28.769   3.472  1.00  0.00    +0.000 C 
ATOM     35  C30 UNL A   1       6.675  27.731   3.134  1.00  0.00    +0.000 C 
ATOM     36  C31 UNL A   1       6.607  27.253   1.821  1.00  0.00    +0.000 C 
ATOM    133  H34 UNL A   1       6.005  26.449   1.585  1.00  0.00    +0.000 H 
ATOM     37  C32 UNL A   1       7.367  27.884   0.839  1.00  0.00    +0.000 C 
ATOM     38  C33 UNL A   1       8.116  29.020   1.181  1.00  0.00    +0.000 C 
ATOM    134  H35 UNL A   1       7.379  27.521  -0.127  1.00  0.00    +0.000 H 
ATOM    145  H46 UNL A   1       8.578  30.406   2.701  1.00  0.00    +0.000 H 
ATOM    146  H47 UNL A   1       7.725  28.983   4.463  1.00  0.00    +0.000 H 
ATOM     96  C72 UNL A   1       8.128  29.504   2.484  1.00  0.00    +0.000 C 
BRANCH   35   33
ATOM     33  C29 UNL A   1       5.811  27.185   4.200  1.00  0.00    +0.000 C 
ATOM     34  O2  UNL A   1       4.645  27.500   4.276  1.00  0.00    +0.000 O 
BRANCH   33   32
ATOM    132  H33 UNL A   1       5.978  26.266   6.002  1.00  0.00    +0.000 H 
ATOM     32  N2  UNL A   1       6.382  26.300   5.106  1.00  0.00    +0.000 N 
BRANCH   32   31
ATOM    130  H31 UNL A   1       7.252  24.421   5.171  1.00  0.00    +0.000 H 
ATOM    131  H32 UNL A   1       7.754  25.451   3.825  1.00  0.00    +0.000 H 
ATOM     31  C28 UNL A   1       7.520  25.411   4.868  1.00  0.00    +0.000 C 
BRANCH   31   30
ATOM    129  H30 UNL A   1       8.857  25.168   6.464  1.00  0.00    +0.000 H 
ATOM     30  C27 UNL A   1       8.756  25.841   5.639  1.00  0.00    +0.000 C 
ATOM    128  H29 UNL A   1       8.623  26.856   5.948  1.00  0.00    +0.000 H 
BRANCH   30   29
ATOM     29  C26 UNL A   1      10.060  25.749   4.829  1.00  0.00    +0.000 C 
ATOM    126  H27 UNL A   1      10.841  26.177   5.423  1.00  0.00    +0.000 H 
ATOM    127  H28 UNL A   1      10.183  24.709   4.610  1.00  0.00    +0.000 H 
BRANCH   29   28
ATOM    124  H25 UNL A   1       9.088  26.809   3.263  1.00  0.00    +0.000 H 
ATOM     28  C25 UNL A   1      10.077  26.453   3.464  1.00  0.00    +0.000 C 
ATOM    125  H26 UNL A   1      10.808  27.231   3.544  1.00  0.00    +0.000 H 
BRANCH   28   27
ATOM    122  H23 UNL A   1      10.509  26.197   1.401  1.00  0.00    +0.000 H 
ATOM     27  C24 UNL A   1      10.515  25.588   2.281  1.00  0.00    +0.000 C 
ATOM    123  H24 UNL A   1      11.487  25.212   2.523  1.00  0.00    +0.000 H 
BRANCH   27   26
ATOM    121  H22 UNL A   1       9.028  24.218   2.894  1.00  0.00    +0.000 H 
ATOM     26  C23 UNL A   1       9.630  24.371   2.023  1.00  0.00    +0.000 C 
ATOM    120  H21 UNL A   1      10.258  23.527   1.824  1.00  0.00    +0.000 H 
BRANCH   26   25
ATOM     25  N1  UNL A   1       8.739  24.558   0.903  1.00  0.00    +0.000 N 
ATOM    119  H20 UNL A   1       7.817  24.819   1.133  1.00  0.00    +0.000 H 
BRANCH   25   23
ATOM     23  C22 UNL A   1       8.999  24.421  -0.430  1.00  0.00    +0.000 C 
ATOM     24  O1  UNL A   1       9.207  25.450  -1.078  1.00  0.00    +0.000 O 
BRANCH   23   22
ATOM    118  H19 UNL A   1       8.078  23.029  -1.707  1.00  0.00    +0.000 H 
ATOM    117  H18 UNL A   1       8.957  22.303  -0.342  1.00  0.00    +0.000 H 
ATOM     22  C21 UNL A   1       8.960  23.055  -1.104  1.00  0.00    +0.000 C 
BRANCH   22   21
ATOM      2  C2  UNL A   1       9.502  22.297  -5.627  1.00  0.00    +0.000 C 
ATOM     99  C74 UNL A   1       8.913  22.927  -4.331  1.00  0.00    +0.000 C 
ATOM      4  C4  UNL A   1      11.048  22.480  -5.467  1.00  0.00    +0.000 C 
ATOM      5  C5  UNL A   1      11.202  22.537  -3.993  1.00  0.00    +0.000 C 
ATOM     98  N7  UNL A   1      10.006  22.781  -3.377  1.00  0.00    +0.000 N 
ATOM      6  C6  UNL A   1      12.154  22.417  -3.020  1.00  0.00    +0.000 C 
ATOM    106  H7  UNL A   1      11.382  23.385  -5.928  1.00  0.00    +0.000 H 
ATOM    107  H8  UNL A   1      11.624  21.707  -5.930  1.00  0.00    +0.000 H 
ATOM     13  C13 UNL A   1      11.479  22.596  -1.760  1.00  0.00    +0.000 C 
ATOM    147  H48 UNL A   1       8.043  22.397  -4.005  1.00  0.00    +0.000 H 
ATOM    148  H49 UNL A   1       8.594  23.940  -4.459  1.00  0.00    +0.000 H 
ATOM     21  C20 UNL A   1      10.122  22.796  -2.017  1.00  0.00    +0.000 C 
BRANCH    2    1
ATOM      1  C1  UNL A   1       8.964  22.993  -6.876  1.00  0.00    +0.000 C 
ATOM    100  H1  UNL A   1       8.186  22.399  -7.309  1.00  0.00    +0.000 H 
ATOM    101  H2  UNL A   1       9.755  23.116  -7.585  1.00  0.00    +0.000 H 
ATOM    102  H3  UNL A   1       8.572  23.953  -6.609  1.00  0.00    +0.000 H 
ENDBRANCH    2    1
BRANCH    2    3
ATOM    105  H6  UNL A   1      10.035  20.219  -5.494  1.00  0.00    +0.000 H 
ATOM      3  C3  UNL A   1       9.162  20.796  -5.715  1.00  0.00    +0.000 C 
ATOM    103  H4  UNL A   1       8.822  20.565  -6.704  1.00  0.00    +0.000 H 
ATOM    104  H5  UNL A   1       8.392  20.563  -5.010  1.00  0.00    +0.000 H 
ENDBRANCH    2    3
BRANCH    6    7
ATOM      7  C7  UNL A   1      13.570  22.200  -3.222  1.00  0.00    +0.000 C 
ATOM      8  C8  UNL A   1      14.035  20.950  -3.637  1.00  0.00    +0.000 C 
ATOM      9  C9  UNL A   1      15.340  20.824  -4.111  1.00  0.00    +0.000 C 
ATOM     10  C10 UNL A   1      16.183  21.937  -4.156  1.00  0.00    +0.000 C 
ATOM     11  C11 UNL A   1      15.742  23.171  -3.682  1.00  0.00    +0.000 C 
ATOM     12  C12 UNL A   1      14.436  23.302  -3.217  1.00  0.00    +0.000 C 
ATOM    108  H9  UNL A   1      13.417  20.125  -3.593  1.00  0.00    +0.000 H 
ATOM    109  H10 UNL A   1      15.685  19.904  -4.431  1.00  0.00    +0.000 H 
ATOM    111  H12 UNL A   1      16.380  23.982  -3.676  1.00  0.00    +0.000 H 
ATOM    112  H13 UNL A   1      14.105  24.214  -2.867  1.00  0.00    +0.000 H 
ATOM    110  H11 UNL A   1      17.136  21.847  -4.542  1.00  0.00    +0.000 H 
ENDBRANCH    6    7
BRANCH   13   14
ATOM     14  C14 UNL A   1      12.116  22.603  -0.448  1.00  0.00    +0.000 C 
ATOM     15  C15 UNL A   1      11.886  21.538   0.437  1.00  0.00    +0.000 C 
ATOM     16  C16 UNL A   1      12.345  21.598   1.755  1.00  0.00    +0.000 C 
ATOM    113  H14 UNL A   1      11.373  20.704   0.110  1.00  0.00    +0.000 H 
ATOM     17  C17 UNL A   1      13.049  22.719   2.190  1.00  0.00    +0.000 C 
ATOM     19  C18 UNL A   1      13.290  23.781   1.321  1.00  0.00    +0.000 C 
ATOM     20  C19 UNL A   1      12.808  23.728   0.010  1.00  0.00    +0.000 C 
ATOM    116  H17 UNL A   1      12.966  24.526  -0.626  1.00  0.00    +0.000 H 
ATOM    114  H15 UNL A   1      12.163  20.816   2.404  1.00  0.00    +0.000 H 
ATOM    115  H16 UNL A   1      13.822  24.603   1.645  1.00  0.00    +0.000 H 
ATOM     18 Cl1  UNL A   1      13.596  22.807   3.819  1.00  0.00    +0.000 Cl
ENDBRANCH   13   14
ENDBRANCH   22   21
ENDBRANCH   23   22
ENDBRANCH   25   23
ENDBRANCH   26   25
ENDBRANCH   27   26
ENDBRANCH   28   27
ENDBRANCH   29   28
ENDBRANCH   30   29
ENDBRANCH   31   30
ENDBRANCH   32   31
ENDBRANCH   33   32
ENDBRANCH   35   33
ENDBRANCH   39   38
BRANCH   43   44
ATOM     44  C38 UNL A   1       6.808  33.784  -3.747  1.00  0.00    +0.000 C 
ATOM     45  C39 UNL A   1       5.696  34.191  -4.514  1.00  0.00    +0.000 C 
ATOM     46  F1  UNL A   1       4.694  33.337  -4.773  1.00  0.00    +0.000 F 
ATOM     47  C40 UNL A   1       5.627  35.453  -5.111  1.00  0.00    +0.000 C 
ATOM     48  F2  UNL A   1       4.612  35.746  -5.935  1.00  0.00    +0.000 F 
ATOM     49  C41 UNL A   1       6.634  36.378  -4.913  1.00  0.00    +0.000 C 
ATOM     50  F3  UNL A   1       6.601  37.566  -5.532  1.00  0.00    +0.000 F 
ATOM     51  C42 UNL A   1       7.702  36.048  -4.108  1.00  0.00    +0.000 C 
ATOM     52  F4  UNL A   1       8.697  36.926  -3.915  1.00  0.00    +0.000 F 
ATOM     53  C43 UNL A   1       7.800  34.771  -3.556  1.00  0.00    +0.000 C 
ATOM     54  F5  UNL A   1       8.950  34.518  -2.923  1.00  0.00    +0.000 F 
ENDBRANCH   43   44
BRANCH   60   61
ATOM     65  F7  UNL A   1      11.765  25.643  -2.888  1.00  0.00    +0.000 F 
ATOM     66  C52 UNL A   1      12.553  26.324  -5.005  1.00  0.00    +0.000 C 
ATOM     67  F8  UNL A   1      13.015  25.089  -5.247  1.00  0.00    +0.000 F 
ATOM     68  C53 UNL A   1      12.691  27.318  -5.962  1.00  0.00    +0.000 C 
ATOM     69  F9  UNL A   1      13.266  27.038  -7.139  1.00  0.00    +0.000 F 
ATOM     70  C54 UNL A   1      12.208  28.601  -5.718  1.00  0.00    +0.000 C 
ATOM     71  F10 UNL A   1      12.341  29.534  -6.674  1.00  0.00    +0.000 F 
ATOM     61  C49 UNL A   1      11.553  28.915  -4.523  1.00  0.00    +0.000 C 
ATOM     62  C50 UNL A   1      11.397  27.881  -3.582  1.00  0.00    +0.000 C 
ATOM     63  F6  UNL A   1      10.702  28.076  -2.455  1.00  0.00    +0.000 F 
ATOM     64  C51 UNL A   1      11.914  26.605  -3.810  1.00  0.00    +0.000 C 
ENDBRANCH   60   61
BRANCH   75   76
ATOM     76  C58 UNL A   1      14.371  32.147   0.022  1.00  0.00    +0.000 C 
ATOM     77  C59 UNL A   1      14.027  33.197   0.888  1.00  0.00    +0.000 C 
ATOM     78  F11 UNL A   1      12.780  33.689   0.883  1.00  0.00    +0.000 F 
ATOM     79  C60 UNL A   1      14.934  33.689   1.831  1.00  0.00    +0.000 C 
ATOM     80  F12 UNL A   1      14.563  34.658   2.679  1.00  0.00    +0.000 F 
ATOM     81  C61 UNL A   1      16.186  33.114   1.960  1.00  0.00    +0.000 C 
ATOM     82  F13 UNL A   1      17.029  33.518   2.919  1.00  0.00    +0.000 F 
ATOM     83  C62 UNL A   1      16.535  32.064   1.131  1.00  0.00    +0.000 C 
ATOM     84  F14 UNL A   1      17.661  31.388   1.363  1.00  0.00    +0.000 F 
ATOM     85  C63 UNL A   1      15.663  31.614   0.147  1.00  0.00    +0.000 C 
ATOM     86  F15 UNL A   1      16.043  30.559  -0.590  1.00  0.00    +0.000 F 
ENDBRANCH   75   76
TORSDOF 20
ENDMDL
