MODEL 1
REMARK VINA RESULT:      -9.3      0.000      0.000
ROOT
ATOM     21  C17 UNL A   1      13.960  53.960   4.753  1.00  0.00    +0.000 C 
ATOM     22  C18 UNL A   1      14.960  54.405   3.720  1.00  0.00    +0.000 C 
ATOM     23  N3  UNL A   1      15.498  53.718   2.742  1.00  0.00    +0.000 N 
ATOM     24  C19 UNL A   1      16.342  54.597   2.078  1.00  0.00    +0.000 C 
ATOM     25  C20 UNL A   1      17.148  54.354   1.017  1.00  0.00    +0.000 C 
ATOM     37  C27 UNL A   1      17.274  53.075   0.368  1.00  0.00    +0.000 C 
ATOM     38  C28 UNL A   1      18.072  52.730  -0.711  1.00  0.00    +0.000 C 
ATOM     39  C29 UNL A   1      17.844  51.385  -1.014  1.00  0.00    +0.000 C 
ATOM     40  C30 UNL A   1      16.935  50.879  -0.098  1.00  0.00    +0.000 C 
ATOM     41  N4  UNL A   1      16.589  51.928   0.739  1.00  0.00    +0.000 N 
ATOM     42  C31 UNL A   1      16.418  49.538   0.004  1.00  0.00    +0.000 C 
ATOM     54  C38 UNL A   1      15.547  49.110   0.948  1.00  0.00    +0.000 C 
ATOM     55  N5  UNL A   1      14.967  49.826   1.986  1.00  0.00    +0.000 N 
ATOM     56  C39 UNL A   1      14.180  48.983   2.608  1.00  0.00    +0.000 C 
ATOM     57  C40 UNL A   1      13.309  49.214   3.809  1.00  0.00    +0.000 C 
ATOM     69  C47 UNL A   1      13.231  50.450   4.337  1.00  0.00    +0.000 C 
ATOM     70  C48 UNL A   1      12.424  50.822   5.495  1.00  0.00    +0.000 C 
ATOM     71  C49 UNL A   1      12.565  52.136   5.721  1.00  0.00    +0.000 C 
ATOM     72  C50 UNL A   1      13.520  52.687   4.761  1.00  0.00    +0.000 C 
ATOM     73  N6  UNL A   1      13.839  51.621   3.958  1.00  0.00    +0.000 N 
ATOM     74  C51 UNL A   1      14.163  47.633   2.028  1.00  0.00    +0.000 C 
ATOM     75  C52 UNL A   1      15.037  47.757   1.037  1.00  0.00    +0.000 C 
ATOM     76  C53 UNL A   1      16.227  55.877   2.744  1.00  0.00    +0.000 C 
ATOM     77  C54 UNL A   1      15.418  55.801   3.791  1.00  0.00    +0.000 C 
ATOM    119  H22 UNL A   1      18.723  53.360  -1.207  1.00  0.00    +0.000 H 
ATOM    120  H23 UNL A   1      18.277  50.858  -1.787  1.00  0.00    +0.000 H 
ATOM    121  H24 UNL A   1      15.952  51.868   1.487  1.00  0.00    +0.000 H 
ATOM    122  H25 UNL A   1      11.838  50.177   6.048  1.00  0.00    +0.000 H 
ATOM    123  H26 UNL A   1      12.077  52.672   6.456  1.00  0.00    +0.000 H 
ATOM    124  H27 UNL A   1      14.444  51.689   3.184  1.00  0.00    +0.000 H 
ATOM    125  H28 UNL A   1      13.617  46.807   2.316  1.00  0.00    +0.000 H 
ATOM    126  H29 UNL A   1      15.316  46.987   0.409  1.00  0.00    +0.000 H 
ATOM    127  H30 UNL A   1      16.713  56.736   2.443  1.00  0.00    +0.000 H 
ATOM    128  H31 UNL A   1      15.172  56.531   4.477  1.00  0.00    +0.000 H 
ENDROOT
BRANCH   21   20
ATOM    129  H32 UNL A   1      15.345  55.041   6.829  1.00  0.00    +0.000 H 
ATOM    130  H33 UNL A   1      14.487  56.410   8.643  1.00  0.00    +0.000 H 
ATOM     78  C55 UNL A   1      14.353  55.320   6.838  1.00  0.00    +0.000 C 
ATOM     79  C56 UNL A   1      13.864  56.123   7.872  1.00  0.00    +0.000 C 
ATOM     17  C13 UNL A   1      12.528  56.537   7.859  1.00  0.00    +0.000 C 
ATOM     18  C14 UNL A   1      11.706  56.218   6.777  1.00  0.00    +0.000 C 
ATOM     19  C15 UNL A   1      12.170  55.356   5.790  1.00  0.00    +0.000 C 
ATOM     20  C16 UNL A   1      13.496  54.892   5.812  1.00  0.00    +0.000 C 
ATOM    117  H20 UNL A   1      10.758  56.620   6.710  1.00  0.00    +0.000 H 
ATOM    118  H21 UNL A   1      11.535  55.055   5.033  1.00  0.00    +0.000 H 
BRANCH   17   15
ATOM     15  C12 UNL A   1      11.998  57.296   9.013  1.00  0.00    +0.000 C 
ATOM     16  O2  UNL A   1      12.046  58.521   9.013  1.00  0.00    +0.000 O 
BRANCH   15   14
ATOM    116  H19 UNL A   1      11.168  57.182  10.836  1.00  0.00    +0.000 H 
ATOM     14  N2  UNL A   1      11.481  56.617  10.092  1.00  0.00    +0.000 N 
BRANCH   14   13
ATOM    114  H17 UNL A   1      10.384  54.998  10.750  1.00  0.00    +0.000 H 
ATOM    115  H18 UNL A   1      11.400  54.716   9.328  1.00  0.00    +0.000 H 
ATOM     13  C11 UNL A   1      11.331  55.184  10.288  1.00  0.00    +0.000 C 
BRANCH   13   12
ATOM    113  H16 UNL A   1      11.943  53.927  11.849  1.00  0.00    +0.000 H 
ATOM     12  C10 UNL A   1      12.427  54.597  11.169  1.00  0.00    +0.000 C 
ATOM    112  H15 UNL A   1      12.929  55.405  11.659  1.00  0.00    +0.000 H 
BRANCH   12   11
ATOM     11  C9  UNL A   1      13.474  53.769  10.422  1.00  0.00    +0.000 C 
ATOM    110  H13 UNL A   1      14.180  54.444   9.986  1.00  0.00    +0.000 H 
ATOM    111  H14 UNL A   1      13.903  53.110  11.148  1.00  0.00    +0.000 H 
BRANCH   11   10
ATOM     10  C8  UNL A   1      12.925  52.870   9.307  1.00  0.00    +0.000 C 
ATOM    108  H11 UNL A   1      12.045  52.387   9.675  1.00  0.00    +0.000 H 
ATOM    109  H12 UNL A   1      12.748  53.515   8.472  1.00  0.00    +0.000 H 
BRANCH   10    9
ATOM      9  C7  UNL A   1      13.885  51.783   8.802  1.00  0.00    +0.000 C 
ATOM    106  H9  UNL A   1      13.942  51.015   9.545  1.00  0.00    +0.000 H 
ATOM    107  H10 UNL A   1      13.488  51.430   7.872  1.00  0.00    +0.000 H 
BRANCH    9    8
ATOM    105  H8  UNL A   1      15.663  52.784   9.388  1.00  0.00    +0.000 H 
ATOM    104  H7  UNL A   1      15.275  52.943   7.676  1.00  0.00    +0.000 H 
ATOM      8  C6  UNL A   1      15.302  52.281   8.516  1.00  0.00    +0.000 C 
BRANCH    8    7
ATOM    103  H6  UNL A   1      15.934  50.602   7.475  1.00  0.00    +0.000 H 
ATOM      7  N1  UNL A   1      16.201  51.185   8.221  1.00  0.00    +0.000 N 
BRANCH    7    5
ATOM      5  C5  UNL A   1      17.370  50.854   8.840  1.00  0.00    +0.000 C 
ATOM      6  O1  UNL A   1      18.429  51.156   8.284  1.00  0.00    +0.000 O 
BRANCH    5    4
ATOM      4  C4  UNL A   1      17.358  50.076  10.154  1.00  0.00    +0.000 C 
ATOM    101  H4  UNL A   1      18.027  49.246  10.057  1.00  0.00    +0.000 H 
ATOM    102  H5  UNL A   1      17.652  50.764  10.918  1.00  0.00    +0.000 H 
BRANCH    4    3
ATOM      2  C2  UNL A   1      15.387  48.416  10.155  1.00  0.00    +0.000 C 
ATOM      3  C3  UNL A   1      16.016  49.549  10.551  1.00  0.00    +0.000 C 
ATOM    131  H34 UNL A   1      16.231  51.941  12.117  1.00  0.00    +0.000 H 
ATOM    133  H36 UNL A   1      12.239  49.246  12.913  1.00  0.00    +0.000 H 
ATOM    132  H35 UNL A   1      12.592  51.318  14.143  1.00  0.00    +0.000 H 
ATOM     80  C57 UNL A   1      15.158  50.212  11.551  1.00  0.00    +0.000 C 
ATOM     81  C58 UNL A   1      15.380  51.380  12.269  1.00  0.00    +0.000 C 
ATOM     82  C59 UNL A   1      14.421  51.775  13.198  1.00  0.00    +0.000 C 
ATOM     83  F16 UNL A   1      14.604  52.907  13.891  1.00  0.00    +0.000 F 
ATOM     84  C60 UNL A   1      13.280  51.011  13.438  1.00  0.00    +0.000 C 
ATOM     85  C61 UNL A   1      13.069  49.831  12.725  1.00  0.00    +0.000 C 
ATOM     86  C62 UNL A   1      13.990  49.454  11.756  1.00  0.00    +0.000 C 
ATOM     87  C63 UNL A   1      14.071  48.325  10.809  1.00  0.00    +0.000 C 
BRANCH    2    1
ATOM      1  C1  UNL A   1      15.889  47.363   9.222  1.00  0.00    +0.000 C 
ATOM     98  H1  UNL A   1      15.082  46.716   8.947  1.00  0.00    +0.000 H 
ATOM     99  H2  UNL A   1      16.653  46.791   9.706  1.00  0.00    +0.000 H 
ATOM    100  H3  UNL A   1      16.291  47.826   8.345  1.00  0.00    +0.000 H 
ENDBRANCH    2    1
BRANCH   87   88
ATOM    134  H37 UNL A   1      13.208  46.485  10.992  1.00  0.00    +0.000 H 
ATOM     88  C64 UNL A   1      13.138  47.396  10.514  1.00  0.00    +0.000 C 
BRANCH   88   89
ATOM     97  C71 UNL A   1      10.988  46.652   9.556  1.00  0.00    +0.000 C 
ATOM    135  H38 UNL A   1      12.757  49.364   8.704  1.00  0.00    +0.000 H 
ATOM    136  H39 UNL A   1      10.708  49.865   7.505  1.00  0.00    +0.000 H 
ATOM    141  H44 UNL A   1       9.050  46.240   8.833  1.00  0.00    +0.000 H 
ATOM    142  H45 UNL A   1      11.075  45.767  10.080  1.00  0.00    +0.000 H 
ATOM     89  C65 UNL A   1      12.034  47.577   9.569  1.00  0.00    +0.000 C 
ATOM     90  C66 UNL A   1      11.952  48.723   8.771  1.00  0.00    +0.000 C 
ATOM     91  C67 UNL A   1      10.777  49.000   8.063  1.00  0.00    +0.000 C 
ATOM     92  C68 UNL A   1       9.694  48.114   8.107  1.00  0.00    +0.000 C 
ATOM     96  C70 UNL A   1       9.823  46.923   8.832  1.00  0.00    +0.000 C 
BRANCH   92   93
ATOM     93  S1  UNL A   1       8.087  48.619   7.436  1.00  0.00    +0.000 S 
BRANCH   93   94
ATOM    137  H40 UNL A   1       7.938  50.228   5.671  1.00  0.00    +0.000 H 
ATOM    138  H41 UNL A   1       8.807  48.800   5.162  1.00  0.00    +0.000 H 
ATOM    139  H42 UNL A   1       9.593  49.986   6.177  1.00  0.00    +0.000 H 
ATOM     94  C69 UNL A   1       8.666  49.498   5.961  1.00  0.00    +0.000 C 
ENDBRANCH   93   94
BRANCH   93   95
ATOM    140  H43 UNL A   1       6.874  47.065   6.608  1.00  0.00    +0.000 H 
ATOM     95  O3  UNL A   1       7.826  47.248   6.634  1.00  0.00    +0.000 O 
ENDBRANCH   93   95
ENDBRANCH   92   93
ENDBRANCH   88   89
ENDBRANCH   87   88
ENDBRANCH    4    3
ENDBRANCH    5    4
ENDBRANCH    7    5
ENDBRANCH    8    7
ENDBRANCH    9    8
ENDBRANCH   10    9
ENDBRANCH   11   10
ENDBRANCH   12   11
ENDBRANCH   13   12
ENDBRANCH   14   13
ENDBRANCH   15   14
ENDBRANCH   17   15
ENDBRANCH   21   20
BRANCH   25   26
ATOM     33  C25 UNL A   1      18.343  57.184  -1.229  1.00  0.00    +0.000 C 
ATOM     34  F4  UNL A   1      17.947  57.805  -2.349  1.00  0.00    +0.000 F 
ATOM     35  C26 UNL A   1      17.554  56.179  -0.674  1.00  0.00    +0.000 C 
ATOM     36  F5  UNL A   1      16.398  55.860  -1.276  1.00  0.00    +0.000 F 
ATOM     26  C21 UNL A   1      17.962  55.494   0.481  1.00  0.00    +0.000 C 
ATOM     27  C22 UNL A   1      19.181  55.863   1.066  1.00  0.00    +0.000 C 
ATOM     28  F1  UNL A   1      19.610  55.247   2.178  1.00  0.00    +0.000 F 
ATOM     29  C23 UNL A   1      19.957  56.884   0.523  1.00  0.00    +0.000 C 
ATOM     30  F2  UNL A   1      21.105  57.239   1.116  1.00  0.00    +0.000 F 
ATOM     31  C24 UNL A   1      19.542  57.537  -0.629  1.00  0.00    +0.000 C 
ATOM     32  F3  UNL A   1      20.297  58.510  -1.158  1.00  0.00    +0.000 F 
ENDBRANCH   25   26
BRANCH   42   43
ATOM     43  C32 UNL A   1      16.890  48.535  -1.005  1.00  0.00    +0.000 C 
ATOM     44  C33 UNL A   1      18.051  47.777  -0.793  1.00  0.00    +0.000 C 
ATOM     45  F6  UNL A   1      18.805  47.990   0.295  1.00  0.00    +0.000 F 
ATOM     46  C34 UNL A   1      18.452  46.815  -1.714  1.00  0.00    +0.000 C 
ATOM     47  F7  UNL A   1      19.582  46.124  -1.508  1.00  0.00    +0.000 F 
ATOM     48  C35 UNL A   1      17.689  46.574  -2.848  1.00  0.00    +0.000 C 
ATOM     49  F8  UNL A   1      18.072  45.638  -3.728  1.00  0.00    +0.000 F 
ATOM     50  C36 UNL A   1      16.534  47.306  -3.071  1.00  0.00    +0.000 C 
ATOM     51  F9  UNL A   1      15.789  47.067  -4.161  1.00  0.00    +0.000 F 
ATOM     52  C37 UNL A   1      16.141  48.286  -2.165  1.00  0.00    +0.000 C 
ATOM     53  F10 UNL A   1      15.020  48.981  -2.408  1.00  0.00    +0.000 F 
ENDBRANCH   42   43
BRANCH   57   58
ATOM     65  C45 UNL A   1      12.361  46.304   6.056  1.00  0.00    +0.000 C 
ATOM     66  F14 UNL A   1      12.890  45.609   7.072  1.00  0.00    +0.000 F 
ATOM     67  C46 UNL A   1      13.054  47.385   5.520  1.00  0.00    +0.000 C 
ATOM     68  F15 UNL A   1      14.243  47.718   6.044  1.00  0.00    +0.000 F 
ATOM     58  C41 UNL A   1      12.543  48.105   4.429  1.00  0.00    +0.000 C 
ATOM     59  C42 UNL A   1      11.298  47.718   3.916  1.00  0.00    +0.000 C 
ATOM     60  F11 UNL A   1      10.760  48.389   2.887  1.00  0.00    +0.000 F 
ATOM     61  C43 UNL A   1      10.593  46.652   4.471  1.00  0.00    +0.000 C 
ATOM     62  F12 UNL A   1       9.393  46.316   3.977  1.00  0.00    +0.000 F 
ATOM     63  C44 UNL A   1      11.130  45.939   5.533  1.00  0.00    +0.000 C 
ATOM     64  F13 UNL A   1      10.458  44.904   6.055  1.00  0.00    +0.000 F 
ENDBRANCH   57   58
TORSDOF 22
ENDMDL
MODEL 2
REMARK VINA RESULT:      -9.3     28.436     33.602
ROOT
ATOM     21  C17 UNL A   1      22.100  19.557   4.868  1.00  0.00    +0.000 C 
ATOM     22  C18 UNL A   1      20.928  19.045   5.660  1.00  0.00    +0.000 C 
ATOM     23  N3  UNL A   1      19.651  19.301   5.507  1.00  0.00    +0.000 N 
ATOM     24  C19 UNL A   1      18.995  18.568   6.485  1.00  0.00    +0.000 C 
ATOM     25  C20 UNL A   1      17.668  18.524   6.758  1.00  0.00    +0.000 C 
ATOM     37  C27 UNL A   1      16.665  19.270   6.044  1.00  0.00    +0.000 C 
ATOM     38  C28 UNL A   1      15.296  19.295   6.254  1.00  0.00    +0.000 C 
ATOM     39  C29 UNL A   1      14.722  20.140   5.300  1.00  0.00    +0.000 C 
ATOM     40  C30 UNL A   1      15.736  20.676   4.523  1.00  0.00    +0.000 C 
ATOM     41  N4  UNL A   1      16.922  20.128   4.986  1.00  0.00    +0.000 N 
ATOM     42  C31 UNL A   1      15.630  21.615   3.436  1.00  0.00    +0.000 C 
ATOM     54  C38 UNL A   1      16.675  22.115   2.735  1.00  0.00    +0.000 C 
ATOM     55  N5  UNL A   1      18.029  21.850   2.885  1.00  0.00    +0.000 N 
ATOM     56  C39 UNL A   1      18.637  22.553   1.962  1.00  0.00    +0.000 C 
ATOM     57  C40 UNL A   1      20.105  22.654   1.664  1.00  0.00    +0.000 C 
ATOM     69  C47 UNL A   1      20.973  21.899   2.365  1.00  0.00    +0.000 C 
ATOM     70  C48 UNL A   1      22.420  21.888   2.181  1.00  0.00    +0.000 C 
ATOM     71  C49 UNL A   1      22.961  21.000   3.028  1.00  0.00    +0.000 C 
ATOM     72  C50 UNL A   1      21.902  20.423   3.856  1.00  0.00    +0.000 C 
ATOM     73  N6  UNL A   1      20.752  20.991   3.371  1.00  0.00    +0.000 N 
ATOM     74  C51 UNL A   1      17.734  23.340   1.111  1.00  0.00    +0.000 C 
ATOM     75  C52 UNL A   1      16.552  23.060   1.644  1.00  0.00    +0.000 C 
ATOM     76  C53 UNL A   1      20.007  17.834   7.213  1.00  0.00    +0.000 C 
ATOM     77  C54 UNL A   1      21.221  18.125   6.771  1.00  0.00    +0.000 C 
ATOM    119  H22 UNL A   1      14.788  18.777   6.988  1.00  0.00    +0.000 H 
ATOM    120  H23 UNL A   1      13.714  20.332   5.193  1.00  0.00    +0.000 H 
ATOM    121  H24 UNL A   1      17.815  20.320   4.618  1.00  0.00    +0.000 H 
ATOM    122  H25 UNL A   1      22.943  22.469   1.507  1.00  0.00    +0.000 H 
ATOM    123  H26 UNL A   1      23.963  20.762   3.085  1.00  0.00    +0.000 H 
ATOM    124  H27 UNL A   1      19.854  20.768   3.711  1.00  0.00    +0.000 H 
ATOM    125  H28 UNL A   1      17.960  23.950   0.310  1.00  0.00    +0.000 H 
ATOM    126  H29 UNL A   1      15.658  23.464   1.322  1.00  0.00    +0.000 H 
ATOM    127  H30 UNL A   1      19.808  17.170   7.979  1.00  0.00    +0.000 H 
ATOM    128  H31 UNL A   1      22.136  17.793   7.115  1.00  0.00    +0.000 H 
ENDROOT
BRANCH   21   20
ATOM    129  H32 UNL A   1      23.525  17.359   4.138  1.00  0.00    +0.000 H 
ATOM    130  H33 UNL A   1      25.726  16.682   4.914  1.00  0.00    +0.000 H 
ATOM     78  C55 UNL A   1      24.052  17.965   4.785  1.00  0.00    +0.000 C 
ATOM     79  C56 UNL A   1      25.326  17.584   5.216  1.00  0.00    +0.000 C 
ATOM     17  C13 UNL A   1      26.056  18.429   6.057  1.00  0.00    +0.000 C 
ATOM     18  C14 UNL A   1      25.551  19.684   6.401  1.00  0.00    +0.000 C 
ATOM     19  C15 UNL A   1      24.254  20.028   6.036  1.00  0.00    +0.000 C 
ATOM     20  C16 UNL A   1      23.487  19.170   5.230  1.00  0.00    +0.000 C 
ATOM    117  H20 UNL A   1      26.137  20.353   6.924  1.00  0.00    +0.000 H 
ATOM    118  H21 UNL A   1      23.851  20.922   6.360  1.00  0.00    +0.000 H 
BRANCH   17   15
ATOM     15  C12 UNL A   1      27.356  17.966   6.591  1.00  0.00    +0.000 C 
ATOM     16  O2  UNL A   1      28.368  18.067   5.907  1.00  0.00    +0.000 O 
BRANCH   15   14
ATOM    116  H19 UNL A   1      26.863  16.587   7.963  1.00  0.00    +0.000 H 
ATOM     14  N2  UNL A   1      27.412  17.397   7.842  1.00  0.00    +0.000 N 
BRANCH   14   13
ATOM    114  H17 UNL A   1      28.514  16.952   9.529  1.00  0.00    +0.000 H 
ATOM    115  H18 UNL A   1      28.982  18.425   8.667  1.00  0.00    +0.000 H 
ATOM     13  C11 UNL A   1      28.168  17.821   9.010  1.00  0.00    +0.000 C 
BRANCH   13   12
ATOM    113  H16 UNL A   1      27.472  18.237  10.942  1.00  0.00    +0.000 H 
ATOM     12  C10 UNL A   1      27.338  18.664   9.970  1.00  0.00    +0.000 C 
ATOM    112  H15 UNL A   1      26.321  18.643   9.637  1.00  0.00    +0.000 H 
BRANCH   12   11
ATOM     11  C9  UNL A   1      27.773  20.126  10.078  1.00  0.00    +0.000 C 
ATOM    110  H13 UNL A   1      27.927  20.350  11.113  1.00  0.00    +0.000 H 
ATOM    111  H14 UNL A   1      28.659  20.216   9.484  1.00  0.00    +0.000 H 
BRANCH   11   10
ATOM     10  C8  UNL A   1      26.780  21.150   9.514  1.00  0.00    +0.000 C 
ATOM    108  H11 UNL A   1      27.342  21.971   9.121  1.00  0.00    +0.000 H 
ATOM    109  H12 UNL A   1      26.206  20.627   8.779  1.00  0.00    +0.000 H 
BRANCH   10    9
ATOM      9  C7  UNL A   1      25.766  21.710  10.521  1.00  0.00    +0.000 C 
ATOM    106  H9  UNL A   1      25.754  22.776  10.428  1.00  0.00    +0.000 H 
ATOM    107  H10 UNL A   1      24.821  21.264  10.287  1.00  0.00    +0.000 H 
BRANCH    9    8
ATOM    105  H8  UNL A   1      26.177  22.270  12.528  1.00  0.00    +0.000 H 
ATOM    104  H7  UNL A   1      26.967  20.780  12.017  1.00  0.00    +0.000 H 
ATOM      8  C6  UNL A   1      26.069  21.358  11.978  1.00  0.00    +0.000 C 
BRANCH    8    7
ATOM    103  H6  UNL A   1      25.239  19.706  12.917  1.00  0.00    +0.000 H 
ATOM      7  N1  UNL A   1      24.993  20.595  12.576  1.00  0.00    +0.000 N 
BRANCH    7    5
ATOM      5  C5  UNL A   1      23.685  20.947  12.728  1.00  0.00    +0.000 C 
ATOM      6  O1  UNL A   1      23.419  21.888  13.480  1.00  0.00    +0.000 O 
BRANCH    5    4
ATOM      4  C4  UNL A   1      22.582  20.150  12.035  1.00  0.00    +0.000 C 
ATOM    101  H4  UNL A   1      21.716  20.160  12.664  1.00  0.00    +0.000 H 
ATOM    102  H5  UNL A   1      22.418  20.619  11.087  1.00  0.00    +0.000 H 
BRANCH    4    3
ATOM      2  C2  UNL A   1      23.399  18.169  10.603  1.00  0.00    +0.000 C 
ATOM      3  C3  UNL A   1      22.932  18.725  11.748  1.00  0.00    +0.000 C 
ATOM    131  H34 UNL A   1      22.155  18.630  14.507  1.00  0.00    +0.000 H 
ATOM    133  H36 UNL A   1      23.801  14.435  12.627  1.00  0.00    +0.000 H 
ATOM    132  H35 UNL A   1      23.087  14.547  14.954  1.00  0.00    +0.000 H 
ATOM     80  C57 UNL A   1      22.867  17.663  12.768  1.00  0.00    +0.000 C 
ATOM     81  C58 UNL A   1      22.484  17.740  14.102  1.00  0.00    +0.000 C 
ATOM     82  C59 UNL A   1      22.556  16.587  14.877  1.00  0.00    +0.000 C 
ATOM     83  F16 UNL A   1      22.177  16.632  16.161  1.00  0.00    +0.000 F 
ATOM     84  C60 UNL A   1      23.030  15.385  14.354  1.00  0.00    +0.000 C 
ATOM     85  C61 UNL A   1      23.427  15.314  13.018  1.00  0.00    +0.000 C 
ATOM     86  C62 UNL A   1      23.309  16.445  12.219  1.00  0.00    +0.000 C 
ATOM     87  C63 UNL A   1      23.586  16.721  10.796  1.00  0.00    +0.000 C 
BRANCH    2    1
ATOM      1  C1  UNL A   1      23.719  18.851   9.314  1.00  0.00    +0.000 C 
ATOM     98  H1  UNL A   1      24.729  19.203   9.337  1.00  0.00    +0.000 H 
ATOM     99  H2  UNL A   1      23.057  19.680   9.174  1.00  0.00    +0.000 H 
ATOM    100  H3  UNL A   1      23.601  18.159   8.506  1.00  0.00    +0.000 H 
ENDBRANCH    2    1
BRANCH   87   88
ATOM    134  H37 UNL A   1      24.845  15.453   9.811  1.00  0.00    +0.000 H 
ATOM     88  C64 UNL A   1      23.896  15.857   9.808  1.00  0.00    +0.000 C 
BRANCH   88   89
ATOM     97  C71 UNL A   1      23.492  15.330   7.430  1.00  0.00    +0.000 C 
ATOM    135  H38 UNL A   1      21.274  15.222   9.936  1.00  0.00    +0.000 H 
ATOM    136  H39 UNL A   1      19.957  14.111   8.226  1.00  0.00    +0.000 H 
ATOM    141  H44 UNL A   1      23.093  14.635   5.479  1.00  0.00    +0.000 H 
ATOM    142  H45 UNL A   1      24.432  15.691   7.203  1.00  0.00    +0.000 H 
ATOM     89  C65 UNL A   1      22.993  15.446   8.729  1.00  0.00    +0.000 C 
ATOM     90  C66 UNL A   1      21.679  15.054   9.002  1.00  0.00    +0.000 C 
ATOM     91  C67 UNL A   1      20.914  14.433   8.009  1.00  0.00    +0.000 C 
ATOM     92  C68 UNL A   1      21.435  14.242   6.724  1.00  0.00    +0.000 C 
ATOM     96  C70 UNL A   1      22.717  14.726   6.436  1.00  0.00    +0.000 C 
BRANCH   92   93
ATOM     93  S1  UNL A   1      20.558  13.183   5.542  1.00  0.00    +0.000 S 
BRANCH   93   94
ATOM    137  H40 UNL A   1      21.808  12.604   3.586  1.00  0.00    +0.000 H 
ATOM    138  H41 UNL A   1      22.139  11.506   4.904  1.00  0.00    +0.000 H 
ATOM    139  H42 UNL A   1      22.859  13.097   4.893  1.00  0.00    +0.000 H 
ATOM     94  C69 UNL A   1      21.987  12.531   4.639  1.00  0.00    +0.000 C 
ENDBRANCH   93   94
BRANCH   93   95
ATOM    140  H43 UNL A   1      21.308  11.823   7.012  1.00  0.00    +0.000 H 
ATOM     95  O3  UNL A   1      20.475  11.908   6.522  1.00  0.00    +0.000 O 
ENDBRANCH   93   95
ENDBRANCH   92   93
ENDBRANCH   88   89
ENDBRANCH   87   88
ENDBRANCH    4    3
ENDBRANCH    5    4
ENDBRANCH    7    5
ENDBRANCH    8    7
ENDBRANCH    9    8
ENDBRANCH   10    9
ENDBRANCH   11   10
ENDBRANCH   12   11
ENDBRANCH   13   12
ENDBRANCH   14   13
ENDBRANCH   15   14
ENDBRANCH   17   15
ENDBRANCH   21   20
BRANCH   25   26
ATOM     33  C25 UNL A   1      16.653  15.416   8.706  1.00  0.00    +0.000 C 
ATOM     34  F4  UNL A   1      16.577  14.093   8.506  1.00  0.00    +0.000 F 
ATOM     35  C26 UNL A   1      17.152  16.244   7.703  1.00  0.00    +0.000 C 
ATOM     36  F5  UNL A   1      17.558  15.689   6.551  1.00  0.00    +0.000 F 
ATOM     26  C21 UNL A   1      17.214  17.635   7.878  1.00  0.00    +0.000 C 
ATOM     27  C22 UNL A   1      16.772  18.164   9.100  1.00  0.00    +0.000 C 
ATOM     28  F1  UNL A   1      16.822  19.486   9.321  1.00  0.00    +0.000 F 
ATOM     29  C23 UNL A   1      16.296  17.331  10.110  1.00  0.00    +0.000 C 
ATOM     30  F2  UNL A   1      15.906  17.856  11.280  1.00  0.00    +0.000 F 
ATOM     31  C24 UNL A   1      16.229  15.960   9.909  1.00  0.00    +0.000 C 
ATOM     32  F3  UNL A   1      15.757  15.162  10.877  1.00  0.00    +0.000 F 
ENDBRANCH   25   26
BRANCH   42   43
ATOM     43  C32 UNL A   1      14.258  22.086   3.057  1.00  0.00    +0.000 C 
ATOM     44  C33 UNL A   1      13.586  21.556   1.946  1.00  0.00    +0.000 C 
ATOM     45  F6  UNL A   1      14.194  20.661   1.154  1.00  0.00    +0.000 F 
ATOM     46  C34 UNL A   1      12.294  21.967   1.632  1.00  0.00    +0.000 C 
ATOM     47  F7  UNL A   1      11.681  21.473   0.548  1.00  0.00    +0.000 F 
ATOM     48  C35 UNL A   1      11.642  22.892   2.435  1.00  0.00    +0.000 C 
ATOM     49  F8  UNL A   1      10.393  23.278   2.137  1.00  0.00    +0.000 F 
ATOM     50  C36 UNL A   1      12.286  23.421   3.543  1.00  0.00    +0.000 C 
ATOM     51  F9  UNL A   1      11.653  24.306   4.327  1.00  0.00    +0.000 F 
ATOM     52  C37 UNL A   1      13.587  23.030   3.848  1.00  0.00    +0.000 C 
ATOM     53  F10 UNL A   1      14.187  23.561   4.924  1.00  0.00    +0.000 F 
ENDBRANCH   42   43
BRANCH   57   58
ATOM     65  C45 UNL A   1      21.404  25.773  -0.067  1.00  0.00    +0.000 C 
ATOM     66  F14 UNL A   1      21.713  27.039   0.248  1.00  0.00    +0.000 F 
ATOM     67  C46 UNL A   1      20.986  24.894   0.927  1.00  0.00    +0.000 C 
ATOM     68  F15 UNL A   1      20.910  25.333   2.192  1.00  0.00    +0.000 F 
ATOM     58  C41 UNL A   1      20.618  23.575   0.619  1.00  0.00    +0.000 C 
ATOM     59  C42 UNL A   1      20.713  23.164  -0.716  1.00  0.00    +0.000 C 
ATOM     60  F11 UNL A   1      20.391  21.907  -1.055  1.00  0.00    +0.000 F 
ATOM     61  C43 UNL A   1      21.157  24.039  -1.706  1.00  0.00    +0.000 C 
ATOM     62  F12 UNL A   1      21.261  23.615  -2.973  1.00  0.00    +0.000 F 
ATOM     63  C44 UNL A   1      21.492  25.345  -1.383  1.00  0.00    +0.000 C 
ATOM     64  F13 UNL A   1      21.903  26.190  -2.338  1.00  0.00    +0.000 F 
ENDBRANCH   57   58
TORSDOF 22
ENDMDL
MODEL 3
REMARK VINA RESULT:      -9.0     46.236     52.705
ROOT
ATOM     21  C17 UNL A   1       7.101   3.012  26.086  1.00  0.00    +0.000 C 
ATOM     22  C18 UNL A   1       8.303   3.277  26.950  1.00  0.00    +0.000 C 
ATOM     23  N3  UNL A   1       8.814   4.424  27.326  1.00  0.00    +0.000 N 
ATOM     24  C19 UNL A   1       9.906   4.112  28.124  1.00  0.00    +0.000 C 
ATOM     25  C20 UNL A   1      10.780   4.956  28.724  1.00  0.00    +0.000 C 
ATOM     37  C27 UNL A   1      10.722   6.391  28.629  1.00  0.00    +0.000 C 
ATOM     38  C28 UNL A   1      11.569   7.328  29.198  1.00  0.00    +0.000 C 
ATOM     39  C29 UNL A   1      11.106   8.602  28.856  1.00  0.00    +0.000 C 
ATOM     40  C30 UNL A   1       9.995   8.460  28.040  1.00  0.00    +0.000 C 
ATOM     41  N4  UNL A   1       9.767   7.098  27.915  1.00  0.00    +0.000 N 
ATOM     42  C31 UNL A   1       9.199   9.489  27.423  1.00  0.00    +0.000 C 
ATOM     54  C38 UNL A   1       8.136   9.270  26.613  1.00  0.00    +0.000 C 
ATOM     55  N5  UNL A   1       7.584   8.063  26.209  1.00  0.00    +0.000 N 
ATOM     56  C39 UNL A   1       6.560   8.371  25.452  1.00  0.00    +0.000 C 
ATOM     57  C40 UNL A   1       5.601   7.460  24.742  1.00  0.00    +0.000 C 
ATOM     69  C47 UNL A   1       5.713   6.128  24.908  1.00  0.00    +0.000 C 
ATOM     70  C48 UNL A   1       4.852   5.126  24.288  1.00  0.00    +0.000 C 
ATOM     71  C49 UNL A   1       5.234   3.908  24.699  1.00  0.00    +0.000 C 
ATOM     72  C50 UNL A   1       6.406   4.041  25.564  1.00  0.00    +0.000 C 
ATOM     73  N6  UNL A   1       6.600   5.395  25.658  1.00  0.00    +0.000 N 
ATOM     74  C51 UNL A   1       6.339   9.815  25.296  1.00  0.00    +0.000 C 
ATOM     75  C52 UNL A   1       7.345  10.318  26.000  1.00  0.00    +0.000 C 
ATOM     76  C53 UNL A   1       9.973   2.669  28.203  1.00  0.00    +0.000 C 
ATOM     77  C54 UNL A   1       9.031   2.104  27.461  1.00  0.00    +0.000 C 
ATOM    119  H22 UNL A   1      12.399   7.121  29.775  1.00  0.00    +0.000 H 
ATOM    120  H23 UNL A   1      11.520   9.496  29.160  1.00  0.00    +0.000 H 
ATOM    121  H24 UNL A   1       9.035   6.693  27.396  1.00  0.00    +0.000 H 
ATOM    122  H25 UNL A   1       4.074   5.324  23.640  1.00  0.00    +0.000 H 
ATOM    123  H26 UNL A   1       4.774   3.020  24.444  1.00  0.00    +0.000 H 
ATOM    124  H27 UNL A   1       7.306   5.803  26.210  1.00  0.00    +0.000 H 
ATOM    125  H28 UNL A   1       5.597  10.308  24.776  1.00  0.00    +0.000 H 
ATOM    126  H29 UNL A   1       7.539  11.327  26.097  1.00  0.00    +0.000 H 
ATOM    127  H30 UNL A   1      10.666   2.148  28.763  1.00  0.00    +0.000 H 
ATOM    128  H31 UNL A   1       8.853   1.103  27.287  1.00  0.00    +0.000 H 
ENDROOT
BRANCH   21   20
ATOM    129  H32 UNL A   1       7.913   1.446  24.015  1.00  0.00    +0.000 H 
ATOM    130  H33 UNL A   1       7.085  -0.752  23.393  1.00  0.00    +0.000 H 
ATOM     78  C55 UNL A   1       7.203   0.979  24.600  1.00  0.00    +0.000 C 
ATOM     79  C56 UNL A   1       6.741  -0.294  24.252  1.00  0.00    +0.000 C 
ATOM     17  C13 UNL A   1       5.811  -0.944  25.069  1.00  0.00    +0.000 C 
ATOM     18  C14 UNL A   1       5.406  -0.361  26.272  1.00  0.00    +0.000 C 
ATOM     19  C15 UNL A   1       5.806   0.936  26.578  1.00  0.00    +0.000 C 
ATOM     20  C16 UNL A   1       6.704   1.623  25.742  1.00  0.00    +0.000 C 
ATOM    117  H20 UNL A   1       4.813  -0.889  26.930  1.00  0.00    +0.000 H 
ATOM    118  H21 UNL A   1       5.441   1.398  27.426  1.00  0.00    +0.000 H 
BRANCH   17   15
ATOM     15  C12 UNL A   1       5.251  -2.241  24.634  1.00  0.00    +0.000 C 
ATOM     16  O2  UNL A   1       4.397  -2.274  23.754  1.00  0.00    +0.000 O 
BRANCH   15   14
ATOM    116  H19 UNL A   1       5.168  -3.663  26.047  1.00  0.00    +0.000 H 
ATOM     14  N2  UNL A   1       5.672  -3.401  25.242  1.00  0.00    +0.000 N 
BRANCH   14   13
ATOM    114  H17 UNL A   1       6.339  -5.251  24.616  1.00  0.00    +0.000 H 
ATOM    115  H18 UNL A   1       7.258  -3.858  24.027  1.00  0.00    +0.000 H 
ATOM     13  C11 UNL A   1       6.754  -4.296  24.862  1.00  0.00    +0.000 C 
BRANCH   13   12
ATOM    113  H16 UNL A   1       8.144  -5.482  25.887  1.00  0.00    +0.000 H 
ATOM     12  C10 UNL A   1       7.778  -4.480  25.976  1.00  0.00    +0.000 C 
ATOM    112  H15 UNL A   1       7.291  -4.291  26.910  1.00  0.00    +0.000 H 
BRANCH   12   11
ATOM     11  C9  UNL A   1       8.999  -3.565  25.880  1.00  0.00    +0.000 C 
ATOM    110  H13 UNL A   1       9.843  -4.098  26.266  1.00  0.00    +0.000 H 
ATOM    111  H14 UNL A   1       9.093  -3.304  24.847  1.00  0.00    +0.000 H 
BRANCH   11   10
ATOM     10  C8  UNL A   1       8.887  -2.239  26.643  1.00  0.00    +0.000 C 
ATOM    108  H11 UNL A   1       7.922  -1.824  26.441  1.00  0.00    +0.000 H 
ATOM    109  H12 UNL A   1       9.047  -2.479  27.673  1.00  0.00    +0.000 H 
BRANCH   10    9
ATOM      9  C7  UNL A   1       9.941  -1.181  26.288  1.00  0.00    +0.000 C 
ATOM    106  H9  UNL A   1      10.381  -1.447  25.350  1.00  0.00    +0.000 H 
ATOM    107  H10 UNL A   1       9.432  -0.239  26.254  1.00  0.00    +0.000 H 
BRANCH    9    8
ATOM    105  H8  UNL A   1      11.486  -2.006  27.488  1.00  0.00    +0.000 H 
ATOM    104  H7  UNL A   1      10.650  -0.641  28.225  1.00  0.00    +0.000 H 
ATOM      8  C6  UNL A   1      11.059  -1.039  27.322  1.00  0.00    +0.000 C 
BRANCH    8    7
ATOM    103  H6  UNL A   1      11.882   0.799  26.830  1.00  0.00    +0.000 H 
ATOM      7  N1  UNL A   1      12.108  -0.158  26.853  1.00  0.00    +0.000 N 
BRANCH    7    5
ATOM      5  C5  UNL A   1      13.366  -0.479  26.439  1.00  0.00    +0.000 C 
ATOM      6  O1  UNL A   1      14.320   0.063  27.002  1.00  0.00    +0.000 O 
BRANCH    5    4
ATOM      4  C4  UNL A   1      13.577  -1.435  25.267  1.00  0.00    +0.000 C 
ATOM    101  H4  UNL A   1      14.630  -1.547  25.112  1.00  0.00    +0.000 H 
ATOM    102  H5  UNL A   1      13.092  -2.351  25.531  1.00  0.00    +0.000 H 
BRANCH    4    3
ATOM      2  C2  UNL A   1      13.152   0.168  23.295  1.00  0.00    +0.000 C 
ATOM      3  C3  UNL A   1      12.962  -0.985  23.980  1.00  0.00    +0.000 C 
ATOM    131  H34 UNL A   1      11.832  -3.598  24.328  1.00  0.00    +0.000 H 
ATOM    133  H36 UNL A   1      10.664  -1.326  20.167  1.00  0.00    +0.000 H 
ATOM    132  H35 UNL A   1       9.791  -3.550  20.644  1.00  0.00    +0.000 H 
ATOM     80  C57 UNL A   1      12.042  -1.828  23.194  1.00  0.00    +0.000 C 
ATOM     81  C58 UNL A   1      11.570  -3.108  23.460  1.00  0.00    +0.000 C 
ATOM     82  C59 UNL A   1      10.736  -3.711  22.523  1.00  0.00    +0.000 C 
ATOM     83  F16 UNL A   1      10.255  -4.937  22.764  1.00  0.00    +0.000 F 
ATOM     84  C60 UNL A   1      10.400  -3.075  21.329  1.00  0.00    +0.000 C 
ATOM     85  C61 UNL A   1      10.887  -1.795  21.060  1.00  0.00    +0.000 C 
ATOM     86  C62 UNL A   1      11.677  -1.160  22.010  1.00  0.00    +0.000 C 
ATOM     87  C63 UNL A   1      12.316   0.168  22.082  1.00  0.00    +0.000 C 
BRANCH    2    1
ATOM      1  C1  UNL A   1      14.062   1.302  23.636  1.00  0.00    +0.000 C 
ATOM     98  H1  UNL A   1      13.944   2.084  22.915  1.00  0.00    +0.000 H 
ATOM     99  H2  UNL A   1      15.077   0.961  23.627  1.00  0.00    +0.000 H 
ATOM    100  H3  UNL A   1      13.819   1.674  24.609  1.00  0.00    +0.000 H 
ENDBRANCH    2    1
BRANCH   87   88
ATOM    134  H37 UNL A   1      12.700   1.234  20.385  1.00  0.00    +0.000 H 
ATOM     88  C64 UNL A   1      12.161   1.230  21.265  1.00  0.00    +0.000 C 
BRANCH   88   89
ATOM     97  C71 UNL A   1      11.087   3.324  20.519  1.00  0.00    +0.000 C 
ATOM    135  H38 UNL A   1      10.783   1.841  23.506  1.00  0.00    +0.000 H 
ATOM    136  H39 UNL A   1       9.012   3.485  23.726  1.00  0.00    +0.000 H 
ATOM    141  H44 UNL A   1       9.939   4.986  19.913  1.00  0.00    +0.000 H 
ATOM    142  H45 UNL A   1      11.669   3.305  19.668  1.00  0.00    +0.000 H 
ATOM     89  C65 UNL A   1      11.292   2.379  21.528  1.00  0.00    +0.000 C 
ATOM     90  C66 UNL A   1      10.572   2.477  22.723  1.00  0.00    +0.000 C 
ATOM     91  C67 UNL A   1       9.565   3.440  22.856  1.00  0.00    +0.000 C 
ATOM     92  C68 UNL A   1       9.301   4.341  21.818  1.00  0.00    +0.000 C 
ATOM     96  C70 UNL A   1      10.093   4.295  20.664  1.00  0.00    +0.000 C 
BRANCH   92   93
ATOM     93  S1  UNL A   1       7.815   5.379  21.881  1.00  0.00    +0.000 S 
BRANCH   93   94
ATOM    137  H40 UNL A   1       6.959   5.939  19.718  1.00  0.00    +0.000 H 
ATOM    138  H41 UNL A   1       8.671   5.594  19.658  1.00  0.00    +0.000 H 
ATOM    139  H42 UNL A   1       8.111   7.129  20.277  1.00  0.00    +0.000 H 
ATOM     94  C69 UNL A   1       7.897   6.083  20.213  1.00  0.00    +0.000 C 
ENDBRANCH   93   94
BRANCH   93   95
ATOM    140  H43 UNL A   1       7.025   3.392  21.914  1.00  0.00    +0.000 H 
ATOM     95  O3  UNL A   1       6.801   4.208  21.440  1.00  0.00    +0.000 O 
ENDBRANCH   93   95
ENDBRANCH   92   93
ENDBRANCH   88   89
ENDBRANCH   87   88
ENDBRANCH    4    3
ENDBRANCH    5    4
ENDBRANCH    7    5
ENDBRANCH    8    7
ENDBRANCH    9    8
ENDBRANCH   10    9
ENDBRANCH   11   10
ENDBRANCH   12   11
ENDBRANCH   13   12
ENDBRANCH   14   13
ENDBRANCH   15   14
ENDBRANCH   17   15
ENDBRANCH   21   20
BRANCH   25   26
ATOM     33  C25 UNL A   1      12.918   3.969  31.714  1.00  0.00    +0.000 C 
ATOM     34  F4  UNL A   1      12.889   4.099  33.048  1.00  0.00    +0.000 F 
ATOM     35  C26 UNL A   1      11.860   4.451  30.945  1.00  0.00    +0.000 C 
ATOM     36  F5  UNL A   1      10.823   5.032  31.568  1.00  0.00    +0.000 F 
ATOM     26  C21 UNL A   1      11.881   4.353  29.546  1.00  0.00    +0.000 C 
ATOM     27  C22 UNL A   1      12.992   3.742  28.947  1.00  0.00    +0.000 C 
ATOM     28  F1  UNL A   1      13.053   3.613  27.613  1.00  0.00    +0.000 F 
ATOM     29  C23 UNL A   1      14.036   3.240  29.719  1.00  0.00    +0.000 C 
ATOM     30  F2  UNL A   1      15.075   2.634  29.126  1.00  0.00    +0.000 F 
ATOM     31  C24 UNL A   1      14.003   3.362  31.101  1.00  0.00    +0.000 C 
ATOM     32  F3  UNL A   1      15.016   2.891  31.842  1.00  0.00    +0.000 F 
ENDBRANCH   25   26
BRANCH   42   43
ATOM     43  C32 UNL A   1       9.582  10.914  27.688  1.00  0.00    +0.000 C 
ATOM     44  C33 UNL A   1      10.657  11.516  27.019  1.00  0.00    +0.000 C 
ATOM     45  F6  UNL A   1      11.413  10.800  26.175  1.00  0.00    +0.000 F 
ATOM     46  C34 UNL A   1      10.973  12.854  27.238  1.00  0.00    +0.000 C 
ATOM     47  F7  UNL A   1      12.025  13.402  26.614  1.00  0.00    +0.000 F 
ATOM     48  C35 UNL A   1      10.207  13.618  28.106  1.00  0.00    +0.000 C 
ATOM     49  F8  UNL A   1      10.506  14.910  28.306  1.00  0.00    +0.000 F 
ATOM     50  C36 UNL A   1       9.134  13.044  28.770  1.00  0.00    +0.000 C 
ATOM     51  F9  UNL A   1       8.385  13.785  29.600  1.00  0.00    +0.000 F 
ATOM     52  C37 UNL A   1       8.828  11.701  28.572  1.00  0.00    +0.000 C 
ATOM     53  F10 UNL A   1       7.787  11.170  29.230  1.00  0.00    +0.000 F 
ENDBRANCH   42   43
BRANCH   57   58
ATOM     65  C45 UNL A   1       3.822   8.865  21.697  1.00  0.00    +0.000 C 
ATOM     66  F14 UNL A   1       4.107   9.179  20.426  1.00  0.00    +0.000 F 
ATOM     67  C46 UNL A   1       4.801   8.299  22.508  1.00  0.00    +0.000 C 
ATOM     68  F15 UNL A   1       6.017   8.069  21.992  1.00  0.00    +0.000 F 
ATOM     58  C41 UNL A   1       4.541   7.998  23.854  1.00  0.00    +0.000 C 
ATOM     59  C42 UNL A   1       3.256   8.258  24.347  1.00  0.00    +0.000 C 
ATOM     60  F11 UNL A   1       2.955   7.968  25.621  1.00  0.00    +0.000 F 
ATOM     61  C43 UNL A   1       2.269   8.800  23.525  1.00  0.00    +0.000 C 
ATOM     62  F12 UNL A   1       1.040   9.018  24.014  1.00  0.00    +0.000 F 
ATOM     63  C44 UNL A   1       2.555   9.112  22.205  1.00  0.00    +0.000 C 
ATOM     64  F13 UNL A   1       1.610   9.649  21.421  1.00  0.00    +0.000 F 
ENDBRANCH   57   58
TORSDOF 22
ENDMDL
MODEL 4
REMARK VINA RESULT:      -9.0     46.317     52.731
ROOT
ATOM     21  C17 UNL A   1       6.930   3.083  25.937  1.00  0.00    +0.000 C 
ATOM     22  C18 UNL A   1       6.222   4.258  25.320  1.00  0.00    +0.000 C 
ATOM     23  N3  UNL A   1       6.512   5.533  25.402  1.00  0.00    +0.000 N 
ATOM     24  C19 UNL A   1       5.555   6.191  24.642  1.00  0.00    +0.000 C 
ATOM     25  C20 UNL A   1       5.407   7.523  24.440  1.00  0.00    +0.000 C 
ATOM     37  C27 UNL A   1       6.260   8.532  25.013  1.00  0.00    +0.000 C 
ATOM     38  C28 UNL A   1       6.184   9.908  24.871  1.00  0.00    +0.000 C 
ATOM     39  C29 UNL A   1       7.240  10.482  25.585  1.00  0.00    +0.000 C 
ATOM     40  C30 UNL A   1       7.950   9.467  26.206  1.00  0.00    +0.000 C 
ATOM     41  N4  UNL A   1       7.342   8.276  25.841  1.00  0.00    +0.000 N 
ATOM     42  C31 UNL A   1       9.100   9.576  27.066  1.00  0.00    +0.000 C 
ATOM     54  C38 UNL A   1       9.729   8.534  27.661  1.00  0.00    +0.000 C 
ATOM     55  N5  UNL A   1       9.435   7.180  27.581  1.00  0.00    +0.000 N 
ATOM     56  C39 UNL A   1      10.339   6.572  28.307  1.00  0.00    +0.000 C 
ATOM     57  C40 UNL A   1      10.502   5.105  28.581  1.00  0.00    +0.000 C 
ATOM     69  C47 UNL A   1       9.674   4.228  27.981  1.00  0.00    +0.000 C 
ATOM     70  C48 UNL A   1       9.719   2.779  28.148  1.00  0.00    +0.000 C 
ATOM     71  C49 UNL A   1       8.769   2.222  27.382  1.00  0.00    +0.000 C 
ATOM     72  C50 UNL A   1       8.010   3.281  26.717  1.00  0.00    +0.000 C 
ATOM     73  N6  UNL A   1       8.638   4.437  27.106  1.00  0.00    +0.000 N 
ATOM     74  C51 UNL A   1      11.321   7.473  28.926  1.00  0.00    +0.000 C 
ATOM     75  C52 UNL A   1      10.885   8.660  28.524  1.00  0.00    +0.000 C 
ATOM     76  C53 UNL A   1       4.689   5.177  24.082  1.00  0.00    +0.000 C 
ATOM     77  C54 UNL A   1       5.032   3.968  24.505  1.00  0.00    +0.000 C 
ATOM    119  H22 UNL A   1       5.469  10.421  24.331  1.00  0.00    +0.000 H 
ATOM    120  H23 UNL A   1       7.454  11.489  25.640  1.00  0.00    +0.000 H 
ATOM    121  H24 UNL A   1       7.636   7.381  26.127  1.00  0.00    +0.000 H 
ATOM    122  H25 UNL A   1      10.376   2.266  28.756  1.00  0.00    +0.000 H 
ATOM    123  H26 UNL A   1       8.602   1.209  27.279  1.00  0.00    +0.000 H 
ATOM    124  H27 UNL A   1       8.372   5.330  26.787  1.00  0.00    +0.000 H 
ATOM    125  H28 UNL A   1      12.135   7.244  29.518  1.00  0.00    +0.000 H 
ATOM    126  H29 UNL A   1      11.316   9.559  28.792  1.00  0.00    +0.000 H 
ATOM    127  H30 UNL A   1       3.905   5.370  23.439  1.00  0.00    +0.000 H 
ATOM    128  H31 UNL A   1       4.582   3.060  24.312  1.00  0.00    +0.000 H 
ENDROOT
BRANCH   21   20
ATOM    129  H32 UNL A   1       7.514   1.268  23.998  1.00  0.00    +0.000 H 
ATOM    130  H33 UNL A   1       6.495  -0.909  23.636  1.00  0.00    +0.000 H 
ATOM     78  C55 UNL A   1       6.804   0.915  24.658  1.00  0.00    +0.000 C 
ATOM     79  C56 UNL A   1       6.232  -0.345  24.459  1.00  0.00    +0.000 C 
ATOM     17  C13 UNL A   1       5.302  -0.839  25.379  1.00  0.00    +0.000 C 
ATOM     18  C14 UNL A   1       5.006  -0.114  26.535  1.00  0.00    +0.000 C 
ATOM     19  C15 UNL A   1       5.515   1.171  26.692  1.00  0.00    +0.000 C 
ATOM     20  C16 UNL A   1       6.415   1.703  25.752  1.00  0.00    +0.000 C 
ATOM    117  H20 UNL A   1       4.412  -0.529  27.269  1.00  0.00    +0.000 H 
ATOM    118  H21 UNL A   1       5.231   1.739  27.506  1.00  0.00    +0.000 H 
BRANCH   17   15
ATOM     15  C12 UNL A   1       4.626  -2.125  25.101  1.00  0.00    +0.000 C 
ATOM     16  O2  UNL A   1       3.468  -2.298  25.465  1.00  0.00    +0.000 O 
BRANCH   15   14
ATOM    116  H19 UNL A   1       5.249  -3.127  23.479  1.00  0.00    +0.000 H 
ATOM     14  N2  UNL A   1       5.315  -3.129  24.462  1.00  0.00    +0.000 N 
BRANCH   14   13
ATOM    114  H17 UNL A   1       5.977  -4.208  26.091  1.00  0.00    +0.000 H 
ATOM    115  H18 UNL A   1       5.822  -5.112  24.578  1.00  0.00    +0.000 H 
ATOM     13  C11 UNL A   1       6.127  -4.193  25.033  1.00  0.00    +0.000 C 
BRANCH   13   12
ATOM    113  H16 UNL A   1       7.689  -3.220  24.032  1.00  0.00    +0.000 H 
ATOM     12  C10 UNL A   1       7.613  -4.008  24.752  1.00  0.00    +0.000 C 
ATOM    112  H15 UNL A   1       8.004  -4.940  24.400  1.00  0.00    +0.000 H 
BRANCH   12   11
ATOM     11  C9  UNL A   1       8.442  -3.569  25.959  1.00  0.00    +0.000 C 
ATOM    110  H13 UNL A   1       7.866  -3.755  26.842  1.00  0.00    +0.000 H 
ATOM    111  H14 UNL A   1       9.351  -4.133  25.915  1.00  0.00    +0.000 H 
BRANCH   11   10
ATOM     10  C8  UNL A   1       8.859  -2.094  25.968  1.00  0.00    +0.000 C 
ATOM    108  H11 UNL A   1       9.886  -2.040  25.673  1.00  0.00    +0.000 H 
ATOM    109  H12 UNL A   1       8.190  -1.596  25.299  1.00  0.00    +0.000 H 
BRANCH   10    9
ATOM      9  C7  UNL A   1       8.718  -1.374  27.317  1.00  0.00    +0.000 C 
ATOM    106  H9  UNL A   1       8.225  -0.440  27.149  1.00  0.00    +0.000 H 
ATOM    107  H10 UNL A   1       8.160  -2.027  27.957  1.00  0.00    +0.000 H 
BRANCH    9    8
ATOM    105  H8  UNL A   1      10.207  -1.866  28.749  1.00  0.00    +0.000 H 
ATOM    104  H7  UNL A   1      10.000  -0.135  28.487  1.00  0.00    +0.000 H 
ATOM      8  C6  UNL A   1      10.046  -1.097  28.022  1.00  0.00    +0.000 C 
BRANCH    8    7
ATOM    103  H6  UNL A   1      11.128  -0.437  26.381  1.00  0.00    +0.000 H 
ATOM      7  N1  UNL A   1      11.156  -1.116  27.092  1.00  0.00    +0.000 N 
BRANCH    7    5
ATOM      5  C5  UNL A   1      12.234  -1.950  27.072  1.00  0.00    +0.000 C 
ATOM      6  O1  UNL A   1      12.304  -2.832  27.931  1.00  0.00    +0.000 O 
BRANCH    5    4
ATOM      4  C4  UNL A   1      13.351  -1.749  26.050  1.00  0.00    +0.000 C 
ATOM    101  H4  UNL A   1      14.031  -1.018  26.437  1.00  0.00    +0.000 H 
ATOM    102  H5  UNL A   1      13.805  -2.706  25.902  1.00  0.00    +0.000 H 
BRANCH    4    3
ATOM      2  C2  UNL A   1      13.153  -0.128  24.057  1.00  0.00    +0.000 C 
ATOM      3  C3  UNL A   1      12.887  -1.287  24.705  1.00  0.00    +0.000 C 
ATOM    131  H34 UNL A   1      11.726  -3.902  24.899  1.00  0.00    +0.000 H 
ATOM    133  H36 UNL A   1      11.040  -1.592  20.652  1.00  0.00    +0.000 H 
ATOM    132  H35 UNL A   1      10.119  -3.820  21.006  1.00  0.00    +0.000 H 
ATOM     80  C57 UNL A   1      12.064  -2.122  23.811  1.00  0.00    +0.000 C 
ATOM     81  C58 UNL A   1      11.565  -3.404  24.010  1.00  0.00    +0.000 C 
ATOM     82  C59 UNL A   1      10.844  -3.998  22.979  1.00  0.00    +0.000 C 
ATOM     83  F16 UNL A   1      10.339  -5.227  23.152  1.00  0.00    +0.000 F 
ATOM     84  C60 UNL A   1      10.646  -3.352  21.760  1.00  0.00    +0.000 C 
ATOM     85  C61 UNL A   1      11.160  -2.070  21.560  1.00  0.00    +0.000 C 
ATOM     86  C62 UNL A   1      11.836  -1.444  22.600  1.00  0.00    +0.000 C 
ATOM     87  C63 UNL A   1      12.461  -0.117  22.757  1.00  0.00    +0.000 C 
BRANCH    2    1
ATOM      1  C1  UNL A   1      14.018   1.003  24.510  1.00  0.00    +0.000 C 
ATOM     98  H1  UNL A   1      14.791   1.171  23.790  1.00  0.00    +0.000 H 
ATOM     99  H2  UNL A   1      14.459   0.759  25.454  1.00  0.00    +0.000 H 
ATOM    100  H3  UNL A   1      13.425   1.887  24.611  1.00  0.00    +0.000 H 
ENDBRANCH    2    1
BRANCH   87   88
ATOM    134  H37 UNL A   1      13.083   0.998  21.164  1.00  0.00    +0.000 H 
ATOM     88  C64 UNL A   1      12.400   0.953  21.937  1.00  0.00    +0.000 C 
BRANCH   88   89
ATOM     97  C71 UNL A   1      11.293   2.946  20.990  1.00  0.00    +0.000 C 
ATOM    135  H38 UNL A   1      10.763   1.567  23.995  1.00  0.00    +0.000 H 
ATOM    136  H39 UNL A   1       8.888   3.107  23.957  1.00  0.00    +0.000 H 
ATOM    141  H44 UNL A   1      10.123   4.509  20.194  1.00  0.00    +0.000 H 
ATOM    142  H45 UNL A   1      11.962   2.929  20.204  1.00  0.00    +0.000 H 
ATOM     89  C65 UNL A   1      11.445   2.056  22.056  1.00  0.00    +0.000 C 
ATOM     90  C66 UNL A   1      10.599   2.158  23.166  1.00  0.00    +0.000 C 
ATOM     91  C67 UNL A   1       9.531   3.062  23.151  1.00  0.00    +0.000 C 
ATOM     92  C68 UNL A   1       9.326   3.903  22.051  1.00  0.00    +0.000 C 
ATOM     96  C70 UNL A   1      10.236   3.860  20.988  1.00  0.00    +0.000 C 
BRANCH   92   93
ATOM     93  S1  UNL A   1       7.786   4.850  21.914  1.00  0.00    +0.000 S 
BRANCH   93   94
ATOM    137  H40 UNL A   1       8.721   6.638  23.198  1.00  0.00    +0.000 H 
ATOM    138  H41 UNL A   1       7.720   7.240  21.899  1.00  0.00    +0.000 H 
ATOM    139  H42 UNL A   1       9.326   6.644  21.559  1.00  0.00    +0.000 H 
ATOM     94  C69 UNL A   1       8.457   6.513  22.168  1.00  0.00    +0.000 C 
ENDBRANCH   93   94
BRANCH   93   95
ATOM    140  H43 UNL A   1       8.748   4.879  20.005  1.00  0.00    +0.000 H 
ATOM     95  O3  UNL A   1       7.832   4.972  20.309  1.00  0.00    +0.000 O 
ENDBRANCH   93   95
ENDBRANCH   92   93
ENDBRANCH   88   89
ENDBRANCH   87   88
ENDBRANCH    4    3
ENDBRANCH    5    4
ENDBRANCH    7    5
ENDBRANCH    8    7
ENDBRANCH    9    8
ENDBRANCH   10    9
ENDBRANCH   11   10
ENDBRANCH   12   11
ENDBRANCH   13   12
ENDBRANCH   14   13
ENDBRANCH   15   14
ENDBRANCH   17   15
ENDBRANCH   21   20
BRANCH   25   26
ATOM     33  C25 UNL A   1       1.946   8.607  23.291  1.00  0.00    +0.000 C 
ATOM     34  F4  UNL A   1       0.745   8.853  23.834  1.00  0.00    +0.000 F 
ATOM     35  C26 UNL A   1       3.022   8.267  24.107  1.00  0.00    +0.000 C 
ATOM     36  F5  UNL A   1       2.830   8.202  25.434  1.00  0.00    +0.000 F 
ATOM     26  C21 UNL A   1       4.281   7.977  23.559  1.00  0.00    +0.000 C 
ATOM     27  C22 UNL A   1       4.425   8.054  22.167  1.00  0.00    +0.000 C 
ATOM     28  F1  UNL A   1       5.612   7.797  21.596  1.00  0.00    +0.000 F 
ATOM     29  C23 UNL A   1       3.353   8.418  21.355  1.00  0.00    +0.000 C 
ATOM     30  F2  UNL A   1       3.522   8.513  20.029  1.00  0.00    +0.000 F 
ATOM     31  C24 UNL A   1       2.113   8.686  21.916  1.00  0.00    +0.000 C 
ATOM     32  F3  UNL A   1       1.079   9.021  21.132  1.00  0.00    +0.000 F 
ENDBRANCH   25   26
BRANCH   42   43
ATOM     43  C32 UNL A   1       9.638  10.949  27.336  1.00  0.00    +0.000 C 
ATOM     44  C33 UNL A   1      10.752  11.445  26.645  1.00  0.00    +0.000 C 
ATOM     45  F6  UNL A   1      11.407  10.665  25.772  1.00  0.00    +0.000 F 
ATOM     46  C34 UNL A   1      11.213  12.740  26.870  1.00  0.00    +0.000 C 
ATOM     47  F7  UNL A   1      12.299  13.183  26.223  1.00  0.00    +0.000 F 
ATOM     48  C35 UNL A   1      10.553  13.567  27.767  1.00  0.00    +0.000 C 
ATOM     49  F8  UNL A   1      10.992  14.817  27.974  1.00  0.00    +0.000 F 
ATOM     50  C36 UNL A   1       9.444  13.099  28.454  1.00  0.00    +0.000 C 
ATOM     51  F9  UNL A   1       8.799  13.902  29.313  1.00  0.00    +0.000 F 
ATOM     52  C37 UNL A   1       8.994  11.798  28.250  1.00  0.00    +0.000 C 
ATOM     53  F10 UNL A   1       7.920  11.370  28.930  1.00  0.00    +0.000 F 
ENDBRANCH   42   43
BRANCH   57   58
ATOM     65  C45 UNL A   1      12.440   4.339  31.754  1.00  0.00    +0.000 C 
ATOM     66  F14 UNL A   1      12.312   4.523  33.076  1.00  0.00    +0.000 F 
ATOM     67  C46 UNL A   1      11.425   4.749  30.895  1.00  0.00    +0.000 C 
ATOM     68  F15 UNL A   1      10.326   5.317  31.415  1.00  0.00    +0.000 F 
ATOM     58  C41 UNL A   1      11.550   4.606  29.506  1.00  0.00    +0.000 C 
ATOM     59  C42 UNL A   1      12.717   4.008  29.012  1.00  0.00    +0.000 C 
ATOM     60  F11 UNL A   1      12.873   3.831  27.692  1.00  0.00    +0.000 F 
ATOM     61  C43 UNL A   1      13.721   3.573  29.875  1.00  0.00    +0.000 C 
ATOM     62  F12 UNL A   1      14.818   2.983  29.380  1.00  0.00    +0.000 F 
ATOM     63  C44 UNL A   1      13.586   3.748  31.244  1.00  0.00    +0.000 C 
ATOM     64  F13 UNL A   1      14.559   3.344  32.072  1.00  0.00    +0.000 F 
ENDBRANCH   57   58
TORSDOF 22
ENDMDL
MODEL 5
REMARK VINA RESULT:      -9.0     28.665     33.912
ROOT
ATOM     21  C17 UNL A   1      20.494  18.931   5.460  1.00  0.00    +0.000 C 
ATOM     22  C18 UNL A   1      19.406  18.623   6.452  1.00  0.00    +0.000 C 
ATOM     23  N3  UNL A   1      18.144  18.977   6.431  1.00  0.00    +0.000 N 
ATOM     24  C19 UNL A   1      17.574  18.425   7.569  1.00  0.00    +0.000 C 
ATOM     25  C20 UNL A   1      16.298  18.534   8.012  1.00  0.00    +0.000 C 
ATOM     37  C27 UNL A   1      15.266  19.281   7.342  1.00  0.00    +0.000 C 
ATOM     38  C28 UNL A   1      13.944  19.456   7.719  1.00  0.00    +0.000 C 
ATOM     39  C29 UNL A   1      13.310  20.235   6.747  1.00  0.00    +0.000 C 
ATOM     40  C30 UNL A   1      14.246  20.582   5.785  1.00  0.00    +0.000 C 
ATOM     41  N4  UNL A   1      15.439  19.984   6.160  1.00  0.00    +0.000 N 
ATOM     42  C31 UNL A   1      14.063  21.395   4.611  1.00  0.00    +0.000 C 
ATOM     54  C38 UNL A   1      15.038  21.714   3.726  1.00  0.00    +0.000 C 
ATOM     55  N5  UNL A   1      16.375  21.345   3.735  1.00  0.00    +0.000 N 
ATOM     56  C39 UNL A   1      16.903  21.877   2.660  1.00  0.00    +0.000 C 
ATOM     57  C40 UNL A   1      18.319  21.808   2.168  1.00  0.00    +0.000 C 
ATOM     69  C47 UNL A   1      19.215  21.063   2.844  1.00  0.00    +0.000 C 
ATOM     70  C48 UNL A   1      20.619  20.898   2.481  1.00  0.00    +0.000 C 
ATOM     71  C49 UNL A   1      21.202  20.067   3.357  1.00  0.00    +0.000 C 
ATOM     72  C50 UNL A   1      20.226  19.689   4.379  1.00  0.00    +0.000 C 
ATOM     73  N6  UNL A   1      19.066  20.301   3.977  1.00  0.00    +0.000 N 
ATOM     74  C51 UNL A   1      15.954  22.641   1.838  1.00  0.00    +0.000 C 
ATOM     75  C52 UNL A   1      14.838  22.533   2.549  1.00  0.00    +0.000 C 
ATOM     76  C53 UNL A   1      18.618  17.689   8.250  1.00  0.00    +0.000 C 
ATOM     77  C54 UNL A   1      19.779  17.815   7.624  1.00  0.00    +0.000 C 
ATOM    119  H22 UNL A   1      13.504  19.074   8.571  1.00  0.00    +0.000 H 
ATOM    120  H23 UNL A   1      12.315  20.505   6.745  1.00  0.00    +0.000 H 
ATOM    121  H24 UNL A   1      16.285  20.050   5.660  1.00  0.00    +0.000 H 
ATOM    122  H25 UNL A   1      21.086  21.347   1.678  1.00  0.00    +0.000 H 
ATOM    123  H26 UNL A   1      22.182  19.747   3.317  1.00  0.00    +0.000 H 
ATOM    124  H27 UNL A   1      18.209  20.202   4.452  1.00  0.00    +0.000 H 
ATOM    125  H28 UNL A   1      16.113  23.131   0.945  1.00  0.00    +0.000 H 
ATOM    126  H29 UNL A   1      13.942  22.978   2.294  1.00  0.00    +0.000 H 
ATOM    127  H30 UNL A   1      18.476  17.139   9.112  1.00  0.00    +0.000 H 
ATOM    128  H31 UNL A   1      20.704  17.442   7.888  1.00  0.00    +0.000 H 
ENDROOT
BRANCH   21   20
ATOM    129  H32 UNL A   1      22.668  20.328   6.308  1.00  0.00    +0.000 H 
ATOM    130  H33 UNL A   1      24.965  19.555   6.480  1.00  0.00    +0.000 H 
ATOM     78  C55 UNL A   1      22.897  19.345   6.095  1.00  0.00    +0.000 C 
ATOM     79  C56 UNL A   1      24.216  18.896   6.212  1.00  0.00    +0.000 C 
ATOM     17  C13 UNL A   1      24.517  17.553   5.966  1.00  0.00    +0.000 C 
ATOM     18  C14 UNL A   1      23.495  16.646   5.683  1.00  0.00    +0.000 C 
ATOM     19  C15 UNL A   1      22.198  17.107   5.491  1.00  0.00    +0.000 C 
ATOM     20  C16 UNL A   1      21.885  18.463   5.688  1.00  0.00    +0.000 C 
ATOM    117  H20 UNL A   1      23.701  15.637   5.617  1.00  0.00    +0.000 H 
ATOM    118  H21 UNL A   1      21.457  16.449   5.201  1.00  0.00    +0.000 H 
BRANCH   17   15
ATOM     15  C12 UNL A   1      25.930  17.116   5.989  1.00  0.00    +0.000 C 
ATOM     16  O2  UNL A   1      26.612  17.198   4.973  1.00  0.00    +0.000 O 
BRANCH   15   14
ATOM    116  H19 UNL A   1      26.055  15.746   7.450  1.00  0.00    +0.000 H 
ATOM     14  N2  UNL A   1      26.459  16.591   7.145  1.00  0.00    +0.000 N 
BRANCH   14   13
ATOM    114  H17 UNL A   1      27.936  16.302   8.557  1.00  0.00    +0.000 H 
ATOM    115  H18 UNL A   1      28.270  17.534   7.331  1.00  0.00    +0.000 H 
ATOM     13  C11 UNL A   1      27.534  17.107   7.979  1.00  0.00    +0.000 C 
BRANCH   13   12
ATOM    113  H16 UNL A   1      26.196  17.818   9.426  1.00  0.00    +0.000 H 
ATOM     12  C10 UNL A   1      27.062  18.202   8.929  1.00  0.00    +0.000 C 
ATOM    112  H15 UNL A   1      26.861  19.080   8.351  1.00  0.00    +0.000 H 
BRANCH   12   11
ATOM     11  C9  UNL A   1      28.061  18.571  10.026  1.00  0.00    +0.000 C 
ATOM    110  H13 UNL A   1      28.571  17.678  10.323  1.00  0.00    +0.000 H 
ATOM    111  H14 UNL A   1      28.706  19.312   9.602  1.00  0.00    +0.000 H 
BRANCH   11   10
ATOM     10  C8  UNL A   1      27.451  19.208  11.281  1.00  0.00    +0.000 C 
ATOM    108  H11 UNL A   1      26.810  18.484  11.740  1.00  0.00    +0.000 H 
ATOM    109  H12 UNL A   1      28.278  19.502  11.892  1.00  0.00    +0.000 H 
BRANCH   10    9
ATOM      9  C7  UNL A   1      26.629  20.482  11.043  1.00  0.00    +0.000 C 
ATOM    106  H9  UNL A   1      27.240  21.181  10.511  1.00  0.00    +0.000 H 
ATOM    107  H10 UNL A   1      25.760  20.189  10.490  1.00  0.00    +0.000 H 
BRANCH    9    8
ATOM    105  H8  UNL A   1      25.940  22.186  12.106  1.00  0.00    +0.000 H 
ATOM    104  H7  UNL A   1      26.878  21.057  13.081  1.00  0.00    +0.000 H 
ATOM      8  C6  UNL A   1      26.131  21.155  12.322  1.00  0.00    +0.000 C 
BRANCH    8    7
ATOM    103  H6  UNL A   1      24.997  19.695  13.260  1.00  0.00    +0.000 H 
ATOM      7  N1  UNL A   1      24.901  20.556  12.795  1.00  0.00    +0.000 N 
BRANCH    7    5
ATOM      5  C5  UNL A   1      23.627  21.028  12.679  1.00  0.00    +0.000 C 
ATOM      6  O1  UNL A   1      23.390  22.170  13.080  1.00  0.00    +0.000 O 
BRANCH    5    4
ATOM      4  C4  UNL A   1      22.517  20.136  12.126  1.00  0.00    +0.000 C 
ATOM    101  H4  UNL A   1      21.738  20.079  12.858  1.00  0.00    +0.000 H 
ATOM    102  H5  UNL A   1      22.197  20.582  11.208  1.00  0.00    +0.000 H 
BRANCH    4    3
ATOM      2  C2  UNL A   1      23.489  18.261  10.650  1.00  0.00    +0.000 C 
ATOM      3  C3  UNL A   1      22.947  18.743  11.795  1.00  0.00    +0.000 C 
ATOM    131  H34 UNL A   1      22.058  18.488  14.509  1.00  0.00    +0.000 H 
ATOM    133  H36 UNL A   1      23.984  14.462  12.529  1.00  0.00    +0.000 H 
ATOM    132  H35 UNL A   1      23.165  14.436  14.823  1.00  0.00    +0.000 H 
ATOM     80  C57 UNL A   1      22.890  17.634  12.765  1.00  0.00    +0.000 C 
ATOM     81  C58 UNL A   1      22.447  17.634  14.082  1.00  0.00    +0.000 C 
ATOM     82  C59 UNL A   1      22.541  16.451  14.810  1.00  0.00    +0.000 C 
ATOM     83  F16 UNL A   1      22.105  16.422  16.076  1.00  0.00    +0.000 F 
ATOM     84  C60 UNL A   1      23.094  15.297  14.257  1.00  0.00    +0.000 C 
ATOM     85  C61 UNL A   1      23.551  15.305  12.939  1.00  0.00    +0.000 C 
ATOM     86  C62 UNL A   1      23.413  16.463  12.184  1.00  0.00    +0.000 C 
ATOM     87  C63 UNL A   1      23.737  16.816  10.788  1.00  0.00    +0.000 C 
BRANCH    2    1
ATOM      1  C1  UNL A   1      23.832  19.014   9.406  1.00  0.00    +0.000 C 
ATOM     98  H1  UNL A   1      24.892  19.145   9.349  1.00  0.00    +0.000 H 
ATOM     99  H2  UNL A   1      23.355  19.972   9.426  1.00  0.00    +0.000 H 
ATOM    100  H3  UNL A   1      23.493  18.465   8.552  1.00  0.00    +0.000 H 
ENDBRANCH    2    1
BRANCH   87   88
ATOM    134  H37 UNL A   1      25.120  16.062   9.491  1.00  0.00    +0.000 H 
ATOM     88  C64 UNL A   1      24.130  16.012   9.779  1.00  0.00    +0.000 C 
BRANCH   88   89
ATOM     97  C71 UNL A   1      21.897  15.337   8.973  1.00  0.00    +0.000 C 
ATOM    135  H38 UNL A   1      24.798  13.736   8.488  1.00  0.00    +0.000 H 
ATOM    136  H39 UNL A   1      23.417  12.483   6.934  1.00  0.00    +0.000 H 
ATOM    141  H44 UNL A   1      20.086  14.792   8.040  1.00  0.00    +0.000 H 
ATOM    142  H45 UNL A   1      21.477  16.083   9.549  1.00  0.00    +0.000 H 
ATOM     89  C65 UNL A   1      23.266  15.074   9.059  1.00  0.00    +0.000 C 
ATOM     90  C66 UNL A   1      23.807  13.992   8.357  1.00  0.00    +0.000 C 
ATOM     91  C67 UNL A   1      23.004  13.257   7.477  1.00  0.00    +0.000 C 
ATOM     92  C68 UNL A   1      21.647  13.564   7.327  1.00  0.00    +0.000 C 
ATOM     96  C70 UNL A   1      21.095  14.588   8.107  1.00  0.00    +0.000 C 
BRANCH   92   93
ATOM     93  S1  UNL A   1      20.695  12.810   5.981  1.00  0.00    +0.000 S 
BRANCH   93   94
ATOM    137  H40 UNL A   1      19.842  10.590   6.240  1.00  0.00    +0.000 H 
ATOM    138  H41 UNL A   1      20.822  11.060   7.607  1.00  0.00    +0.000 H 
ATOM    139  H42 UNL A   1      21.584  10.593   6.106  1.00  0.00    +0.000 H 
ATOM     94  C69 UNL A   1      20.741  11.087   6.540  1.00  0.00    +0.000 C 
ENDBRANCH   93   94
BRANCH   93   95
ATOM    140  H43 UNL A   1      19.120  12.479   7.389  1.00  0.00    +0.000 H 
ATOM     95  O3  UNL A   1      19.256  13.088   6.647  1.00  0.00    +0.000 O 
ENDBRANCH   93   95
ENDBRANCH   92   93
ENDBRANCH   88   89
ENDBRANCH   87   88
ENDBRANCH    4    3
ENDBRANCH    5    4
ENDBRANCH    7    5
ENDBRANCH    8    7
ENDBRANCH    9    8
ENDBRANCH   10    9
ENDBRANCH   11   10
ENDBRANCH   12   11
ENDBRANCH   13   12
ENDBRANCH   14   13
ENDBRANCH   15   14
ENDBRANCH   17   15
ENDBRANCH   21   20
BRANCH   25   26
ATOM     33  C25 UNL A   1      15.205  15.808  10.431  1.00  0.00    +0.000 C 
ATOM     34  F4  UNL A   1      14.885  14.507  10.391  1.00  0.00    +0.000 F 
ATOM     35  C26 UNL A   1      15.624  16.457   9.272  1.00  0.00    +0.000 C 
ATOM     36  F5  UNL A   1      15.706  15.754   8.132  1.00  0.00    +0.000 F 
ATOM     26  C21 UNL A   1      15.936  17.825   9.284  1.00  0.00    +0.000 C 
ATOM     27  C22 UNL A   1      15.828  18.514  10.500  1.00  0.00    +0.000 C 
ATOM     28  F1  UNL A   1      16.126  19.820  10.565  1.00  0.00    +0.000 F 
ATOM     29  C23 UNL A   1      15.432  17.856  11.662  1.00  0.00    +0.000 C 
ATOM     30  F2  UNL A   1      15.363  18.529  12.820  1.00  0.00    +0.000 F 
ATOM     31  C24 UNL A   1      15.112  16.507  11.625  1.00  0.00    +0.000 C 
ATOM     32  F3  UNL A   1      14.717  15.879  12.742  1.00  0.00    +0.000 F 
ENDBRANCH   25   26
BRANCH   42   43
ATOM     43  C32 UNL A   1      12.692  21.943   4.353  1.00  0.00    +0.000 C 
ATOM     44  C33 UNL A   1      12.313  23.210   4.819  1.00  0.00    +0.000 C 
ATOM     45  F6  UNL A   1      13.156  23.931   5.572  1.00  0.00    +0.000 F 
ATOM     46  C34 UNL A   1      11.053  23.728   4.532  1.00  0.00    +0.000 C 
ATOM     47  F7  UNL A   1      10.699  24.927   5.014  1.00  0.00    +0.000 F 
ATOM     48  C35 UNL A   1      10.163  23.002   3.754  1.00  0.00    +0.000 C 
ATOM     49  F8  UNL A   1       8.954  23.508   3.470  1.00  0.00    +0.000 F 
ATOM     50  C36 UNL A   1      10.521  21.752   3.276  1.00  0.00    +0.000 C 
ATOM     51  F9  UNL A   1       9.665  21.054   2.515  1.00  0.00    +0.000 F 
ATOM     52  C37 UNL A   1      11.771  21.220   3.580  1.00  0.00    +0.000 C 
ATOM     53  F10 UNL A   1      12.090  20.006   3.108  1.00  0.00    +0.000 F 
ENDBRANCH   42   43
BRANCH   57   58
ATOM     65  C45 UNL A   1      19.644  24.560  -0.087  1.00  0.00    +0.000 C 
ATOM     66  F14 UNL A   1      20.130  25.803   0.029  1.00  0.00    +0.000 F 
ATOM     67  C46 UNL A   1      19.301  23.840   1.054  1.00  0.00    +0.000 C 
ATOM     68  F15 UNL A   1      19.474  24.409   2.256  1.00  0.00    +0.000 F 
ATOM     58  C41 UNL A   1      18.752  22.552   0.960  1.00  0.00    +0.000 C 
ATOM     59  C42 UNL A   1      18.589  22.002  -0.318  1.00  0.00    +0.000 C 
ATOM     60  F11 UNL A   1      18.088  20.766  -0.457  1.00  0.00    +0.000 F 
ATOM     61  C43 UNL A   1      18.958  22.714  -1.458  1.00  0.00    +0.000 C 
ATOM     62  F12 UNL A   1      18.814  22.157  -2.669  1.00  0.00    +0.000 F 
ATOM     63  C44 UNL A   1      19.476  23.995  -1.342  1.00  0.00    +0.000 C 
ATOM     64  F13 UNL A   1      19.815  24.685  -2.440  1.00  0.00    +0.000 F 
ENDBRANCH   57   58
TORSDOF 22
ENDMDL
MODEL 6
REMARK VINA RESULT:      -8.9     64.910     70.445
ROOT
ATOM     21  C17 UNL A   1      28.917 -14.267  31.383  1.00  0.00    +0.000 C 
ATOM     22  C18 UNL A   1      28.672 -14.345  32.866  1.00  0.00    +0.000 C 
ATOM     23  N3  UNL A   1      27.683 -13.847  33.567  1.00  0.00    +0.000 N 
ATOM     24  C19 UNL A   1      27.927 -14.214  34.883  1.00  0.00    +0.000 C 
ATOM     25  C20 UNL A   1      27.206 -13.911  35.990  1.00  0.00    +0.000 C 
ATOM     37  C27 UNL A   1      26.008 -13.114  35.988  1.00  0.00    +0.000 C 
ATOM     38  C28 UNL A   1      25.213 -12.747  37.062  1.00  0.00    +0.000 C 
ATOM     39  C29 UNL A   1      24.139 -11.996  36.577  1.00  0.00    +0.000 C 
ATOM     40  C30 UNL A   1      24.285 -11.858  35.206  1.00  0.00    +0.000 C 
ATOM     41  N4  UNL A   1      25.432 -12.555  34.857  1.00  0.00    +0.000 N 
ATOM     42  C31 UNL A   1      23.440 -11.146  34.282  1.00  0.00    +0.000 C 
ATOM     54  C38 UNL A   1      23.663 -11.034  32.951  1.00  0.00    +0.000 C 
ATOM     55  N5  UNL A   1      24.703 -11.558  32.196  1.00  0.00    +0.000 N 
ATOM     56  C39 UNL A   1      24.466 -11.198  30.959  1.00  0.00    +0.000 C 
ATOM     57  C40 UNL A   1      25.266 -11.484  29.721  1.00  0.00    +0.000 C 
ATOM     69  C47 UNL A   1      26.362 -12.262  29.812  1.00  0.00    +0.000 C 
ATOM     70  C48 UNL A   1      27.229 -12.628  28.696  1.00  0.00    +0.000 C 
ATOM     71  C49 UNL A   1      28.202 -13.434  29.146  1.00  0.00    +0.000 C 
ATOM     72  C50 UNL A   1      28.061 -13.591  30.594  1.00  0.00    +0.000 C 
ATOM     73  N6  UNL A   1      26.924 -12.887  30.897  1.00  0.00    +0.000 N 
ATOM     74  C51 UNL A   1      23.238 -10.411  30.785  1.00  0.00    +0.000 C 
ATOM     75  C52 UNL A   1      22.803 -10.314  32.035  1.00  0.00    +0.000 C 
ATOM     76  C53 UNL A   1      29.141 -15.000  34.885  1.00  0.00    +0.000 C 
ATOM     77  C54 UNL A   1      29.665 -15.075  33.670  1.00  0.00    +0.000 C 
ATOM    119  H22 UNL A   1      25.386 -12.988  38.051  1.00  0.00    +0.000 H 
ATOM    120  H23 UNL A   1      23.368 -11.610  37.143  1.00  0.00    +0.000 H 
ATOM    121  H24 UNL A   1      25.786 -12.639  33.942  1.00  0.00    +0.000 H 
ATOM    122  H25 UNL A   1      27.111 -12.318  27.719  1.00  0.00    +0.000 H 
ATOM    123  H26 UNL A   1      28.933 -13.871  28.564  1.00  0.00    +0.000 H 
ATOM    124  H27 UNL A   1      26.546 -12.836  31.805  1.00  0.00    +0.000 H 
ATOM    125  H28 UNL A   1      22.823 -10.032  29.920  1.00  0.00    +0.000 H 
ATOM    126  H29 UNL A   1      21.958  -9.792  32.318  1.00  0.00    +0.000 H 
ATOM    127  H30 UNL A   1      29.548 -15.442  35.724  1.00  0.00    +0.000 H 
ATOM    128  H31 UNL A   1      30.541 -15.528  33.366  1.00  0.00    +0.000 H 
ENDROOT
BRANCH   21   20
ATOM    129  H32 UNL A   1      31.526 -13.553  31.669  1.00  0.00    +0.000 H 
ATOM    130  H33 UNL A   1      33.457 -14.462  30.508  1.00  0.00    +0.000 H 
ATOM     78  C55 UNL A   1      31.409 -14.342  31.014  1.00  0.00    +0.000 C 
ATOM     79  C56 UNL A   1      32.523 -14.876  30.360  1.00  0.00    +0.000 C 
ATOM     17  C13 UNL A   1      32.369 -15.973  29.507  1.00  0.00    +0.000 C 
ATOM     18  C14 UNL A   1      31.121 -16.585  29.370  1.00  0.00    +0.000 C 
ATOM     19  C15 UNL A   1      30.002 -16.006  29.958  1.00  0.00    +0.000 C 
ATOM     20  C16 UNL A   1      30.131 -14.874  30.781  1.00  0.00    +0.000 C 
ATOM    117  H20 UNL A   1      31.030 -17.461  28.834  1.00  0.00    +0.000 H 
ATOM    118  H21 UNL A   1      29.067 -16.410  29.789  1.00  0.00    +0.000 H 
BRANCH   17   15
ATOM     15  C12 UNL A   1      33.536 -16.460  28.741  1.00  0.00    +0.000 C 
ATOM     16  O2  UNL A   1      34.311 -17.261  29.252  1.00  0.00    +0.000 O 
BRANCH   15   14
ATOM    116  H19 UNL A   1      33.928 -16.672  26.785  1.00  0.00    +0.000 H 
ATOM     14  N2  UNL A   1      33.760 -15.985  27.470  1.00  0.00    +0.000 N 
BRANCH   14   13
ATOM    114  H17 UNL A   1      33.885 -13.958  27.837  1.00  0.00    +0.000 H 
ATOM    115  H18 UNL A   1      34.607 -14.514  26.320  1.00  0.00    +0.000 H 
ATOM     13  C11 UNL A   1      33.783 -14.610  26.995  1.00  0.00    +0.000 C 
BRANCH   13   12
ATOM    113  H16 UNL A   1      32.102 -15.148  25.867  1.00  0.00    +0.000 H 
ATOM     12  C10 UNL A   1      32.517 -14.233  26.236  1.00  0.00    +0.000 C 
ATOM    112  H15 UNL A   1      32.787 -13.549  25.457  1.00  0.00    +0.000 H 
BRANCH   12   11
ATOM     11  C9  UNL A   1      31.430 -13.579  27.089  1.00  0.00    +0.000 C 
ATOM    110  H13 UNL A   1      30.623 -13.302  26.441  1.00  0.00    +0.000 H 
ATOM    111  H14 UNL A   1      31.157 -14.304  27.827  1.00  0.00    +0.000 H 
BRANCH   11   10
ATOM     10  C8  UNL A   1      31.866 -12.329  27.863  1.00  0.00    +0.000 C 
ATOM    108  H11 UNL A   1      32.392 -12.650  28.737  1.00  0.00    +0.000 H 
ATOM    109  H12 UNL A   1      32.463 -11.757  27.185  1.00  0.00    +0.000 H 
BRANCH   10    9
ATOM      9  C7  UNL A   1      30.730 -11.399  28.311  1.00  0.00    +0.000 C 
ATOM    106  H9  UNL A   1      30.804 -10.487  27.757  1.00  0.00    +0.000 H 
ATOM    107  H10 UNL A   1      29.814 -11.921  28.127  1.00  0.00    +0.000 H 
BRANCH    9    8
ATOM    105  H8  UNL A   1      30.957 -11.955  30.348  1.00  0.00    +0.000 H 
ATOM    104  H7  UNL A   1      29.800 -10.652  30.079  1.00  0.00    +0.000 H 
ATOM      8  C6  UNL A   1      30.750 -11.058  29.802  1.00  0.00    +0.000 C 
BRANCH    8    7
ATOM    103  H6  UNL A   1      32.704 -10.435  30.107  1.00  0.00    +0.000 H 
ATOM      7  N1  UNL A   1      31.783 -10.092  30.113  1.00  0.00    +0.000 N 
BRANCH    7    5
ATOM      5  C5  UNL A   1      31.646  -8.769  30.414  1.00  0.00    +0.000 C 
ATOM      6  O1  UNL A   1      31.181  -8.468  31.515  1.00  0.00    +0.000 O 
BRANCH    5    4
ATOM      4  C4  UNL A   1      32.002  -7.699  29.384  1.00  0.00    +0.000 C 
ATOM    101  H4  UNL A   1      31.513  -6.789  29.664  1.00  0.00    +0.000 H 
ATOM    102  H5  UNL A   1      33.069  -7.619  29.384  1.00  0.00    +0.000 H 
BRANCH    4    3
ATOM      2  C2  UNL A   1      30.457  -7.729  27.322  1.00  0.00    +0.000 C 
ATOM      3  C3  UNL A   1      31.602  -8.029  27.981  1.00  0.00    +0.000 C 
ATOM    131  H34 UNL A   1      34.246  -9.127  28.147  1.00  0.00    +0.000 H 
ATOM    133  H36 UNL A   1      32.105  -9.421  23.769  1.00  0.00    +0.000 H 
ATOM    132  H35 UNL A   1      34.349 -10.308  24.105  1.00  0.00    +0.000 H 
ATOM     80  C57 UNL A   1      32.493  -8.727  27.037  1.00  0.00    +0.000 C 
ATOM     81  C58 UNL A   1      33.784  -9.206  27.229  1.00  0.00    +0.000 C 
ATOM     82  C59 UNL A   1      34.436  -9.795  26.150  1.00  0.00    +0.000 C 
ATOM     83  F16 UNL A   1      35.674 -10.279  26.314  1.00  0.00    +0.000 F 
ATOM     84  C60 UNL A   1      33.838  -9.879  24.893  1.00  0.00    +0.000 C 
ATOM     85  C61 UNL A   1      32.547  -9.385  24.701  1.00  0.00    +0.000 C 
ATOM     86  C62 UNL A   1      31.864  -8.843  25.783  1.00  0.00    +0.000 C 
ATOM     87  C63 UNL A   1      30.513  -8.277  25.956  1.00  0.00    +0.000 C 
BRANCH    2    1
ATOM      1  C1  UNL A   1      29.284  -6.952  27.822  1.00  0.00    +0.000 C 
ATOM     98  H1  UNL A   1      28.895  -7.420  28.702  1.00  0.00    +0.000 H 
ATOM     99  H2  UNL A   1      28.525  -6.926  27.068  1.00  0.00    +0.000 H 
ATOM    100  H3  UNL A   1      29.590  -5.953  28.054  1.00  0.00    +0.000 H 
ENDBRANCH    2    1
BRANCH   87   88
ATOM    134  H37 UNL A   1      29.357  -7.454  24.490  1.00  0.00    +0.000 H 
ATOM     88  C64 UNL A   1      29.474  -8.281  25.096  1.00  0.00    +0.000 C 
BRANCH   88   89
ATOM     97  C71 UNL A   1      27.607  -9.342  23.877  1.00  0.00    +0.000 C 
ATOM    135  H38 UNL A   1      29.116 -10.461  26.649  1.00  0.00    +0.000 H 
ATOM    136  H39 UNL A   1      27.815 -12.437  26.111  1.00  0.00    +0.000 H 
ATOM    141  H44 UNL A   1      26.178 -10.449  22.791  1.00  0.00    +0.000 H 
ATOM    142  H45 UNL A   1      27.523  -8.495  23.294  1.00  0.00    +0.000 H 
ATOM     89  C65 UNL A   1      28.498  -9.364  24.952  1.00  0.00    +0.000 C 
ATOM     90  C66 UNL A   1      28.528 -10.475  25.802  1.00  0.00    +0.000 C 
ATOM     91  C67 UNL A   1      27.761 -11.606  25.501  1.00  0.00    +0.000 C 
ATOM     92  C68 UNL A   1      26.923 -11.620  24.380  1.00  0.00    +0.000 C 
ATOM     96  C70 UNL A   1      26.829 -10.467  23.592  1.00  0.00    +0.000 C 
BRANCH   92   93
ATOM     93  S1  UNL A   1      26.168 -13.177  23.838  1.00  0.00    +0.000 S 
BRANCH   93   94
ATOM    137  H40 UNL A   1      24.728 -14.308  25.378  1.00  0.00    +0.000 H 
ATOM    138  H41 UNL A   1      25.621 -13.026  26.162  1.00  0.00    +0.000 H 
ATOM    139  H42 UNL A   1      26.411 -14.540  25.789  1.00  0.00    +0.000 H 
ATOM     94  C69 UNL A   1      25.683 -13.830  25.457  1.00  0.00    +0.000 C 
ENDBRANCH   93   94
BRANCH   93   95
ATOM    140  H43 UNL A   1      24.609 -11.733  24.074  1.00  0.00    +0.000 H 
ATOM     95  O3  UNL A   1      24.716 -12.543  23.551  1.00  0.00    +0.000 O 
ENDBRANCH   93   95
ENDBRANCH   92   93
ENDBRANCH   88   89
ENDBRANCH   87   88
ENDBRANCH    4    3
ENDBRANCH    5    4
ENDBRANCH    7    5
ENDBRANCH    8    7
ENDBRANCH    9    8
ENDBRANCH   10    9
ENDBRANCH   11   10
ENDBRANCH   12   11
ENDBRANCH   13   12
ENDBRANCH   14   13
ENDBRANCH   15   14
ENDBRANCH   17   15
ENDBRANCH   21   20
BRANCH   25   26
ATOM     33  C25 UNL A   1      27.469 -16.027  39.142  1.00  0.00    +0.000 C 
ATOM     34  F4  UNL A   1      26.859 -17.089  39.685  1.00  0.00    +0.000 F 
ATOM     35  C26 UNL A   1      27.086 -15.572  37.882  1.00  0.00    +0.000 C 
ATOM     36  F5  UNL A   1      26.110 -16.223  37.231  1.00  0.00    +0.000 F 
ATOM     26  C21 UNL A   1      27.690 -14.444  37.306  1.00  0.00    +0.000 C 
ATOM     27  C22 UNL A   1      28.701 -13.798  38.032  1.00  0.00    +0.000 C 
ATOM     28  F1  UNL A   1      29.317 -12.722  37.519  1.00  0.00    +0.000 F 
ATOM     29  C23 UNL A   1      29.098 -14.269  39.281  1.00  0.00    +0.000 C 
ATOM     30  F2  UNL A   1      30.087 -13.652  39.944  1.00  0.00    +0.000 F 
ATOM     31  C24 UNL A   1      28.477 -15.377  39.839  1.00  0.00    +0.000 C 
ATOM     32  F3  UNL A   1      28.851 -15.819  41.047  1.00  0.00    +0.000 F 
ENDBRANCH   25   26
BRANCH   42   43
ATOM     43  C32 UNL A   1      22.225 -10.466  34.837  1.00  0.00    +0.000 C 
ATOM     44  C33 UNL A   1      22.272  -9.138  35.282  1.00  0.00    +0.000 C 
ATOM     45  F6  UNL A   1      23.434  -8.468  35.286  1.00  0.00    +0.000 F 
ATOM     46  C34 UNL A   1      21.126  -8.501  35.751  1.00  0.00    +0.000 C 
ATOM     47  F7  UNL A   1      21.200  -7.242  36.203  1.00  0.00    +0.000 F 
ATOM     48  C35 UNL A   1      19.911  -9.171  35.758  1.00  0.00    +0.000 C 
ATOM     49  F8  UNL A   1      18.807  -8.552  36.199  1.00  0.00    +0.000 F 
ATOM     50  C36 UNL A   1      19.841 -10.482  35.313  1.00  0.00    +0.000 C 
ATOM     51  F9  UNL A   1      18.665 -11.126  35.308  1.00  0.00    +0.000 F 
ATOM     52  C37 UNL A   1      20.989 -11.130  34.866  1.00  0.00    +0.000 C 
ATOM     53  F10 UNL A   1      20.893 -12.399  34.444  1.00  0.00    +0.000 F 
ENDBRANCH   42   43
BRANCH   57   58
ATOM     65  C45 UNL A   1      25.111  -9.221  26.678  1.00  0.00    +0.000 C 
ATOM     66  F14 UNL A   1      25.716  -8.117  26.217  1.00  0.00    +0.000 F 
ATOM     67  C46 UNL A   1      25.522  -9.787  27.881  1.00  0.00    +0.000 C 
ATOM     68  F15 UNL A   1      26.530  -9.215  28.555  1.00  0.00    +0.000 F 
ATOM     58  C41 UNL A   1      24.879 -10.918  28.406  1.00  0.00    +0.000 C 
ATOM     59  C42 UNL A   1      23.829 -11.477  27.665  1.00  0.00    +0.000 C 
ATOM     60  F11 UNL A   1      23.198 -12.571  28.117  1.00  0.00    +0.000 F 
ATOM     61  C43 UNL A   1      23.436 -10.924  26.447  1.00  0.00    +0.000 C 
ATOM     62  F12 UNL A   1      22.445 -11.491  25.746  1.00  0.00    +0.000 F 
ATOM     63  C44 UNL A   1      24.070  -9.791  25.960  1.00  0.00    +0.000 C 
ATOM     64  F13 UNL A   1      23.681  -9.251  24.797  1.00  0.00    +0.000 F 
ENDBRANCH   57   58
TORSDOF 22
ENDMDL
MODEL 7
REMARK VINA RESULT:      -8.8     61.570     67.075
ROOT
ATOM     21  C17 UNL A   1      46.500  11.441  47.177  1.00  0.00    +0.000 C 
ATOM     22  C18 UNL A   1      47.356  12.678  47.207  1.00  0.00    +0.000 C 
ATOM     23  N3  UNL A   1      48.281  13.022  48.069  1.00  0.00    +0.000 N 
ATOM     24  C19 UNL A   1      48.772  14.245  47.633  1.00  0.00    +0.000 C 
ATOM     25  C20 UNL A   1      49.720  15.026  48.206  1.00  0.00    +0.000 C 
ATOM     37  C27 UNL A   1      50.410  14.703  49.428  1.00  0.00    +0.000 C 
ATOM     38  C28 UNL A   1      51.381  15.437  50.089  1.00  0.00    +0.000 C 
ATOM     39  C29 UNL A   1      51.783  14.716  51.218  1.00  0.00    +0.000 C 
ATOM     40  C30 UNL A   1      51.033  13.553  51.284  1.00  0.00    +0.000 C 
ATOM     41  N4  UNL A   1      50.200  13.555  50.175  1.00  0.00    +0.000 N 
ATOM     42  C31 UNL A   1      51.076  12.515  52.281  1.00  0.00    +0.000 C 
ATOM     54  C38 UNL A   1      50.289  11.413  52.292  1.00  0.00    +0.000 C 
ATOM     55  N5  UNL A   1      49.308  11.036  51.386  1.00  0.00    +0.000 N 
ATOM     56  C39 UNL A   1      48.849   9.885  51.811  1.00  0.00    +0.000 C 
ATOM     57  C40 UNL A   1      47.773   9.020  51.221  1.00  0.00    +0.000 C 
ATOM     69  C47 UNL A   1      47.198   9.386  50.060  1.00  0.00    +0.000 C 
ATOM     70  C48 UNL A   1      46.149   8.643  49.369  1.00  0.00    +0.000 C 
ATOM     71  C49 UNL A   1      45.836   9.283  48.233  1.00  0.00    +0.000 C 
ATOM     72  C50 UNL A   1      46.621  10.515  48.147  1.00  0.00    +0.000 C 
ATOM     73  N6  UNL A   1      47.425  10.477  49.258  1.00  0.00    +0.000 N 
ATOM     74  C51 UNL A   1      49.495   9.394  53.036  1.00  0.00    +0.000 C 
ATOM     75  C52 UNL A   1      50.345  10.378  53.303  1.00  0.00    +0.000 C 
ATOM     76  C53 UNL A   1      48.064  14.576  46.416  1.00  0.00    +0.000 C 
ATOM     77  C54 UNL A   1      47.148  13.661  46.132  1.00  0.00    +0.000 C 
ATOM    119  H22 UNL A   1      51.746  16.358  49.798  1.00  0.00    +0.000 H 
ATOM    120  H23 UNL A   1      52.514  15.002  51.888  1.00  0.00    +0.000 H 
ATOM    121  H24 UNL A   1      49.555  12.846  49.953  1.00  0.00    +0.000 H 
ATOM    122  H25 UNL A   1      45.718   7.766  49.701  1.00  0.00    +0.000 H 
ATOM    123  H26 UNL A   1      45.151   8.959  47.533  1.00  0.00    +0.000 H 
ATOM    124  H27 UNL A   1      48.100  11.164  49.460  1.00  0.00    +0.000 H 
ATOM    125  H28 UNL A   1      49.331   8.516  53.553  1.00  0.00    +0.000 H 
ATOM    126  H29 UNL A   1      50.966  10.402  54.128  1.00  0.00    +0.000 H 
ATOM    127  H30 UNL A   1      48.247  15.415  45.845  1.00  0.00    +0.000 H 
ATOM    128  H31 UNL A   1      46.466  13.642  45.357  1.00  0.00    +0.000 H 
ENDROOT
BRANCH   21   20
ATOM    129  H32 UNL A   1      43.895  12.223  47.151  1.00  0.00    +0.000 H 
ATOM    130  H33 UNL A   1      42.204  11.723  45.480  1.00  0.00    +0.000 H 
ATOM     78  C55 UNL A   1      44.151  11.697  46.302  1.00  0.00    +0.000 C 
ATOM     79  C56 UNL A   1      43.181  11.426  45.332  1.00  0.00    +0.000 C 
ATOM     17  C13 UNL A   1      43.539  10.751  44.161  1.00  0.00    +0.000 C 
ATOM     18  C14 UNL A   1      44.874  10.420  43.922  1.00  0.00    +0.000 C 
ATOM     19  C15 UNL A   1      45.822  10.620  44.920  1.00  0.00    +0.000 C 
ATOM     20  C16 UNL A   1      45.471  11.255  46.124  1.00  0.00    +0.000 C 
ATOM    117  H20 UNL A   1      45.156  10.028  43.011  1.00  0.00    +0.000 H 
ATOM    118  H21 UNL A   1      46.794  10.300  44.775  1.00  0.00    +0.000 H 
BRANCH   17   15
ATOM     15  C12 UNL A   1      42.484  10.377  43.194  1.00  0.00    +0.000 C 
ATOM     16  O2  UNL A   1      42.673   9.452  42.411  1.00  0.00    +0.000 O 
BRANCH   15   14
ATOM    116  H19 UNL A   1      40.601  10.769  43.765  1.00  0.00    +0.000 H 
ATOM     14  N2  UNL A   1      41.309  11.091  43.161  1.00  0.00    +0.000 N 
BRANCH   14   13
ATOM    114  H17 UNL A   1      41.517  12.216  41.444  1.00  0.00    +0.000 H 
ATOM    115  H18 UNL A   1      39.911  12.230  42.185  1.00  0.00    +0.000 H 
ATOM     13  C11 UNL A   1      40.966  12.256  42.359  1.00  0.00    +0.000 C 
BRANCH   13   12
ATOM    113  H16 UNL A   1      42.147  13.380  43.674  1.00  0.00    +0.000 H 
ATOM     12  C10 UNL A   1      41.286  13.567  43.067  1.00  0.00    +0.000 C 
ATOM    112  H15 UNL A   1      40.426  13.858  43.633  1.00  0.00    +0.000 H 
BRANCH   12   11
ATOM     11  C9  UNL A   1      41.658  14.722  42.136  1.00  0.00    +0.000 C 
ATOM    110  H13 UNL A   1      40.910  15.482  42.237  1.00  0.00    +0.000 H 
ATOM    111  H14 UNL A   1      42.635  15.040  42.435  1.00  0.00    +0.000 H 
BRANCH   11   10
ATOM     10  C8  UNL A   1      41.767  14.359  40.650  1.00  0.00    +0.000 C 
ATOM    108  H11 UNL A   1      42.024  13.322  40.583  1.00  0.00    +0.000 H 
ATOM    109  H12 UNL A   1      40.817  14.598  40.220  1.00  0.00    +0.000 H 
BRANCH   10    9
ATOM      9  C7  UNL A   1      42.806  15.156  39.849  1.00  0.00    +0.000 C 
ATOM    106  H9  UNL A   1      43.637  14.515  39.646  1.00  0.00    +0.000 H 
ATOM    107  H10 UNL A   1      42.315  15.493  38.959  1.00  0.00    +0.000 H 
BRANCH    9    8
ATOM    105  H8  UNL A   1      42.932  16.408  41.560  1.00  0.00    +0.000 H 
ATOM    104  H7  UNL A   1      43.008  17.272  40.025  1.00  0.00    +0.000 H 
ATOM      8  C6  UNL A   1      43.325  16.405  40.564  1.00  0.00    +0.000 C 
BRANCH    8    7
ATOM    103  H6  UNL A   1      45.227  15.685  40.162  1.00  0.00    +0.000 H 
ATOM      7  N1  UNL A   1      44.770  16.407  40.649  1.00  0.00    +0.000 N 
BRANCH    7    5
ATOM      5  C5  UNL A   1      45.581  17.277  41.315  1.00  0.00    +0.000 C 
ATOM      6  O1  UNL A   1      45.667  18.432  40.892  1.00  0.00    +0.000 O 
BRANCH    5    4
ATOM      4  C4  UNL A   1      46.406  16.808  42.511  1.00  0.00    +0.000 C 
ATOM    101  H4  UNL A   1      46.798  15.837  42.287  1.00  0.00    +0.000 H 
ATOM    102  H5  UNL A   1      47.168  17.543  42.663  1.00  0.00    +0.000 H 
BRANCH    4    3
ATOM      2  C2  UNL A   1      44.947  15.673  44.307  1.00  0.00    +0.000 C 
ATOM      3  C3  UNL A   1      45.643  16.716  43.794  1.00  0.00    +0.000 C 
ATOM    131  H34 UNL A   1      46.718  19.373  43.900  1.00  0.00    +0.000 H 
ATOM    133  H36 UNL A   1      44.242  17.936  47.855  1.00  0.00    +0.000 H 
ATOM    132  H35 UNL A   1      45.222  20.164  47.756  1.00  0.00    +0.000 H 
ATOM     80  C57 UNL A   1      45.593  17.815  44.777  1.00  0.00    +0.000 C 
ATOM     81  C58 UNL A   1      46.178  19.074  44.725  1.00  0.00    +0.000 C 
ATOM     82  C59 UNL A   1      46.015  19.922  45.817  1.00  0.00    +0.000 C 
ATOM     83  F16 UNL A   1      46.556  21.147  45.784  1.00  0.00    +0.000 F 
ATOM     84  C60 UNL A   1      45.316  19.521  46.954  1.00  0.00    +0.000 C 
ATOM     85  C61 UNL A   1      44.741  18.250  47.007  1.00  0.00    +0.000 C 
ATOM     86  C62 UNL A   1      44.850  17.414  45.903  1.00  0.00    +0.000 C 
ATOM     87  C63 UNL A   1      44.351  16.060  45.596  1.00  0.00    +0.000 C 
BRANCH    2    1
ATOM      1  C1  UNL A   1      44.778  14.306  43.728  1.00  0.00    +0.000 C 
ATOM     98  H1  UNL A   1      43.817  13.921  43.997  1.00  0.00    +0.000 H 
ATOM     99  H2  UNL A   1      45.540  13.660  44.111  1.00  0.00    +0.000 H 
ATOM    100  H3  UNL A   1      44.857  14.358  42.662  1.00  0.00    +0.000 H 
ENDBRANCH    2    1
BRANCH   87   88
ATOM    134  H37 UNL A   1      42.638  14.968  45.789  1.00  0.00    +0.000 H 
ATOM     88  C64 UNL A   1      43.477  15.300  46.289  1.00  0.00    +0.000 C 
BRANCH   88   89
ATOM     97  C71 UNL A   1      42.540  14.330  48.357  1.00  0.00    +0.000 C 
ATOM    135  H38 UNL A   1      45.641  15.506  47.892  1.00  0.00    +0.000 H 
ATOM    136  H39 UNL A   1      45.970  14.430  50.042  1.00  0.00    +0.000 H 
ATOM    141  H44 UNL A   1      41.920  13.312  50.096  1.00  0.00    +0.000 H 
ATOM    142  H45 UNL A   1      41.605  14.334  47.920  1.00  0.00    +0.000 H 
ATOM     89  C65 UNL A   1      43.623  14.910  47.693  1.00  0.00    +0.000 C 
ATOM     90  C66 UNL A   1      44.862  14.997  48.337  1.00  0.00    +0.000 C 
ATOM     91  C67 UNL A   1      45.044  14.395  49.587  1.00  0.00    +0.000 C 
ATOM     92  C68 UNL A   1      43.982  13.743  50.225  1.00  0.00    +0.000 C 
ATOM     96  C70 UNL A   1      42.722  13.746  49.613  1.00  0.00    +0.000 C 
BRANCH   92   93
ATOM     93  S1  UNL A   1      44.298  12.721  51.688  1.00  0.00    +0.000 S 
BRANCH   93   94
ATOM    137  H40 UNL A   1      43.532  10.455  51.747  1.00  0.00    +0.000 H 
ATOM    138  H41 UNL A   1      44.805  10.668  50.570  1.00  0.00    +0.000 H 
ATOM    139  H42 UNL A   1      43.183  11.207  50.209  1.00  0.00    +0.000 H 
ATOM     94  C69 UNL A   1      43.915  11.098  50.981  1.00  0.00    +0.000 C 
ENDBRANCH   93   94
BRANCH   93   95
ATOM    140  H43 UNL A   1      46.160  11.671  51.652  1.00  0.00    +0.000 H 
ATOM     95  O3  UNL A   1      45.878  12.571  51.423  1.00  0.00    +0.000 O 
ENDBRANCH   93   95
ENDBRANCH   92   93
ENDBRANCH   88   89
ENDBRANCH   87   88
ENDBRANCH    4    3
ENDBRANCH    5    4
ENDBRANCH    7    5
ENDBRANCH    8    7
ENDBRANCH    9    8
ENDBRANCH   10    9
ENDBRANCH   11   10
ENDBRANCH   12   11
ENDBRANCH   13   12
ENDBRANCH   14   13
ENDBRANCH   15   14
ENDBRANCH   17   15
ENDBRANCH   21   20
BRANCH   25   26
ATOM     33  C25 UNL A   1      49.565  18.640  47.023  1.00  0.00    +0.000 C 
ATOM     34  F4  UNL A   1      48.792  19.718  47.208  1.00  0.00    +0.000 F 
ATOM     35  C26 UNL A   1      49.297  17.463  47.719  1.00  0.00    +0.000 C 
ATOM     36  F5  UNL A   1      48.262  17.441  48.574  1.00  0.00    +0.000 F 
ATOM     26  C21 UNL A   1      50.075  16.312  47.520  1.00  0.00    +0.000 C 
ATOM     27  C22 UNL A   1      51.139  16.388  46.611  1.00  0.00    +0.000 C 
ATOM     28  F1  UNL A   1      51.920  15.318  46.395  1.00  0.00    +0.000 F 
ATOM     29  C23 UNL A   1      51.421  17.573  45.935  1.00  0.00    +0.000 C 
ATOM     30  F2  UNL A   1      52.461  17.630  45.093  1.00  0.00    +0.000 F 
ATOM     31  C24 UNL A   1      50.629  18.694  46.135  1.00  0.00    +0.000 C 
ATOM     32  F3  UNL A   1      50.892  19.829  45.472  1.00  0.00    +0.000 F 
ENDBRANCH   25   26
BRANCH   42   43
ATOM     43  C32 UNL A   1      52.059  12.671  53.403  1.00  0.00    +0.000 C 
ATOM     44  C33 UNL A   1      51.692  13.272  54.615  1.00  0.00    +0.000 C 
ATOM     45  F6  UNL A   1      50.464  13.787  54.768  1.00  0.00    +0.000 F 
ATOM     46  C34 UNL A   1      52.600  13.369  55.666  1.00  0.00    +0.000 C 
ATOM     47  F7  UNL A   1      52.240  13.976  56.805  1.00  0.00    +0.000 F 
ATOM     48  C35 UNL A   1      53.877  12.844  55.534  1.00  0.00    +0.000 C 
ATOM     49  F8  UNL A   1      54.746  12.927  56.552  1.00  0.00    +0.000 F 
ATOM     50  C36 UNL A   1      54.256  12.237  54.347  1.00  0.00    +0.000 C 
ATOM     51  F9  UNL A   1      55.487  11.719  54.221  1.00  0.00    +0.000 F 
ATOM     52  C37 UNL A   1      53.360  12.160  53.285  1.00  0.00    +0.000 C 
ATOM     53  F10 UNL A   1      53.754  11.571  52.146  1.00  0.00    +0.000 F 
ENDBRANCH   42   43
BRANCH   57   58
ATOM     65  C45 UNL A   1      45.856   6.622  53.454  1.00  0.00    +0.000 C 
ATOM     66  F14 UNL A   1      44.829   6.657  54.313  1.00  0.00    +0.000 F 
ATOM     67  C46 UNL A   1      46.230   7.776  52.772  1.00  0.00    +0.000 C 
ATOM     68  F15 UNL A   1      45.541   8.906  52.984  1.00  0.00    +0.000 F 
ATOM     58  C41 UNL A   1      47.327   7.776  51.898  1.00  0.00    +0.000 C 
ATOM     59  C42 UNL A   1      48.017   6.571  51.711  1.00  0.00    +0.000 C 
ATOM     60  F11 UNL A   1      49.059   6.519  50.869  1.00  0.00    +0.000 F 
ATOM     61  C43 UNL A   1      47.624   5.410  52.375  1.00  0.00    +0.000 C 
ATOM     62  F12 UNL A   1      48.285   4.264  52.161  1.00  0.00    +0.000 F 
ATOM     63  C44 UNL A   1      46.552   5.439  53.253  1.00  0.00    +0.000 C 
ATOM     64  F13 UNL A   1      46.186   4.326  53.903  1.00  0.00    +0.000 F 
ENDBRANCH   57   58
TORSDOF 22
ENDMDL
MODEL 8
REMARK VINA RESULT:      -8.8      2.821      7.966
ROOT
ATOM     21  C17 UNL A   1      14.618  49.979   4.290  1.00  0.00    +0.000 C 
ATOM     22  C18 UNL A   1      15.192  49.590   2.955  1.00  0.00    +0.000 C 
ATOM     23  N3  UNL A   1      15.752  50.348   2.045  1.00  0.00    +0.000 N 
ATOM     24  C19 UNL A   1      16.120  49.495   1.013  1.00  0.00    +0.000 C 
ATOM     25  C20 UNL A   1      16.705  49.804  -0.169  1.00  0.00    +0.000 C 
ATOM     37  C27 UNL A   1      17.061  51.139  -0.576  1.00  0.00    +0.000 C 
ATOM     38  C28 UNL A   1      17.651  51.551  -1.760  1.00  0.00    +0.000 C 
ATOM     39  C29 UNL A   1      17.833  52.936  -1.700  1.00  0.00    +0.000 C 
ATOM     40  C30 UNL A   1      17.318  53.393  -0.498  1.00  0.00    +0.000 C 
ATOM     41  N4  UNL A   1      16.854  52.279   0.184  1.00  0.00    +0.000 N 
ATOM     42  C31 UNL A   1      17.257  54.745  -0.006  1.00  0.00    +0.000 C 
ATOM     54  C38 UNL A   1      16.712  55.120   1.175  1.00  0.00    +0.000 C 
ATOM     55  N5  UNL A   1      16.119  54.330   2.149  1.00  0.00    +0.000 N 
ATOM     56  C39 UNL A   1      15.771  55.146   3.113  1.00  0.00    +0.000 C 
ATOM     57  C40 UNL A   1      15.085  54.838   4.412  1.00  0.00    +0.000 C 
ATOM     69  C47 UNL A   1      14.812  53.556   4.724  1.00  0.00    +0.000 C 
ATOM     70  C48 UNL A   1      14.159  53.108   5.950  1.00  0.00    +0.000 C 
ATOM     71  C49 UNL A   1      14.077  51.770   5.937  1.00  0.00    +0.000 C 
ATOM     72  C50 UNL A   1      14.619  51.271   4.674  1.00  0.00    +0.000 C 
ATOM     73  N6  UNL A   1      15.061  52.398   4.030  1.00  0.00    +0.000 N 
ATOM     74  C51 UNL A   1      16.113  56.553   2.864  1.00  0.00    +0.000 C 
ATOM     75  C52 UNL A   1      16.659  56.486   1.656  1.00  0.00    +0.000 C 
ATOM     76  C53 UNL A   1      15.745  48.157   1.417  1.00  0.00    +0.000 C 
ATOM     77  C54 UNL A   1      15.130  48.166   2.590  1.00  0.00    +0.000 C 
ATOM    119  H22 UNL A   1      17.913  50.940  -2.550  1.00  0.00    +0.000 H 
ATOM    120  H23 UNL A   1      18.276  53.518  -2.427  1.00  0.00    +0.000 H 
ATOM    121  H24 UNL A   1      16.438  52.296   1.077  1.00  0.00    +0.000 H 
ATOM    122  H25 UNL A   1      13.816  53.723   6.705  1.00  0.00    +0.000 H 
ATOM    123  H26 UNL A   1      13.693  51.187   6.697  1.00  0.00    +0.000 H 
ATOM    124  H27 UNL A   1      15.515  52.379   3.156  1.00  0.00    +0.000 H 
ATOM    125  H28 UNL A   1      15.968  57.377   3.468  1.00  0.00    +0.000 H 
ATOM    126  H29 UNL A   1      17.001  57.303   1.126  1.00  0.00    +0.000 H 
ATOM    127  H30 UNL A   1      15.931  47.307   0.862  1.00  0.00    +0.000 H 
ATOM    128  H31 UNL A   1      14.715  47.379   3.114  1.00  0.00    +0.000 H 
ENDROOT
BRANCH   21   20
ATOM    129  H32 UNL A   1      15.727  48.489   6.277  1.00  0.00    +0.000 H 
ATOM    130  H33 UNL A   1      14.691  46.703   7.558  1.00  0.00    +0.000 H 
ATOM     78  C55 UNL A   1      14.733  48.258   6.128  1.00  0.00    +0.000 C 
ATOM     79  C56 UNL A   1      14.132  47.243   6.879  1.00  0.00    +0.000 C 
ATOM     17  C13 UNL A   1      12.774  46.962   6.706  1.00  0.00    +0.000 C 
ATOM     18  C14 UNL A   1      11.999  47.744   5.847  1.00  0.00    +0.000 C 
ATOM     19  C15 UNL A   1      12.612  48.700   5.045  1.00  0.00    +0.000 C 
ATOM     20  C16 UNL A   1      13.987  48.964   5.171  1.00  0.00    +0.000 C 
ATOM    117  H20 UNL A   1      10.977  47.613   5.808  1.00  0.00    +0.000 H 
ATOM    118  H21 UNL A   1      12.053  49.222   4.351  1.00  0.00    +0.000 H 
BRANCH   17   15
ATOM     15  C12 UNL A   1      12.178  45.817   7.428  1.00  0.00    +0.000 C 
ATOM     16  O2  UNL A   1      11.769  44.845   6.801  1.00  0.00    +0.000 O 
BRANCH   15   14
ATOM    116  H19 UNL A   1      12.382  45.068   9.278  1.00  0.00    +0.000 H 
ATOM     14  N2  UNL A   1      12.059  45.864   8.797  1.00  0.00    +0.000 N 
BRANCH   14   13
ATOM    114  H17 UNL A   1      10.831  47.503   9.058  1.00  0.00    +0.000 H 
ATOM    115  H18 UNL A   1      11.048  46.467  10.476  1.00  0.00    +0.000 H 
ATOM     13  C11 UNL A   1      11.523  46.926   9.635  1.00  0.00    +0.000 C 
BRANCH   13   12
ATOM    113  H16 UNL A   1      13.451  47.739   9.516  1.00  0.00    +0.000 H 
ATOM     12  C10 UNL A   1      12.609  47.855  10.167  1.00  0.00    +0.000 C 
ATOM    112  H15 UNL A   1      12.817  47.577  11.179  1.00  0.00    +0.000 H 
BRANCH   12   11
ATOM     11  C9  UNL A   1      12.248  49.340  10.144  1.00  0.00    +0.000 C 
ATOM    110  H13 UNL A   1      11.209  49.432  10.387  1.00  0.00    +0.000 H 
ATOM    111  H14 UNL A   1      12.896  49.813  10.852  1.00  0.00    +0.000 H 
BRANCH   11   10
ATOM     10  C8  UNL A   1      12.487  50.053   8.808  1.00  0.00    +0.000 C 
ATOM    108  H11 UNL A   1      13.410  50.590   8.882  1.00  0.00    +0.000 H 
ATOM    109  H12 UNL A   1      12.492  49.286   8.063  1.00  0.00    +0.000 H 
BRANCH   10    9
ATOM      9  C7  UNL A   1      11.396  51.046   8.383  1.00  0.00    +0.000 C 
ATOM    106  H9  UNL A   1      11.563  51.312   7.360  1.00  0.00    +0.000 H 
ATOM    107  H10 UNL A   1      10.457  50.554   8.534  1.00  0.00    +0.000 H 
BRANCH    9    8
ATOM    105  H8  UNL A   1      11.816  52.129  10.160  1.00  0.00    +0.000 H 
ATOM    104  H7  UNL A   1      10.341  52.634   9.338  1.00  0.00    +0.000 H 
ATOM      8  C6  UNL A   1      11.358  52.329   9.214  1.00  0.00    +0.000 C 
BRANCH    8    7
ATOM    103  H6  UNL A   1      12.057  53.414   7.591  1.00  0.00    +0.000 H 
ATOM      7  N1  UNL A   1      12.094  53.399   8.574  1.00  0.00    +0.000 N 
BRANCH    7    5
ATOM      5  C5  UNL A   1      12.832  54.388   9.153  1.00  0.00    +0.000 C 
ATOM      6  O1  UNL A   1      12.290  55.478   9.353  1.00  0.00    +0.000 O 
BRANCH    5    4
ATOM      4  C4  UNL A   1      14.306  54.164   9.482  1.00  0.00    +0.000 C 
ATOM    101  H4  UNL A   1      14.828  53.976   8.567  1.00  0.00    +0.000 H 
ATOM    102  H5  UNL A   1      14.644  55.048   9.983  1.00  0.00    +0.000 H 
BRANCH    4    3
ATOM      2  C2  UNL A   1      14.143  52.837  11.685  1.00  0.00    +0.000 C 
ATOM      3  C3  UNL A   1      14.568  53.023  10.412  1.00  0.00    +0.000 C 
ATOM    131  H34 UNL A   1      15.930  52.204   8.024  1.00  0.00    +0.000 H 
ATOM    133  H36 UNL A   1      15.926  48.961  11.674  1.00  0.00    +0.000 H 
ATOM    132  H35 UNL A   1      17.040  48.447   9.569  1.00  0.00    +0.000 H 
ATOM     80  C57 UNL A   1      15.335  51.827  10.016  1.00  0.00    +0.000 C 
ATOM     81  C58 UNL A   1      15.944  51.529   8.803  1.00  0.00    +0.000 C 
ATOM     82  C59 UNL A   1      16.576  50.297   8.668  1.00  0.00    +0.000 C 
ATOM     83  F16 UNL A   1      17.185  49.993   7.514  1.00  0.00    +0.000 F 
ATOM     84  C60 UNL A   1      16.577  49.360   9.700  1.00  0.00    +0.000 C 
ATOM     85  C61 UNL A   1      15.952  49.657  10.912  1.00  0.00    +0.000 C 
ATOM     86  C62 UNL A   1      15.365  50.905  11.079  1.00  0.00    +0.000 C 
ATOM     87  C63 UNL A   1      14.669  51.563  12.202  1.00  0.00    +0.000 C 
BRANCH    2    1
ATOM      1  C1  UNL A   1      13.261  53.726  12.499  1.00  0.00    +0.000 C 
ATOM     98  H1  UNL A   1      13.723  53.917  13.445  1.00  0.00    +0.000 H 
ATOM     99  H2  UNL A   1      12.317  53.246  12.655  1.00  0.00    +0.000 H 
ATOM    100  H3  UNL A   1      13.110  54.650  11.982  1.00  0.00    +0.000 H 
ENDBRANCH    2    1
BRANCH   87   88
ATOM    134  H37 UNL A   1      15.359  51.317  14.107  1.00  0.00    +0.000 H 
ATOM     88  C64 UNL A   1      14.552  51.156  13.483  1.00  0.00    +0.000 C 
BRANCH   88   89
ATOM     97  C71 UNL A   1      13.058  49.201  13.674  1.00  0.00    +0.000 C 
ATOM    135  H38 UNL A   1      12.804  52.114  15.305  1.00  0.00    +0.000 H 
ATOM    136  H39 UNL A   1      11.162  50.841  16.560  1.00  0.00    +0.000 H 
ATOM    141  H44 UNL A   1      11.859  47.516  14.088  1.00  0.00    +0.000 H 
ATOM    142  H45 UNL A   1      13.543  48.768  12.872  1.00  0.00    +0.000 H 
ATOM     89  C65 UNL A   1      13.374  50.505  14.060  1.00  0.00    +0.000 C 
ATOM     90  C66 UNL A   1      12.638  51.122  15.077  1.00  0.00    +0.000 C 
ATOM     91  C67 UNL A   1      11.677  50.392  15.786  1.00  0.00    +0.000 C 
ATOM     92  C68 UNL A   1      11.408  49.059  15.455  1.00  0.00    +0.000 C 
ATOM     96  C70 UNL A   1      12.083  48.482  14.372  1.00  0.00    +0.000 C 
BRANCH   92   93
ATOM     93  S1  UNL A   1      10.387  48.044  16.556  1.00  0.00    +0.000 S 
BRANCH   93   94
ATOM    137  H40 UNL A   1       8.929  46.313  15.781  1.00  0.00    +0.000 H 
ATOM    138  H41 UNL A   1      10.463  46.278  14.945  1.00  0.00    +0.000 H 
ATOM    139  H42 UNL A   1       9.265  47.477  14.522  1.00  0.00    +0.000 H 
ATOM     94  C69 UNL A   1       9.690  46.913  15.325  1.00  0.00    +0.000 C 
ENDBRANCH   93   94
BRANCH   93   95
ATOM    140  H43 UNL A   1      12.398  47.318  16.544  1.00  0.00    +0.000 H 
ATOM     95  O3  UNL A   1      11.571  47.029  16.959  1.00  0.00    +0.000 O 
ENDBRANCH   93   95
ENDBRANCH   92   93
ENDBRANCH   88   89
ENDBRANCH   87   88
ENDBRANCH    4    3
ENDBRANCH    5    4
ENDBRANCH    7    5
ENDBRANCH    8    7
ENDBRANCH    9    8
ENDBRANCH   10    9
ENDBRANCH   11   10
ENDBRANCH   12   11
ENDBRANCH   13   12
ENDBRANCH   14   13
ENDBRANCH   15   14
ENDBRANCH   17   15
ENDBRANCH   21   20
BRANCH   25   26
ATOM     33  C25 UNL A   1      16.368  47.314  -3.027  1.00  0.00    +0.000 C 
ATOM     34  F4  UNL A   1      15.518  47.055  -4.030  1.00  0.00    +0.000 F 
ATOM     35  C26 UNL A   1      16.146  48.406  -2.191  1.00  0.00    +0.000 C 
ATOM     36  F5  UNL A   1      15.078  49.186  -2.419  1.00  0.00    +0.000 F 
ATOM     26  C21 UNL A   1      17.005  48.680  -1.116  1.00  0.00    +0.000 C 
ATOM     27  C22 UNL A   1      18.103  47.830  -0.919  1.00  0.00    +0.000 C 
ATOM     28  F1  UNL A   1      18.961  48.057   0.087  1.00  0.00    +0.000 F 
ATOM     29  C23 UNL A   1      18.336  46.753  -1.771  1.00  0.00    +0.000 C 
ATOM     30  F2  UNL A   1      19.407  45.970  -1.581  1.00  0.00    +0.000 F 
ATOM     31  C24 UNL A   1      17.464  46.491  -2.818  1.00  0.00    +0.000 C 
ATOM     32  F3  UNL A   1      17.682  45.445  -3.628  1.00  0.00    +0.000 F 
ENDBRANCH   25   26
BRANCH   42   43
ATOM     43  C32 UNL A   1      17.830  55.825  -0.874  1.00  0.00    +0.000 C 
ATOM     44  C33 UNL A   1      17.034  56.519  -1.796  1.00  0.00    +0.000 C 
ATOM     45  F6  UNL A   1      15.749  56.177  -1.969  1.00  0.00    +0.000 F 
ATOM     46  C34 UNL A   1      17.566  57.552  -2.562  1.00  0.00    +0.000 C 
ATOM     47  F7  UNL A   1      16.796  58.181  -3.461  1.00  0.00    +0.000 F 
ATOM     48  C35 UNL A   1      18.892  57.926  -2.402  1.00  0.00    +0.000 C 
ATOM     49  F8  UNL A   1      19.399  58.929  -3.133  1.00  0.00    +0.000 F 
ATOM     50  C36 UNL A   1      19.694  57.259  -1.490  1.00  0.00    +0.000 C 
ATOM     51  F9  UNL A   1      20.973  57.627  -1.326  1.00  0.00    +0.000 F 
ATOM     52  C37 UNL A   1      19.173  56.210  -0.738  1.00  0.00    +0.000 C 
ATOM     53  F10 UNL A   1      19.972  55.579   0.135  1.00  0.00    +0.000 F 
ENDBRANCH   42   43
BRANCH   57   58
ATOM     65  C45 UNL A   1      15.257  57.508   7.105  1.00  0.00    +0.000 C 
ATOM     66  F14 UNL A   1      16.174  58.061   7.911  1.00  0.00    +0.000 F 
ATOM     67  C46 UNL A   1      15.639  56.542   6.179  1.00  0.00    +0.000 C 
ATOM     68  F15 UNL A   1      16.931  56.189   6.107  1.00  0.00    +0.000 F 
ATOM     58  C41 UNL A   1      14.694  55.918   5.352  1.00  0.00    +0.000 C 
ATOM     59  C42 UNL A   1      13.357  56.319   5.467  1.00  0.00    +0.000 C 
ATOM     60  F11 UNL A   1      12.421  55.765   4.682  1.00  0.00    +0.000 F 
ATOM     61  C43 UNL A   1      12.980  57.306   6.376  1.00  0.00    +0.000 C 
ATOM     62  F12 UNL A   1      11.698  57.690   6.451  1.00  0.00    +0.000 F 
ATOM     63  C44 UNL A   1      13.928  57.892   7.201  1.00  0.00    +0.000 C 
ATOM     64  F13 UNL A   1      13.561  58.829   8.086  1.00  0.00    +0.000 F 
ENDBRANCH   57   58
TORSDOF 22
ENDMDL
MODEL 9
REMARK VINA RESULT:      -8.7     46.099     51.111
ROOT
ATOM     21  C17 UNL A   1      52.859  20.561  11.452  1.00  0.00    +0.000 C 
ATOM     22  C18 UNL A   1      52.706  21.121  12.840  1.00  0.00    +0.000 C 
ATOM     23  N3  UNL A   1      53.571  21.137  13.824  1.00  0.00    +0.000 N 
ATOM     24  C19 UNL A   1      52.938  21.781  14.878  1.00  0.00    +0.000 C 
ATOM     25  C20 UNL A   1      53.407  22.017  16.127  1.00  0.00    +0.000 C 
ATOM     37  C27 UNL A   1      54.708  21.616  16.596  1.00  0.00    +0.000 C 
ATOM     38  C28 UNL A   1      55.268  21.805  17.849  1.00  0.00    +0.000 C 
ATOM     39  C29 UNL A   1      56.562  21.274  17.835  1.00  0.00    +0.000 C 
ATOM     40  C30 UNL A   1      56.793  20.717  16.587  1.00  0.00    +0.000 C 
ATOM     41  N4  UNL A   1      55.649  20.941  15.836  1.00  0.00    +0.000 N 
ATOM     42  C31 UNL A   1      57.970  20.035  16.115  1.00  0.00    +0.000 C 
ATOM     54  C38 UNL A   1      58.113  19.492  14.883  1.00  0.00    +0.000 C 
ATOM     55  N5  UNL A   1      57.208  19.470  13.832  1.00  0.00    +0.000 N 
ATOM     56  C39 UNL A   1      57.814  18.854  12.847  1.00  0.00    +0.000 C 
ATOM     57  C40 UNL A   1      57.305  18.543  11.470  1.00  0.00    +0.000 C 
ATOM     69  C47 UNL A   1      56.084  18.980  11.105  1.00  0.00    +0.000 C 
ATOM     70  C48 UNL A   1      55.464  18.759   9.803  1.00  0.00    +0.000 C 
ATOM     71  C49 UNL A   1      54.265  19.357   9.783  1.00  0.00    +0.000 C 
ATOM     72  C50 UNL A   1      54.006  19.952  11.094  1.00  0.00    +0.000 C 
ATOM     73  N6  UNL A   1      55.153  19.707  11.804  1.00  0.00    +0.000 N 
ATOM     74  C51 UNL A   1      59.183  18.421  13.160  1.00  0.00    +0.000 C 
ATOM     75  C52 UNL A   1      59.304  18.809  14.423  1.00  0.00    +0.000 C 
ATOM     76  C53 UNL A   1      51.624  22.166  14.409  1.00  0.00    +0.000 C 
ATOM     77  C54 UNL A   1      51.415  21.745  13.170  1.00  0.00    +0.000 C 
ATOM    119  H22 UNL A   1      54.810  22.260  18.654  1.00  0.00    +0.000 H 
ATOM    120  H23 UNL A   1      57.231  21.294  18.620  1.00  0.00    +0.000 H 
ATOM    121  H24 UNL A   1      55.525  20.660  14.900  1.00  0.00    +0.000 H 
ATOM    122  H25 UNL A   1      55.884  18.228   9.023  1.00  0.00    +0.000 H 
ATOM    123  H26 UNL A   1      53.627  19.391   8.972  1.00  0.00    +0.000 H 
ATOM    124  H27 UNL A   1      55.295  20.023  12.726  1.00  0.00    +0.000 H 
ATOM    125  H28 UNL A   1      59.869  17.942  12.556  1.00  0.00    +0.000 H 
ATOM    126  H29 UNL A   1      60.142  18.644  15.004  1.00  0.00    +0.000 H 
ATOM    127  H30 UNL A   1      50.939  22.699  14.968  1.00  0.00    +0.000 H 
ATOM    128  H31 UNL A   1      50.568  21.832  12.588  1.00  0.00    +0.000 H 
ENDROOT
BRANCH   21   20
ATOM    129  H32 UNL A   1      50.847  18.775  11.052  1.00  0.00    +0.000 H 
ATOM    130  H33 UNL A   1      49.139  18.813   9.324  1.00  0.00    +0.000 H 
ATOM     78  C55 UNL A   1      50.799  19.567  10.393  1.00  0.00    +0.000 C 
ATOM     79  C56 UNL A   1      49.805  19.597   9.411  1.00  0.00    +0.000 C 
ATOM     17  C13 UNL A   1      49.715  20.693   8.547  1.00  0.00    +0.000 C 
ATOM     18  C14 UNL A   1      50.563  21.790   8.714  1.00  0.00    +0.000 C 
ATOM     19  C15 UNL A   1      51.599  21.725   9.639  1.00  0.00    +0.000 C 
ATOM     20  C16 UNL A   1      51.733  20.610  10.485  1.00  0.00    +0.000 C 
ATOM    117  H20 UNL A   1      50.420  22.645   8.155  1.00  0.00    +0.000 H 
ATOM    118  H21 UNL A   1      52.276  22.502   9.706  1.00  0.00    +0.000 H 
BRANCH   17   15
ATOM     15  C12 UNL A   1      48.728  20.663   7.445  1.00  0.00    +0.000 C 
ATOM     16  O2  UNL A   1      48.012  21.637   7.240  1.00  0.00    +0.000 O 
BRANCH   15   14
ATOM    116  H19 UNL A   1      48.121  18.781   7.104  1.00  0.00    +0.000 H 
ATOM     14  N2  UNL A   1      48.601  19.529   6.678  1.00  0.00    +0.000 N 
BRANCH   14   13
ATOM    114  H17 UNL A   1      48.597  18.396   4.953  1.00  0.00    +0.000 H 
ATOM    115  H18 UNL A   1      48.834  20.136   4.734  1.00  0.00    +0.000 H 
ATOM     13  C11 UNL A   1      49.074  19.278   5.325  1.00  0.00    +0.000 C 
BRANCH   13   12
ATOM    113  H16 UNL A   1      51.023  20.028   5.498  1.00  0.00    +0.000 H 
ATOM     12  C10 UNL A   1      50.584  19.081   5.261  1.00  0.00    +0.000 C 
ATOM    112  H15 UNL A   1      50.833  18.735   4.280  1.00  0.00    +0.000 H 
BRANCH   12   11
ATOM     11  C9  UNL A   1      51.142  18.081   6.275  1.00  0.00    +0.000 C 
ATOM    110  H13 UNL A   1      51.429  18.625   7.152  1.00  0.00    +0.000 H 
ATOM    111  H14 UNL A   1      50.363  17.369   6.448  1.00  0.00    +0.000 H 
BRANCH   11   10
ATOM     10  C8  UNL A   1      52.357  17.274   5.800  1.00  0.00    +0.000 C 
ATOM    108  H11 UNL A   1      53.110  17.966   5.486  1.00  0.00    +0.000 H 
ATOM    109  H12 UNL A   1      52.647  16.666   6.631  1.00  0.00    +0.000 H 
BRANCH   10    9
ATOM      9  C7  UNL A   1      52.093  16.304   4.640  1.00  0.00    +0.000 C 
ATOM    106  H9  UNL A   1      51.574  16.835   3.869  1.00  0.00    +0.000 H 
ATOM    107  H10 UNL A   1      53.047  15.940   4.320  1.00  0.00    +0.000 H 
BRANCH    9    8
ATOM    105  H8  UNL A   1      50.978  15.175   6.051  1.00  0.00    +0.000 H 
ATOM    104  H7  UNL A   1      51.846  14.198   4.869  1.00  0.00    +0.000 H 
ATOM      8  C6  UNL A   1      51.261  15.079   5.023  1.00  0.00    +0.000 C 
BRANCH    8    7
ATOM    103  H6  UNL A   1      50.149  14.542   3.358  1.00  0.00    +0.000 H 
ATOM      7  N1  UNL A   1      50.053  14.986   4.230  1.00  0.00    +0.000 N 
BRANCH    7    5
ATOM      5  C5  UNL A   1      48.801  15.433   4.531  1.00  0.00    +0.000 C 
ATOM      6  O1  UNL A   1      48.615  15.936   5.642  1.00  0.00    +0.000 O 
BRANCH    5    4
ATOM      4  C4  UNL A   1      47.654  15.254   3.540  1.00  0.00    +0.000 C 
ATOM    101  H4  UNL A   1      47.973  15.628   2.589  1.00  0.00    +0.000 H 
ATOM    102  H5  UNL A   1      47.426  14.209   3.524  1.00  0.00    +0.000 H 
BRANCH    4    3
ATOM      2  C2  UNL A   1      45.934  17.172   3.523  1.00  0.00    +0.000 C 
ATOM      3  C3  UNL A   1      46.391  15.959   3.917  1.00  0.00    +0.000 C 
ATOM    131  H34 UNL A   1      46.159  13.471   5.325  1.00  0.00    +0.000 H 
ATOM    133  H36 UNL A   1      42.311  16.458   5.662  1.00  0.00    +0.000 H 
ATOM    132  H35 UNL A   1      42.301  14.303   6.798  1.00  0.00    +0.000 H 
ATOM     80  C57 UNL A   1      45.366  15.355   4.788  1.00  0.00    +0.000 C 
ATOM     81  C58 UNL A   1      45.356  14.112   5.411  1.00  0.00    +0.000 C 
ATOM     82  C59 UNL A   1      44.234  13.756   6.154  1.00  0.00    +0.000 C 
ATOM     83  F16 UNL A   1      44.207  12.570   6.777  1.00  0.00    +0.000 F 
ATOM     84  C60 UNL A   1      43.127  14.597   6.252  1.00  0.00    +0.000 C 
ATOM     85  C61 UNL A   1      43.136  15.838   5.614  1.00  0.00    +0.000 C 
ATOM     86  C62 UNL A   1      44.270  16.229   4.915  1.00  0.00    +0.000 C 
ATOM     87  C63 UNL A   1      44.641  17.449   4.171  1.00  0.00    +0.000 C 
BRANCH    2    1
ATOM      1  C1  UNL A   1      46.570  18.130   2.570  1.00  0.00    +0.000 C 
ATOM     98  H1  UNL A   1      47.333  18.683   3.077  1.00  0.00    +0.000 H 
ATOM     99  H2  UNL A   1      45.829  18.806   2.196  1.00  0.00    +0.000 H 
ATOM    100  H3  UNL A   1      47.002  17.588   1.755  1.00  0.00    +0.000 H 
ENDBRANCH    2    1
BRANCH   87   88
ATOM    134  H37 UNL A   1      44.269  19.359   4.785  1.00  0.00    +0.000 H 
ATOM     88  C64 UNL A   1      43.996  18.632   4.107  1.00  0.00    +0.000 C 
BRANCH   88   89
ATOM     97  C71 UNL A   1      41.648  18.469   3.359  1.00  0.00    +0.000 C 
ATOM    135  H38 UNL A   1      44.130  20.172   1.892  1.00  0.00    +0.000 H 
ATOM    136  H39 UNL A   1      42.265  21.064   0.621  1.00  0.00    +0.000 H 
ATOM    141  H44 UNL A   1      39.630  18.589   2.762  1.00  0.00    +0.000 H 
ATOM    142  H45 UNL A   1      41.485  17.742   4.073  1.00  0.00    +0.000 H 
ATOM     89  C65 UNL A   1      42.937  18.967   3.151  1.00  0.00    +0.000 C 
ATOM     90  C66 UNL A   1      43.168  19.871   2.110  1.00  0.00    +0.000 C 
ATOM     91  C67 UNL A   1      42.093  20.369   1.364  1.00  0.00    +0.000 C 
ATOM     92  C68 UNL A   1      40.788  19.932   1.618  1.00  0.00    +0.000 C 
ATOM     96  C70 UNL A   1      40.581  18.954   2.598  1.00  0.00    +0.000 C 
BRANCH   92   93
ATOM     93  S1  UNL A   1      39.385  20.792   0.857  1.00  0.00    +0.000 S 
BRANCH   93   94
ATOM    137  H40 UNL A   1      41.202  22.062  -0.043  1.00  0.00    +0.000 H 
ATOM    138  H41 UNL A   1      39.682  22.510  -0.780  1.00  0.00    +0.000 H 
ATOM    139  H42 UNL A   1      40.480  21.031  -1.256  1.00  0.00    +0.000 H 
ATOM     94  C69 UNL A   1      40.278  21.690  -0.438  1.00  0.00    +0.000 C 
ENDBRANCH   93   94
BRANCH   93   95
ATOM    140  H43 UNL A   1      38.146  19.785  -0.565  1.00  0.00    +0.000 H 
ATOM     95  O3  UNL A   1      38.986  19.580  -0.125  1.00  0.00    +0.000 O 
ENDBRANCH   93   95
ENDBRANCH   92   93
ENDBRANCH   88   89
ENDBRANCH   87   88
ENDBRANCH    4    3
ENDBRANCH    5    4
ENDBRANCH    7    5
ENDBRANCH    8    7
ENDBRANCH    9    8
ENDBRANCH   10    9
ENDBRANCH   11   10
ENDBRANCH   12   11
ENDBRANCH   13   12
ENDBRANCH   14   13
ENDBRANCH   15   14
ENDBRANCH   17   15
ENDBRANCH   21   20
BRANCH   25   26
ATOM     33  C25 UNL A   1      50.799  22.701  18.812  1.00  0.00    +0.000 C 
ATOM     34  F4  UNL A   1      50.010  22.000  19.638  1.00  0.00    +0.000 F 
ATOM     35  C26 UNL A   1      51.696  22.037  17.978  1.00  0.00    +0.000 C 
ATOM     36  F5  UNL A   1      51.754  20.697  18.029  1.00  0.00    +0.000 F 
ATOM     26  C21 UNL A   1      52.512  22.747  17.084  1.00  0.00    +0.000 C 
ATOM     27  C22 UNL A   1      52.407  24.145  17.068  1.00  0.00    +0.000 C 
ATOM     28  F1  UNL A   1      53.174  24.870  16.239  1.00  0.00    +0.000 F 
ATOM     29  C23 UNL A   1      51.527  24.807  17.920  1.00  0.00    +0.000 C 
ATOM     30  F2  UNL A   1      51.464  26.146  17.907  1.00  0.00    +0.000 F 
ATOM     31  C24 UNL A   1      50.718  24.085  18.785  1.00  0.00    +0.000 C 
ATOM     32  F3  UNL A   1      49.861  24.723  19.594  1.00  0.00    +0.000 F 
ENDBRANCH   25   26
BRANCH   42   43
ATOM     43  C32 UNL A   1      59.124  19.905  17.064  1.00  0.00    +0.000 C 
ATOM     44  C33 UNL A   1      59.381  18.703  17.737  1.00  0.00    +0.000 C 
ATOM     45  F6  UNL A   1      58.551  17.659  17.597  1.00  0.00    +0.000 F 
ATOM     46  C34 UNL A   1      60.483  18.579  18.579  1.00  0.00    +0.000 C 
ATOM     47  F7  UNL A   1      60.694  17.432  19.238  1.00  0.00    +0.000 F 
ATOM     48  C35 UNL A   1      61.359  19.643  18.741  1.00  0.00    +0.000 C 
ATOM     49  F8  UNL A   1      62.425  19.517  19.544  1.00  0.00    +0.000 F 
ATOM     50  C36 UNL A   1      61.126  20.837  18.077  1.00  0.00    +0.000 C 
ATOM     51  F9  UNL A   1      61.978  21.862  18.224  1.00  0.00    +0.000 F 
ATOM     52  C37 UNL A   1      60.013  20.973  17.253  1.00  0.00    +0.000 C 
ATOM     53  F10 UNL A   1      59.811  22.141  16.625  1.00  0.00    +0.000 F 
ENDBRANCH   42   43
BRANCH   57   58
ATOM     65  C45 UNL A   1      59.654  17.646   8.625  1.00  0.00    +0.000 C 
ATOM     66  F14 UNL A   1      60.408  18.273   7.713  1.00  0.00    +0.000 F 
ATOM     67  C46 UNL A   1      58.946  18.386   9.567  1.00  0.00    +0.000 C 
ATOM     68  F15 UNL A   1      59.042  19.723   9.547  1.00  0.00    +0.000 F 
ATOM     58  C41 UNL A   1      58.116  17.756  10.508  1.00  0.00    +0.000 C 
ATOM     59  C42 UNL A   1      58.048  16.357  10.488  1.00  0.00    +0.000 C 
ATOM     60  F11 UNL A   1      57.284  15.710  11.381  1.00  0.00    +0.000 F 
ATOM     61  C43 UNL A   1      58.778  15.617   9.560  1.00  0.00    +0.000 C 
ATOM     62  F12 UNL A   1      58.715  14.278   9.576  1.00  0.00    +0.000 F 
ATOM     63  C44 UNL A   1      59.573  16.261   8.624  1.00  0.00    +0.000 C 
ATOM     64  F13 UNL A   1      60.262  15.549   7.723  1.00  0.00    +0.000 F 
ENDBRANCH   57   58
TORSDOF 22
ENDMDL
MODEL 10
REMARK VINA RESULT:      -8.7     27.247     32.599
ROOT
ATOM     21  C17 UNL A   1      21.720  20.430   3.195  1.00  0.00    +0.000 C 
ATOM     22  C18 UNL A   1      20.619  19.421   3.012  1.00  0.00    +0.000 C 
ATOM     23  N3  UNL A   1      20.586  18.160   3.369  1.00  0.00    +0.000 N 
ATOM     24  C19 UNL A   1      19.341  17.687   2.980  1.00  0.00    +0.000 C 
ATOM     25  C20 UNL A   1      18.840  16.433   3.100  1.00  0.00    +0.000 C 
ATOM     37  C27 UNL A   1      19.553  15.324   3.678  1.00  0.00    +0.000 C 
ATOM     38  C28 UNL A   1      19.129  14.015   3.835  1.00  0.00    +0.000 C 
ATOM     39  C29 UNL A   1      20.147  13.298   4.472  1.00  0.00    +0.000 C 
ATOM     40  C30 UNL A   1      21.222  14.150   4.673  1.00  0.00    +0.000 C 
ATOM     41  N4  UNL A   1      20.840  15.391   4.188  1.00  0.00    +0.000 N 
ATOM     42  C31 UNL A   1      22.499  13.854   5.268  1.00  0.00    +0.000 C 
ATOM     54  C38 UNL A   1      23.516  14.738   5.408  1.00  0.00    +0.000 C 
ATOM     55  N5  UNL A   1      23.563  16.074   5.038  1.00  0.00    +0.000 N 
ATOM     56  C39 UNL A   1      24.745  16.507   5.403  1.00  0.00    +0.000 C 
ATOM     57  C40 UNL A   1      25.341  17.876   5.246  1.00  0.00    +0.000 C 
ATOM     69  C47 UNL A   1      24.592  18.863   4.718  1.00  0.00    +0.000 C 
ATOM     70  C48 UNL A   1      25.035  20.238   4.512  1.00  0.00    +0.000 C 
ATOM     71  C49 UNL A   1      24.022  20.950   3.996  1.00  0.00    +0.000 C 
ATOM     72  C50 UNL A   1      22.878  20.065   3.778  1.00  0.00    +0.000 C 
ATOM     73  N6  UNL A   1      23.296  18.853   4.265  1.00  0.00    +0.000 N 
ATOM     74  C51 UNL A   1      25.582  15.493   6.058  1.00  0.00    +0.000 C 
ATOM     75  C52 UNL A   1      24.796  14.424   6.009  1.00  0.00    +0.000 C 
ATOM     76  C53 UNL A   1      18.633  18.799   2.384  1.00  0.00    +0.000 C 
ATOM     77  C54 UNL A   1      19.394  19.883   2.340  1.00  0.00    +0.000 C 
ATOM    119  H22 UNL A   1      18.218  13.634   3.535  1.00  0.00    +0.000 H 
ATOM    120  H23 UNL A   1      20.106  12.304   4.745  1.00  0.00    +0.000 H 
ATOM    121  H24 UNL A   1      21.401  16.200   4.202  1.00  0.00    +0.000 H 
ATOM    122  H25 UNL A   1      25.975  20.603   4.730  1.00  0.00    +0.000 H 
ATOM    123  H26 UNL A   1      24.048  21.960   3.785  1.00  0.00    +0.000 H 
ATOM    124  H27 UNL A   1      22.721  18.053   4.290  1.00  0.00    +0.000 H 
ATOM    125  H28 UNL A   1      26.531  15.585   6.452  1.00  0.00    +0.000 H 
ATOM    126  H29 UNL A   1      25.063  13.489   6.355  1.00  0.00    +0.000 H 
ATOM    127  H30 UNL A   1      17.662  18.753   2.036  1.00  0.00    +0.000 H 
ATOM    128  H31 UNL A   1      19.183  20.810   1.940  1.00  0.00    +0.000 H 
ENDROOT
BRANCH   21   20
ATOM    129  H32 UNL A   1      20.707  22.631   4.429  1.00  0.00    +0.000 H 
ATOM    130  H33 UNL A   1      20.316  24.831   3.473  1.00  0.00    +0.000 H 
ATOM     78  C55 UNL A   1      20.986  22.827   3.456  1.00  0.00    +0.000 C 
ATOM     79  C56 UNL A   1      20.778  24.098   2.912  1.00  0.00    +0.000 C 
ATOM     17  C13 UNL A   1      21.198  24.373   1.607  1.00  0.00    +0.000 C 
ATOM     18  C14 UNL A   1      21.896  23.409   0.877  1.00  0.00    +0.000 C 
ATOM     19  C15 UNL A   1      22.033  22.123   1.388  1.00  0.00    +0.000 C 
ATOM     20  C16 UNL A   1      21.574  21.815   2.681  1.00  0.00    +0.000 C 
ATOM    117  H20 UNL A   1      22.307  23.649  -0.038  1.00  0.00    +0.000 H 
ATOM    118  H21 UNL A   1      22.476  21.388   0.814  1.00  0.00    +0.000 H 
BRANCH   17   15
ATOM     15  C12 UNL A   1      20.876  25.686   1.008  1.00  0.00    +0.000 C 
ATOM     16  O2  UNL A   1      20.395  25.743  -0.118  1.00  0.00    +0.000 O 
BRANCH   15   14
ATOM    116  H19 UNL A   1      20.393  27.208   2.223  1.00  0.00    +0.000 H 
ATOM     14  N2  UNL A   1      21.148  26.837   1.710  1.00  0.00    +0.000 N 
BRANCH   14   13
ATOM    114  H17 UNL A   1      22.959  27.205   2.627  1.00  0.00    +0.000 H 
ATOM    115  H18 UNL A   1      22.915  27.459   0.877  1.00  0.00    +0.000 H 
ATOM     13  C11 UNL A   1      22.393  27.583   1.802  1.00  0.00    +0.000 C 
BRANCH   13   12
ATOM    113  H16 UNL A   1      22.613  29.323   2.949  1.00  0.00    +0.000 H 
ATOM     12  C10 UNL A   1      22.167  29.076   2.008  1.00  0.00    +0.000 C 
ATOM    112  H15 UNL A   1      21.113  29.260   1.981  1.00  0.00    +0.000 H 
BRANCH   12   11
ATOM     11  C9  UNL A   1      22.834  29.974   0.966  1.00  0.00    +0.000 C 
ATOM    110  H13 UNL A   1      22.208  30.831   0.818  1.00  0.00    +0.000 H 
ATOM    111  H14 UNL A   1      23.801  30.213   1.357  1.00  0.00    +0.000 H 
BRANCH   11   10
ATOM     10  C8  UNL A   1      23.079  29.324  -0.401  1.00  0.00    +0.000 C 
ATOM    108  H11 UNL A   1      24.101  29.010  -0.438  1.00  0.00    +0.000 H 
ATOM    109  H12 UNL A   1      22.377  28.520  -0.473  1.00  0.00    +0.000 H 
BRANCH   10    9
ATOM      9  C7  UNL A   1      22.817  30.223  -1.617  1.00  0.00    +0.000 C 
ATOM    106  H9  UNL A   1      23.378  31.126  -1.495  1.00  0.00    +0.000 H 
ATOM    107  H10 UNL A   1      23.115  29.665  -2.482  1.00  0.00    +0.000 H 
BRANCH    9    8
ATOM    105  H8  UNL A   1      20.755  29.972  -1.179  1.00  0.00    +0.000 H 
ATOM    104  H7  UNL A   1      21.087  30.445  -2.844  1.00  0.00    +0.000 H 
ATOM      8  C6  UNL A   1      21.347  30.594  -1.818  1.00  0.00    +0.000 C 
BRANCH    8    7
ATOM    103  H6  UNL A   1      21.661  32.641  -1.915  1.00  0.00    +0.000 H 
ATOM      7  N1  UNL A   1      21.094  31.975  -1.465  1.00  0.00    +0.000 N 
BRANCH    7    5
ATOM      5  C5  UNL A   1      20.174  32.474  -0.592  1.00  0.00    +0.000 C 
ATOM      6  O1  UNL A   1      19.897  33.674  -0.661  1.00  0.00    +0.000 O 
BRANCH    5    4
ATOM      4  C4  UNL A   1      19.557  31.579   0.481  1.00  0.00    +0.000 C 
ATOM    101  H4  UNL A   1      19.930  30.586   0.342  1.00  0.00    +0.000 H 
ATOM    102  H5  UNL A   1      19.831  32.002   1.424  1.00  0.00    +0.000 H 
BRANCH    4    3
ATOM      2  C2  UNL A   1      17.165  32.287   1.127  1.00  0.00    +0.000 C 
ATOM      3  C3  UNL A   1      18.063  31.523   0.459  1.00  0.00    +0.000 C 
ATOM    131  H34 UNL A   1      18.788  29.475  -1.413  1.00  0.00    +0.000 H 
ATOM    133  H36 UNL A   1      14.002  30.323  -0.956  1.00  0.00    +0.000 H 
ATOM    132  H35 UNL A   1      14.809  28.613  -2.492  1.00  0.00    +0.000 H 
ATOM     80  C57 UNL A   1      17.308  30.596  -0.405  1.00  0.00    +0.000 C 
ATOM     81  C58 UNL A   1      17.777  29.642  -1.299  1.00  0.00    +0.000 C 
ATOM     82  C59 UNL A   1      16.847  28.917  -2.038  1.00  0.00    +0.000 C 
ATOM     83  F16 UNL A   1      17.273  27.980  -2.895  1.00  0.00    +0.000 F 
ATOM     84  C60 UNL A   1      15.478  29.154  -1.922  1.00  0.00    +0.000 C 
ATOM     85  C61 UNL A   1      15.012  30.124  -1.032  1.00  0.00    +0.000 C 
ATOM     86  C62 UNL A   1      15.927  30.816  -0.249  1.00  0.00    +0.000 C 
ATOM     87  C63 UNL A   1      15.798  31.851   0.795  1.00  0.00    +0.000 C 
BRANCH    2    1
ATOM      1  C1  UNL A   1      17.436  33.425   2.055  1.00  0.00    +0.000 C 
ATOM     98  H1  UNL A   1      17.441  34.342   1.504  1.00  0.00    +0.000 H 
ATOM     99  H2  UNL A   1      18.389  33.286   2.522  1.00  0.00    +0.000 H 
ATOM    100  H3  UNL A   1      16.673  33.464   2.805  1.00  0.00    +0.000 H 
ENDBRANCH    2    1
BRANCH   87   88
ATOM    134  H37 UNL A   1      14.693  32.350   2.436  1.00  0.00    +0.000 H 
ATOM     88  C64 UNL A   1      14.685  32.307   1.405  1.00  0.00    +0.000 C 
BRANCH   88   89
ATOM     97  C71 UNL A   1      13.572  33.538  -0.423  1.00  0.00    +0.000 C 
ATOM    135  H38 UNL A   1      12.110  31.777   2.020  1.00  0.00    +0.000 H 
ATOM    136  H39 UNL A   1      10.170  32.133   0.606  1.00  0.00    +0.000 H 
ATOM    141  H44 UNL A   1      12.532  34.355  -2.065  1.00  0.00    +0.000 H 
ATOM    142  H45 UNL A   1      14.483  33.949  -0.684  1.00  0.00    +0.000 H 
ATOM     89  C65 UNL A   1      13.466  32.746   0.722  1.00  0.00    +0.000 C 
ATOM     90  C66 UNL A   1      12.210  32.284   1.127  1.00  0.00    +0.000 C 
ATOM     91  C67 UNL A   1      11.088  32.509   0.321  1.00  0.00    +0.000 C 
ATOM     92  C68 UNL A   1      11.201  33.236  -0.869  1.00  0.00    +0.000 C 
ATOM     96  C70 UNL A   1      12.446  33.776  -1.215  1.00  0.00    +0.000 C 
BRANCH   92   93
ATOM     93  S1  UNL A   1       9.820  33.268  -2.042  1.00  0.00    +0.000 S 
BRANCH   93   94
ATOM    137  H40 UNL A   1      10.444  31.400  -3.400  1.00  0.00    +0.000 H 
ATOM    138  H41 UNL A   1      11.681  32.633  -3.403  1.00  0.00    +0.000 H 
ATOM    139  H42 UNL A   1      10.235  32.845  -4.359  1.00  0.00    +0.000 H 
ATOM     94  C69 UNL A   1      10.627  32.454  -3.445  1.00  0.00    +0.000 C 
ENDBRANCH   93   94
BRANCH   93   95
ATOM    140  H43 UNL A   1       9.115  31.915  -0.544  1.00  0.00    +0.000 H 
ATOM     95  O3  UNL A   1       9.147  31.904  -1.514  1.00  0.00    +0.000 O 
ENDBRANCH   93   95
ENDBRANCH   92   93
ENDBRANCH   88   89
ENDBRANCH   87   88
ENDBRANCH    4    3
ENDBRANCH    5    4
ENDBRANCH    7    5
ENDBRANCH    8    7
ENDBRANCH    9    8
ENDBRANCH   10    9
ENDBRANCH   11   10
ENDBRANCH   12   11
ENDBRANCH   13   12
ENDBRANCH   14   13
ENDBRANCH   15   14
ENDBRANCH   17   15
ENDBRANCH   21   20
BRANCH   25   26
ATOM     33  C25 UNL A   1      15.055  16.042   3.024  1.00  0.00    +0.000 C 
ATOM     34  F4  UNL A   1      14.021  16.179   3.864  1.00  0.00    +0.000 F 
ATOM     35  C26 UNL A   1      16.345  16.349   3.452  1.00  0.00    +0.000 C 
ATOM     36  F5  UNL A   1      16.520  16.789   4.707  1.00  0.00    +0.000 F 
ATOM     26  C21 UNL A   1      17.447  16.186   2.599  1.00  0.00    +0.000 C 
ATOM     27  C22 UNL A   1      17.209  15.718   1.299  1.00  0.00    +0.000 C 
ATOM     28  F1  UNL A   1      18.229  15.557   0.442  1.00  0.00    +0.000 F 
ATOM     29  C23 UNL A   1      15.916  15.435   0.866  1.00  0.00    +0.000 C 
ATOM     30  F2  UNL A   1      15.709  15.016  -0.390  1.00  0.00    +0.000 F 
ATOM     31  C24 UNL A   1      14.842  15.588   1.731  1.00  0.00    +0.000 C 
ATOM     32  F3  UNL A   1      13.600  15.301   1.317  1.00  0.00    +0.000 F 
ENDBRANCH   25   26
BRANCH   42   43
ATOM     43  C32 UNL A   1      22.729  12.456   5.759  1.00  0.00    +0.000 C 
ATOM     44  C33 UNL A   1      22.325  12.058   7.041  1.00  0.00    +0.000 C 
ATOM     45  F6  UNL A   1      21.784  12.949   7.885  1.00  0.00    +0.000 F 
ATOM     46  C34 UNL A   1      22.501  10.745   7.469  1.00  0.00    +0.000 C 
ATOM     47  F7  UNL A   1      22.138  10.393   8.710  1.00  0.00    +0.000 F 
ATOM     48  C35 UNL A   1      23.058   9.804   6.616  1.00  0.00    +0.000 C 
ATOM     49  F8  UNL A   1      23.215   8.537   7.026  1.00  0.00    +0.000 F 
ATOM     50  C36 UNL A   1      23.455  10.175   5.341  1.00  0.00    +0.000 C 
ATOM     51  F9  UNL A   1      23.983   9.263   4.511  1.00  0.00    +0.000 F 
ATOM     52  C37 UNL A   1      23.303  11.492   4.917  1.00  0.00    +0.000 C 
ATOM     53  F10 UNL A   1      23.700  11.824   3.680  1.00  0.00    +0.000 F 
ENDBRANCH   42   43
BRANCH   57   58
ATOM     65  C45 UNL A   1      29.115  18.270   5.135  1.00  0.00    +0.000 C 
ATOM     66  F14 UNL A   1      30.111  18.140   4.248  1.00  0.00    +0.000 F 
ATOM     67  C46 UNL A   1      27.798  18.068   4.735  1.00  0.00    +0.000 C 
ATOM     68  F15 UNL A   1      27.550  17.755   3.454  1.00  0.00    +0.000 F 
ATOM     58  C41 UNL A   1      26.740  18.158   5.652  1.00  0.00    +0.000 C 
ATOM     59  C42 UNL A   1      27.050  18.486   6.978  1.00  0.00    +0.000 C 
ATOM     60  F11 UNL A   1      26.070  18.603   7.887  1.00  0.00    +0.000 F 
ATOM     61  C43 UNL A   1      28.367  18.714   7.372  1.00  0.00    +0.000 C 
ATOM     62  F12 UNL A   1      28.636  19.049   8.641  1.00  0.00    +0.000 F 
ATOM     63  C44 UNL A   1      29.399  18.595   6.453  1.00  0.00    +0.000 C 
ATOM     64  F13 UNL A   1      30.667  18.798   6.836  1.00  0.00    +0.000 F 
ENDBRANCH   57   58
TORSDOF 22
ENDMDL
