MODEL 1
REMARK VINA RESULT:      -9.3      0.000      0.000
ROOT
ATOM    129  H31 UNL A   1      26.276 -13.707  32.077  1.00  0.00    +0.000 H 
ATOM    130  H32 UNL A   1      30.283 -16.199  33.792  1.00  0.00    +0.000 H 
ATOM    131  H33 UNL A   1      29.425 -15.691  36.148  1.00  0.00    +0.000 H 
ATOM    132  H34 UNL A   1      21.910 -10.225  32.336  1.00  0.00    +0.000 H 
ATOM    133  H35 UNL A   1      22.437 -11.137  30.001  1.00  0.00    +0.000 H 
ATOM     36  C27 UNL A   1      24.776 -12.770  29.908  1.00  0.00    +0.000 C 
ATOM     37  C28 UNL A   1      24.120 -12.168  31.120  1.00  0.00    +0.000 C 
ATOM     38  N4  UNL A   1      24.467 -12.258  32.379  1.00  0.00    +0.000 N 
ATOM     39  C29 UNL A   1      23.540 -11.501  33.083  1.00  0.00    +0.000 C 
ATOM     40  C30 UNL A   1      23.419 -11.347  34.423  1.00  0.00    +0.000 C 
ATOM     52  C37 UNL A   1      24.296 -11.955  35.390  1.00  0.00    +0.000 C 
ATOM     53  C38 UNL A   1      24.240 -11.882  36.771  1.00  0.00    +0.000 C 
ATOM     54  C39 UNL A   1      25.328 -12.591  37.291  1.00  0.00    +0.000 C 
ATOM     55  C40 UNL A   1      26.026 -13.156  36.237  1.00  0.00    +0.000 C 
ATOM     56  N5  UNL A   1      25.389 -12.749  35.075  1.00  0.00    +0.000 N 
ATOM     57  C41 UNL A   1      27.188 -14.006  36.286  1.00  0.00    +0.000 C 
ATOM     69  C48 UNL A   1      27.818 -14.522  35.202  1.00  0.00    +0.000 C 
ATOM     70  N6  UNL A   1      27.511 -14.370  33.856  1.00  0.00    +0.000 N 
ATOM     71  C49 UNL A   1      28.429 -15.040  33.200  1.00  0.00    +0.000 C 
ATOM     72  C50 UNL A   1      28.573 -15.252  31.716  1.00  0.00    +0.000 C 
ATOM     84  C57 UNL A   1      27.655 -14.718  30.888  1.00  0.00    +0.000 C 
ATOM     85  C58 UNL A   1      27.650 -14.846  29.435  1.00  0.00    +0.000 C 
ATOM     86  C59 UNL A   1      26.625 -14.138  28.938  1.00  0.00    +0.000 C 
ATOM     87  C60 UNL A   1      25.872 -13.540  30.042  1.00  0.00    +0.000 C 
ATOM     88  N7  UNL A   1      26.552 -13.946  31.163  1.00  0.00    +0.000 N 
ATOM     89  C61 UNL A   1      29.442 -15.666  34.060  1.00  0.00    +0.000 C 
ATOM     90  C62 UNL A   1      28.993 -15.365  35.269  1.00  0.00    +0.000 C 
ATOM     91  C63 UNL A   1      22.655 -10.901  32.108  1.00  0.00    +0.000 C 
ATOM     92  C64 UNL A   1      22.930 -11.334  30.887  1.00  0.00    +0.000 C 
ATOM    124  H26 UNL A   1      23.520 -11.390  37.322  1.00  0.00    +0.000 H 
ATOM    125  H27 UNL A   1      25.569 -12.678  38.290  1.00  0.00    +0.000 H 
ATOM    126  H28 UNL A   1      25.670 -12.987  34.162  1.00  0.00    +0.000 H 
ATOM    127  H29 UNL A   1      28.326 -15.393  28.879  1.00  0.00    +0.000 H 
ATOM    128  H30 UNL A   1      26.402 -14.032  27.935  1.00  0.00    +0.000 H 
ENDROOT
BRANCH   36   35
ATOM     33  C24 UNL A   1      24.112 -11.056  26.589  1.00  0.00    +0.000 C 
ATOM     34  C25 UNL A   1      24.668 -11.353  27.834  1.00  0.00    +0.000 C 
ATOM     35  C26 UNL A   1      24.246 -12.485  28.550  1.00  0.00    +0.000 C 
ATOM    134  H36 UNL A   1      22.986 -14.183  28.493  1.00  0.00    +0.000 H 
ATOM    135  H37 UNL A   1      22.192 -13.783  26.238  1.00  0.00    +0.000 H 
ATOM    122  H24 UNL A   1      24.399 -10.205  26.082  1.00  0.00    +0.000 H 
ATOM    123  H25 UNL A   1      25.394 -10.737  28.231  1.00  0.00    +0.000 H 
ATOM     93  C65 UNL A   1      23.310 -13.353  27.971  1.00  0.00    +0.000 C 
ATOM     94  C66 UNL A   1      22.816 -13.100  26.695  1.00  0.00    +0.000 C 
ATOM     32  C23 UNL A   1      23.166 -11.919  26.032  1.00  0.00    +0.000 C 
BRANCH   32   30
ATOM     30  C22 UNL A   1      22.566 -11.576  24.726  1.00  0.00    +0.000 C 
ATOM     31  O4  UNL A   1      21.389 -11.843  24.502  1.00  0.00    +0.000 O 
BRANCH   30   29
ATOM    121  H23 UNL A   1      23.399  -9.977  23.850  1.00  0.00    +0.000 H 
ATOM     29  N3  UNL A   1      23.326 -10.955  23.769  1.00  0.00    +0.000 N 
BRANCH   29   28
ATOM     28  C21 UNL A   1      24.039 -11.549  22.648  1.00  0.00    +0.000 C 
ATOM    119  H21 UNL A   1      23.469 -12.373  22.271  1.00  0.00    +0.000 H 
ATOM    120  H22 UNL A   1      24.168 -10.797  21.898  1.00  0.00    +0.000 H 
BRANCH   28   27
ATOM     27  C20 UNL A   1      25.419 -12.052  23.061  1.00  0.00    +0.000 C 
ATOM    117  H19 UNL A   1      25.292 -12.800  23.815  1.00  0.00    +0.000 H 
ATOM    118  H20 UNL A   1      25.887 -12.431  22.177  1.00  0.00    +0.000 H 
BRANCH   27   26
ATOM     26  C19 UNL A   1      26.339 -10.961  23.616  1.00  0.00    +0.000 C 
ATOM    115  H17 UNL A   1      26.570 -10.283  22.822  1.00  0.00    +0.000 H 
ATOM    116  H18 UNL A   1      25.809 -10.501  24.424  1.00  0.00    +0.000 H 
BRANCH   26   25
ATOM     25  C18 UNL A   1      27.663 -11.474  24.205  1.00  0.00    +0.000 C 
ATOM    114  H16 UNL A   1      27.786 -12.473  23.845  1.00  0.00    +0.000 H 
ATOM    113  H15 UNL A   1      27.598 -11.413  25.271  1.00  0.00    +0.000 H 
BRANCH   25   24
ATOM    112  H14 UNL A   1      29.554 -11.384  23.253  1.00  0.00    +0.000 H 
ATOM    111  H13 UNL A   1      29.373 -10.269  24.619  1.00  0.00    +0.000 H 
ATOM     24  C17 UNL A   1      28.908 -10.695  23.756  1.00  0.00    +0.000 C 
BRANCH   24   23
ATOM    109  H11 UNL A   1      29.183  -9.689  21.888  1.00  0.00    +0.000 H 
ATOM    110  H12 UNL A   1      27.549  -9.610  22.518  1.00  0.00    +0.000 H 
ATOM     23  C16 UNL A   1      28.588  -9.568  22.769  1.00  0.00    +0.000 C 
BRANCH   23   22
ATOM    108  H10 UNL A   1      29.777  -7.951  23.152  1.00  0.00    +0.000 H 
ATOM     22  N2  UNL A   1      28.876  -8.282  23.370  1.00  0.00    +0.000 N 
BRANCH   22   20
ATOM     20  C15 UNL A   1      28.170  -7.422  24.179  1.00  0.00    +0.000 C 
ATOM     21  O3  UNL A   1      27.845  -6.351  23.659  1.00  0.00    +0.000 O 
BRANCH   20   19
ATOM    136  H38 UNL A   1      29.122  -6.851  28.500  1.00  0.00    +0.000 H 
ATOM    106  H8  UNL A   1      25.908  -9.387  27.748  1.00  0.00    +0.000 H 
ATOM    107  H9  UNL A   1      26.073  -8.825  25.389  1.00  0.00    +0.000 H 
ATOM     16  C11 UNL A   1      27.567  -8.225  28.336  1.00  0.00    +0.000 C 
ATOM     17  C12 UNL A   1      26.662  -8.765  27.419  1.00  0.00    +0.000 C 
ATOM     18  C13 UNL A   1      26.771  -8.468  26.060  1.00  0.00    +0.000 C 
ATOM     19  C14 UNL A   1      27.829  -7.686  25.625  1.00  0.00    +0.000 C 
ATOM     95  N8  UNL A   1      28.676  -7.089  26.511  1.00  0.00    +0.000 N 
ATOM     96  C67 UNL A   1      28.510  -7.344  27.831  1.00  0.00    +0.000 C 
BRANCH   16   15
ATOM    104  H6  UNL A   1      28.862 -10.760  31.975  1.00  0.00    +0.000 H 
ATOM      9  C6  UNL A   1      28.456  -9.604  30.248  1.00  0.00    +0.000 C 
ATOM     10  C7  UNL A   1      28.242 -10.046  31.563  1.00  0.00    +0.000 C 
ATOM     11  C8  UNL A   1      27.192  -9.522  32.311  1.00  0.00    +0.000 C 
ATOM     12 Cl1  UNL A   1      26.890 -10.087  33.903  1.00  0.00    +0.000 Cl
ATOM     13  C9  UNL A   1      26.392  -8.548  31.740  1.00  0.00    +0.000 C 
ATOM     14  N1  UNL A   1      26.549  -8.093  30.475  1.00  0.00    +0.000 N 
ATOM     15  C10 UNL A   1      27.553  -8.638  29.741  1.00  0.00    +0.000 C 
ATOM    105  H7  UNL A   1      25.631  -8.147  32.310  1.00  0.00    +0.000 H 
BRANCH    9    8
ATOM     97  C68 UNL A   1      30.862  -9.647  29.543  1.00  0.00    +0.000 C 
ATOM     98  C69 UNL A   1      31.931 -10.247  28.868  1.00  0.00    +0.000 C 
ATOM      5  C2  UNL A   1      31.699 -11.367  28.069  1.00  0.00    +0.000 C 
ATOM    102  H4  UNL A   1      30.247 -12.718  27.341  1.00  0.00    +0.000 H 
ATOM      6  C3  UNL A   1      30.413 -11.887  27.929  1.00  0.00    +0.000 C 
ATOM      7  C4  UNL A   1      29.349 -11.271  28.595  1.00  0.00    +0.000 C 
ATOM    103  H5  UNL A   1      28.393 -11.637  28.466  1.00  0.00    +0.000 H 
ATOM    138  H40 UNL A   1      32.884  -9.862  28.959  1.00  0.00    +0.000 H 
ATOM      8  C5  UNL A   1      29.558 -10.161  29.436  1.00  0.00    +0.000 C 
ATOM    137  H39 UNL A   1      31.034  -8.816  30.130  1.00  0.00    +0.000 H 
BRANCH    5    2
ATOM      2  S1  UNL A   1      33.057 -12.189  27.269  1.00  0.00    +0.000 S 
ATOM      3  O1  UNL A   1      32.507 -12.897  26.126  1.00  0.00    +0.000 O 
ATOM      4  O2  UNL A   1      33.805 -12.895  28.288  1.00  0.00    +0.000 O 
BRANCH    2    1
ATOM      1  C1  UNL A   1      34.062 -10.852  26.677  1.00  0.00    +0.000 C 
ATOM     99  H1  UNL A   1      33.448 -10.146  26.159  1.00  0.00    +0.000 H 
ATOM    100  H2  UNL A   1      34.808 -11.234  26.012  1.00  0.00    +0.000 H 
ATOM    101  H3  UNL A   1      34.538 -10.370  27.506  1.00  0.00    +0.000 H 
ENDBRANCH    2    1
ENDBRANCH    5    2
ENDBRANCH    9    8
ENDBRANCH   16   15
ENDBRANCH   20   19
ENDBRANCH   22   20
ENDBRANCH   23   22
ENDBRANCH   24   23
ENDBRANCH   25   24
ENDBRANCH   26   25
ENDBRANCH   27   26
ENDBRANCH   28   27
ENDBRANCH   29   28
ENDBRANCH   30   29
ENDBRANCH   32   30
ENDBRANCH   36   35
BRANCH   40   41
ATOM     41  C31 UNL A   1      22.285 -10.502  34.930  1.00  0.00    +0.000 C 
ATOM     42  C32 UNL A   1      22.475  -9.155  35.276  1.00  0.00    +0.000 C 
ATOM     43  F1  UNL A   1      23.701  -8.612  35.227  1.00  0.00    +0.000 F 
ATOM     44  C33 UNL A   1      21.410  -8.366  35.702  1.00  0.00    +0.000 C 
ATOM     45  F2  UNL A   1      21.624  -7.094  36.064  1.00  0.00    +0.000 F 
ATOM     46  C34 UNL A   1      20.130  -8.897  35.756  1.00  0.00    +0.000 C 
ATOM     47  F3  UNL A   1      19.102  -8.131  36.149  1.00  0.00    +0.000 F 
ATOM     48  C35 UNL A   1      19.915 -10.221  35.406  1.00  0.00    +0.000 C 
ATOM     49  F4  UNL A   1      18.677 -10.730  35.443  1.00  0.00    +0.000 F 
ATOM     50  C36 UNL A   1      20.985 -11.022  35.011  1.00  0.00    +0.000 C 
ATOM     51  F5  UNL A   1      20.745 -12.302  34.687  1.00  0.00    +0.000 F 
ENDBRANCH   40   41
BRANCH   57   58
ATOM     65  C46 UNL A   1      27.587 -15.711  39.665  1.00  0.00    +0.000 C 
ATOM     66  F9  UNL A   1      26.966 -16.655  40.385  1.00  0.00    +0.000 F 
ATOM     67  C47 UNL A   1      27.115 -15.378  38.399  1.00  0.00    +0.000 C 
ATOM     68  F10 UNL A   1      26.045 -16.031  37.920  1.00  0.00    +0.000 F 
ATOM     58  C42 UNL A   1      27.731 -14.374  37.637  1.00  0.00    +0.000 C 
ATOM     59  C43 UNL A   1      28.840 -13.718  38.191  1.00  0.00    +0.000 C 
ATOM     60  F6  UNL A   1      29.475 -12.761  37.498  1.00  0.00    +0.000 F 
ATOM     61  C44 UNL A   1      29.334 -14.078  39.442  1.00  0.00    +0.000 C 
ATOM     62  F7  UNL A   1      30.431 -13.479  39.926  1.00  0.00    +0.000 F 
ATOM     63  C45 UNL A   1      28.702 -15.068  40.181  1.00  0.00    +0.000 C 
ATOM     64  F8  UNL A   1      29.175 -15.409  41.388  1.00  0.00    +0.000 F 
ENDBRANCH   57   58
BRANCH   72   73
ATOM     73  C51 UNL A   1      29.711 -16.041  31.169  1.00  0.00    +0.000 C 
ATOM     74  C52 UNL A   1      29.644 -17.438  31.068  1.00  0.00    +0.000 C 
ATOM     75  F11 UNL A   1      28.533 -18.084  31.450  1.00  0.00    +0.000 F 
ATOM     76  C53 UNL A   1      30.738 -18.182  30.634  1.00  0.00    +0.000 C 
ATOM     77  F12 UNL A   1      30.670 -19.519  30.617  1.00  0.00    +0.000 F 
ATOM     78  C54 UNL A   1      31.907 -17.543  30.249  1.00  0.00    +0.000 C 
ATOM     79  F13 UNL A   1      32.962 -18.259  29.838  1.00  0.00    +0.000 F 
ATOM     80  C55 UNL A   1      31.984 -16.159  30.304  1.00  0.00    +0.000 C 
ATOM     81  F14 UNL A   1      33.106 -15.535  29.917  1.00  0.00    +0.000 F 
ATOM     82  C56 UNL A   1      30.904 -15.417  30.774  1.00  0.00    +0.000 C 
ATOM     83  F15 UNL A   1      31.020 -14.082  30.842  1.00  0.00    +0.000 F 
ENDBRANCH   72   73
TORSDOF 19
ENDMDL
MODEL 2
REMARK VINA RESULT:      -9.3     37.637     42.505
ROOT
ATOM    129  H31 UNL A   1      41.357  29.225  32.435  1.00  0.00    +0.000 H 
ATOM    130  H32 UNL A   1      43.120  29.820  37.099  1.00  0.00    +0.000 H 
ATOM    131  H33 UNL A   1      41.030  31.220  37.567  1.00  0.00    +0.000 H 
ATOM    132  H34 UNL A   1      38.180  30.351  27.975  1.00  0.00    +0.000 H 
ATOM    133  H35 UNL A   1      39.959  28.544  27.615  1.00  0.00    +0.000 H 
ATOM     36  C27 UNL A   1      41.656  28.138  29.873  1.00  0.00    +0.000 C 
ATOM     37  C28 UNL A   1      40.450  29.032  29.775  1.00  0.00    +0.000 C 
ATOM     38  N4  UNL A   1      39.919  29.807  30.687  1.00  0.00    +0.000 N 
ATOM     39  C29 UNL A   1      38.839  30.427  30.073  1.00  0.00    +0.000 C 
ATOM     40  C30 UNL A   1      37.921  31.258  30.621  1.00  0.00    +0.000 C 
ATOM     52  C37 UNL A   1      37.929  31.679  31.998  1.00  0.00    +0.000 C 
ATOM     53  C38 UNL A   1      37.027  32.497  32.656  1.00  0.00    +0.000 C 
ATOM     54  C39 UNL A   1      37.467  32.665  33.972  1.00  0.00    +0.000 C 
ATOM     55  C40 UNL A   1      38.610  31.903  34.152  1.00  0.00    +0.000 C 
ATOM     56  N5  UNL A   1      38.889  31.312  32.930  1.00  0.00    +0.000 N 
ATOM     57  C41 UNL A   1      39.389  31.727  35.350  1.00  0.00    +0.000 C 
ATOM     69  C48 UNL A   1      40.503  30.960  35.446  1.00  0.00    +0.000 C 
ATOM     70  N6  UNL A   1      41.126  30.196  34.468  1.00  0.00    +0.000 N 
ATOM     71  C49 UNL A   1      42.178  29.663  35.043  1.00  0.00    +0.000 C 
ATOM     72  C50 UNL A   1      43.199  28.716  34.471  1.00  0.00    +0.000 C 
ATOM     84  C57 UNL A   1      43.064  28.305  33.195  1.00  0.00    +0.000 C 
ATOM     85  C58 UNL A   1      43.959  27.384  32.504  1.00  0.00    +0.000 C 
ATOM     86  C59 UNL A   1      43.552  27.250  31.233  1.00  0.00    +0.000 C 
ATOM     87  C60 UNL A   1      42.340  28.045  31.029  1.00  0.00    +0.000 C 
ATOM     88  N7  UNL A   1      42.120  28.630  32.252  1.00  0.00    +0.000 N 
ATOM     89  C61 UNL A   1      42.356  30.059  36.447  1.00  0.00    +0.000 C 
ATOM     90  C62 UNL A   1      41.282  30.804  36.656  1.00  0.00    +0.000 C 
ATOM     91  C63 UNL A   1      38.829  29.995  28.693  1.00  0.00    +0.000 C 
ATOM     92  C64 UNL A   1      39.763  29.081  28.475  1.00  0.00    +0.000 C 
ATOM    124  H26 UNL A   1      36.174  32.910  32.246  1.00  0.00    +0.000 H 
ATOM    125  H27 UNL A   1      37.017  33.256  34.688  1.00  0.00    +0.000 H 
ATOM    126  H28 UNL A   1      39.654  30.720  32.749  1.00  0.00    +0.000 H 
ATOM    127  H29 UNL A   1      44.774  26.911  32.926  1.00  0.00    +0.000 H 
ATOM    128  H30 UNL A   1      44.020  26.678  30.512  1.00  0.00    +0.000 H 
ENDROOT
BRANCH   36   35
ATOM     33  C24 UNL A   1      42.055  25.412  27.265  1.00  0.00    +0.000 C 
ATOM     34  C25 UNL A   1      41.557  26.146  28.342  1.00  0.00    +0.000 C 
ATOM     35  C26 UNL A   1      42.128  27.384  28.684  1.00  0.00    +0.000 C 
ATOM    134  H36 UNL A   1      43.590  28.811  28.138  1.00  0.00    +0.000 H 
ATOM    135  H37 UNL A   1      44.298  27.637  26.140  1.00  0.00    +0.000 H 
ATOM    122  H24 UNL A   1      41.656  24.488  27.039  1.00  0.00    +0.000 H 
ATOM    123  H25 UNL A   1      40.765  25.778  28.891  1.00  0.00    +0.000 H 
ATOM     93  C65 UNL A   1      43.157  27.907  27.890  1.00  0.00    +0.000 C 
ATOM     94  C66 UNL A   1      43.600  27.212  26.768  1.00  0.00    +0.000 C 
ATOM     32  C23 UNL A   1      43.095  25.936  26.494  1.00  0.00    +0.000 C 
BRANCH   32   30
ATOM     30  C22 UNL A   1      43.630  25.133  25.374  1.00  0.00    +0.000 C 
ATOM     31  O4  UNL A   1      42.910  24.859  24.419  1.00  0.00    +0.000 O 
BRANCH   30   29
ATOM    121  H23 UNL A   1      45.568  25.234  24.874  1.00  0.00    +0.000 H 
ATOM     29  N3  UNL A   1      44.931  24.703  25.404  1.00  0.00    +0.000 N 
BRANCH   29   28
ATOM     28  C21 UNL A   1      45.496  23.565  26.115  1.00  0.00    +0.000 C 
ATOM    119  H21 UNL A   1      46.305  23.164  25.540  1.00  0.00    +0.000 H 
ATOM    120  H22 UNL A   1      45.836  23.904  27.070  1.00  0.00    +0.000 H 
BRANCH   28   27
ATOM     27  C20 UNL A   1      44.459  22.470  26.339  1.00  0.00    +0.000 C 
ATOM    117  H19 UNL A   1      43.682  22.587  25.613  1.00  0.00    +0.000 H 
ATOM    118  H20 UNL A   1      44.972  21.535  26.248  1.00  0.00    +0.000 H 
BRANCH   27   26
ATOM     26  C19 UNL A   1      43.821  22.491  27.732  1.00  0.00    +0.000 C 
ATOM    115  H17 UNL A   1      44.476  21.981  28.407  1.00  0.00    +0.000 H 
ATOM    116  H18 UNL A   1      43.676  23.522  27.981  1.00  0.00    +0.000 H 
BRANCH   26   25
ATOM     25  C18 UNL A   1      42.438  21.828  27.817  1.00  0.00    +0.000 C 
ATOM    114  H16 UNL A   1      41.790  22.541  28.280  1.00  0.00    +0.000 H 
ATOM    113  H15 UNL A   1      42.538  20.921  28.376  1.00  0.00    +0.000 H 
BRANCH   25   24
ATOM    112  H14 UNL A   1      41.323  20.537  26.560  1.00  0.00    +0.000 H 
ATOM    111  H13 UNL A   1      42.579  21.466  25.719  1.00  0.00    +0.000 H 
ATOM     24  C17 UNL A   1      41.806  21.486  26.459  1.00  0.00    +0.000 C 
BRANCH   24   23
ATOM    109  H11 UNL A   1      40.886  23.415  26.550  1.00  0.00    +0.000 H 
ATOM    110  H12 UNL A   1      40.830  22.662  24.968  1.00  0.00    +0.000 H 
ATOM     23  C16 UNL A   1      40.741  22.496  26.022  1.00  0.00    +0.000 C 
BRANCH   23   22
ATOM    108  H10 UNL A   1      39.244  21.886  27.272  1.00  0.00    +0.000 H 
ATOM     22  N2  UNL A   1      39.418  21.982  26.308  1.00  0.00    +0.000 N 
BRANCH   22   20
ATOM     20  C15 UNL A   1      38.351  21.596  25.530  1.00  0.00    +0.000 C 
ATOM     21  O3  UNL A   1      38.348  20.412  25.181  1.00  0.00    +0.000 O 
BRANCH   20   19
ATOM    136  H38 UNL A   1      35.184  24.587  26.497  1.00  0.00    +0.000 H 
ATOM    106  H8  UNL A   1      35.362  23.477  22.489  1.00  0.00    +0.000 H 
ATOM    107  H9  UNL A   1      37.366  22.191  22.980  1.00  0.00    +0.000 H 
ATOM     16  C11 UNL A   1      35.038  24.089  24.481  1.00  0.00    +0.000 C 
ATOM     17  C12 UNL A   1      35.708  23.413  23.459  1.00  0.00    +0.000 C 
ATOM     18  C13 UNL A   1      36.841  22.650  23.740  1.00  0.00    +0.000 C 
ATOM     19  C14 UNL A   1      37.253  22.517  25.058  1.00  0.00    +0.000 C 
ATOM     95  N8  UNL A   1      36.659  23.229  26.057  1.00  0.00    +0.000 N 
ATOM     96  C67 UNL A   1      35.598  24.013  25.746  1.00  0.00    +0.000 C 
BRANCH   16   15
ATOM    104  H6  UNL A   1      30.593  24.369  23.251  1.00  0.00    +0.000 H 
ATOM      9  C6  UNL A   1      32.586  24.070  23.902  1.00  0.00    +0.000 C 
ATOM     10  C7  UNL A   1      31.476  24.835  23.512  1.00  0.00    +0.000 C 
ATOM     11  C8  UNL A   1      31.565  26.223  23.477  1.00  0.00    +0.000 C 
ATOM     12 Cl1  UNL A   1      30.231  27.170  22.958  1.00  0.00    +0.000 Cl
ATOM     13  C9  UNL A   1      32.754  26.821  23.856  1.00  0.00    +0.000 C 
ATOM     14  N1  UNL A   1      33.856  26.131  24.232  1.00  0.00    +0.000 N 
ATOM     15  C10 UNL A   1      33.770  24.776  24.226  1.00  0.00    +0.000 C 
ATOM    105  H7  UNL A   1      32.804  27.852  23.851  1.00  0.00    +0.000 H 
BRANCH    9    8
ATOM     97  C68 UNL A   1      32.236  21.865  22.760  1.00  0.00    +0.000 C 
ATOM     98  C69 UNL A   1      32.281  20.466  22.755  1.00  0.00    +0.000 C 
ATOM      5  C2  UNL A   1      32.595  19.784  23.931  1.00  0.00    +0.000 C 
ATOM    102  H4  UNL A   1      33.088  19.971  25.977  1.00  0.00    +0.000 H 
ATOM      6  C3  UNL A   1      32.852  20.480  25.111  1.00  0.00    +0.000 C 
ATOM      7  C4  UNL A   1      32.789  21.877  25.110  1.00  0.00    +0.000 C 
ATOM    103  H5  UNL A   1      32.949  22.391  25.990  1.00  0.00    +0.000 H 
ATOM    138  H40 UNL A   1      32.082  19.944  21.888  1.00  0.00    +0.000 H 
ATOM      8  C5  UNL A   1      32.510  22.594  23.930  1.00  0.00    +0.000 C 
ATOM    137  H39 UNL A   1      32.000  22.368  21.891  1.00  0.00    +0.000 H 
BRANCH    5    2
ATOM      2  S1  UNL A   1      32.734  18.012  23.923  1.00  0.00    +0.000 S 
ATOM      3  O1  UNL A   1      32.471  17.573  22.564  1.00  0.00    +0.000 O 
ATOM      4  O2  UNL A   1      31.949  17.505  25.030  1.00  0.00    +0.000 O 
BRANCH    2    1
ATOM      1  C1  UNL A   1      34.446  17.727  24.290  1.00  0.00    +0.000 C 
ATOM     99  H1  UNL A   1      34.674  16.692  24.150  1.00  0.00    +0.000 H 
ATOM    100  H2  UNL A   1      34.645  18.003  25.304  1.00  0.00    +0.000 H 
ATOM    101  H3  UNL A   1      35.054  18.317  23.634  1.00  0.00    +0.000 H 
ENDBRANCH    2    1
ENDBRANCH    5    2
ENDBRANCH    9    8
ENDBRANCH   16   15
ENDBRANCH   20   19
ENDBRANCH   22   20
ENDBRANCH   23   22
ENDBRANCH   24   23
ENDBRANCH   25   24
ENDBRANCH   26   25
ENDBRANCH   27   26
ENDBRANCH   28   27
ENDBRANCH   29   28
ENDBRANCH   30   29
ENDBRANCH   32   30
ENDBRANCH   36   35
BRANCH   40   41
ATOM     41  C31 UNL A   1      36.813  31.757  29.736  1.00  0.00    +0.000 C 
ATOM     42  C32 UNL A   1      35.796  30.901  29.285  1.00  0.00    +0.000 C 
ATOM     43  F1  UNL A   1      35.835  29.593  29.579  1.00  0.00    +0.000 F 
ATOM     44  C33 UNL A   1      34.749  31.381  28.503  1.00  0.00    +0.000 C 
ATOM     45  F2  UNL A   1      33.811  30.537  28.051  1.00  0.00    +0.000 F 
ATOM     46  C34 UNL A   1      34.678  32.730  28.189  1.00  0.00    +0.000 C 
ATOM     47  F3  UNL A   1      33.659  33.194  27.451  1.00  0.00    +0.000 F 
ATOM     48  C35 UNL A   1      35.663  33.597  28.635  1.00  0.00    +0.000 C 
ATOM     49  F4  UNL A   1      35.587  34.902  28.344  1.00  0.00    +0.000 F 
ATOM     50  C36 UNL A   1      36.730  33.113  29.390  1.00  0.00    +0.000 C 
ATOM     51  F5  UNL A   1      37.672  33.977  29.799  1.00  0.00    +0.000 F 
ENDBRANCH   40   41
BRANCH   57   58
ATOM     65  C46 UNL A   1      37.562  32.424  38.615  1.00  0.00    +0.000 C 
ATOM     66  F9  UNL A   1      36.687  31.806  39.420  1.00  0.00    +0.000 F 
ATOM     67  C47 UNL A   1      38.027  31.784  37.471  1.00  0.00    +0.000 C 
ATOM     68  F10 UNL A   1      37.592  30.543  37.207  1.00  0.00    +0.000 F 
ATOM     58  C42 UNL A   1      38.923  32.421  36.598  1.00  0.00    +0.000 C 
ATOM     59  C43 UNL A   1      39.337  33.722  36.919  1.00  0.00    +0.000 C 
ATOM     60  F6  UNL A   1      40.205  34.370  36.127  1.00  0.00    +0.000 F 
ATOM     61  C44 UNL A   1      38.900  34.346  38.084  1.00  0.00    +0.000 C 
ATOM     62  F7  UNL A   1      39.356  35.566  38.400  1.00  0.00    +0.000 F 
ATOM     63  C45 UNL A   1      38.007  33.700  38.927  1.00  0.00    +0.000 C 
ATOM     64  F8  UNL A   1      37.582  34.305  40.045  1.00  0.00    +0.000 F 
ENDBRANCH   57   58
BRANCH   72   73
ATOM     73  C51 UNL A   1      44.340  28.238  35.298  1.00  0.00    +0.000 C 
ATOM     74  C52 UNL A   1      45.574  28.903  35.286  1.00  0.00    +0.000 C 
ATOM     75  F11 UNL A   1      45.735  30.002  34.535  1.00  0.00    +0.000 F 
ATOM     76  C53 UNL A   1      46.666  28.409  35.996  1.00  0.00    +0.000 C 
ATOM     77  F12 UNL A   1      47.852  29.025  35.908  1.00  0.00    +0.000 F 
ATOM     78  C54 UNL A   1      46.535  27.265  36.768  1.00  0.00    +0.000 C 
ATOM     79  F13 UNL A   1      47.587  26.786  37.445  1.00  0.00    +0.000 F 
ATOM     80  C55 UNL A   1      45.313  26.611  36.825  1.00  0.00    +0.000 C 
ATOM     81  F14 UNL A   1      45.177  25.513  37.583  1.00  0.00    +0.000 F 
ATOM     82  C56 UNL A   1      44.232  27.083  36.086  1.00  0.00    +0.000 C 
ATOM     83  F15 UNL A   1      43.072  26.411  36.141  1.00  0.00    +0.000 F 
ENDBRANCH   72   73
TORSDOF 19
ENDMDL
MODEL 3
REMARK VINA RESULT:      -8.8     64.033     70.369
ROOT
ATOM    129  H31 UNL A   1      14.447  51.526   3.478  1.00  0.00    +0.000 H 
ATOM    130  H32 UNL A   1      13.516  46.724   2.344  1.00  0.00    +0.000 H 
ATOM    131  H33 UNL A   1      15.290  46.951   0.515  1.00  0.00    +0.000 H 
ATOM    132  H34 UNL A   1      16.387  56.703   2.652  1.00  0.00    +0.000 H 
ATOM    133  H35 UNL A   1      15.020  56.383   4.794  1.00  0.00    +0.000 H 
ATOM     36  C27 UNL A   1      13.917  53.766   5.071  1.00  0.00    +0.000 C 
ATOM     37  C28 UNL A   1      14.852  54.263   4.003  1.00  0.00    +0.000 C 
ATOM     38  N4  UNL A   1      15.360  53.619   2.983  1.00  0.00    +0.000 N 
ATOM     39  C29 UNL A   1      16.138  54.545   2.301  1.00  0.00    +0.000 C 
ATOM     40  C30 UNL A   1      16.935  54.347   1.224  1.00  0.00    +0.000 C 
ATOM     52  C37 UNL A   1      17.096  53.081   0.557  1.00  0.00    +0.000 C 
ATOM     53  C38 UNL A   1      17.900  52.772  -0.525  1.00  0.00    +0.000 C 
ATOM     54  C39 UNL A   1      17.692  51.429  -0.856  1.00  0.00    +0.000 C 
ATOM     55  C40 UNL A   1      16.804  50.886   0.057  1.00  0.00    +0.000 C 
ATOM     56  N5  UNL A   1      16.436  51.913   0.912  1.00  0.00    +0.000 N 
ATOM     57  C41 UNL A   1      16.325  49.531   0.143  1.00  0.00    +0.000 C 
ATOM     69  C48 UNL A   1      15.449  49.074   1.072  1.00  0.00    +0.000 C 
ATOM     70  N6  UNL A   1      14.838  49.762   2.111  1.00  0.00    +0.000 N 
ATOM     71  C49 UNL A   1      14.060  48.893   2.711  1.00  0.00    +0.000 C 
ATOM     72  C50 UNL A   1      13.186  49.075   3.924  1.00  0.00    +0.000 C 
ATOM     84  C57 UNL A   1      13.164  50.273   4.538  1.00  0.00    +0.000 C 
ATOM     85  C58 UNL A   1      12.383  50.601   5.725  1.00  0.00    +0.000 C 
ATOM     86  C59 UNL A   1      12.560  51.898   6.021  1.00  0.00    +0.000 C 
ATOM     87  C60 UNL A   1      13.503  52.484   5.068  1.00  0.00    +0.000 C 
ATOM     88  N7  UNL A   1      13.816  51.443   4.230  1.00  0.00    +0.000 N 
ATOM     89  C61 UNL A   1      14.069  47.559   2.095  1.00  0.00    +0.000 C 
ATOM     90  C62 UNL A   1      14.969  47.710   1.136  1.00  0.00    +0.000 C 
ATOM     91  C63 UNL A   1      15.982  55.813   2.980  1.00  0.00    +0.000 C 
ATOM     92  C64 UNL A   1      15.251  55.678   4.076  1.00  0.00    +0.000 C 
ATOM    124  H26 UNL A   1      18.545  53.420  -1.004  1.00  0.00    +0.000 H 
ATOM    125  H27 UNL A   1      18.126  50.928  -1.647  1.00  0.00    +0.000 H 
ATOM    126  H28 UNL A   1      15.802  51.828   1.660  1.00  0.00    +0.000 H 
ATOM    127  H29 UNL A   1      11.789  49.942   6.253  1.00  0.00    +0.000 H 
ATOM    128  H30 UNL A   1      12.103  52.402   6.797  1.00  0.00    +0.000 H 
ENDROOT
BRANCH   36   35
ATOM     33  C24 UNL A   1      11.771  56.317   6.882  1.00  0.00    +0.000 C 
ATOM     34  C25 UNL A   1      12.206  55.395   5.928  1.00  0.00    +0.000 C 
ATOM     35  C26 UNL A   1      13.408  54.693   6.113  1.00  0.00    +0.000 C 
ATOM    134  H36 UNL A   1      15.023  54.372   7.440  1.00  0.00    +0.000 H 
ATOM    135  H37 UNL A   1      14.150  55.804   9.189  1.00  0.00    +0.000 H 
ATOM    122  H24 UNL A   1      10.906  56.856   6.726  1.00  0.00    +0.000 H 
ATOM    123  H25 UNL A   1      11.639  55.228   5.082  1.00  0.00    +0.000 H 
ATOM     93  C65 UNL A   1      14.133  54.876   7.299  1.00  0.00    +0.000 C 
ATOM     94  C66 UNL A   1      13.659  55.735   8.285  1.00  0.00    +0.000 C 
ATOM     32  C23 UNL A   1      12.514  56.504   8.049  1.00  0.00    +0.000 C 
BRANCH   32   30
ATOM     30  C22 UNL A   1      12.056  57.504   9.036  1.00  0.00    +0.000 C 
ATOM     31  O4  UNL A   1      12.441  58.666   8.955  1.00  0.00    +0.000 O 
BRANCH   30   29
ATOM    121  H23 UNL A   1      10.776  57.868  10.535  1.00  0.00    +0.000 H 
ATOM     29  N3  UNL A   1      11.196  57.131  10.036  1.00  0.00    +0.000 N 
BRANCH   29   28
ATOM     28  C21 UNL A   1      10.820  55.790  10.458  1.00  0.00    +0.000 C 
ATOM    119  H21 UNL A   1       9.752  55.724  10.495  1.00  0.00    +0.000 H 
ATOM    120  H22 UNL A   1      11.222  55.093   9.752  1.00  0.00    +0.000 H 
BRANCH   28   27
ATOM     27  C20 UNL A   1      11.383  55.452  11.834  1.00  0.00    +0.000 C 
ATOM    117  H19 UNL A   1      11.869  56.323  12.221  1.00  0.00    +0.000 H 
ATOM    118  H20 UNL A   1      10.558  55.137  12.438  1.00  0.00    +0.000 H 
BRANCH   27   26
ATOM     26  C19 UNL A   1      12.393  54.301  11.830  1.00  0.00    +0.000 C 
ATOM    115  H17 UNL A   1      12.351  53.825  10.873  1.00  0.00    +0.000 H 
ATOM    116  H18 UNL A   1      13.348  54.736  12.044  1.00  0.00    +0.000 H 
BRANCH   26   25
ATOM     25  C18 UNL A   1      12.156  53.232  12.907  1.00  0.00    +0.000 C 
ATOM    114  H16 UNL A   1      11.672  52.413  12.417  1.00  0.00    +0.000 H 
ATOM    113  H15 UNL A   1      11.565  53.668  13.684  1.00  0.00    +0.000 H 
BRANCH   25   24
ATOM    112  H14 UNL A   1      13.262  51.628  13.738  1.00  0.00    +0.000 H 
ATOM    111  H13 UNL A   1      13.646  53.213  14.433  1.00  0.00    +0.000 H 
ATOM     24  C17 UNL A   1      13.435  52.664  13.539  1.00  0.00    +0.000 C 
BRANCH   24   23
ATOM    109  H11 UNL A   1      14.500  53.537  11.902  1.00  0.00    +0.000 H 
ATOM    110  H12 UNL A   1      15.523  52.959  13.203  1.00  0.00    +0.000 H 
ATOM     23  C16 UNL A   1      14.653  52.754  12.614  1.00  0.00    +0.000 C 
BRANCH   23   22
ATOM    108  H10 UNL A   1      15.031  50.748  12.519  1.00  0.00    +0.000 H 
ATOM     22  N2  UNL A   1      14.841  51.500  11.914  1.00  0.00    +0.000 N 
BRANCH   22   20
ATOM     20  C15 UNL A   1      14.814  51.129  10.590  1.00  0.00    +0.000 C 
ATOM     21  O3  UNL A   1      15.800  51.459   9.925  1.00  0.00    +0.000 O 
BRANCH   20   19
ATOM    136  H38 UNL A   1      10.452  50.900   9.681  1.00  0.00    +0.000 H 
ATOM    106  H8  UNL A   1      12.688  47.677   8.292  1.00  0.00    +0.000 H 
ATOM    107  H9  UNL A   1      14.708  48.830   8.999  1.00  0.00    +0.000 H 
ATOM     16  C11 UNL A   1      11.366  49.158   9.002  1.00  0.00    +0.000 C 
ATOM     17  C12 UNL A   1      12.619  48.584   8.779  1.00  0.00    +0.000 C 
ATOM     18  C13 UNL A   1      13.780  49.228   9.208  1.00  0.00    +0.000 C 
ATOM     19  C14 UNL A   1      13.667  50.412   9.921  1.00  0.00    +0.000 C 
ATOM     95  N8  UNL A   1      12.461  51.026  10.083  1.00  0.00    +0.000 N 
ATOM     96  C67 UNL A   1      11.355  50.409   9.600  1.00  0.00    +0.000 C 
BRANCH   16   15
ATOM    104  H6  UNL A   1       8.163  45.880   9.587  1.00  0.00    +0.000 H 
ATOM      9  C6  UNL A   1       9.640  47.395   9.515  1.00  0.00    +0.000 C 
ATOM     10  C7  UNL A   1       8.551  46.656   9.027  1.00  0.00    +0.000 C 
ATOM     11  C8  UNL A   1       7.997  46.967   7.790  1.00  0.00    +0.000 C 
ATOM     12 Cl1  UNL A   1       6.695  46.042   7.161  1.00  0.00    +0.000 Cl
ATOM     13  C9  UNL A   1       8.525  48.027   7.074  1.00  0.00    +0.000 C 
ATOM     14  N1  UNL A   1       9.577  48.767   7.494  1.00  0.00    +0.000 N 
ATOM     15  C10 UNL A   1      10.135  48.431   8.685  1.00  0.00    +0.000 C 
ATOM    105  H7  UNL A   1       8.092  48.267   6.169  1.00  0.00    +0.000 H 
BRANCH    9    8
ATOM     97  C68 UNL A   1      11.340  46.185  10.905  1.00  0.00    +0.000 C 
ATOM     98  C69 UNL A   1      11.996  45.963  12.122  1.00  0.00    +0.000 C 
ATOM      5  C2  UNL A   1      11.556  46.621  13.270  1.00  0.00    +0.000 C 
ATOM    102  H4  UNL A   1      10.145  47.974  14.072  1.00  0.00    +0.000 H 
ATOM      6  C3  UNL A   1      10.464  47.487  13.220  1.00  0.00    +0.000 C 
ATOM      7  C4  UNL A   1       9.805  47.689  12.004  1.00  0.00    +0.000 C 
ATOM    103  H5  UNL A   1       8.979  48.306  11.974  1.00  0.00    +0.000 H 
ATOM    138  H40 UNL A   1      12.798  45.316  12.168  1.00  0.00    +0.000 H 
ATOM      8  C5  UNL A   1      10.249  47.067  10.821  1.00  0.00    +0.000 C 
ATOM    137  H39 UNL A   1      11.664  45.694  10.057  1.00  0.00    +0.000 H 
BRANCH    5    2
ATOM      2  S1  UNL A   1      12.426  46.413  14.806  1.00  0.00    +0.000 S 
ATOM      3  O1  UNL A   1      12.620  47.739  15.365  1.00  0.00    +0.000 O 
ATOM      4  O2  UNL A   1      13.556  45.542  14.556  1.00  0.00    +0.000 O 
BRANCH    2    1
ATOM      1  C1  UNL A   1      11.270  45.533  15.824  1.00  0.00    +0.000 C 
ATOM     99  H1  UNL A   1      10.689  46.231  16.389  1.00  0.00    +0.000 H 
ATOM    100  H2  UNL A   1      11.801  44.888  16.492  1.00  0.00    +0.000 H 
ATOM    101  H3  UNL A   1      10.621  44.949  15.204  1.00  0.00    +0.000 H 
ENDBRANCH    2    1
ENDBRANCH    5    2
ENDBRANCH    9    8
ENDBRANCH   16   15
ENDBRANCH   20   19
ENDBRANCH   22   20
ENDBRANCH   23   22
ENDBRANCH   24   23
ENDBRANCH   25   24
ENDBRANCH   26   25
ENDBRANCH   27   26
ENDBRANCH   28   27
ENDBRANCH   29   28
ENDBRANCH   30   29
ENDBRANCH   32   30
ENDBRANCH   36   35
BRANCH   40   41
ATOM     41  C31 UNL A   1      17.715  55.523   0.705  1.00  0.00    +0.000 C 
ATOM     42  C32 UNL A   1      19.003  55.813   1.181  1.00  0.00    +0.000 C 
ATOM     43  F1  UNL A   1      19.539  55.080   2.169  1.00  0.00    +0.000 F 
ATOM     44  C33 UNL A   1      19.737  56.876   0.663  1.00  0.00    +0.000 C 
ATOM     45  F2  UNL A   1      20.949  57.157   1.160  1.00  0.00    +0.000 F 
ATOM     46  C34 UNL A   1      19.213  57.647  -0.364  1.00  0.00    +0.000 C 
ATOM     47  F3  UNL A   1      19.928  58.659  -0.875  1.00  0.00    +0.000 F 
ATOM     48  C35 UNL A   1      17.948  57.371  -0.859  1.00  0.00    +0.000 C 
ATOM     49  F4  UNL A   1      17.447  58.105  -1.862  1.00  0.00    +0.000 F 
ATOM     50  C36 UNL A   1      17.199  56.328  -0.320  1.00  0.00    +0.000 C 
ATOM     51  F5  UNL A   1      15.974  56.092  -0.816  1.00  0.00    +0.000 F 
ENDBRANCH   40   41
BRANCH   57   58
ATOM     65  C46 UNL A   1      16.585  47.299  -2.929  1.00  0.00    +0.000 C 
ATOM     66  F9  UNL A   1      15.858  47.013  -4.018  1.00  0.00    +0.000 F 
ATOM     67  C47 UNL A   1      16.124  48.239  -2.013  1.00  0.00    +0.000 C 
ATOM     68  F10 UNL A   1      14.957  48.854  -2.255  1.00  0.00    +0.000 F 
ATOM     58  C42 UNL A   1      16.853  48.536  -0.851  1.00  0.00    +0.000 C 
ATOM     59  C43 UNL A   1      18.063  47.857  -0.645  1.00  0.00    +0.000 C 
ATOM     60  F6  UNL A   1      18.806  48.114   0.442  1.00  0.00    +0.000 F 
ATOM     61  C44 UNL A   1      18.540  46.943  -1.582  1.00  0.00    +0.000 C 
ATOM     62  F7  UNL A   1      19.727  46.351  -1.392  1.00  0.00    +0.000 F 
ATOM     63  C45 UNL A   1      17.797  46.660  -2.718  1.00  0.00    +0.000 C 
ATOM     64  F8  UNL A   1      18.255  45.776  -3.616  1.00  0.00    +0.000 F 
ENDBRANCH   57   58
BRANCH   72   73
ATOM     73  C51 UNL A   1      12.359  47.950   4.439  1.00  0.00    +0.000 C 
ATOM     74  C52 UNL A   1      11.105  47.657   3.884  1.00  0.00    +0.000 C 
ATOM     75  F11 UNL A   1      10.642  48.385   2.858  1.00  0.00    +0.000 F 
ATOM     76  C53 UNL A   1      10.296  46.658   4.420  1.00  0.00    +0.000 C 
ATOM     77  F12 UNL A   1       9.073  46.449   3.915  1.00  0.00    +0.000 F 
ATOM     78  C54 UNL A   1      10.741  45.901   5.493  1.00  0.00    +0.000 C 
ATOM     79  F13 UNL A   1       9.959  44.945   6.013  1.00  0.00    +0.000 F 
ATOM     80  C55 UNL A   1      11.994  46.147   6.035  1.00  0.00    +0.000 C 
ATOM     81  F14 UNL A   1      12.436  45.408   7.062  1.00  0.00    +0.000 F 
ATOM     82  C56 UNL A   1      12.788  47.171   5.524  1.00  0.00    +0.000 C 
ATOM     83  F15 UNL A   1      13.982  47.402   6.089  1.00  0.00    +0.000 F 
ENDBRANCH   72   73
TORSDOF 19
ENDMDL
MODEL 4
REMARK VINA RESULT:      -8.7     66.122     72.018
ROOT
ATOM    129  H31 UNL A   1      15.967  53.404   2.300  1.00  0.00    +0.000 H 
ATOM    130  H32 UNL A   1      18.227  53.151  -2.177  1.00  0.00    +0.000 H 
ATOM    131  H33 UNL A   1      17.757  50.636  -2.123  1.00  0.00    +0.000 H 
ATOM    132  H34 UNL A   1      13.907  51.454   7.117  1.00  0.00    +0.000 H 
ATOM    133  H35 UNL A   1      13.889  54.005   6.879  1.00  0.00    +0.000 H 
ATOM     36  C27 UNL A   1      15.109  54.941   4.475  1.00  0.00    +0.000 C 
ATOM     37  C28 UNL A   1      14.850  53.517   4.883  1.00  0.00    +0.000 C 
ATOM     38  N4  UNL A   1      15.119  52.410   4.237  1.00  0.00    +0.000 N 
ATOM     39  C29 UNL A   1      14.696  51.378   5.065  1.00  0.00    +0.000 C 
ATOM     40  C30 UNL A   1      14.681  50.047   4.812  1.00  0.00    +0.000 C 
ATOM     52  C37 UNL A   1      15.150  49.450   3.590  1.00  0.00    +0.000 C 
ATOM     53  C38 UNL A   1      15.152  48.114   3.227  1.00  0.00    +0.000 C 
ATOM     54  C39 UNL A   1      15.749  48.002   1.968  1.00  0.00    +0.000 C 
ATOM     55  C40 UNL A   1      16.064  49.274   1.519  1.00  0.00    +0.000 C 
ATOM     56  N5  UNL A   1      15.702  50.152   2.528  1.00  0.00    +0.000 N 
ATOM     57  C41 UNL A   1      16.652  49.660   0.262  1.00  0.00    +0.000 C 
ATOM     69  C48 UNL A   1      16.932  50.935  -0.105  1.00  0.00    +0.000 C 
ATOM     70  N6  UNL A   1      16.728  52.114   0.600  1.00  0.00    +0.000 N 
ATOM     71  C49 UNL A   1      17.186  53.076  -0.165  1.00  0.00    +0.000 C 
ATOM     72  C50 UNL A   1      17.191  54.562   0.074  1.00  0.00    +0.000 C 
ATOM     84  C57 UNL A   1      16.651  55.042   1.211  1.00  0.00    +0.000 C 
ATOM     85  C58 UNL A   1      16.569  56.451   1.579  1.00  0.00    +0.000 C 
ATOM     86  C59 UNL A   1      16.025  56.551   2.802  1.00  0.00    +0.000 C 
ATOM     87  C60 UNL A   1      15.680  55.214   3.287  1.00  0.00    +0.000 C 
ATOM     88  N7  UNL A   1      16.080  54.382   2.271  1.00  0.00    +0.000 N 
ATOM     89  C61 UNL A   1      17.763  52.607  -1.433  1.00  0.00    +0.000 C 
ATOM     90  C62 UNL A   1      17.535  51.304  -1.369  1.00  0.00    +0.000 C 
ATOM     91  C63 UNL A   1      14.217  51.983   6.287  1.00  0.00    +0.000 C 
ATOM     92  C64 UNL A   1      14.228  53.305   6.200  1.00  0.00    +0.000 C 
ATOM    124  H26 UNL A   1      14.776  47.334   3.789  1.00  0.00    +0.000 H 
ATOM    125  H27 UNL A   1      15.925  47.123   1.459  1.00  0.00    +0.000 H 
ATOM    126  H28 UNL A   1      15.819  51.129   2.498  1.00  0.00    +0.000 H 
ATOM    127  H29 UNL A   1      16.879  57.242   0.994  1.00  0.00    +0.000 H 
ATOM    128  H30 UNL A   1      15.875  57.433   3.318  1.00  0.00    +0.000 H 
ENDROOT
BRANCH   36   35
ATOM     33  C24 UNL A   1      13.213  57.726   6.221  1.00  0.00    +0.000 C 
ATOM     34  C25 UNL A   1      13.495  56.632   5.401  1.00  0.00    +0.000 C 
ATOM     35  C26 UNL A   1      14.776  56.057   5.397  1.00  0.00    +0.000 C 
ATOM    134  H36 UNL A   1      16.699  56.139   6.276  1.00  0.00    +0.000 H 
ATOM    135  H37 UNL A   1      16.137  57.890   7.854  1.00  0.00    +0.000 H 
ATOM    122  H24 UNL A   1      12.281  58.167   6.194  1.00  0.00    +0.000 H 
ATOM    123  H25 UNL A   1      12.757  56.243   4.793  1.00  0.00    +0.000 H 
ATOM     93  C65 UNL A   1      15.751  56.548   6.277  1.00  0.00    +0.000 C 
ATOM     94  C66 UNL A   1      15.446  57.587   7.152  1.00  0.00    +0.000 C 
ATOM     32  C23 UNL A   1      14.199  58.218   7.077  1.00  0.00    +0.000 C 
BRANCH   32   30
ATOM     30  C22 UNL A   1      13.894  59.394   7.918  1.00  0.00    +0.000 C 
ATOM     31  O4  UNL A   1      14.406  60.480   7.663  1.00  0.00    +0.000 O 
BRANCH   30   29
ATOM    121  H23 UNL A   1      13.145  58.460   9.526  1.00  0.00    +0.000 H 
ATOM     29  N3  UNL A   1      13.033  59.270   8.978  1.00  0.00    +0.000 N 
BRANCH   29   28
ATOM     28  C21 UNL A   1      11.976  60.177   9.401  1.00  0.00    +0.000 C 
ATOM    119  H21 UNL A   1      12.362  60.833  10.155  1.00  0.00    +0.000 H 
ATOM    120  H22 UNL A   1      11.647  60.728   8.546  1.00  0.00    +0.000 H 
BRANCH   28   27
ATOM     27  C20 UNL A   1      10.780  59.421   9.971  1.00  0.00    +0.000 C 
ATOM    117  H19 UNL A   1      10.638  59.732  10.985  1.00  0.00    +0.000 H 
ATOM    118  H20 UNL A   1       9.942  59.653   9.347  1.00  0.00    +0.000 H 
BRANCH   27   26
ATOM     26  C19 UNL A   1      10.938  57.898   9.953  1.00  0.00    +0.000 C 
ATOM    115  H17 UNL A   1      10.794  57.560   8.949  1.00  0.00    +0.000 H 
ATOM    116  H18 UNL A   1      11.918  57.692  10.331  1.00  0.00    +0.000 H 
BRANCH   26   25
ATOM     25  C18 UNL A   1       9.958  57.138  10.859  1.00  0.00    +0.000 C 
ATOM    114  H16 UNL A   1       9.893  56.145  10.467  1.00  0.00    +0.000 H 
ATOM    113  H15 UNL A   1       9.024  57.659  10.849  1.00  0.00    +0.000 H 
BRANCH   25   24
ATOM    112  H14 UNL A   1      10.466  57.984  12.735  1.00  0.00    +0.000 H 
ATOM    111  H13 UNL A   1      11.361  56.506  12.336  1.00  0.00    +0.000 H 
ATOM     24  C17 UNL A   1      10.412  56.999  12.320  1.00  0.00    +0.000 C 
BRANCH   24   23
ATOM    109  H11 UNL A   1       8.550  56.778  13.350  1.00  0.00    +0.000 H 
ATOM    110  H12 UNL A   1       9.178  55.291  12.666  1.00  0.00    +0.000 H 
ATOM     23  C16 UNL A   1       9.431  56.195  13.179  1.00  0.00    +0.000 C 
BRANCH   23   22
ATOM    108  H10 UNL A   1      10.016  56.606  15.093  1.00  0.00    +0.000 H 
ATOM     22  N2  UNL A   1      10.039  55.862  14.450  1.00  0.00    +0.000 N 
BRANCH   22   20
ATOM     20  C15 UNL A   1      10.642  54.734  14.958  1.00  0.00    +0.000 C 
ATOM     21  O3  UNL A   1      10.225  54.357  16.057  1.00  0.00    +0.000 O 
BRANCH   20   19
ATOM    136  H38 UNL A   1      14.588  54.839  12.878  1.00  0.00    +0.000 H 
ATOM    106  H8  UNL A   1      12.867  51.060  13.151  1.00  0.00    +0.000 H 
ATOM    107  H9  UNL A   1      11.110  52.008  14.538  1.00  0.00    +0.000 H 
ATOM     16  C11 UNL A   1      13.853  52.893  12.815  1.00  0.00    +0.000 C 
ATOM     17  C12 UNL A   1      12.850  52.074  13.337  1.00  0.00    +0.000 C 
ATOM     18  C13 UNL A   1      11.823  52.618  14.110  1.00  0.00    +0.000 C 
ATOM     19  C14 UNL A   1      11.775  53.991  14.294  1.00  0.00    +0.000 C 
ATOM     95  N8  UNL A   1      12.785  54.797  13.858  1.00  0.00    +0.000 N 
ATOM     96  C67 UNL A   1      13.803  54.233  13.164  1.00  0.00    +0.000 C 
BRANCH   16   15
ATOM    104  H6  UNL A   1      15.462  51.550   8.698  1.00  0.00    +0.000 H 
ATOM      9  C6  UNL A   1      14.632  52.311  10.491  1.00  0.00    +0.000 C 
ATOM     10  C7  UNL A   1      15.585  51.628   9.719  1.00  0.00    +0.000 C 
ATOM     11  C8  UNL A   1      16.696  51.057  10.331  1.00  0.00    +0.000 C 
ATOM     12 Cl1  UNL A   1      17.846  50.180   9.407  1.00  0.00    +0.000 Cl
ATOM     13  C9  UNL A   1      16.846  51.200  11.700  1.00  0.00    +0.000 C 
ATOM     14  N1  UNL A   1      15.954  51.840  12.491  1.00  0.00    +0.000 N 
ATOM     15  C10 UNL A   1      14.855  52.362  11.888  1.00  0.00    +0.000 C 
ATOM    105  H7  UNL A   1      17.685  50.794  12.143  1.00  0.00    +0.000 H 
BRANCH    9    8
ATOM     97  C68 UNL A   1      13.422  54.270   9.497  1.00  0.00    +0.000 C 
ATOM     98  C69 UNL A   1      12.345  54.815   8.790  1.00  0.00    +0.000 C 
ATOM      5  C2  UNL A   1      11.267  54.001   8.443  1.00  0.00    +0.000 C 
ATOM    102  H4  UNL A   1      10.450  52.055   8.541  1.00  0.00    +0.000 H 
ATOM      6  C3  UNL A   1      11.248  52.654   8.803  1.00  0.00    +0.000 C 
ATOM      7  C4  UNL A   1      12.321  52.122   9.524  1.00  0.00    +0.000 C 
ATOM    103  H5  UNL A   1      12.293  51.133   9.817  1.00  0.00    +0.000 H 
ATOM    138  H40 UNL A   1      12.348  55.813   8.529  1.00  0.00    +0.000 H 
ATOM      8  C5  UNL A   1      13.439  52.911   9.856  1.00  0.00    +0.000 C 
ATOM    137  H39 UNL A   1      14.217  54.875   9.757  1.00  0.00    +0.000 H 
BRANCH    5    2
ATOM      2  S1  UNL A   1       9.927  54.657   7.476  1.00  0.00    +0.000 S 
ATOM      3  O1  UNL A   1       9.697  53.726   6.386  1.00  0.00    +0.000 O 
ATOM      4  O2  UNL A   1      10.220  56.051   7.210  1.00  0.00    +0.000 O 
BRANCH    2    1
ATOM      1  C1  UNL A   1       8.543  54.590   8.582  1.00  0.00    +0.000 C 
ATOM     99  H1  UNL A   1       8.473  55.509   9.124  1.00  0.00    +0.000 H 
ATOM    100  H2  UNL A   1       8.674  53.780   9.269  1.00  0.00    +0.000 H 
ATOM    101  H3  UNL A   1       7.644  54.439   8.020  1.00  0.00    +0.000 H 
ENDBRANCH    2    1
ENDBRANCH    5    2
ENDBRANCH    9    8
ENDBRANCH   16   15
ENDBRANCH   20   19
ENDBRANCH   22   20
ENDBRANCH   23   22
ENDBRANCH   24   23
ENDBRANCH   25   24
ENDBRANCH   26   25
ENDBRANCH   27   26
ENDBRANCH   28   27
ENDBRANCH   29   28
ENDBRANCH   30   29
ENDBRANCH   32   30
ENDBRANCH   36   35
BRANCH   40   41
ATOM     41  C31 UNL A   1      14.121  49.141   5.872  1.00  0.00    +0.000 C 
ATOM     42  C32 UNL A   1      12.762  48.791   5.891  1.00  0.00    +0.000 C 
ATOM     43  F1  UNL A   1      11.915  49.321   4.996  1.00  0.00    +0.000 F 
ATOM     44  C33 UNL A   1      12.260  47.914   6.849  1.00  0.00    +0.000 C 
ATOM     45  F2  UNL A   1      10.952  47.625   6.871  1.00  0.00    +0.000 F 
ATOM     46  C34 UNL A   1      13.111  47.344   7.783  1.00  0.00    +0.000 C 
ATOM     47  F3  UNL A   1      12.630  46.486   8.694  1.00  0.00    +0.000 F 
ATOM     48  C35 UNL A   1      14.460  47.664   7.776  1.00  0.00    +0.000 C 
ATOM     49  F4  UNL A   1      15.286  47.102   8.669  1.00  0.00    +0.000 F 
ATOM     50  C36 UNL A   1      14.959  48.566   6.839  1.00  0.00    +0.000 C 
ATOM     51  F5  UNL A   1      16.268  48.862   6.864  1.00  0.00    +0.000 F 
ENDBRANCH   40   41
BRANCH   57   58
ATOM     65  C46 UNL A   1      18.484  46.902  -1.614  1.00  0.00    +0.000 C 
ATOM     66  F9  UNL A   1      19.669  46.277  -1.561  1.00  0.00    +0.000 F 
ATOM     67  C47 UNL A   1      18.177  47.888  -0.682  1.00  0.00    +0.000 C 
ATOM     68  F10 UNL A   1      19.079  48.181   0.267  1.00  0.00    +0.000 F 
ATOM     58  C42 UNL A   1      16.954  48.576  -0.733  1.00  0.00    +0.000 C 
ATOM     59  C43 UNL A   1      16.052  48.236  -1.751  1.00  0.00    +0.000 C 
ATOM     60  F6  UNL A   1      14.864  48.853  -1.836  1.00  0.00    +0.000 F 
ATOM     61  C44 UNL A   1      16.347  47.223  -2.660  1.00  0.00    +0.000 C 
ATOM     62  F7  UNL A   1      15.445  46.874  -3.588  1.00  0.00    +0.000 F 
ATOM     63  C45 UNL A   1      17.566  46.563  -2.595  1.00  0.00    +0.000 C 
ATOM     64  F8  UNL A   1      17.850  45.592  -3.475  1.00  0.00    +0.000 F 
ENDBRANCH   57   58
BRANCH   72   73
ATOM     73  C51 UNL A   1      17.782  55.491  -0.928  1.00  0.00    +0.000 C 
ATOM     74  C52 UNL A   1      17.009  56.022  -1.970  1.00  0.00    +0.000 C 
ATOM     75  F11 UNL A   1      15.708  55.711  -2.064  1.00  0.00    +0.000 F 
ATOM     76  C53 UNL A   1      17.581  56.825  -2.954  1.00  0.00    +0.000 C 
ATOM     77  F12 UNL A   1      16.834  57.259  -3.978  1.00  0.00    +0.000 F 
ATOM     78  C54 UNL A   1      18.927  57.150  -2.893  1.00  0.00    +0.000 C 
ATOM     79  F13 UNL A   1      19.479  57.915  -3.845  1.00  0.00    +0.000 F 
ATOM     80  C55 UNL A   1      19.705  56.666  -1.851  1.00  0.00    +0.000 C 
ATOM     81  F14 UNL A   1      21.003  56.991  -1.778  1.00  0.00    +0.000 F 
ATOM     82  C56 UNL A   1      19.142  55.833  -0.888  1.00  0.00    +0.000 C 
ATOM     83  F15 UNL A   1      19.927  55.359   0.092  1.00  0.00    +0.000 F 
ENDBRANCH   72   73
TORSDOF 19
ENDMDL
MODEL 5
REMARK VINA RESULT:      -8.6     65.321     70.660
ROOT
ATOM    129  H31 UNL A   1      15.380  52.983   2.448  1.00  0.00    +0.000 H 
ATOM    130  H32 UNL A   1      18.630  53.715  -1.310  1.00  0.00    +0.000 H 
ATOM    131  H33 UNL A   1      18.112  51.321  -2.047  1.00  0.00    +0.000 H 
ATOM    132  H34 UNL A   1      12.200  50.027   5.969  1.00  0.00    +0.000 H 
ATOM    133  H35 UNL A   1      12.289  52.544   6.435  1.00  0.00    +0.000 H 
ATOM     36  C27 UNL A   1      14.061  53.968   4.711  1.00  0.00    +0.000 C 
ATOM     37  C28 UNL A   1      13.685  52.514   4.648  1.00  0.00    +0.000 C 
ATOM     38  N4  UNL A   1      14.078  51.594   3.802  1.00  0.00    +0.000 N 
ATOM     39  C29 UNL A   1      13.451  50.421   4.202  1.00  0.00    +0.000 C 
ATOM     40  C30 UNL A   1      13.470  49.207   3.601  1.00  0.00    +0.000 C 
ATOM     52  C37 UNL A   1      14.204  48.911   2.399  1.00  0.00    +0.000 C 
ATOM     53  C38 UNL A   1      14.265  47.720   1.697  1.00  0.00    +0.000 C 
ATOM     54  C39 UNL A   1      15.141  47.890   0.620  1.00  0.00    +0.000 C 
ATOM     55  C40 UNL A   1      15.579  49.204   0.616  1.00  0.00    +0.000 C 
ATOM     56  N5  UNL A   1      15.005  49.817   1.719  1.00  0.00    +0.000 N 
ATOM     57  C41 UNL A   1      16.455  49.853  -0.325  1.00  0.00    +0.000 C 
ATOM     69  C48 UNL A   1      16.839  51.152  -0.260  1.00  0.00    +0.000 C 
ATOM     70  N6  UNL A   1      16.497  52.120   0.675  1.00  0.00    +0.000 N 
ATOM     71  C49 UNL A   1      17.141  53.206   0.322  1.00  0.00    +0.000 C 
ATOM     72  C50 UNL A   1      17.119  54.574   0.951  1.00  0.00    +0.000 C 
ATOM     84  C57 UNL A   1      16.334  54.785   2.025  1.00  0.00    +0.000 C 
ATOM     85  C58 UNL A   1      16.195  56.052   2.735  1.00  0.00    +0.000 C 
ATOM     86  C59 UNL A   1      15.380  55.876   3.786  1.00  0.00    +0.000 C 
ATOM     87  C60 UNL A   1      14.903  54.492   3.799  1.00  0.00    +0.000 C 
ATOM     88  N7  UNL A   1      15.515  53.922   2.711  1.00  0.00    +0.000 N 
ATOM     89  C61 UNL A   1      17.993  53.037  -0.864  1.00  0.00    +0.000 C 
ATOM     90  C62 UNL A   1      17.730  51.785  -1.208  1.00  0.00    +0.000 C 
ATOM     91  C63 UNL A   1      12.708  50.726   5.405  1.00  0.00    +0.000 C 
ATOM     92  C64 UNL A   1      12.766  52.019   5.684  1.00  0.00    +0.000 C 
ATOM    124  H26 UNL A   1      13.751  46.855   1.927  1.00  0.00    +0.000 H 
ATOM    125  H27 UNL A   1      15.416  47.161  -0.056  1.00  0.00    +0.000 H 
ATOM    126  H28 UNL A   1      15.145  50.755   1.982  1.00  0.00    +0.000 H 
ATOM    127  H29 UNL A   1      16.650  56.940   2.471  1.00  0.00    +0.000 H 
ATOM    128  H30 UNL A   1      15.128  56.602   4.475  1.00  0.00    +0.000 H 
ENDROOT
BRANCH   36   35
ATOM     33  C24 UNL A   1      13.779  55.819   8.011  1.00  0.00    +0.000 C 
ATOM     34  C25 UNL A   1      14.304  55.065   6.960  1.00  0.00    +0.000 C 
ATOM     35  C26 UNL A   1      13.542  54.830   5.803  1.00  0.00    +0.000 C 
ATOM    134  H36 UNL A   1      11.703  55.243   4.844  1.00  0.00    +0.000 H 
ATOM    135  H37 UNL A   1      10.889  56.731   6.575  1.00  0.00    +0.000 H 
ATOM    122  H24 UNL A   1      14.328  55.960   8.873  1.00  0.00    +0.000 H 
ATOM    123  H25 UNL A   1      15.258  54.679   7.032  1.00  0.00    +0.000 H 
ATOM     93  C65 UNL A   1      12.275  55.417   5.686  1.00  0.00    +0.000 C 
ATOM     94  C66 UNL A   1      11.784  56.234   6.700  1.00  0.00    +0.000 C 
ATOM     32  C23 UNL A   1      12.507  56.381   7.889  1.00  0.00    +0.000 C 
BRANCH   32   30
ATOM     30  C22 UNL A   1      11.954  57.152   9.022  1.00  0.00    +0.000 C 
ATOM     31  O4  UNL A   1      12.064  58.374   9.043  1.00  0.00    +0.000 O 
BRANCH   30   29
ATOM    121  H23 UNL A   1      10.783  57.068  10.646  1.00  0.00    +0.000 H 
ATOM     29  N3  UNL A   1      11.314  56.500  10.044  1.00  0.00    +0.000 N 
BRANCH   29   28
ATOM     28  C21 UNL A   1      11.316  55.078  10.356  1.00  0.00    +0.000 C 
ATOM    119  H21 UNL A   1      10.330  54.787  10.654  1.00  0.00    +0.000 H 
ATOM    120  H22 UNL A   1      11.625  54.545   9.481  1.00  0.00    +0.000 H 
BRANCH   28   27
ATOM     27  C20 UNL A   1      12.290  54.750  11.483  1.00  0.00    +0.000 C 
ATOM    117  H19 UNL A   1      12.558  55.663  11.972  1.00  0.00    +0.000 H 
ATOM    118  H20 UNL A   1      11.789  54.064  12.134  1.00  0.00    +0.000 H 
BRANCH   27   26
ATOM     26  C19 UNL A   1      13.574  54.059  11.016  1.00  0.00    +0.000 C 
ATOM    115  H17 UNL A   1      13.570  54.034   9.946  1.00  0.00    +0.000 H 
ATOM    116  H18 UNL A   1      14.387  54.626  11.422  1.00  0.00    +0.000 H 
BRANCH   26   25
ATOM     25  C18 UNL A   1      13.754  52.621  11.526  1.00  0.00    +0.000 C 
ATOM    114  H16 UNL A   1      13.876  52.007  10.659  1.00  0.00    +0.000 H 
ATOM    113  H15 UNL A   1      12.894  52.365  12.108  1.00  0.00    +0.000 H 
BRANCH   25   24
ATOM    112  H14 UNL A   1      15.163  53.295  12.958  1.00  0.00    +0.000 H 
ATOM    111  H13 UNL A   1      15.829  52.180  11.751  1.00  0.00    +0.000 H 
ATOM     24  C17 UNL A   1      15.003  52.401  12.393  1.00  0.00    +0.000 C 
BRANCH   24   23
ATOM    109  H11 UNL A   1      14.587  50.357  12.866  1.00  0.00    +0.000 H 
ATOM    110  H12 UNL A   1      15.766  51.116  13.918  1.00  0.00    +0.000 H 
ATOM     23  C16 UNL A   1      14.843  51.252  13.393  1.00  0.00    +0.000 C 
BRANCH   23   22
ATOM    108  H10 UNL A   1      14.015  52.338  14.913  1.00  0.00    +0.000 H 
ATOM     22  N2  UNL A   1      13.799  51.562  14.347  1.00  0.00    +0.000 N 
BRANCH   22   20
ATOM     20  C15 UNL A   1      12.573  51.011  14.639  1.00  0.00    +0.000 C 
ATOM     21  O3  UNL A   1      12.213  51.109  15.816  1.00  0.00    +0.000 O 
BRANCH   20   19
ATOM    136  H38 UNL A   1      11.416  47.184  12.658  1.00  0.00    +0.000 H 
ATOM    106  H8  UNL A   1       9.446  50.555  11.214  1.00  0.00    +0.000 H 
ATOM    107  H9  UNL A   1      10.498  51.867  12.969  1.00  0.00    +0.000 H 
ATOM     16  C11 UNL A   1      10.406  48.749  11.727  1.00  0.00    +0.000 C 
ATOM     17  C12 UNL A   1      10.122  50.110  11.854  1.00  0.00    +0.000 C 
ATOM     18  C13 UNL A   1      10.745  50.874  12.842  1.00  0.00    +0.000 C 
ATOM     19  C14 UNL A   1      11.701  50.278  13.650  1.00  0.00    +0.000 C 
ATOM     95  N8  UNL A   1      11.937  48.936  13.592  1.00  0.00    +0.000 N 
ATOM     96  C67 UNL A   1      11.271  48.206  12.665  1.00  0.00    +0.000 C 
BRANCH   16   15
ATOM    104  H6  UNL A   1      10.362  47.069   7.424  1.00  0.00    +0.000 H 
ATOM      9  C6  UNL A   1      10.578  47.815   9.393  1.00  0.00    +0.000 C 
ATOM     10  C7  UNL A   1       9.897  47.190   8.336  1.00  0.00    +0.000 C 
ATOM     11  C8  UNL A   1       8.595  46.737   8.519  1.00  0.00    +0.000 C 
ATOM     12 Cl1  UNL A   1       7.734  46.014   7.222  1.00  0.00    +0.000 Cl
ATOM     13  C9  UNL A   1       8.006  46.893   9.762  1.00  0.00    +0.000 C 
ATOM     14  N1  UNL A   1       8.613  47.494  10.811  1.00  0.00    +0.000 N 
ATOM     15  C10 UNL A   1       9.871  47.967  10.611  1.00  0.00    +0.000 C 
ATOM    105  H7  UNL A   1       7.049  46.532   9.896  1.00  0.00    +0.000 H 
BRANCH    9    8
ATOM     97  C68 UNL A   1      12.196  49.655   8.861  1.00  0.00    +0.000 C 
ATOM     98  C69 UNL A   1      13.498  50.163   8.803  1.00  0.00    +0.000 C 
ATOM      5  C2  UNL A   1      14.577  49.326   9.088  1.00  0.00    +0.000 C 
ATOM    102  H4  UNL A   1      15.172  47.373   9.632  1.00  0.00    +0.000 H 
ATOM      6  C3  UNL A   1      14.371  47.987   9.418  1.00  0.00    +0.000 C 
ATOM      7  C4  UNL A   1      13.067  47.484   9.458  1.00  0.00    +0.000 C 
ATOM    103  H5  UNL A   1      12.916  46.486   9.672  1.00  0.00    +0.000 H 
ATOM    138  H40 UNL A   1      13.659  51.150   8.549  1.00  0.00    +0.000 H 
ATOM      8  C5  UNL A   1      11.957  48.314   9.210  1.00  0.00    +0.000 C 
ATOM    137  H39 UNL A   1      11.399  50.274   8.646  1.00  0.00    +0.000 H 
BRANCH    5    2
ATOM      2  S1  UNL A   1      16.232  49.975   9.097  1.00  0.00    +0.000 S 
ATOM      3  O1  UNL A   1      16.118  51.423   9.086  1.00  0.00    +0.000 O 
ATOM      4  O2  UNL A   1      16.980  49.283   8.067  1.00  0.00    +0.000 O 
BRANCH    2    1
ATOM      1  C1  UNL A   1      16.870  49.468  10.672  1.00  0.00    +0.000 C 
ATOM     99  H1  UNL A   1      16.881  50.305  11.338  1.00  0.00    +0.000 H 
ATOM    100  H2  UNL A   1      17.865  49.094  10.551  1.00  0.00    +0.000 H 
ATOM    101  H3  UNL A   1      16.247  48.698  11.079  1.00  0.00    +0.000 H 
ENDBRANCH    2    1
ENDBRANCH    5    2
ENDBRANCH    9    8
ENDBRANCH   16   15
ENDBRANCH   20   19
ENDBRANCH   22   20
ENDBRANCH   23   22
ENDBRANCH   24   23
ENDBRANCH   25   24
ENDBRANCH   26   25
ENDBRANCH   27   26
ENDBRANCH   28   27
ENDBRANCH   29   28
ENDBRANCH   30   29
ENDBRANCH   32   30
ENDBRANCH   36   35
BRANCH   40   41
ATOM     41  C31 UNL A   1      12.657  48.107   4.223  1.00  0.00    +0.000 C 
ATOM     42  C32 UNL A   1      11.454  47.671   3.645  1.00  0.00    +0.000 C 
ATOM     43  F1  UNL A   1      10.967  48.284   2.556  1.00  0.00    +0.000 F 
ATOM     44  C33 UNL A   1      10.731  46.620   4.202  1.00  0.00    +0.000 C 
ATOM     45  F2  UNL A   1       9.566  46.247   3.655  1.00  0.00    +0.000 F 
ATOM     46  C34 UNL A   1      11.213  45.961   5.323  1.00  0.00    +0.000 C 
ATOM     47  F3  UNL A   1      10.524  44.937   5.847  1.00  0.00    +0.000 F 
ATOM     48  C35 UNL A   1      12.405  46.365   5.903  1.00  0.00    +0.000 C 
ATOM     49  F4  UNL A   1      12.879  45.720   6.977  1.00  0.00    +0.000 F 
ATOM     50  C36 UNL A   1      13.115  47.438   5.367  1.00  0.00    +0.000 C 
ATOM     51  F5  UNL A   1      14.261  47.810   5.957  1.00  0.00    +0.000 F 
ENDBRANCH   40   41
BRANCH   57   58
ATOM     65  C46 UNL A   1      18.634  47.549  -2.429  1.00  0.00    +0.000 C 
ATOM     66  F9  UNL A   1      19.769  46.849  -2.291  1.00  0.00    +0.000 F 
ATOM     67  C47 UNL A   1      18.134  48.281  -1.356  1.00  0.00    +0.000 C 
ATOM     68  F10 UNL A   1      18.801  48.255  -0.193  1.00  0.00    +0.000 F 
ATOM     58  C42 UNL A   1      16.963  49.044  -1.484  1.00  0.00    +0.000 C 
ATOM     59  C43 UNL A   1      16.311  49.041  -2.726  1.00  0.00    +0.000 C 
ATOM     60  F6  UNL A   1      15.179  49.741  -2.896  1.00  0.00    +0.000 F 
ATOM     61  C44 UNL A   1      16.793  48.279  -3.786  1.00  0.00    +0.000 C 
ATOM     62  F7  UNL A   1      16.121  48.245  -4.945  1.00  0.00    +0.000 F 
ATOM     63  C45 UNL A   1      17.958  47.540  -3.639  1.00  0.00    +0.000 C 
ATOM     64  F8  UNL A   1      18.424  46.811  -4.663  1.00  0.00    +0.000 F 
ENDBRANCH   57   58
BRANCH   72   73
ATOM     73  C51 UNL A   1      17.949  55.679   0.397  1.00  0.00    +0.000 C 
ATOM     74  C52 UNL A   1      17.515  56.430  -0.705  1.00  0.00    +0.000 C 
ATOM     75  F11 UNL A   1      16.325  56.170  -1.265  1.00  0.00    +0.000 F 
ATOM     76  C53 UNL A   1      18.327  57.408  -1.274  1.00  0.00    +0.000 C 
ATOM     77  F12 UNL A   1      17.917  58.059  -2.371  1.00  0.00    +0.000 F 
ATOM     78  C54 UNL A   1      19.570  57.687  -0.727  1.00  0.00    +0.000 C 
ATOM     79  F13 UNL A   1      20.354  58.623  -1.280  1.00  0.00    +0.000 F 
ATOM     80  C55 UNL A   1      20.005  56.983   0.385  1.00  0.00    +0.000 C 
ATOM     81  F14 UNL A   1      21.199  57.260   0.928  1.00  0.00    +0.000 F 
ATOM     82  C56 UNL A   1      19.210  55.979   0.932  1.00  0.00    +0.000 C 
ATOM     83  F15 UNL A   1      19.671  55.297   1.991  1.00  0.00    +0.000 F 
ENDBRANCH   72   73
TORSDOF 19
ENDMDL
MODEL 6
REMARK VINA RESULT:      -8.6     64.809     71.263
ROOT
ATOM    129  H31 UNL A   1      15.160  52.407   3.023  1.00  0.00    +0.000 H 
ATOM    130  H32 UNL A   1      15.916  57.352   3.462  1.00  0.00    +0.000 H 
ATOM    131  H33 UNL A   1      16.884  57.279   1.095  1.00  0.00    +0.000 H 
ATOM    132  H34 UNL A   1      15.823  47.294   0.862  1.00  0.00    +0.000 H 
ATOM    133  H35 UNL A   1      14.393  47.401   2.985  1.00  0.00    +0.000 H 
ATOM     36  C27 UNL A   1      14.236  50.010   4.132  1.00  0.00    +0.000 C 
ATOM     37  C28 UNL A   1      14.891  49.610   2.839  1.00  0.00    +0.000 C 
ATOM     38  N4  UNL A   1      15.522  50.355   1.966  1.00  0.00    +0.000 N 
ATOM     39  C29 UNL A   1      15.950  49.489   0.969  1.00  0.00    +0.000 C 
ATOM     40  C30 UNL A   1      16.575  49.786  -0.195  1.00  0.00    +0.000 C 
ATOM     52  C37 UNL A   1      16.943  51.117  -0.600  1.00  0.00    +0.000 C 
ATOM     53  C38 UNL A   1      17.555  51.525  -1.772  1.00  0.00    +0.000 C 
ATOM     54  C39 UNL A   1      17.758  52.907  -1.703  1.00  0.00    +0.000 C 
ATOM     55  C40 UNL A   1      17.218  53.369  -0.514  1.00  0.00    +0.000 C 
ATOM     56  N5  UNL A   1      16.731  52.260   0.159  1.00  0.00    +0.000 N 
ATOM     57  C41 UNL A   1      17.150  54.723  -0.028  1.00  0.00    +0.000 C 
ATOM     69  C48 UNL A   1      16.602  55.097   1.154  1.00  0.00    +0.000 C 
ATOM     70  N6  UNL A   1      16.002  54.311   2.128  1.00  0.00    +0.000 N 
ATOM     71  C49 UNL A   1      15.656  55.132   3.092  1.00  0.00    +0.000 C 
ATOM     72  C50 UNL A   1      14.936  54.837   4.381  1.00  0.00    +0.000 C 
ATOM     84  C57 UNL A   1      14.551  53.572   4.639  1.00  0.00    +0.000 C 
ATOM     85  C58 UNL A   1      13.837  53.133   5.832  1.00  0.00    +0.000 C 
ATOM     86  C59 UNL A   1      13.673  51.802   5.777  1.00  0.00    +0.000 C 
ATOM     87  C60 UNL A   1      14.233  51.299   4.522  1.00  0.00    +0.000 C 
ATOM     88  N7  UNL A   1      14.725  52.423   3.906  1.00  0.00    +0.000 N 
ATOM     89  C61 UNL A   1      16.030  56.531   2.847  1.00  0.00    +0.000 C 
ATOM     90  C62 UNL A   1      16.554  56.463   1.633  1.00  0.00    +0.000 C 
ATOM     91  C63 UNL A   1      15.570  48.153   1.375  1.00  0.00    +0.000 C 
ATOM     92  C64 UNL A   1      14.855  48.181   2.490  1.00  0.00    +0.000 C 
ATOM    124  H26 UNL A   1      17.815  50.915  -2.563  1.00  0.00    +0.000 H 
ATOM    125  H27 UNL A   1      18.230  53.484  -2.416  1.00  0.00    +0.000 H 
ATOM    126  H28 UNL A   1      16.299  52.278   1.043  1.00  0.00    +0.000 H 
ATOM    127  H29 UNL A   1      13.511  53.745   6.596  1.00  0.00    +0.000 H 
ATOM    128  H30 UNL A   1      13.223  51.224   6.505  1.00  0.00    +0.000 H 
ENDROOT
BRANCH   36   35
ATOM     33  C24 UNL A   1      11.670  47.990   6.064  1.00  0.00    +0.000 C 
ATOM     34  C25 UNL A   1      12.231  48.914   5.181  1.00  0.00    +0.000 C 
ATOM     35  C26 UNL A   1      13.624  48.982   5.011  1.00  0.00    +0.000 C 
ATOM    134  H36 UNL A   1      15.467  48.111   5.576  1.00  0.00    +0.000 H 
ATOM    135  H37 UNL A   1      14.472  46.367   6.932  1.00  0.00    +0.000 H 
ATOM    122  H24 UNL A   1      10.649  47.968   6.211  1.00  0.00    +0.000 H 
ATOM    123  H25 UNL A   1      11.618  49.552   4.649  1.00  0.00    +0.000 H 
ATOM     93  C65 UNL A   1      14.441  48.064   5.686  1.00  0.00    +0.000 C 
ATOM     94  C66 UNL A   1      13.876  47.091   6.504  1.00  0.00    +0.000 C 
ATOM     32  C23 UNL A   1      12.498  47.096   6.745  1.00  0.00    +0.000 C 
BRANCH   32   30
ATOM     30  C22 UNL A   1      11.890  46.143   7.697  1.00  0.00    +0.000 C 
ATOM     31  O4  UNL A   1      11.469  45.062   7.297  1.00  0.00    +0.000 O 
BRANCH   30   29
ATOM    121  H23 UNL A   1      10.958  46.875   9.313  1.00  0.00    +0.000 H 
ATOM     29  N3  UNL A   1      11.806  46.467   9.026  1.00  0.00    +0.000 N 
BRANCH   29   28
ATOM     28  C21 UNL A   1      12.805  46.287  10.070  1.00  0.00    +0.000 C 
ATOM    119  H21 UNL A   1      12.390  45.676  10.846  1.00  0.00    +0.000 H 
ATOM    120  H22 UNL A   1      13.664  45.822   9.634  1.00  0.00    +0.000 H 
BRANCH   28   27
ATOM     27  C20 UNL A   1      13.238  47.621  10.670  1.00  0.00    +0.000 C 
ATOM    117  H19 UNL A   1      12.829  47.694  11.656  1.00  0.00    +0.000 H 
ATOM    118  H20 UNL A   1      14.308  47.629  10.665  1.00  0.00    +0.000 H 
BRANCH   27   26
ATOM     26  C19 UNL A   1      12.781  48.843   9.869  1.00  0.00    +0.000 C 
ATOM    115  H17 UNL A   1      12.021  48.529   9.185  1.00  0.00    +0.000 H 
ATOM    116  H18 UNL A   1      12.436  49.561  10.584  1.00  0.00    +0.000 H 
BRANCH   26   25
ATOM     25  C18 UNL A   1      13.891  49.537   9.064  1.00  0.00    +0.000 C 
ATOM    114  H16 UNL A   1      13.953  50.537   9.436  1.00  0.00    +0.000 H 
ATOM    113  H15 UNL A   1      13.631  49.486   8.028  1.00  0.00    +0.000 H 
BRANCH   25   24
ATOM    112  H14 UNL A   1      15.285  47.973   8.744  1.00  0.00    +0.000 H 
ATOM    111  H13 UNL A   1      15.492  48.829  10.284  1.00  0.00    +0.000 H 
ATOM     24  C17 UNL A   1      15.288  48.923   9.238  1.00  0.00    +0.000 C 
BRANCH   24   23
ATOM    109  H11 UNL A   1      17.170  49.119   8.239  1.00  0.00    +0.000 H 
ATOM    110  H12 UNL A   1      15.984  50.328   7.789  1.00  0.00    +0.000 H 
ATOM     23  C16 UNL A   1      16.397  49.765   8.600  1.00  0.00    +0.000 C 
BRANCH   23   22
ATOM    108  H10 UNL A   1      17.608  51.302   9.187  1.00  0.00    +0.000 H 
ATOM     22  N2  UNL A   1      16.953  50.679   9.575  1.00  0.00    +0.000 N 
BRANCH   22   20
ATOM     20  C15 UNL A   1      16.769  50.869  10.925  1.00  0.00    +0.000 C 
ATOM     21  O3  UNL A   1      17.489  50.187  11.661  1.00  0.00    +0.000 O 
BRANCH   20   19
ATOM    136  H38 UNL A   1      15.009  52.778  14.553  1.00  0.00    +0.000 H 
ATOM    106  H8  UNL A   1      13.000  53.609  11.004  1.00  0.00    +0.000 H 
ATOM    107  H9  UNL A   1      14.755  52.445   9.789  1.00  0.00    +0.000 H 
ATOM     16  C11 UNL A   1      13.806  53.227  12.914  1.00  0.00    +0.000 C 
ATOM     17  C12 UNL A   1      13.767  53.151  11.521  1.00  0.00    +0.000 C 
ATOM     18  C13 UNL A   1      14.756  52.459  10.821  1.00  0.00    +0.000 C 
ATOM     19  C14 UNL A   1      15.740  51.790  11.532  1.00  0.00    +0.000 C 
ATOM     95  N8  UNL A   1      15.839  51.916  12.886  1.00  0.00    +0.000 N 
ATOM     96  C67 UNL A   1      14.901  52.646  13.535  1.00  0.00    +0.000 C 
BRANCH   16   15
ATOM    104  H6  UNL A   1       9.744  53.228  15.114  1.00  0.00    +0.000 H 
ATOM      9  C6  UNL A   1      11.637  53.049  14.183  1.00  0.00    +0.000 C 
ATOM     10  C7  UNL A   1      10.553  53.747  14.739  1.00  0.00    +0.000 C 
ATOM     11  C8  UNL A   1      10.570  55.137  14.786  1.00  0.00    +0.000 C 
ATOM     12 Cl1  UNL A   1       9.233  56.004  15.421  1.00  0.00    +0.000 Cl
ATOM     13  C9  UNL A   1      11.681  55.803  14.297  1.00  0.00    +0.000 C 
ATOM     14  N1  UNL A   1      12.747  55.181  13.743  1.00  0.00    +0.000 N 
ATOM     15  C10 UNL A   1      12.704  53.826  13.669  1.00  0.00    +0.000 C 
ATOM    105  H7  UNL A   1      11.696  56.833  14.358  1.00  0.00    +0.000 H 
BRANCH    9    8
ATOM     97  C68 UNL A   1      12.079  50.798  15.196  1.00  0.00    +0.000 C 
ATOM     98  C69 UNL A   1      11.962  49.404  15.184  1.00  0.00    +0.000 C 
ATOM      5  C2  UNL A   1      11.395  48.771  14.078  1.00  0.00    +0.000 C 
ATOM    102  H4  UNL A   1      10.532  49.039  12.168  1.00  0.00    +0.000 H 
ATOM      6  C3  UNL A   1      10.955  49.512  12.982  1.00  0.00    +0.000 C 
ATOM      7  C4  UNL A   1      11.091  50.903  12.996  1.00  0.00    +0.000 C 
ATOM    103  H5  UNL A   1      10.794  51.449  12.172  1.00  0.00    +0.000 H 
ATOM    138  H40 UNL A   1      12.295  48.849  15.987  1.00  0.00    +0.000 H 
ATOM      8  C5  UNL A   1      11.627  51.573  14.114  1.00  0.00    +0.000 C 
ATOM    137  H39 UNL A   1      12.503  51.265  16.013  1.00  0.00    +0.000 H 
BRANCH    5    2
ATOM      2  S1  UNL A   1      11.165  47.008  14.080  1.00  0.00    +0.000 S 
ATOM      3  O1  UNL A   1      10.582  46.657  12.797  1.00  0.00    +0.000 O 
ATOM      4  O2  UNL A   1      10.501  46.654  15.317  1.00  0.00    +0.000 O 
BRANCH    2    1
ATOM      1  C1  UNL A   1      12.820  46.372  14.143  1.00  0.00    +0.000 C 
ATOM     99  H1  UNL A   1      13.513  47.162  13.946  1.00  0.00    +0.000 H 
ATOM    100  H2  UNL A   1      12.935  45.604  13.408  1.00  0.00    +0.000 H 
ATOM    101  H3  UNL A   1      13.009  45.967  15.116  1.00  0.00    +0.000 H 
ENDBRANCH    2    1
ENDBRANCH    5    2
ENDBRANCH    9    8
ENDBRANCH   16   15
ENDBRANCH   20   19
ENDBRANCH   22   20
ENDBRANCH   23   22
ENDBRANCH   24   23
ENDBRANCH   25   24
ENDBRANCH   26   25
ENDBRANCH   27   26
ENDBRANCH   28   27
ENDBRANCH   29   28
ENDBRANCH   30   29
ENDBRANCH   32   30
ENDBRANCH   36   35
BRANCH   40   41
ATOM     41  C31 UNL A   1      16.888  48.651  -1.130  1.00  0.00    +0.000 C 
ATOM     42  C32 UNL A   1      16.102  48.404  -2.267  1.00  0.00    +0.000 C 
ATOM     43  F1  UNL A   1      15.005  49.138  -2.503  1.00  0.00    +0.000 F 
ATOM     44  C33 UNL A   1      16.425  47.379  -3.152  1.00  0.00    +0.000 C 
ATOM     45  F2  UNL A   1      15.638  47.137  -4.210  1.00  0.00    +0.000 F 
ATOM     46  C34 UNL A   1      17.558  46.608  -2.940  1.00  0.00    +0.000 C 
ATOM     47  F3  UNL A   1      17.878  45.634  -3.804  1.00  0.00    +0.000 F 
ATOM     48  C35 UNL A   1      18.356  46.843  -1.832  1.00  0.00    +0.000 C 
ATOM     49  F4  UNL A   1      19.459  46.108  -1.633  1.00  0.00    +0.000 F 
ATOM     50  C36 UNL A   1      18.017  47.846  -0.926  1.00  0.00    +0.000 C 
ATOM     51  F5  UNL A   1      18.806  48.043   0.142  1.00  0.00    +0.000 F 
ENDBRANCH   40   41
BRANCH   57   58
ATOM     65  C46 UNL A   1      19.567  57.220  -1.581  1.00  0.00    +0.000 C 
ATOM     66  F9  UNL A   1      20.849  57.585  -1.442  1.00  0.00    +0.000 F 
ATOM     67  C47 UNL A   1      19.048  56.194  -0.797  1.00  0.00    +0.000 C 
ATOM     68  F10 UNL A   1      19.858  55.579   0.077  1.00  0.00    +0.000 F 
ATOM     58  C42 UNL A   1      17.702  55.811  -0.905  1.00  0.00    +0.000 C 
ATOM     59  C43 UNL A   1      16.898  56.494  -1.830  1.00  0.00    +0.000 C 
ATOM     60  F6  UNL A   1      15.608  56.157  -1.983  1.00  0.00    +0.000 F 
ATOM     61  C44 UNL A   1      17.430  57.495  -2.639  1.00  0.00    +0.000 C 
ATOM     62  F7  UNL A   1      16.657  58.092  -3.557  1.00  0.00    +0.000 F 
ATOM     63  C45 UNL A   1      18.761  57.862  -2.508  1.00  0.00    +0.000 C 
ATOM     64  F8  UNL A   1      19.269  58.830  -3.284  1.00  0.00    +0.000 F 
ENDBRANCH   57   58
BRANCH   72   73
ATOM     73  C51 UNL A   1      14.653  55.923   5.358  1.00  0.00    +0.000 C 
ATOM     74  C52 UNL A   1      15.672  56.472   6.149  1.00  0.00    +0.000 C 
ATOM     75  F11 UNL A   1      16.931  56.032   6.018  1.00  0.00    +0.000 F 
ATOM     76  C53 UNL A   1      15.392  57.431   7.120  1.00  0.00    +0.000 C 
ATOM     77  F12 UNL A   1      16.373  57.884   7.911  1.00  0.00    +0.000 F 
ATOM     78  C54 UNL A   1      14.096  57.893   7.291  1.00  0.00    +0.000 C 
ATOM     79  F13 UNL A   1      13.826  58.809   8.231  1.00  0.00    +0.000 F 
ATOM     80  C55 UNL A   1      13.077  57.391   6.494  1.00  0.00    +0.000 C 
ATOM     81  F14 UNL A   1      11.825  57.846   6.644  1.00  0.00    +0.000 F 
ATOM     82  C56 UNL A   1      13.349  56.406   5.549  1.00  0.00    +0.000 C 
ATOM     83  F15 UNL A   1      12.337  55.922   4.814  1.00  0.00    +0.000 F 
ENDBRANCH   72   73
TORSDOF 19
ENDMDL
MODEL 7
REMARK VINA RESULT:      -8.6      3.402      8.307
ROOT
ATOM    129  H31 UNL A   1      26.750 -12.526  31.479  1.00  0.00    +0.000 H 
ATOM    130  H32 UNL A   1      22.874  -9.919  29.636  1.00  0.00    +0.000 H 
ATOM    131  H33 UNL A   1      22.095  -9.624  32.055  1.00  0.00    +0.000 H 
ATOM    132  H34 UNL A   1      29.613 -15.446  35.290  1.00  0.00    +0.000 H 
ATOM    133  H35 UNL A   1      30.696 -15.327  32.973  1.00  0.00    +0.000 H 
ATOM     36  C27 UNL A   1      29.105 -13.970  31.031  1.00  0.00    +0.000 C 
ATOM     37  C28 UNL A   1      28.830 -14.127  32.501  1.00  0.00    +0.000 C 
ATOM     38  N4  UNL A   1      27.820 -13.682  33.205  1.00  0.00    +0.000 N 
ATOM     39  C29 UNL A   1      28.041 -14.121  34.503  1.00  0.00    +0.000 C 
ATOM     40  C30 UNL A   1      27.323 -13.851  35.619  1.00  0.00    +0.000 C 
ATOM     52  C37 UNL A   1      26.133 -13.042  35.640  1.00  0.00    +0.000 C 
ATOM     53  C38 UNL A   1      25.349 -12.687  36.724  1.00  0.00    +0.000 C 
ATOM     54  C39 UNL A   1      24.269 -11.932  36.256  1.00  0.00    +0.000 C 
ATOM     55  C40 UNL A   1      24.413 -11.765  34.888  1.00  0.00    +0.000 C 
ATOM     56  N5  UNL A   1      25.554 -12.460  34.521  1.00  0.00    +0.000 N 
ATOM     57  C41 UNL A   1      23.571 -11.025  33.983  1.00  0.00    +0.000 C 
ATOM     69  C48 UNL A   1      23.780 -10.909  32.649  1.00  0.00    +0.000 C 
ATOM     70  N6  UNL A   1      24.801 -11.441  31.873  1.00  0.00    +0.000 N 
ATOM     71  C49 UNL A   1      24.548 -11.070  30.640  1.00  0.00    +0.000 C 
ATOM     72  C50 UNL A   1      25.340 -11.330  29.386  1.00  0.00    +0.000 C 
ATOM     84  C57 UNL A   1      26.491 -12.024  29.474  1.00  0.00    +0.000 C 
ATOM     85  C58 UNL A   1      27.372 -12.344  28.356  1.00  0.00    +0.000 C 
ATOM     86  C59 UNL A   1      28.389 -13.096  28.804  1.00  0.00    +0.000 C 
ATOM     87  C60 UNL A   1      28.255 -13.275  30.251  1.00  0.00    +0.000 C 
ATOM     88  N7  UNL A   1      27.103 -12.596  30.562  1.00  0.00    +0.000 N 
ATOM     89  C61 UNL A   1      23.315 -10.284  30.494  1.00  0.00    +0.000 C 
ATOM     90  C62 UNL A   1      22.916 -10.171  31.752  1.00  0.00    +0.000 C 
ATOM     91  C63 UNL A   1      29.243 -14.926  34.480  1.00  0.00    +0.000 C 
ATOM     92  C64 UNL A   1      29.805 -14.906  33.280  1.00  0.00    +0.000 C 
ATOM    124  H26 UNL A   1      25.531 -12.936  37.709  1.00  0.00    +0.000 H 
ATOM    125  H27 UNL A   1      23.497 -11.562  36.831  1.00  0.00    +0.000 H 
ATOM    126  H28 UNL A   1      25.903 -12.532  33.603  1.00  0.00    +0.000 H 
ATOM    127  H29 UNL A   1      27.235 -12.042  27.379  1.00  0.00    +0.000 H 
ATOM    128  H30 UNL A   1      29.146 -13.486  28.220  1.00  0.00    +0.000 H 
ENDROOT
BRANCH   36   35
ATOM     33  C24 UNL A   1      31.358 -16.544  29.388  1.00  0.00    +0.000 C 
ATOM     34  C25 UNL A   1      30.219 -15.919  29.898  1.00  0.00    +0.000 C 
ATOM     35  C26 UNL A   1      30.294 -14.616  30.418  1.00  0.00    +0.000 C 
ATOM    134  H36 UNL A   1      31.579 -12.968  30.743  1.00  0.00    +0.000 H 
ATOM    135  H37 UNL A   1      33.496 -13.974  29.655  1.00  0.00    +0.000 H 
ATOM    122  H24 UNL A   1      31.306 -17.513  29.040  1.00  0.00    +0.000 H 
ATOM    123  H25 UNL A   1      29.315 -16.418  29.893  1.00  0.00    +0.000 H 
ATOM     93  C65 UNL A   1      31.510 -13.922  30.356  1.00  0.00    +0.000 C 
ATOM     94  C66 UNL A   1      32.627 -14.516  29.774  1.00  0.00    +0.000 C 
ATOM     32  C23 UNL A   1      32.568 -15.848  29.351  1.00  0.00    +0.000 C 
BRANCH   32   30
ATOM     30  C22 UNL A   1      33.771 -16.533  28.834  1.00  0.00    +0.000 C 
ATOM     31  O4  UNL A   1      34.540 -17.092  29.610  1.00  0.00    +0.000 O 
BRANCH   30   29
ATOM    121  H23 UNL A   1      34.256 -17.426  27.106  1.00  0.00    +0.000 H 
ATOM     29  N3  UNL A   1      34.021 -16.549  27.486  1.00  0.00    +0.000 N 
BRANCH   29   28
ATOM     28  C21 UNL A   1      33.984 -15.441  26.543  1.00  0.00    +0.000 C 
ATOM    119  H21 UNL A   1      33.914 -14.523  27.089  1.00  0.00    +0.000 H 
ATOM    120  H22 UNL A   1      34.880 -15.471  25.958  1.00  0.00    +0.000 H 
BRANCH   28   27
ATOM     27  C20 UNL A   1      32.793 -15.546  25.596  1.00  0.00    +0.000 C 
ATOM    117  H19 UNL A   1      33.164 -15.702  24.605  1.00  0.00    +0.000 H 
ATOM    118  H20 UNL A   1      32.191 -16.358  25.945  1.00  0.00    +0.000 H 
BRANCH   27   26
ATOM     26  C19 UNL A   1      31.897 -14.304  25.584  1.00  0.00    +0.000 C 
ATOM    115  H17 UNL A   1      32.459 -13.482  25.973  1.00  0.00    +0.000 H 
ATOM    116  H18 UNL A   1      31.590 -14.164  24.568  1.00  0.00    +0.000 H 
BRANCH   26   25
ATOM     25  C18 UNL A   1      30.607 -14.433  26.409  1.00  0.00    +0.000 C 
ATOM    114  H16 UNL A   1      29.976 -13.623  26.110  1.00  0.00    +0.000 H 
ATOM    113  H15 UNL A   1      30.871 -14.404  27.445  1.00  0.00    +0.000 H 
BRANCH   25   24
ATOM    112  H14 UNL A   1      30.063 -16.414  26.929  1.00  0.00    +0.000 H 
ATOM    111  H13 UNL A   1      30.063 -16.093  25.185  1.00  0.00    +0.000 H 
ATOM     24  C17 UNL A   1      29.809 -15.721  26.154  1.00  0.00    +0.000 C 
BRANCH   24   23
ATOM    109  H11 UNL A   1      27.802 -16.459  26.204  1.00  0.00    +0.000 H 
ATOM    110  H12 UNL A   1      28.050 -14.978  27.109  1.00  0.00    +0.000 H 
ATOM     23  C16 UNL A   1      28.293 -15.509  26.212  1.00  0.00    +0.000 C 
BRANCH   23   22
ATOM    108  H10 UNL A   1      28.065 -15.163  24.211  1.00  0.00    +0.000 H 
ATOM     22  N2  UNL A   1      27.854 -14.733  25.071  1.00  0.00    +0.000 N 
BRANCH   22   20
ATOM     20  C15 UNL A   1      27.209 -13.527  24.923  1.00  0.00    +0.000 C 
ATOM     21  O3  UNL A   1      26.058 -13.482  25.368  1.00  0.00    +0.000 O 
BRANCH   20   19
ATOM    136  H38 UNL A   1      30.592 -11.647  22.703  1.00  0.00    +0.000 H 
ATOM    106  H8  UNL A   1      27.433  -9.076  23.560  1.00  0.00    +0.000 H 
ATOM    107  H9  UNL A   1      26.182 -10.973  24.425  1.00  0.00    +0.000 H 
ATOM     16  C11 UNL A   1      29.175 -10.182  23.124  1.00  0.00    +0.000 C 
ATOM     17  C12 UNL A   1      27.873 -10.009  23.598  1.00  0.00    +0.000 C 
ATOM     18  C13 UNL A   1      27.161 -11.089  24.121  1.00  0.00    +0.000 C 
ATOM     19  C14 UNL A   1      27.789 -12.320  24.228  1.00  0.00    +0.000 C 
ATOM     95  N8  UNL A   1      29.030 -12.526  23.703  1.00  0.00    +0.000 N 
ATOM     96  C67 UNL A   1      29.674 -11.474  23.143  1.00  0.00    +0.000 C 
BRANCH   16   15
ATOM    104  H6  UNL A   1      31.614  -6.310  23.764  1.00  0.00    +0.000 H 
ATOM      9  C6  UNL A   1      30.574  -8.151  23.638  1.00  0.00    +0.000 C 
ATOM     10  C7  UNL A   1      31.182  -6.995  23.123  1.00  0.00    +0.000 C 
ATOM     11  C8  UNL A   1      31.202  -6.772  21.750  1.00  0.00    +0.000 C 
ATOM     12 Cl1  UNL A   1      31.900  -5.341  21.110  1.00  0.00    +0.000 Cl
ATOM     13  C9  UNL A   1      30.635  -7.720  20.916  1.00  0.00    +0.000 C 
ATOM     14  N1  UNL A   1      30.030  -8.846  21.360  1.00  0.00    +0.000 N 
ATOM     15  C10 UNL A   1      29.984  -9.036  22.704  1.00  0.00    +0.000 C 
ATOM    105  H7  UNL A   1      30.676  -7.559  19.898  1.00  0.00    +0.000 H 
BRANCH    9    8
ATOM     97  C68 UNL A   1      29.592  -7.740  25.909  1.00  0.00    +0.000 C 
ATOM     98  C69 UNL A   1      29.469  -8.054  27.266  1.00  0.00    +0.000 C 
ATOM      5  C2  UNL A   1      30.298  -9.027  27.825  1.00  0.00    +0.000 C 
ATOM    102  H4  UNL A   1      31.862 -10.401  27.464  1.00  0.00    +0.000 H 
ATOM      6  C3  UNL A   1      31.254  -9.679  27.047  1.00  0.00    +0.000 C 
ATOM      7  C4  UNL A   1      31.381  -9.346  25.695  1.00  0.00    +0.000 C 
ATOM    103  H5  UNL A   1      32.108  -9.807  25.127  1.00  0.00    +0.000 H 
ATOM    138  H40 UNL A   1      28.771  -7.568  27.851  1.00  0.00    +0.000 H 
ATOM      8  C5  UNL A   1      30.533  -8.395  25.096  1.00  0.00    +0.000 C 
ATOM    137  H39 UNL A   1      28.981  -7.017  25.498  1.00  0.00    +0.000 H 
BRANCH    5    2
ATOM      2  S1  UNL A   1      30.102  -9.496  29.528  1.00  0.00    +0.000 S 
ATOM      3  O1  UNL A   1      30.791 -10.763  29.700  1.00  0.00    +0.000 O 
ATOM      4  O2  UNL A   1      28.698  -9.365  29.861  1.00  0.00    +0.000 O 
BRANCH    2    1
ATOM      1  C1  UNL A   1      30.994  -8.242  30.411  1.00  0.00    +0.000 C 
ATOM     99  H1  UNL A   1      32.026  -8.514  30.470  1.00  0.00    +0.000 H 
ATOM    100  H2  UNL A   1      30.592  -8.147  31.398  1.00  0.00    +0.000 H 
ATOM    101  H3  UNL A   1      30.901  -7.308  29.896  1.00  0.00    +0.000 H 
ENDBRANCH    2    1
ENDBRANCH    5    2
ENDBRANCH    9    8
ENDBRANCH   16   15
ENDBRANCH   20   19
ENDBRANCH   22   20
ENDBRANCH   23   22
ENDBRANCH   24   23
ENDBRANCH   25   24
ENDBRANCH   26   25
ENDBRANCH   27   26
ENDBRANCH   28   27
ENDBRANCH   29   28
ENDBRANCH   30   29
ENDBRANCH   32   30
ENDBRANCH   36   35
BRANCH   40   41
ATOM     41  C31 UNL A   1      27.814 -14.420  36.921  1.00  0.00    +0.000 C 
ATOM     42  C32 UNL A   1      27.325 -15.639  37.417  1.00  0.00    +0.000 C 
ATOM     43  F1  UNL A   1      26.349 -16.289  36.766  1.00  0.00    +0.000 F 
ATOM     44  C33 UNL A   1      27.817 -16.181  38.600  1.00  0.00    +0.000 C 
ATOM     45  F2  UNL A   1      27.307 -17.327  39.073  1.00  0.00    +0.000 F 
ATOM     46  C34 UNL A   1      28.832 -15.536  39.291  1.00  0.00    +0.000 C 
ATOM     47  F3  UNL A   1      29.318 -16.069  40.422  1.00  0.00    +0.000 F 
ATOM     48  C35 UNL A   1      29.340 -14.338  38.814  1.00  0.00    +0.000 C 
ATOM     49  F4  UNL A   1      30.330 -13.721  39.473  1.00  0.00    +0.000 F 
ATOM     50  C36 UNL A   1      28.826 -13.776  37.647  1.00  0.00    +0.000 C 
ATOM     51  F5  UNL A   1      29.333 -12.611  37.216  1.00  0.00    +0.000 F 
ENDBRANCH   40   41
BRANCH   57   58
ATOM     65  C46 UNL A   1      19.993 -10.196  34.980  1.00  0.00    +0.000 C 
ATOM     66  F9  UNL A   1      18.774 -10.743  34.866  1.00  0.00    +0.000 F 
ATOM     67  C47 UNL A   1      21.104 -10.866  34.477  1.00  0.00    +0.000 C 
ATOM     68  F10 UNL A   1      20.927 -12.063  33.898  1.00  0.00    +0.000 F 
ATOM     58  C42 UNL A   1      22.387 -10.303  34.560  1.00  0.00    +0.000 C 
ATOM     59  C43 UNL A   1      22.513  -9.045  35.167  1.00  0.00    +0.000 C 
ATOM     60  F6  UNL A   1      23.719  -8.469  35.286  1.00  0.00    +0.000 F 
ATOM     61  C44 UNL A   1      21.404  -8.394  35.702  1.00  0.00    +0.000 C 
ATOM     62  F7  UNL A   1      21.558  -7.220  36.331  1.00  0.00    +0.000 F 
ATOM     63  C45 UNL A   1      20.145  -8.966  35.601  1.00  0.00    +0.000 C 
ATOM     64  F8  UNL A   1      19.078  -8.335  36.111  1.00  0.00    +0.000 F 
ENDBRANCH   57   58
BRANCH   72   73
ATOM     73  C51 UNL A   1      24.863 -10.828  28.069  1.00  0.00    +0.000 C 
ATOM     74  C52 UNL A   1      23.889 -11.522  27.337  1.00  0.00    +0.000 C 
ATOM     75  F11 UNL A   1      23.357 -12.649  27.832  1.00  0.00    +0.000 F 
ATOM     76  C53 UNL A   1      23.502 -11.097  26.068  1.00  0.00    +0.000 C 
ATOM     77  F12 UNL A   1      22.623 -11.820  25.362  1.00  0.00    +0.000 F 
ATOM     78  C54 UNL A   1      24.047  -9.945  25.524  1.00  0.00    +0.000 C 
ATOM     79  F13 UNL A   1      23.681  -9.541  24.299  1.00  0.00    +0.000 F 
ATOM     80  C55 UNL A   1      24.985  -9.220  26.244  1.00  0.00    +0.000 C 
ATOM     81  F14 UNL A   1      25.503  -8.096  25.729  1.00  0.00    +0.000 F 
ATOM     82  C56 UNL A   1      25.400  -9.665  27.497  1.00  0.00    +0.000 C 
ATOM     83  F15 UNL A   1      26.329  -8.957  28.156  1.00  0.00    +0.000 F 
ENDBRANCH   72   73
TORSDOF 19
ENDMDL
MODEL 8
REMARK VINA RESULT:      -8.6     65.767     71.811
ROOT
ATOM    129  H31 UNL A   1      14.316  51.902   1.988  1.00  0.00    +0.000 H 
ATOM    130  H32 UNL A   1      13.317  47.075   1.029  1.00  0.00    +0.000 H 
ATOM    131  H33 UNL A   1      15.391  47.082  -0.470  1.00  0.00    +0.000 H 
ATOM    132  H34 UNL A   1      16.666  56.908   1.175  1.00  0.00    +0.000 H 
ATOM    133  H35 UNL A   1      14.934  56.813   3.059  1.00  0.00    +0.000 H 
ATOM     36  C27 UNL A   1      13.649  54.277   3.310  1.00  0.00    +0.000 C 
ATOM     37  C28 UNL A   1      14.782  54.650   2.393  1.00  0.00    +0.000 C 
ATOM     38  N4  UNL A   1      15.421  53.908   1.524  1.00  0.00    +0.000 N 
ATOM     39  C29 UNL A   1      16.357  54.743   0.930  1.00  0.00    +0.000 C 
ATOM     40  C30 UNL A   1      17.315  54.428   0.026  1.00  0.00    +0.000 C 
ATOM     52  C37 UNL A   1      17.515  53.110  -0.516  1.00  0.00    +0.000 C 
ATOM     53  C38 UNL A   1      18.475  52.683  -1.416  1.00  0.00    +0.000 C 
ATOM     54  C39 UNL A   1      18.250  51.330  -1.690  1.00  0.00    +0.000 C 
ATOM     55  C40 UNL A   1      17.187  50.899  -0.914  1.00  0.00    +0.000 C 
ATOM     56  N5  UNL A   1      16.737  52.003  -0.206  1.00  0.00    +0.000 N 
ATOM     57  C41 UNL A   1      16.622  49.577  -0.823  1.00  0.00    +0.000 C 
ATOM     69  C48 UNL A   1      15.575  49.232  -0.035  1.00  0.00    +0.000 C 
ATOM     70  N6  UNL A   1      14.834  50.024   0.832  1.00  0.00    +0.000 N 
ATOM     71  C49 UNL A   1      13.915  49.239   1.342  1.00  0.00    +0.000 C 
ATOM     72  C50 UNL A   1      12.857  49.551   2.366  1.00  0.00    +0.000 C 
ATOM     84  C57 UNL A   1      12.799  50.792   2.886  1.00  0.00    +0.000 C 
ATOM     85  C58 UNL A   1      11.844  51.244   3.892  1.00  0.00    +0.000 C 
ATOM     86  C59 UNL A   1      12.042  52.550   4.127  1.00  0.00    +0.000 C 
ATOM     87  C60 UNL A   1      13.169  53.019   3.319  1.00  0.00    +0.000 C 
ATOM     88  N7  UNL A   1      13.560  51.904   2.620  1.00  0.00    +0.000 N 
ATOM     89  C61 UNL A   1      13.952  47.863   0.827  1.00  0.00    +0.000 C 
ATOM     90  C62 UNL A   1      15.012  47.900   0.034  1.00  0.00    +0.000 C 
ATOM     91  C63 UNL A   1      16.159  56.064   1.484  1.00  0.00    +0.000 C 
ATOM     92  C64 UNL A   1      15.243  56.046   2.441  1.00  0.00    +0.000 C 
ATOM    124  H26 UNL A   1      19.229  53.263  -1.816  1.00  0.00    +0.000 H 
ATOM    125  H27 UNL A   1      18.784  50.752  -2.356  1.00  0.00    +0.000 H 
ATOM    126  H28 UNL A   1      15.979  52.003   0.421  1.00  0.00    +0.000 H 
ATOM    127  H29 UNL A   1      11.131  50.654   4.349  1.00  0.00    +0.000 H 
ATOM    128  H30 UNL A   1      11.488  53.131   4.776  1.00  0.00    +0.000 H 
ENDROOT
BRANCH   36   35
ATOM     33  C24 UNL A   1      11.464  57.140   4.503  1.00  0.00    +0.000 C 
ATOM     34  C25 UNL A   1      11.998  56.132   3.698  1.00  0.00    +0.000 C 
ATOM     35  C26 UNL A   1      13.022  55.303   4.182  1.00  0.00    +0.000 C 
ATOM    134  H36 UNL A   1      14.215  54.853   5.870  1.00  0.00    +0.000 H 
ATOM    135  H37 UNL A   1      13.130  56.453   7.330  1.00  0.00    +0.000 H 
ATOM    122  H24 UNL A   1      10.736  57.770   4.131  1.00  0.00    +0.000 H 
ATOM    123  H25 UNL A   1      11.637  55.996   2.740  1.00  0.00    +0.000 H 
ATOM     93  C65 UNL A   1      13.456  55.451   5.507  1.00  0.00    +0.000 C 
ATOM     94  C66 UNL A   1      12.867  56.403   6.335  1.00  0.00    +0.000 C 
ATOM     32  C23 UNL A   1      11.919  57.290   5.814  1.00  0.00    +0.000 C 
BRANCH   32   30
ATOM     30  C22 UNL A   1      11.363  58.379   6.644  1.00  0.00    +0.000 C 
ATOM     31  O4  UNL A   1      10.150  58.468   6.807  1.00  0.00    +0.000 O 
BRANCH   30   29
ATOM    121  H23 UNL A   1      12.576  59.975   6.639  1.00  0.00    +0.000 H 
ATOM     29  N3  UNL A   1      12.207  59.284   7.235  1.00  0.00    +0.000 N 
BRANCH   29   28
ATOM     28  C21 UNL A   1      12.627  59.359   8.626  1.00  0.00    +0.000 C 
ATOM    119  H21 UNL A   1      12.676  58.368   9.028  1.00  0.00    +0.000 H 
ATOM    120  H22 UNL A   1      13.585  59.834   8.660  1.00  0.00    +0.000 H 
BRANCH   28   27
ATOM     27  C20 UNL A   1      11.656  60.185   9.465  1.00  0.00    +0.000 C 
ATOM    117  H19 UNL A   1      12.193  60.593  10.295  1.00  0.00    +0.000 H 
ATOM    118  H20 UNL A   1      11.255  60.939   8.821  1.00  0.00    +0.000 H 
BRANCH   27   26
ATOM     26  C19 UNL A   1      10.467  59.387  10.006  1.00  0.00    +0.000 C 
ATOM    115  H17 UNL A   1       9.639  60.055  10.117  1.00  0.00    +0.000 H 
ATOM    116  H18 UNL A   1      10.285  58.601   9.303  1.00  0.00    +0.000 H 
BRANCH   26   25
ATOM     25  C18 UNL A   1      10.713  58.704  11.360  1.00  0.00    +0.000 C 
ATOM    114  H16 UNL A   1       9.930  59.031  12.010  1.00  0.00    +0.000 H 
ATOM    113  H15 UNL A   1      11.689  58.981  11.701  1.00  0.00    +0.000 H 
BRANCH   25   24
ATOM    112  H14 UNL A   1       9.670  56.889  11.691  1.00  0.00    +0.000 H 
ATOM    111  H13 UNL A   1      11.423  56.776  11.937  1.00  0.00    +0.000 H 
ATOM     24  C17 UNL A   1      10.636  57.170  11.328  1.00  0.00    +0.000 C 
BRANCH   24   23
ATOM    109  H11 UNL A   1       9.967  55.922   9.725  1.00  0.00    +0.000 H 
ATOM    110  H12 UNL A   1      10.766  57.394   9.208  1.00  0.00    +0.000 H 
ATOM     23  C16 UNL A   1      10.778  56.592   9.917  1.00  0.00    +0.000 C 
BRANCH   23   22
ATOM    108  H10 UNL A   1      12.747  56.419   9.396  1.00  0.00    +0.000 H 
ATOM     22  N2  UNL A   1      12.030  55.874   9.795  1.00  0.00    +0.000 N 
BRANCH   22   20
ATOM     20  C15 UNL A   1      12.440  54.600  10.112  1.00  0.00    +0.000 C 
ATOM     21  O3  UNL A   1      12.364  54.300  11.307  1.00  0.00    +0.000 O 
BRANCH   20   19
ATOM    136  H38 UNL A   1      15.972  52.441   8.447  1.00  0.00    +0.000 H 
ATOM    106  H8  UNL A   1      12.387  51.696   6.468  1.00  0.00    +0.000 H 
ATOM    107  H9  UNL A   1      11.230  52.994   8.167  1.00  0.00    +0.000 H 
ATOM     16  C11 UNL A   1      14.313  52.021   7.261  1.00  0.00    +0.000 C 
ATOM     17  C12 UNL A   1      12.925  52.162   7.215  1.00  0.00    +0.000 C 
ATOM     18  C13 UNL A   1      12.259  52.930   8.171  1.00  0.00    +0.000 C 
ATOM     19  C14 UNL A   1      13.002  53.606   9.127  1.00  0.00    +0.000 C 
ATOM     95  N8  UNL A   1      14.348  53.420   9.235  1.00  0.00    +0.000 N 
ATOM     96  C67 UNL A   1      14.961  52.618   8.331  1.00  0.00    +0.000 C 
BRANCH   16   15
ATOM    104  H6  UNL A   1      16.139  48.371   5.096  1.00  0.00    +0.000 H 
ATOM      9  C6  UNL A   1      15.152  49.927   6.138  1.00  0.00    +0.000 C 
ATOM     10  C7  UNL A   1      16.010  49.392   5.164  1.00  0.00    +0.000 C 
ATOM     11  C8  UNL A   1      16.688  50.239   4.293  1.00  0.00    +0.000 C 
ATOM     12 Cl1  UNL A   1      17.776  49.602   3.129  1.00  0.00    +0.000 Cl
ATOM     13  C9  UNL A   1      16.476  51.603   4.395  1.00  0.00    +0.000 C 
ATOM     14  N1  UNL A   1      15.667  52.171   5.318  1.00  0.00    +0.000 N 
ATOM     15  C10 UNL A   1      15.039  51.338   6.188  1.00  0.00    +0.000 C 
ATOM    105  H7  UNL A   1      16.963  52.222   3.729  1.00  0.00    +0.000 H 
BRANCH    9    8
ATOM     97  C68 UNL A   1      15.116  48.419   8.141  1.00  0.00    +0.000 C 
ATOM     98  C69 UNL A   1      14.424  47.676   9.104  1.00  0.00    +0.000 C 
ATOM      5  C2  UNL A   1      13.039  47.544   9.006  1.00  0.00    +0.000 C 
ATOM    102  H4  UNL A   1      11.315  48.037   7.888  1.00  0.00    +0.000 H 
ATOM      6  C3  UNL A   1      12.340  48.134   7.953  1.00  0.00    +0.000 C 
ATOM      7  C4  UNL A   1      13.042  48.860   6.987  1.00  0.00    +0.000 C 
ATOM    103  H5  UNL A   1      12.529  49.271   6.192  1.00  0.00    +0.000 H 
ATOM    138  H40 UNL A   1      14.936  47.228   9.879  1.00  0.00    +0.000 H 
ATOM      8  C5  UNL A   1      14.436  49.041   7.080  1.00  0.00    +0.000 C 
ATOM    137  H39 UNL A   1      16.141  48.512   8.212  1.00  0.00    +0.000 H 
BRANCH    5    2
ATOM      2  S1  UNL A   1      12.135  46.671  10.264  1.00  0.00    +0.000 S 
ATOM      3  O1  UNL A   1      12.508  47.261  11.538  1.00  0.00    +0.000 O 
ATOM      4  O2  UNL A   1      12.308  45.253  10.025  1.00  0.00    +0.000 O 
BRANCH    2    1
ATOM      1  C1  UNL A   1      10.444  47.083   9.923  1.00  0.00    +0.000 C 
ATOM     99  H1  UNL A   1      10.407  47.861   9.190  1.00  0.00    +0.000 H 
ATOM    100  H2  UNL A   1       9.969  47.415  10.822  1.00  0.00    +0.000 H 
ATOM    101  H3  UNL A   1       9.935  46.218   9.549  1.00  0.00    +0.000 H 
ENDBRANCH    2    1
ENDBRANCH    5    2
ENDBRANCH    9    8
ENDBRANCH   16   15
ENDBRANCH   20   19
ENDBRANCH   22   20
ENDBRANCH   23   22
ENDBRANCH   24   23
ENDBRANCH   25   24
ENDBRANCH   26   25
ENDBRANCH   27   26
ENDBRANCH   28   27
ENDBRANCH   29   28
ENDBRANCH   30   29
ENDBRANCH   32   30
ENDBRANCH   36   35
BRANCH   40   41
ATOM     41  C31 UNL A   1      18.240  55.525  -0.424  1.00  0.00    +0.000 C 
ATOM     42  C32 UNL A   1      17.992  56.254  -1.598  1.00  0.00    +0.000 C 
ATOM     43  F1  UNL A   1      16.954  55.934  -2.385  1.00  0.00    +0.000 F 
ATOM     44  C33 UNL A   1      18.828  57.298  -1.983  1.00  0.00    +0.000 C 
ATOM     45  F2  UNL A   1      18.593  57.954  -3.128  1.00  0.00    +0.000 F 
ATOM     46  C34 UNL A   1      19.904  57.657  -1.186  1.00  0.00    +0.000 C 
ATOM     47  F3  UNL A   1      20.698  58.674  -1.550  1.00  0.00    +0.000 F 
ATOM     48  C35 UNL A   1      20.161  56.960  -0.016  1.00  0.00    +0.000 C 
ATOM     49  F4  UNL A   1      21.192  57.316   0.762  1.00  0.00    +0.000 F 
ATOM     50  C36 UNL A   1      19.345  55.893   0.356  1.00  0.00    +0.000 C 
ATOM     51  F5  UNL A   1      19.626  55.234   1.490  1.00  0.00    +0.000 F 
ENDBRANCH   40   41
BRANCH   57   58
ATOM     65  C46 UNL A   1      18.908  46.713  -1.854  1.00  0.00    +0.000 C 
ATOM     66  F9  UNL A   1      19.912  45.999  -1.326  1.00  0.00    +0.000 F 
ATOM     67  C47 UNL A   1      18.291  47.707  -1.101  1.00  0.00    +0.000 C 
ATOM     68  F10 UNL A   1      18.711  47.916   0.156  1.00  0.00    +0.000 F 
ATOM     58  C42 UNL A   1      17.256  48.487  -1.640  1.00  0.00    +0.000 C 
ATOM     59  C43 UNL A   1      16.863  48.230  -2.962  1.00  0.00    +0.000 C 
ATOM     60  F6  UNL A   1      15.868  48.937  -3.520  1.00  0.00    +0.000 F 
ATOM     61  C44 UNL A   1      17.457  47.211  -3.701  1.00  0.00    +0.000 C 
ATOM     62  F7  UNL A   1      17.024  46.945  -4.941  1.00  0.00    +0.000 F 
ATOM     63  C45 UNL A   1      18.484  46.459  -3.149  1.00  0.00    +0.000 C 
ATOM     64  F8  UNL A   1      19.059  45.482  -3.865  1.00  0.00    +0.000 F 
ENDBRANCH   57   58
BRANCH   72   73
ATOM     73  C51 UNL A   1      11.889  48.508   2.801  1.00  0.00    +0.000 C 
ATOM     74  C52 UNL A   1      10.554  48.532   2.374  1.00  0.00    +0.000 C 
ATOM     75  F11 UNL A   1      10.135  49.498   1.543  1.00  0.00    +0.000 F 
ATOM     76  C53 UNL A   1       9.629  47.604   2.846  1.00  0.00    +0.000 C 
ATOM     77  F12 UNL A   1       8.345  47.696   2.478  1.00  0.00    +0.000 F 
ATOM     78  C54 UNL A   1      10.029  46.605   3.720  1.00  0.00    +0.000 C 
ATOM     79  F13 UNL A   1       9.137  45.716   4.180  1.00  0.00    +0.000 F 
ATOM     80  C55 UNL A   1      11.353  46.537   4.128  1.00  0.00    +0.000 C 
ATOM     81  F14 UNL A   1      11.749  45.563   4.959  1.00  0.00    +0.000 F 
ATOM     82  C56 UNL A   1      12.270  47.487   3.686  1.00  0.00    +0.000 C 
ATOM     83  F15 UNL A   1      13.537  47.411   4.120  1.00  0.00    +0.000 F 
ENDBRANCH   72   73
TORSDOF 19
ENDMDL
MODEL 9
REMARK VINA RESULT:      -8.4     66.332     72.581
ROOT
ATOM    129  H31 UNL A   1      14.160  51.327   3.939  1.00  0.00    +0.000 H 
ATOM    130  H32 UNL A   1      13.349  46.498   2.825  1.00  0.00    +0.000 H 
ATOM    131  H33 UNL A   1      15.053  46.786   0.938  1.00  0.00    +0.000 H 
ATOM    132  H34 UNL A   1      15.899  56.566   3.061  1.00  0.00    +0.000 H 
ATOM    133  H35 UNL A   1      14.616  56.198   5.247  1.00  0.00    +0.000 H 
ATOM     36  C27 UNL A   1      13.609  53.546   5.554  1.00  0.00    +0.000 C 
ATOM     37  C28 UNL A   1      14.491  54.075   4.457  1.00  0.00    +0.000 C 
ATOM     38  N4  UNL A   1      14.986  53.449   3.419  1.00  0.00    +0.000 N 
ATOM     39  C29 UNL A   1      15.710  54.401   2.714  1.00  0.00    +0.000 C 
ATOM     40  C30 UNL A   1      16.477  54.231   1.611  1.00  0.00    +0.000 C 
ATOM     52  C37 UNL A   1      16.657  52.972   0.936  1.00  0.00    +0.000 C 
ATOM     53  C38 UNL A   1      17.435  52.691  -0.173  1.00  0.00    +0.000 C 
ATOM     54  C39 UNL A   1      17.260  51.342  -0.501  1.00  0.00    +0.000 C 
ATOM     55  C40 UNL A   1      16.421  50.769   0.440  1.00  0.00    +0.000 C 
ATOM     56  N5  UNL A   1      16.048  51.782   1.310  1.00  0.00    +0.000 N 
ATOM     57  C41 UNL A   1      15.990  49.398   0.539  1.00  0.00    +0.000 C 
ATOM     69  C48 UNL A   1      15.161  48.912   1.495  1.00  0.00    +0.000 C 
ATOM     70  N6  UNL A   1      14.562  49.579   2.556  1.00  0.00    +0.000 N 
ATOM     71  C49 UNL A   1      13.834  48.683   3.179  1.00  0.00    +0.000 C 
ATOM     72  C50 UNL A   1      12.995  48.835   4.421  1.00  0.00    +0.000 C 
ATOM     84  C57 UNL A   1      12.954  50.031   5.038  1.00  0.00    +0.000 C 
ATOM     85  C58 UNL A   1      12.202  50.331   6.251  1.00  0.00    +0.000 C 
ATOM     86  C59 UNL A   1      12.346  51.633   6.544  1.00  0.00    +0.000 C 
ATOM     87  C60 UNL A   1      13.238  52.251   5.561  1.00  0.00    +0.000 C 
ATOM     88  N7  UNL A   1      13.556  51.222   4.711  1.00  0.00    +0.000 N 
ATOM     89  C61 UNL A   1      13.865  47.351   2.560  1.00  0.00    +0.000 C 
ATOM     90  C62 UNL A   1      14.729  47.533   1.572  1.00  0.00    +0.000 C 
ATOM     91  C63 UNL A   1      15.535  55.662   3.400  1.00  0.00    +0.000 C 
ATOM     92  C64 UNL A   1      14.846  55.502   4.520  1.00  0.00    +0.000 C 
ATOM    124  H26 UNL A   1      18.042  53.360  -0.672  1.00  0.00    +0.000 H 
ATOM    125  H27 UNL A   1      17.684  50.857  -1.306  1.00  0.00    +0.000 H 
ATOM    126  H28 UNL A   1      15.442  51.675   2.078  1.00  0.00    +0.000 H 
ATOM    127  H29 UNL A   1      11.648  49.652   6.797  1.00  0.00    +0.000 H 
ATOM    128  H30 UNL A   1      11.899  52.120   7.336  1.00  0.00    +0.000 H 
ENDROOT
BRANCH   36   35
ATOM     33  C24 UNL A   1      13.408  55.605   8.734  1.00  0.00    +0.000 C 
ATOM     34  C25 UNL A   1      13.915  54.807   7.707  1.00  0.00    +0.000 C 
ATOM     35  C26 UNL A   1      13.105  54.454   6.615  1.00  0.00    +0.000 C 
ATOM    134  H36 UNL A   1      11.197  54.708   5.738  1.00  0.00    +0.000 H 
ATOM    135  H37 UNL A   1      10.400  56.271   7.410  1.00  0.00    +0.000 H 
ATOM    122  H24 UNL A   1      13.995  55.832   9.552  1.00  0.00    +0.000 H 
ATOM    123  H25 UNL A   1      14.891  54.474   7.750  1.00  0.00    +0.000 H 
ATOM     93  C65 UNL A   1      11.804  54.968   6.532  1.00  0.00    +0.000 C 
ATOM     94  C66 UNL A   1      11.326  55.829   7.516  1.00  0.00    +0.000 C 
ATOM     32  C23 UNL A   1      12.103  56.093   8.649  1.00  0.00    +0.000 C 
BRANCH   32   30
ATOM     30  C22 UNL A   1      11.572  56.913   9.758  1.00  0.00    +0.000 C 
ATOM     31  O4  UNL A   1      11.062  56.369  10.732  1.00  0.00    +0.000 O 
BRANCH   30   29
ATOM    121  H23 UNL A   1      11.561  58.752  10.556  1.00  0.00    +0.000 H 
ATOM     29  N3  UNL A   1      11.658  58.280   9.698  1.00  0.00    +0.000 N 
BRANCH   29   28
ATOM     28  C21 UNL A   1      11.875  59.126   8.534  1.00  0.00    +0.000 C 
ATOM    119  H21 UNL A   1      11.773  58.532   7.649  1.00  0.00    +0.000 H 
ATOM    120  H22 UNL A   1      11.150  59.912   8.552  1.00  0.00    +0.000 H 
BRANCH   28   27
ATOM     27  C20 UNL A   1      13.263  59.758   8.547  1.00  0.00    +0.000 C 
ATOM    117  H19 UNL A   1      13.148  60.821   8.594  1.00  0.00    +0.000 H 
ATOM    118  H20 UNL A   1      13.776  59.360   9.397  1.00  0.00    +0.000 H 
BRANCH   27   26
ATOM     26  C19 UNL A   1      14.113  59.421   7.319  1.00  0.00    +0.000 C 
ATOM    115  H17 UNL A   1      14.362  60.336   6.824  1.00  0.00    +0.000 H 
ATOM    116  H18 UNL A   1      14.969  58.889   7.680  1.00  0.00    +0.000 H 
BRANCH   26   25
ATOM     25  C18 UNL A   1      13.432  58.496   6.298  1.00  0.00    +0.000 C 
ATOM    114  H16 UNL A   1      12.407  58.422   6.595  1.00  0.00    +0.000 H 
ATOM    113  H15 UNL A   1      13.943  57.557   6.307  1.00  0.00    +0.000 H 
BRANCH   25   24
ATOM    112  H14 UNL A   1      13.421  58.178   4.204  1.00  0.00    +0.000 H 
ATOM    111  H13 UNL A   1      14.297  59.632   4.714  1.00  0.00    +0.000 H 
ATOM     24  C17 UNL A   1      13.428  59.025   4.856  1.00  0.00    +0.000 C 
BRANCH   24   23
ATOM    109  H11 UNL A   1      11.388  59.583   5.178  1.00  0.00    +0.000 H 
ATOM    110  H12 UNL A   1      12.424  60.900   4.664  1.00  0.00    +0.000 H 
ATOM     23  C16 UNL A   1      12.190  59.864   4.528  1.00  0.00    +0.000 C 
BRANCH   23   22
ATOM    108  H10 UNL A   1      12.331  60.161   2.511  1.00  0.00    +0.000 H 
ATOM     22  N2  UNL A   1      11.790  59.648   3.153  1.00  0.00    +0.000 N 
BRANCH   22   20
ATOM     20  C15 UNL A   1      10.820  58.884   2.546  1.00  0.00    +0.000 C 
ATOM     21  O3  UNL A   1      10.009  59.506   1.855  1.00  0.00    +0.000 O 
BRANCH   20   19
ATOM    136  H38 UNL A   1       8.160  55.344   3.095  1.00  0.00    +0.000 H 
ATOM    106  H8  UNL A   1      12.233  54.491   3.196  1.00  0.00    +0.000 H 
ATOM    107  H9  UNL A   1      12.687  56.800   2.588  1.00  0.00    +0.000 H 
ATOM     16  C11 UNL A   1      10.139  54.726   3.283  1.00  0.00    +0.000 C 
ATOM     17  C12 UNL A   1      11.453  55.160   3.096  1.00  0.00    +0.000 C 
ATOM     18  C13 UNL A   1      11.721  56.491   2.776  1.00  0.00    +0.000 C 
ATOM     19  C14 UNL A   1      10.670  57.392   2.713  1.00  0.00    +0.000 C 
ATOM     95  N8  UNL A   1       9.376  56.974   2.817  1.00  0.00    +0.000 N 
ATOM     96  C67 UNL A   1       9.141  55.663   3.066  1.00  0.00    +0.000 C 
BRANCH   16   15
ATOM    104  H6  UNL A   1       9.760  50.139   2.890  1.00  0.00    +0.000 H 
ATOM      9  C6  UNL A   1      10.093  52.229   2.956  1.00  0.00    +0.000 C 
ATOM     10  C7  UNL A   1       9.622  50.999   3.443  1.00  0.00    +0.000 C 
ATOM     11  C8  UNL A   1       8.970  50.941   4.670  1.00  0.00    +0.000 C 
ATOM     12 Cl1  UNL A   1       8.348  49.452   5.257  1.00  0.00    +0.000 Cl
ATOM     13  C9  UNL A   1       8.822  52.108   5.399  1.00  0.00    +0.000 C 
ATOM     14  N1  UNL A   1       9.249  53.319   4.973  1.00  0.00    +0.000 N 
ATOM     15  C10 UNL A   1       9.851  53.371   3.757  1.00  0.00    +0.000 C 
ATOM    105  H7  UNL A   1       8.359  52.052   6.319  1.00  0.00    +0.000 H 
BRANCH    9    8
ATOM     97  C68 UNL A   1      10.079  52.717   0.496  1.00  0.00    +0.000 C 
ATOM     98  C69 UNL A   1      10.746  52.909  -0.719  1.00  0.00    +0.000 C 
ATOM      5  C2  UNL A   1      12.120  52.685  -0.793  1.00  0.00    +0.000 C 
ATOM    102  H4  UNL A   1      13.851  52.101   0.269  1.00  0.00    +0.000 H 
ATOM      6  C3  UNL A   1      12.833  52.261   0.328  1.00  0.00    +0.000 C 
ATOM      7  C4  UNL A   1      12.157  52.056   1.533  1.00  0.00    +0.000 C 
ATOM    103  H5  UNL A   1      12.678  51.713   2.354  1.00  0.00    +0.000 H 
ATOM    138  H40 UNL A   1      10.223  53.213  -1.555  1.00  0.00    +0.000 H 
ATOM      8  C5  UNL A   1      10.776  52.309   1.647  1.00  0.00    +0.000 C 
ATOM    137  H39 UNL A   1       9.062  52.879   0.548  1.00  0.00    +0.000 H 
BRANCH    5    2
ATOM      2  S1  UNL A   1      12.996  53.002  -2.307  1.00  0.00    +0.000 S 
ATOM      3  O1  UNL A   1      13.753  54.225  -2.110  1.00  0.00    +0.000 O 
ATOM      4  O2  UNL A   1      12.047  52.886  -3.395  1.00  0.00    +0.000 O 
BRANCH    2    1
ATOM      1  C1  UNL A   1      14.132  51.645  -2.423  1.00  0.00    +0.000 C 
ATOM     99  H1  UNL A   1      14.241  51.187  -1.462  1.00  0.00    +0.000 H 
ATOM    100  H2  UNL A   1      15.083  52.003  -2.757  1.00  0.00    +0.000 H 
ATOM    101  H3  UNL A   1      13.758  50.924  -3.120  1.00  0.00    +0.000 H 
ENDBRANCH    2    1
ENDBRANCH    5    2
ENDBRANCH    9    8
ENDBRANCH   16   15
ENDBRANCH   20   19
ENDBRANCH   22   20
ENDBRANCH   23   22
ENDBRANCH   24   23
ENDBRANCH   25   24
ENDBRANCH   26   25
ENDBRANCH   27   26
ENDBRANCH   28   27
ENDBRANCH   29   28
ENDBRANCH   30   29
ENDBRANCH   32   30
ENDBRANCH   36   35
BRANCH   40   41
ATOM     41  C31 UNL A   1      17.200  55.432   1.069  1.00  0.00    +0.000 C 
ATOM     42  C32 UNL A   1      16.571  56.330   0.192  1.00  0.00    +0.000 C 
ATOM     43  F1  UNL A   1      15.324  56.090  -0.239  1.00  0.00    +0.000 F 
ATOM     44  C33 UNL A   1      17.233  57.464  -0.269  1.00  0.00    +0.000 C 
ATOM     45  F2  UNL A   1      16.625  58.286  -1.136  1.00  0.00    +0.000 F 
ATOM     46  C34 UNL A   1      18.520  57.743   0.165  1.00  0.00    +0.000 C 
ATOM     47  F3  UNL A   1      19.149  58.846  -0.266  1.00  0.00    +0.000 F 
ATOM     48  C35 UNL A   1      19.157  56.878   1.041  1.00  0.00    +0.000 C 
ATOM     49  F4  UNL A   1      20.395  57.154   1.473  1.00  0.00    +0.000 F 
ATOM     50  C36 UNL A   1      18.509  55.725   1.479  1.00  0.00    +0.000 C 
ATOM     51  F5  UNL A   1      19.156  54.903   2.320  1.00  0.00    +0.000 F 
ENDBRANCH   40   41
BRANCH   57   58
ATOM     65  C46 UNL A   1      18.340  47.046  -1.314  1.00  0.00    +0.000 C 
ATOM     66  F9  UNL A   1      19.601  46.607  -1.204  1.00  0.00    +0.000 F 
ATOM     67  C47 UNL A   1      17.826  47.927  -0.367  1.00  0.00    +0.000 C 
ATOM     68  F10 UNL A   1      18.612  48.307   0.652  1.00  0.00    +0.000 F 
ATOM     58  C42 UNL A   1      16.517  48.423  -0.475  1.00  0.00    +0.000 C 
ATOM     59  C43 UNL A   1      15.743  47.999  -1.565  1.00  0.00    +0.000 C 
ATOM     60  F6  UNL A   1      14.481  48.431  -1.706  1.00  0.00    +0.000 F 
ATOM     61  C44 UNL A   1      16.247  47.089  -2.490  1.00  0.00    +0.000 C 
ATOM     62  F7  UNL A   1      15.469  46.653  -3.490  1.00  0.00    +0.000 F 
ATOM     63  C45 UNL A   1      17.547  46.620  -2.368  1.00  0.00    +0.000 C 
ATOM     64  F8  UNL A   1      18.032  45.748  -3.264  1.00  0.00    +0.000 F 
ENDBRANCH   57   58
BRANCH   72   73
ATOM     73  C51 UNL A   1      12.223  47.683   4.961  1.00  0.00    +0.000 C 
ATOM     74  C52 UNL A   1      11.005  47.293   4.387  1.00  0.00    +0.000 C 
ATOM     75  F11 UNL A   1      10.527  47.950   3.320  1.00  0.00    +0.000 F 
ATOM     76  C53 UNL A   1      10.242  46.268   4.942  1.00  0.00    +0.000 C 
ATOM     77  F12 UNL A   1       9.048  45.965   4.416  1.00  0.00    +0.000 F 
ATOM     78  C54 UNL A   1      10.702  45.582   6.055  1.00  0.00    +0.000 C 
ATOM     79  F13 UNL A   1       9.965  44.601   6.594  1.00  0.00    +0.000 F 
ATOM     80  C55 UNL A   1      11.922  45.925   6.619  1.00  0.00    +0.000 C 
ATOM     81  F14 UNL A   1      12.380  45.254   7.685  1.00  0.00    +0.000 F 
ATOM     82  C56 UNL A   1      12.668  46.974   6.087  1.00  0.00    +0.000 C 
ATOM     83  F15 UNL A   1      13.830  47.300   6.671  1.00  0.00    +0.000 F 
ENDBRANCH   72   73
TORSDOF 19
ENDMDL
MODEL 10
REMARK VINA RESULT:      -8.4     39.910     44.810
ROOT
ATOM    129  H31 UNL A   1      41.313  30.102  31.301  1.00  0.00    +0.000 H 
ATOM    130  H32 UNL A   1      39.114  28.765  26.989  1.00  0.00    +0.000 H 
ATOM    131  H33 UNL A   1      37.314  30.503  27.524  1.00  0.00    +0.000 H 
ATOM    132  H34 UNL A   1      41.654  32.420  36.376  1.00  0.00    +0.000 H 
ATOM    133  H35 UNL A   1      43.718  31.090  35.647  1.00  0.00    +0.000 H 
ATOM     36  C27 UNL A   1      43.414  29.792  33.124  1.00  0.00    +0.000 C 
ATOM     37  C28 UNL A   1      42.454  30.734  33.797  1.00  0.00    +0.000 C 
ATOM     38  N4  UNL A   1      41.289  31.163  33.382  1.00  0.00    +0.000 N 
ATOM     39  C29 UNL A   1      40.812  31.993  34.388  1.00  0.00    +0.000 C 
ATOM     40  C30 UNL A   1      39.685  32.743  34.399  1.00  0.00    +0.000 C 
ATOM     52  C37 UNL A   1      38.730  32.786  33.322  1.00  0.00    +0.000 C 
ATOM     53  C38 UNL A   1      37.571  33.535  33.226  1.00  0.00    +0.000 C 
ATOM     54  C39 UNL A   1      36.939  33.213  32.020  1.00  0.00    +0.000 C 
ATOM     55  C40 UNL A   1      37.736  32.309  31.337  1.00  0.00    +0.000 C 
ATOM     56  N5  UNL A   1      38.826  32.046  32.152  1.00  0.00    +0.000 N 
ATOM     57  C41 UNL A   1      37.519  31.727  30.038  1.00  0.00    +0.000 C 
ATOM     69  C48 UNL A   1      38.351  30.843  29.435  1.00  0.00    +0.000 C 
ATOM     70  N6  UNL A   1      39.550  30.316  29.894  1.00  0.00    +0.000 N 
ATOM     71  C49 UNL A   1      39.961  29.488  28.963  1.00  0.00    +0.000 C 
ATOM     72  C50 UNL A   1      41.220  28.664  28.909  1.00  0.00    +0.000 C 
ATOM     84  C57 UNL A   1      42.101  28.752  29.924  1.00  0.00    +0.000 C 
ATOM     85  C58 UNL A   1      43.366  28.030  30.010  1.00  0.00    +0.000 C 
ATOM     86  C59 UNL A   1      43.953  28.317  31.183  1.00  0.00    +0.000 C 
ATOM     87  C60 UNL A   1      43.125  29.278  31.913  1.00  0.00    +0.000 C 
ATOM     88  N7  UNL A   1      42.050  29.485  31.084  1.00  0.00    +0.000 N 
ATOM     89  C61 UNL A   1      39.046  29.375  27.818  1.00  0.00    +0.000 C 
ATOM     90  C62 UNL A   1      38.111  30.259  28.131  1.00  0.00    +0.000 C 
ATOM     91  C63 UNL A   1      41.778  31.955  35.464  1.00  0.00    +0.000 C 
ATOM     92  C64 UNL A   1      42.843  31.245  35.121  1.00  0.00    +0.000 C 
ATOM    124  H26 UNL A   1      37.230  34.216  33.923  1.00  0.00    +0.000 H 
ATOM    125  H27 UNL A   1      36.034  33.585  31.694  1.00  0.00    +0.000 H 
ATOM    126  H28 UNL A   1      39.560  31.427  31.935  1.00  0.00    +0.000 H 
ATOM    127  H29 UNL A   1      43.748  27.401  29.287  1.00  0.00    +0.000 H 
ATOM    128  H30 UNL A   1      44.846  27.922  31.516  1.00  0.00    +0.000 H 
ENDROOT
BRANCH   36   35
ATOM     33  C24 UNL A   1      47.092  29.430  33.982  1.00  0.00    +0.000 C 
ATOM     34  C25 UNL A   1      45.914  29.872  33.378  1.00  0.00    +0.000 C 
ATOM     35  C26 UNL A   1      44.668  29.385  33.807  1.00  0.00    +0.000 C 
ATOM    134  H36 UNL A   1      43.706  28.130  35.211  1.00  0.00    +0.000 H 
ATOM    135  H37 UNL A   1      45.736  27.540  36.396  1.00  0.00    +0.000 H 
ATOM    122  H24 UNL A   1      48.006  29.764  33.640  1.00  0.00    +0.000 H 
ATOM    123  H25 UNL A   1      45.958  30.563  32.612  1.00  0.00    +0.000 H 
ATOM     93  C65 UNL A   1      44.615  28.502  34.894  1.00  0.00    +0.000 C 
ATOM     94  C66 UNL A   1      45.784  28.122  35.547  1.00  0.00    +0.000 C 
ATOM     32  C23 UNL A   1      47.026  28.534  35.050  1.00  0.00    +0.000 C 
BRANCH   32   30
ATOM     30  C22 UNL A   1      48.284  28.053  35.659  1.00  0.00    +0.000 C 
ATOM     31  O4  UNL A   1      48.636  28.479  36.755  1.00  0.00    +0.000 O 
BRANCH   30   29
ATOM    121  H23 UNL A   1      48.778  26.189  35.116  1.00  0.00    +0.000 H 
ATOM     29  N3  UNL A   1      49.050  27.127  35.001  1.00  0.00    +0.000 N 
BRANCH   29   28
ATOM     28  C21 UNL A   1      50.213  27.347  34.154  1.00  0.00    +0.000 C 
ATOM    119  H21 UNL A   1      50.463  28.389  34.172  1.00  0.00    +0.000 H 
ATOM    120  H22 UNL A   1      51.019  26.753  34.531  1.00  0.00    +0.000 H 
BRANCH   28   27
ATOM     27  C20 UNL A   1      49.947  26.929  32.711  1.00  0.00    +0.000 C 
ATOM    117  H19 UNL A   1      50.779  26.348  32.371  1.00  0.00    +0.000 H 
ATOM    118  H20 UNL A   1      49.031  26.377  32.713  1.00  0.00    +0.000 H 
BRANCH   27   26
ATOM     26  C19 UNL A   1      49.755  28.103  31.747  1.00  0.00    +0.000 C 
ATOM    115  H17 UNL A   1      48.827  28.581  31.984  1.00  0.00    +0.000 H 
ATOM    116  H18 UNL A   1      50.604  28.742  31.876  1.00  0.00    +0.000 H 
BRANCH   26   25
ATOM     25  C18 UNL A   1      49.728  27.718  30.260  1.00  0.00    +0.000 C 
ATOM    114  H16 UNL A   1      49.588  26.658  30.226  1.00  0.00    +0.000 H 
ATOM    113  H15 UNL A   1      50.648  28.037  29.817  1.00  0.00    +0.000 H 
BRANCH   25   24
ATOM    112  H14 UNL A   1      48.873  29.317  29.164  1.00  0.00    +0.000 H 
ATOM    111  H13 UNL A   1      47.700  28.353  30.079  1.00  0.00    +0.000 H 
ATOM     24  C17 UNL A   1      48.571  28.334  29.459  1.00  0.00    +0.000 C 
BRANCH   24   23
ATOM    109  H11 UNL A   1      48.140  28.239  27.367  1.00  0.00    +0.000 H 
ATOM    110  H12 UNL A   1      49.037  26.864  27.982  1.00  0.00    +0.000 H 
ATOM     23  C16 UNL A   1      48.244  27.555  28.182  1.00  0.00    +0.000 C 
BRANCH   23   22
ATOM    108  H10 UNL A   1      46.228  27.290  27.981  1.00  0.00    +0.000 H 
ATOM     22  N2  UNL A   1      47.008  26.818  28.350  1.00  0.00    +0.000 N 
BRANCH   22   20
ATOM     20  C15 UNL A   1      46.684  25.605  28.913  1.00  0.00    +0.000 C 
ATOM     21  O3  UNL A   1      46.843  24.622  28.183  1.00  0.00    +0.000 O 
BRANCH   20   19
ATOM    136  H38 UNL A   1      43.462  24.009  31.554  1.00  0.00    +0.000 H 
ATOM    106  H8  UNL A   1      46.378  26.235  33.520  1.00  0.00    +0.000 H 
ATOM    107  H9  UNL A   1      47.627  26.357  31.438  1.00  0.00    +0.000 H 
ATOM     16  C11 UNL A   1      44.750  25.172  32.703  1.00  0.00    +0.000 C 
ATOM     17  C12 UNL A   1      45.985  25.823  32.659  1.00  0.00    +0.000 C 
ATOM     18  C13 UNL A   1      46.692  25.921  31.460  1.00  0.00    +0.000 C 
ATOM     19  C14 UNL A   1      46.120  25.423  30.300  1.00  0.00    +0.000 C 
ATOM     95  N8  UNL A   1      44.953  24.719  30.335  1.00  0.00    +0.000 N 
ATOM     96  C67 UNL A   1      44.318  24.584  31.524  1.00  0.00    +0.000 C 
BRANCH   16   15
ATOM    104  H6  UNL A   1      43.368  23.656  36.842  1.00  0.00    +0.000 H 
ATOM      9  C6  UNL A   1      44.185  24.308  35.001  1.00  0.00    +0.000 C 
ATOM     10  C7  UNL A   1      43.239  24.289  36.037  1.00  0.00    +0.000 C 
ATOM     11  C8  UNL A   1      42.126  25.121  35.979  1.00  0.00    +0.000 C 
ATOM     12 Cl1  UNL A   1      40.937  25.076  37.216  1.00  0.00    +0.000 Cl
ATOM     13  C9  UNL A   1      41.992  25.975  34.898  1.00  0.00    +0.000 C 
ATOM     14  N1  UNL A   1      42.870  26.028  33.869  1.00  0.00    +0.000 N 
ATOM     15  C10 UNL A   1      43.933  25.184  33.917  1.00  0.00    +0.000 C 
ATOM    105  H7  UNL A   1      41.177  26.607  34.874  1.00  0.00    +0.000 H 
BRANCH    9    8
ATOM     97  C68 UNL A   1      45.340  22.160  34.418  1.00  0.00    +0.000 C 
ATOM     98  C69 UNL A   1      46.490  21.365  34.351  1.00  0.00    +0.000 C 
ATOM      5  C2  UNL A   1      47.678  21.825  34.919  1.00  0.00    +0.000 C 
ATOM    102  H4  UNL A   1      48.610  23.399  35.976  1.00  0.00    +0.000 H 
ATOM      6  C3  UNL A   1      47.728  23.061  35.562  1.00  0.00    +0.000 C 
ATOM      7  C4  UNL A   1      46.570  23.841  35.638  1.00  0.00    +0.000 C 
ATOM    103  H5  UNL A   1      46.599  24.741  36.140  1.00  0.00    +0.000 H 
ATOM    138  H40 UNL A   1      46.458  20.445  33.886  1.00  0.00    +0.000 H 
ATOM      8  C5  UNL A   1      45.366  23.419  35.042  1.00  0.00    +0.000 C 
ATOM    137  H39 UNL A   1      44.461  21.816  34.001  1.00  0.00    +0.000 H 
BRANCH    5    2
ATOM      2  S1  UNL A   1      49.167  20.864  34.773  1.00  0.00    +0.000 S 
ATOM      3  O1  UNL A   1      50.204  21.763  34.297  1.00  0.00    +0.000 O 
ATOM      4  O2  UNL A   1      48.841  19.657  34.043  1.00  0.00    +0.000 O 
BRANCH    2    1
ATOM      1  C1  UNL A   1      49.535  20.410  36.448  1.00  0.00    +0.000 C 
ATOM     99  H1  UNL A   1      50.584  20.520  36.624  1.00  0.00    +0.000 H 
ATOM    100  H2  UNL A   1      49.250  19.392  36.613  1.00  0.00    +0.000 H 
ATOM    101  H3  UNL A   1      48.993  21.046  37.117  1.00  0.00    +0.000 H 
ENDBRANCH    2    1
ENDBRANCH    5    2
ENDBRANCH    9    8
ENDBRANCH   16   15
ENDBRANCH   20   19
ENDBRANCH   22   20
ENDBRANCH   23   22
ENDBRANCH   24   23
ENDBRANCH   25   24
ENDBRANCH   26   25
ENDBRANCH   27   26
ENDBRANCH   28   27
ENDBRANCH   29   28
ENDBRANCH   30   29
ENDBRANCH   32   30
ENDBRANCH   36   35
BRANCH   40   41
ATOM     41  C31 UNL A   1      39.426  33.599  35.607  1.00  0.00    +0.000 C 
ATOM     42  C32 UNL A   1      38.669  33.125  36.690  1.00  0.00    +0.000 C 
ATOM     43  F1  UNL A   1      38.097  31.913  36.635  1.00  0.00    +0.000 F 
ATOM     44  C33 UNL A   1      38.472  33.907  37.824  1.00  0.00    +0.000 C 
ATOM     45  F2  UNL A   1      37.713  33.448  38.829  1.00  0.00    +0.000 F 
ATOM     46  C34 UNL A   1      39.056  35.161  37.914  1.00  0.00    +0.000 C 
ATOM     47  F3  UNL A   1      38.881  35.907  39.015  1.00  0.00    +0.000 F 
ATOM     48  C35 UNL A   1      39.819  35.646  36.863  1.00  0.00    +0.000 C 
ATOM     49  F4  UNL A   1      40.396  36.851  36.954  1.00  0.00    +0.000 F 
ATOM     50  C36 UNL A   1      39.991  34.878  35.712  1.00  0.00    +0.000 C 
ATOM     51  F5  UNL A   1      40.728  35.379  34.709  1.00  0.00    +0.000 F 
ENDBRANCH   40   41
BRANCH   57   58
ATOM     65  C46 UNL A   1      35.012  33.890  28.161  1.00  0.00    +0.000 C 
ATOM     66  F9  UNL A   1      34.888  35.169  27.779  1.00  0.00    +0.000 F 
ATOM     67  C47 UNL A   1      36.153  33.476  28.841  1.00  0.00    +0.000 C 
ATOM     68  F10 UNL A   1      37.118  34.375  29.087  1.00  0.00    +0.000 F 
ATOM     58  C42 UNL A   1      36.295  32.149  29.277  1.00  0.00    +0.000 C 
ATOM     59  C43 UNL A   1      35.251  31.254  29.000  1.00  0.00    +0.000 C 
ATOM     60  F6  UNL A   1      35.344  29.970  29.381  1.00  0.00    +0.000 F 
ATOM     61  C44 UNL A   1      34.127  31.662  28.287  1.00  0.00    +0.000 C 
ATOM     62  F7  UNL A   1      33.170  30.774  27.983  1.00  0.00    +0.000 F 
ATOM     63  C45 UNL A   1      34.006  32.981  27.875  1.00  0.00    +0.000 C 
ATOM     64  F8  UNL A   1      32.920  33.373  27.194  1.00  0.00    +0.000 F 
ENDBRANCH   57   58
BRANCH   72   73
ATOM     73  C51 UNL A   1      41.490  27.764  27.754  1.00  0.00    +0.000 C 
ATOM     74  C52 UNL A   1      41.184  26.397  27.812  1.00  0.00    +0.000 C 
ATOM     75  F11 UNL A   1      40.620  25.884  28.915  1.00  0.00    +0.000 F 
ATOM     76  C53 UNL A   1      41.512  25.541  26.763  1.00  0.00    +0.000 C 
ATOM     77  F12 UNL A   1      41.275  24.227  26.877  1.00  0.00    +0.000 F 
ATOM     78  C54 UNL A   1      42.112  26.040  25.618  1.00  0.00    +0.000 C 
ATOM     79  F13 UNL A   1      42.435  25.215  24.613  1.00  0.00    +0.000 F 
ATOM     80  C55 UNL A   1      42.390  27.395  25.522  1.00  0.00    +0.000 C 
ATOM     81  F14 UNL A   1      42.955  27.886  24.410  1.00  0.00    +0.000 F 
ATOM     82  C56 UNL A   1      42.097  28.246  26.585  1.00  0.00    +0.000 C 
ATOM     83  F15 UNL A   1      42.404  29.547  26.473  1.00  0.00    +0.000 F 
ENDBRANCH   72   73
TORSDOF 19
ENDMDL
