MODEL 1
REMARK VINA RESULT:      -7.2      0.000      0.000
ROOT
ATOM    140  H46 UNL A   1      17.540  15.249   9.160  1.00  0.00    +0.000 H 
ATOM    141  H47 UNL A   1      19.735  15.024   7.772  1.00  0.00    +0.000 H 
ATOM    142  H48 UNL A   1      17.889  18.578   6.722  1.00  0.00    +0.000 H 
ATOM    143  H49 UNL A   1      17.679  23.814   3.076  1.00  0.00    +0.000 H 
ATOM    144  H50 UNL A   1      15.583  24.064   4.488  1.00  0.00    +0.000 H 
ATOM    145  H51 UNL A   1      17.463  20.535   5.622  1.00  0.00    +0.000 H 
ATOM    146  H52 UNL A   1      21.621  20.212   2.829  1.00  0.00    +0.000 H 
ATOM    147  H53 UNL A   1      21.973  17.896   3.858  1.00  0.00    +0.000 H 
ATOM    148  H54 UNL A   1      13.858  19.128   9.648  1.00  0.00    +0.000 H 
ATOM    149  H55 UNL A   1      13.191  21.178   8.269  1.00  0.00    +0.000 H 
ATOM     36  C31 UNL A   1      15.112  21.903   6.286  1.00  0.00    +0.000 C 
ATOM     37  C32 UNL A   1      15.134  20.709   7.197  1.00  0.00    +0.000 C 
ATOM     38  N3  UNL A   1      16.022  19.750   7.282  1.00  0.00    +0.000 N 
ATOM     39  C33 UNL A   1      15.576  18.906   8.289  1.00  0.00    +0.000 C 
ATOM     40  C34 UNL A   1      16.100  17.726   8.698  1.00  0.00    +0.000 C 
ATOM     52  C41 UNL A   1      17.295  17.138   8.149  1.00  0.00    +0.000 C 
ATOM     53  C42 UNL A   1      17.895  15.933   8.475  1.00  0.00    +0.000 C 
ATOM     54  C43 UNL A   1      19.062  15.804   7.715  1.00  0.00    +0.000 C 
ATOM     55  C44 UNL A   1      19.160  16.900   6.874  1.00  0.00    +0.000 C 
ATOM     56  N4  UNL A   1      18.077  17.716   7.159  1.00  0.00    +0.000 N 
ATOM     57  C45 UNL A   1      20.167  17.181   5.881  1.00  0.00    +0.000 C 
ATOM     69  C52 UNL A   1      20.189  18.281   5.088  1.00  0.00    +0.000 C 
ATOM     70  N5  UNL A   1      19.305  19.352   5.051  1.00  0.00    +0.000 N 
ATOM     71  C53 UNL A   1      19.778  20.177   4.147  1.00  0.00    +0.000 C 
ATOM     72  C54 UNL A   1      19.214  21.487   3.667  1.00  0.00    +0.000 C 
ATOM     84  C61 UNL A   1      18.052  21.925   4.188  1.00  0.00    +0.000 C 
ATOM     85  C62 UNL A   1      17.362  23.151   3.800  1.00  0.00    +0.000 C 
ATOM     86  C63 UNL A   1      16.249  23.277   4.539  1.00  0.00    +0.000 C 
ATOM     87  C64 UNL A   1      16.128  22.121   5.429  1.00  0.00    +0.000 C 
ATOM     88  N6  UNL A   1      17.252  21.379   5.161  1.00  0.00    +0.000 N 
ATOM     89  C65 UNL A   1      21.032  19.730   3.525  1.00  0.00    +0.000 C 
ATOM     90  C66 UNL A   1      21.207  18.546   4.094  1.00  0.00    +0.000 C 
ATOM     91  C67 UNL A   1      14.374  19.498   8.836  1.00  0.00    +0.000 C 
ATOM     92  C68 UNL A   1      14.025  20.581   8.156  1.00  0.00    +0.000 C 
ENDROOT
BRANCH   36   35
ATOM     33  C28 UNL A   1      12.845  24.722   7.412  1.00  0.00    +0.000 C 
ATOM     34  C29 UNL A   1      13.942  23.866   7.316  1.00  0.00    +0.000 C 
ATOM     35  C30 UNL A   1      13.984  22.869   6.327  1.00  0.00    +0.000 C 
ATOM    138  H44 UNL A   1      12.804  25.430   8.162  1.00  0.00    +0.000 H 
ATOM    139  H45 UNL A   1      14.730  23.966   7.977  1.00  0.00    +0.000 H 
ATOM    150  H56 UNL A   1      12.959  22.058   4.666  1.00  0.00    +0.000 H 
ATOM    151  H57 UNL A   1      11.158  23.682   4.709  1.00  0.00    +0.000 H 
ATOM     93  C69 UNL A   1      12.942  22.789   5.393  1.00  0.00    +0.000 C 
ATOM     94  C70 UNL A   1      11.882  23.693   5.444  1.00  0.00    +0.000 C 
ATOM     32  C27 UNL A   1      11.801  24.616   6.491  1.00  0.00    +0.000 C 
BRANCH   32   30
ATOM     30  C26 UNL A   1      10.639  25.520   6.649  1.00  0.00    +0.000 C 
ATOM     31  O2  UNL A   1      10.296  25.880   7.765  1.00  0.00    +0.000 O 
BRANCH   30   29
ATOM    137  H43 UNL A   1       9.184  25.326   5.293  1.00  0.00    +0.000 H 
ATOM     29  N2  UNL A   1       9.923  25.923   5.548  1.00  0.00    +0.000 N 
BRANCH   29   28
ATOM     28  C25 UNL A   1      10.088  27.093   4.704  1.00  0.00    +0.000 C 
ATOM    135  H41 UNL A   1       9.341  27.813   4.967  1.00  0.00    +0.000 H 
ATOM    136  H42 UNL A   1      11.077  27.469   4.865  1.00  0.00    +0.000 H 
BRANCH   28   27
ATOM     27  C24 UNL A   1       9.955  26.774   3.218  1.00  0.00    +0.000 C 
ATOM    133  H39 UNL A   1       9.361  25.889   3.123  1.00  0.00    +0.000 H 
ATOM    134  H40 UNL A   1       9.513  27.639   2.769  1.00  0.00    +0.000 H 
BRANCH   27   26
ATOM     26  C23 UNL A   1      11.273  26.540   2.476  1.00  0.00    +0.000 C 
ATOM    131  H37 UNL A   1      12.029  27.126   2.957  1.00  0.00    +0.000 H 
ATOM    132  H38 UNL A   1      11.448  25.485   2.520  1.00  0.00    +0.000 H 
BRANCH   26   25
ATOM     25  C22 UNL A   1      11.273  26.902   0.987  1.00  0.00    +0.000 C 
ATOM    130  H36 UNL A   1      11.163  27.965   0.941  1.00  0.00    +0.000 H 
ATOM    129  H35 UNL A   1      10.474  26.367   0.517  1.00  0.00    +0.000 H 
BRANCH   25   24
ATOM    128  H34 UNL A   1      12.870  25.587   0.500  1.00  0.00    +0.000 H 
ATOM    127  H33 UNL A   1      13.317  27.293   0.507  1.00  0.00    +0.000 H 
ATOM     24  C21 UNL A   1      12.568  26.578   0.233  1.00  0.00    +0.000 C 
BRANCH   24   23
ATOM    125  H31 UNL A   1      11.345  26.409  -1.496  1.00  0.00    +0.000 H 
ATOM    126  H32 UNL A   1      12.645  27.603  -1.612  1.00  0.00    +0.000 H 
ATOM     23  C20 UNL A   1      12.370  26.624  -1.278  1.00  0.00    +0.000 C 
BRANCH   23   22
ATOM    124  H30 UNL A   1      13.008  24.719  -1.802  1.00  0.00    +0.000 H 
ATOM     22  N1  UNL A   1      13.208  25.667  -1.978  1.00  0.00    +0.000 N 
BRANCH   22   20
ATOM     20  C19 UNL A   1      14.230  25.899  -2.843  1.00  0.00    +0.000 C 
ATOM     21  O1  UNL A   1      14.036  25.575  -4.020  1.00  0.00    +0.000 O 
BRANCH   20   19
ATOM    122  H28 UNL A   1      15.572  27.507  -2.752  1.00  0.00    +0.000 H 
ATOM     19  C18 UNL A   1      15.575  26.482  -2.445  1.00  0.00    +0.000 C 
ATOM    123  H29 UNL A   1      15.629  26.287  -1.395  1.00  0.00    +0.000 H 
BRANCH   19   18
ATOM    121  H27 UNL A   1      17.338  26.693  -3.456  1.00  0.00    +0.000 H 
ATOM     18  C17 UNL A   1      16.848  25.867  -2.983  1.00  0.00    +0.000 C 
ATOM    120  H26 UNL A   1      16.556  25.046  -3.601  1.00  0.00    +0.000 H 
BRANCH   18   17
ATOM     17  C16 UNL A   1      17.909  25.338  -2.022  1.00  0.00    +0.000 C 
ATOM    118  H24 UNL A   1      17.363  25.048  -1.149  1.00  0.00    +0.000 H 
ATOM    119  H25 UNL A   1      18.401  24.659  -2.687  1.00  0.00    +0.000 H 
BRANCH   17   16
ATOM     16  S1  UNL A   1      19.400  26.216  -1.371  1.00  0.00    +0.000 S 
BRANCH   16   15
ATOM    116  H22 UNL A   1      18.507  28.171  -2.425  1.00  0.00    +0.000 H 
ATOM    117  H23 UNL A   1      19.327  28.511  -0.848  1.00  0.00    +0.000 H 
ATOM     15  C15 UNL A   1      19.356  28.011  -1.795  1.00  0.00    +0.000 C 
BRANCH   15   14
ATOM    114  H20 UNL A   1      21.460  28.364  -1.946  1.00  0.00    +0.000 H 
ATOM    115  H21 UNL A   1      20.580  28.196  -3.504  1.00  0.00    +0.000 H 
ATOM     14  C14 UNL A   1      20.592  28.615  -2.518  1.00  0.00    +0.000 C 
BRANCH   14   13
ATOM    113  H19 UNL A   1      20.002  30.461  -3.490  1.00  0.00    +0.000 H 
ATOM     13  C13 UNL A   1      20.582  30.108  -2.712  1.00  0.00    +0.000 C 
BRANCH   13   12
ATOM     12  C12 UNL A   1      21.240  31.036  -1.994  1.00  0.00    +0.000 C 
ATOM    112  H18 UNL A   1      22.270  31.058  -2.042  1.00  0.00    +0.000 H 
BRANCH   12   11
ATOM     11  C11 UNL A   1      20.533  32.053  -1.115  1.00  0.00    +0.000 C 
ATOM    110  H16 UNL A   1      21.279  32.640  -0.622  1.00  0.00    +0.000 H 
ATOM    111  H17 UNL A   1      19.903  32.622  -1.767  1.00  0.00    +0.000 H 
BRANCH   11   10
ATOM     10  C10 UNL A   1      19.631  31.472  -0.066  1.00  0.00    +0.000 C 
ATOM    109  H15 UNL A   1      20.061  31.009   0.749  1.00  0.00    +0.000 H 
BRANCH   10    9
ATOM      9  C9  UNL A   1      18.290  31.528  -0.136  1.00  0.00    +0.000 C 
ATOM    108  H14 UNL A   1      17.853  32.434  -0.367  1.00  0.00    +0.000 H 
BRANCH    9    8
ATOM    106  H12 UNL A   1      17.972  29.457   0.193  1.00  0.00    +0.000 H 
ATOM    107  H13 UNL A   1      16.831  30.488   1.006  1.00  0.00    +0.000 H 
ATOM      8  C8  UNL A   1      17.387  30.349   0.103  1.00  0.00    +0.000 C 
BRANCH    8    7
ATOM    105  H11 UNL A   1      16.864  30.258  -2.011  1.00  0.00    +0.000 H 
ATOM      7  C7  UNL A   1      16.454  30.227  -1.064  1.00  0.00    +0.000 C 
BRANCH    7    6
ATOM      6  C6  UNL A   1      15.125  30.082  -0.965  1.00  0.00    +0.000 C 
ATOM    104  H10 UNL A   1      14.676  29.307  -1.477  1.00  0.00    +0.000 H 
BRANCH    6    5
ATOM      5  C5  UNL A   1      14.258  30.991  -0.142  1.00  0.00    +0.000 C 
ATOM    102  H8  UNL A   1      13.418  30.445   0.230  1.00  0.00    +0.000 H 
ATOM    103  H9  UNL A   1      14.820  31.377   0.683  1.00  0.00    +0.000 H 
BRANCH    5    4
ATOM      4  C4  UNL A   1      13.782  32.123  -1.008  1.00  0.00    +0.000 C 
ATOM    101  H7  UNL A   1      13.894  33.084  -0.651  1.00  0.00    +0.000 H 
BRANCH    4    3
ATOM      3  C3  UNL A   1      13.218  31.964  -2.215  1.00  0.00    +0.000 C 
ATOM    100  H6  UNL A   1      12.479  31.252  -2.318  1.00  0.00    +0.000 H 
BRANCH    3    2
ATOM      2  C2  UNL A   1      13.606  32.765  -3.423  1.00  0.00    +0.000 C 
ATOM     99  H5  UNL A   1      14.497  33.314  -3.201  1.00  0.00    +0.000 H 
ATOM     98  H4  UNL A   1      12.810  33.435  -3.671  1.00  0.00    +0.000 H 
BRANCH    2    1
ATOM      1  C1  UNL A   1      13.875  31.847  -4.607  1.00  0.00    +0.000 C 
ATOM     97  H3  UNL A   1      13.082  31.134  -4.692  1.00  0.00    +0.000 H 
ATOM     95  H1  UNL A   1      14.802  31.335  -4.457  1.00  0.00    +0.000 H 
ATOM     96  H2  UNL A   1      13.930  32.428  -5.503  1.00  0.00    +0.000 H 
ENDBRANCH    2    1
ENDBRANCH    3    2
ENDBRANCH    4    3
ENDBRANCH    5    4
ENDBRANCH    6    5
ENDBRANCH    7    6
ENDBRANCH    8    7
ENDBRANCH    9    8
ENDBRANCH   10    9
ENDBRANCH   11   10
ENDBRANCH   12   11
ENDBRANCH   13   12
ENDBRANCH   14   13
ENDBRANCH   15   14
ENDBRANCH   16   15
ENDBRANCH   17   16
ENDBRANCH   18   17
ENDBRANCH   19   18
ENDBRANCH   20   19
ENDBRANCH   22   20
ENDBRANCH   23   22
ENDBRANCH   24   23
ENDBRANCH   25   24
ENDBRANCH   26   25
ENDBRANCH   27   26
ENDBRANCH   28   27
ENDBRANCH   29   28
ENDBRANCH   30   29
ENDBRANCH   32   30
ENDBRANCH   36   35
BRANCH   40   41
ATOM     41  C35 UNL A   1      15.376  16.979   9.781  1.00  0.00    +0.000 C 
ATOM     42  C36 UNL A   1      15.519  17.331  11.132  1.00  0.00    +0.000 C 
ATOM     43  F1  UNL A   1      16.368  18.307  11.489  1.00  0.00    +0.000 F 
ATOM     44  C37 UNL A   1      14.815  16.659  12.129  1.00  0.00    +0.000 C 
ATOM     45  F2  UNL A   1      15.001  16.985  13.415  1.00  0.00    +0.000 F 
ATOM     46  C38 UNL A   1      13.928  15.648  11.792  1.00  0.00    +0.000 C 
ATOM     47  F3  UNL A   1      13.239  15.012  12.750  1.00  0.00    +0.000 F 
ATOM     48  C39 UNL A   1      13.758  15.293  10.463  1.00  0.00    +0.000 C 
ATOM     49  F4  UNL A   1      12.890  14.326  10.134  1.00  0.00    +0.000 F 
ATOM     50  C40 UNL A   1      14.483  15.942   9.466  1.00  0.00    +0.000 C 
ATOM     51  F5  UNL A   1      14.304  15.568   8.191  1.00  0.00    +0.000 F 
ENDBRANCH   40   41
BRANCH   57   58
ATOM     65  C50 UNL A   1      22.149  14.231   4.518  1.00  0.00    +0.000 C 
ATOM     66  F9  UNL A   1      21.999  13.268   3.597  1.00  0.00    +0.000 F 
ATOM     67  C51 UNL A   1      21.140  15.169   4.711  1.00  0.00    +0.000 C 
ATOM     68  F10 UNL A   1      20.035  15.092   3.953  1.00  0.00    +0.000 F 
ATOM     58  C46 UNL A   1      21.264  16.175   5.682  1.00  0.00    +0.000 C 
ATOM     59  C47 UNL A   1      22.436  16.201   6.453  1.00  0.00    +0.000 C 
ATOM     60  F6  UNL A   1      22.612  17.150   7.384  1.00  0.00    +0.000 F 
ATOM     61  C48 UNL A   1      23.460  15.283   6.230  1.00  0.00    +0.000 C 
ATOM     62  F7  UNL A   1      24.598  15.370   6.933  1.00  0.00    +0.000 F 
ATOM     63  C49 UNL A   1      23.314  14.297   5.267  1.00  0.00    +0.000 C 
ATOM     64  F8  UNL A   1      24.300  13.416   5.055  1.00  0.00    +0.000 F 
ENDBRANCH   57   58
BRANCH   72   73
ATOM     73  C55 UNL A   1      19.917  22.286   2.628  1.00  0.00    +0.000 C 
ATOM     74  C56 UNL A   1      19.739  22.024   1.263  1.00  0.00    +0.000 C 
ATOM     75  F11 UNL A   1      18.913  21.041   0.872  1.00  0.00    +0.000 F 
ATOM     76  C57 UNL A   1      20.449  22.729   0.294  1.00  0.00    +0.000 C 
ATOM     77  F12 UNL A   1      20.308  22.412  -1.001  1.00  0.00    +0.000 F 
ATOM     78  C58 UNL A   1      21.322  23.740   0.669  1.00  0.00    +0.000 C 
ATOM     79  F13 UNL A   1      22.006  24.417  -0.263  1.00  0.00    +0.000 F 
ATOM     80  C59 UNL A   1      21.490  24.041   2.011  1.00  0.00    +0.000 C 
ATOM     81  F14 UNL A   1      22.317  25.029   2.377  1.00  0.00    +0.000 F 
ATOM     82  C60 UNL A   1      20.807  23.311   2.982  1.00  0.00    +0.000 C 
ATOM     83  F15 UNL A   1      21.010  23.610   4.273  1.00  0.00    +0.000 F 
ENDBRANCH   72   73
TORSDOF 33
ENDMDL
MODEL 2
REMARK VINA RESULT:      -6.9     51.802     57.837
ROOT
ATOM    140  H46 UNL A   1      47.490   9.173  48.054  1.00  0.00    +0.000 H 
ATOM    141  H47 UNL A   1      48.116   7.308  49.765  1.00  0.00    +0.000 H 
ATOM    142  H48 UNL A   1      45.245   9.744  51.487  1.00  0.00    +0.000 H 
ATOM    143  H49 UNL A   1      41.674  11.338  56.533  1.00  0.00    +0.000 H 
ATOM    144  H50 UNL A   1      41.013  13.105  54.834  1.00  0.00    +0.000 H 
ATOM    145  H51 UNL A   1      43.829  10.622  53.051  1.00  0.00    +0.000 H 
ATOM    146  H52 UNL A   1      44.976   7.134  56.474  1.00  0.00    +0.000 H 
ATOM    147  H53 UNL A   1      46.755   6.301  54.835  1.00  0.00    +0.000 H 
ATOM    148  H54 UNL A   1      43.834  13.107  48.050  1.00  0.00    +0.000 H 
ATOM    149  H55 UNL A   1      42.440  14.289  49.842  1.00  0.00    +0.000 H 
ATOM     36  C31 UNL A   1      42.402  12.927  52.350  1.00  0.00    +0.000 C 
ATOM     37  C32 UNL A   1      43.190  12.572  51.121  1.00  0.00    +0.000 C 
ATOM     38  N3  UNL A   1      44.020  11.578  50.930  1.00  0.00    +0.000 N 
ATOM     39  C33 UNL A   1      44.464  11.699  49.621  1.00  0.00    +0.000 C 
ATOM     40  C34 UNL A   1      45.399  10.963  48.973  1.00  0.00    +0.000 C 
ATOM     52  C41 UNL A   1      46.099   9.848  49.558  1.00  0.00    +0.000 C 
ATOM     53  C42 UNL A   1      47.084   9.054  48.995  1.00  0.00    +0.000 C 
ATOM     54  C43 UNL A   1      47.433   8.066  49.921  1.00  0.00    +0.000 C 
ATOM     55  C44 UNL A   1      46.709   8.278  51.082  1.00  0.00    +0.000 C 
ATOM     56  N4  UNL A   1      45.885   9.367  50.842  1.00  0.00    +0.000 N 
ATOM     57  C45 UNL A   1      46.764   7.543  52.321  1.00  0.00    +0.000 C 
ATOM     69  C52 UNL A   1      46.021   7.819  53.421  1.00  0.00    +0.000 C 
ATOM     70  N5  UNL A   1      45.069   8.813  53.608  1.00  0.00    +0.000 N 
ATOM     71  C53 UNL A   1      44.605   8.642  54.823  1.00  0.00    +0.000 C 
ATOM     72  C54 UNL A   1      43.575   9.446  55.571  1.00  0.00    +0.000 C 
ATOM     84  C61 UNL A   1      43.024  10.517  54.968  1.00  0.00    +0.000 C 
ATOM     85  C62 UNL A   1      42.044  11.414  55.573  1.00  0.00    +0.000 C 
ATOM     86  C63 UNL A   1      41.704  12.355  54.678  1.00  0.00    +0.000 C 
ATOM     87  C64 UNL A   1      42.469  12.147  53.447  1.00  0.00    +0.000 C 
ATOM     88  N6  UNL A   1      43.215  11.024  53.707  1.00  0.00    +0.000 N 
ATOM     89  C65 UNL A   1      45.198   7.502  55.536  1.00  0.00    +0.000 C 
ATOM     90  C66 UNL A   1      46.092   7.072  54.658  1.00  0.00    +0.000 C 
ATOM     91  C67 UNL A   1      43.761  12.821  49.038  1.00  0.00    +0.000 C 
ATOM     92  C68 UNL A   1      43.007  13.432  49.941  1.00  0.00    +0.000 C 
ENDROOT
BRANCH   36   35
ATOM     33  C28 UNL A   1      39.319  15.120  52.177  1.00  0.00    +0.000 C 
ATOM     34  C29 UNL A   1      40.136  13.993  52.243  1.00  0.00    +0.000 C 
ATOM     35  C30 UNL A   1      41.529  14.129  52.372  1.00  0.00    +0.000 C 
ATOM    138  H44 UNL A   1      38.300  15.016  52.048  1.00  0.00    +0.000 H 
ATOM    139  H45 UNL A   1      39.715  13.051  52.196  1.00  0.00    +0.000 H 
ATOM    150  H56 UNL A   1      43.102  15.523  52.596  1.00  0.00    +0.000 H 
ATOM    151  H57 UNL A   1      41.656  17.468  52.694  1.00  0.00    +0.000 H 
ATOM     93  C69 UNL A   1      42.081  15.410  52.506  1.00  0.00    +0.000 C 
ATOM     94  C70 UNL A   1      41.255  16.533  52.516  1.00  0.00    +0.000 C 
ATOM     32  C27 UNL A   1      39.883  16.393  52.287  1.00  0.00    +0.000 C 
BRANCH   32   30
ATOM     30  C26 UNL A   1      38.985  17.565  52.177  1.00  0.00    +0.000 C 
ATOM     31  O2  UNL A   1      37.794  17.443  52.419  1.00  0.00    +0.000 O 
BRANCH   30   29
ATOM    137  H43 UNL A   1      39.607  19.439  52.487  1.00  0.00    +0.000 H 
ATOM     29  N2  UNL A   1      39.481  18.779  51.768  1.00  0.00    +0.000 N 
BRANCH   29   28
ATOM     28  C25 UNL A   1      39.848  19.240  50.441  1.00  0.00    +0.000 C 
ATOM    135  H41 UNL A   1      40.566  18.561  50.030  1.00  0.00    +0.000 H 
ATOM    136  H42 UNL A   1      38.954  19.276  49.854  1.00  0.00    +0.000 H 
BRANCH   28   27
ATOM     27  C24 UNL A   1      40.450  20.642  50.446  1.00  0.00    +0.000 C 
ATOM    133  H39 UNL A   1      39.986  21.203  49.662  1.00  0.00    +0.000 H 
ATOM    134  H40 UNL A   1      40.268  21.036  51.423  1.00  0.00    +0.000 H 
BRANCH   27   26
ATOM     26  C23 UNL A   1      41.966  20.706  50.240  1.00  0.00    +0.000 C 
ATOM    131  H37 UNL A   1      42.146  21.023  49.234  1.00  0.00    +0.000 H 
ATOM    132  H38 UNL A   1      42.331  21.385  50.981  1.00  0.00    +0.000 H 
BRANCH   26   25
ATOM     25  C22 UNL A   1      42.725  19.394  50.464  1.00  0.00    +0.000 C 
ATOM    130  H36 UNL A   1      42.011  18.611  50.317  1.00  0.00    +0.000 H 
ATOM    129  H35 UNL A   1      43.140  19.417  51.450  1.00  0.00    +0.000 H 
BRANCH   25   24
ATOM    128  H34 UNL A   1      44.778  19.054  50.030  1.00  0.00    +0.000 H 
ATOM    127  H33 UNL A   1      43.905  19.916  48.763  1.00  0.00    +0.000 H 
ATOM     24  C21 UNL A   1      43.865  19.119  49.476  1.00  0.00    +0.000 C 
BRANCH   24   23
ATOM    125  H31 UNL A   1      42.625  17.691  48.506  1.00  0.00    +0.000 H 
ATOM    126  H32 UNL A   1      44.259  17.837  47.844  1.00  0.00    +0.000 H 
ATOM     23  C20 UNL A   1      43.665  17.802  48.734  1.00  0.00    +0.000 C 
BRANCH   23   22
ATOM    124  H30 UNL A   1      43.408  15.972  49.681  1.00  0.00    +0.000 H 
ATOM     22  N1  UNL A   1      44.098  16.655  49.511  1.00  0.00    +0.000 N 
BRANCH   22   20
ATOM     20  C19 UNL A   1      45.324  16.392  50.035  1.00  0.00    +0.000 C 
ATOM     21  O1  UNL A   1      46.229  16.161  49.226  1.00  0.00    +0.000 O 
BRANCH   20   19
ATOM    122  H28 UNL A   1      45.567  17.333  51.893  1.00  0.00    +0.000 H 
ATOM     19  C18 UNL A   1      45.624  16.331  51.523  1.00  0.00    +0.000 C 
ATOM    123  H29 UNL A   1      44.905  15.631  51.893  1.00  0.00    +0.000 H 
BRANCH   19   18
ATOM    121  H27 UNL A   1      47.167  16.356  52.862  1.00  0.00    +0.000 H 
ATOM     18  C17 UNL A   1      46.943  15.763  51.999  1.00  0.00    +0.000 C 
ATOM    120  H26 UNL A   1      47.619  15.818  51.172  1.00  0.00    +0.000 H 
BRANCH   18   17
ATOM     17  C16 UNL A   1      47.016  14.335  52.531  1.00  0.00    +0.000 C 
ATOM    118  H24 UNL A   1      47.720  14.382  53.336  1.00  0.00    +0.000 H 
ATOM    119  H25 UNL A   1      45.968  14.154  52.648  1.00  0.00    +0.000 H 
BRANCH   17   16
ATOM     16  S1  UNL A   1      47.461  12.794  51.611  1.00  0.00    +0.000 S 
BRANCH   16   15
ATOM    116  H22 UNL A   1      48.994  13.908  50.148  1.00  0.00    +0.000 H 
ATOM    117  H23 UNL A   1      49.805  12.971  51.467  1.00  0.00    +0.000 H 
ATOM     15  C15 UNL A   1      49.054  12.995  50.703  1.00  0.00    +0.000 C 
BRANCH   15   14
ATOM    114  H20 UNL A   1      48.602  11.277  49.513  1.00  0.00    +0.000 H 
ATOM    115  H21 UNL A   1      49.858  12.380  48.851  1.00  0.00    +0.000 H 
ATOM     14  C14 UNL A   1      49.468  11.874  49.710  1.00  0.00    +0.000 C 
BRANCH   14   13
ATOM    113  H19 UNL A   1      51.518  11.178  49.836  1.00  0.00    +0.000 H 
ATOM     13  C13 UNL A   1      50.567  10.954  50.171  1.00  0.00    +0.000 C 
BRANCH   13   12
ATOM     12  C12 UNL A   1      50.458   9.874  50.967  1.00  0.00    +0.000 C 
ATOM    112  H18 UNL A   1      49.810   9.916  51.768  1.00  0.00    +0.000 H 
BRANCH   12   11
ATOM     11  C11 UNL A   1      51.246   8.597  50.737  1.00  0.00    +0.000 C 
ATOM    110  H16 UNL A   1      50.552   7.785  50.682  1.00  0.00    +0.000 H 
ATOM    111  H17 UNL A   1      51.800   8.747  49.833  1.00  0.00    +0.000 H 
BRANCH   11   10
ATOM     10  C10 UNL A   1      52.259   8.272  51.795  1.00  0.00    +0.000 C 
ATOM    109  H15 UNL A   1      52.786   7.389  51.715  1.00  0.00    +0.000 H 
BRANCH   10    9
ATOM      9  C9  UNL A   1      52.513   9.076  52.842  1.00  0.00    +0.000 C 
ATOM    108  H14 UNL A   1      52.595  10.090  52.667  1.00  0.00    +0.000 H 
BRANCH    9    8
ATOM    106  H12 UNL A   1      51.951   7.841  54.472  1.00  0.00    +0.000 H 
ATOM    107  H13 UNL A   1      53.659   8.157  54.377  1.00  0.00    +0.000 H 
ATOM      8  C8  UNL A   1      52.687   8.586  54.254  1.00  0.00    +0.000 C 
BRANCH    8    7
ATOM    105  H11 UNL A   1      53.360  10.120  55.649  1.00  0.00    +0.000 H 
ATOM      7  C7  UNL A   1      52.517   9.753  55.180  1.00  0.00    +0.000 C 
BRANCH    7    6
ATOM      6  C6  UNL A   1      51.346  10.352  55.443  1.00  0.00    +0.000 C 
ATOM    104  H10 UNL A   1      50.535   9.761  55.684  1.00  0.00    +0.000 H 
BRANCH    6    5
ATOM      5  C5  UNL A   1      51.158  11.841  55.404  1.00  0.00    +0.000 C 
ATOM    102  H8  UNL A   1      50.363  12.120  56.062  1.00  0.00    +0.000 H 
ATOM    103  H9  UNL A   1      52.059  12.328  55.715  1.00  0.00    +0.000 H 
BRANCH    5    4
ATOM      4  C4  UNL A   1      50.818  12.252  53.999  1.00  0.00    +0.000 C 
ATOM    101  H7  UNL A   1      49.872  12.037  53.649  1.00  0.00    +0.000 H 
BRANCH    4    3
ATOM      3  C3  UNL A   1      51.665  12.879  53.170  1.00  0.00    +0.000 C 
ATOM    100  H6  UNL A   1      51.273  13.520  52.463  1.00  0.00    +0.000 H 
BRANCH    3    2
ATOM      2  C2  UNL A   1      53.154  12.697  53.214  1.00  0.00    +0.000 C 
ATOM     99  H5  UNL A   1      53.381  11.845  53.820  1.00  0.00    +0.000 H 
ATOM     98  H4  UNL A   1      53.604  13.575  53.628  1.00  0.00    +0.000 H 
BRANCH    2    1
ATOM      1  C1  UNL A   1      53.704  12.465  51.814  1.00  0.00    +0.000 C 
ATOM     97  H3  UNL A   1      54.600  11.883  51.875  1.00  0.00    +0.000 H 
ATOM     95  H1  UNL A   1      53.920  13.407  51.355  1.00  0.00    +0.000 H 
ATOM     96  H2  UNL A   1      52.978  11.941  51.228  1.00  0.00    +0.000 H 
ENDBRANCH    2    1
ENDBRANCH    3    2
ENDBRANCH    4    3
ENDBRANCH    5    4
ENDBRANCH    6    5
ENDBRANCH    7    6
ENDBRANCH    8    7
ENDBRANCH    9    8
ENDBRANCH   10    9
ENDBRANCH   11   10
ENDBRANCH   12   11
ENDBRANCH   13   12
ENDBRANCH   14   13
ENDBRANCH   15   14
ENDBRANCH   16   15
ENDBRANCH   17   16
ENDBRANCH   18   17
ENDBRANCH   19   18
ENDBRANCH   20   19
ENDBRANCH   22   20
ENDBRANCH   23   22
ENDBRANCH   24   23
ENDBRANCH   25   24
ENDBRANCH   26   25
ENDBRANCH   27   26
ENDBRANCH   28   27
ENDBRANCH   29   28
ENDBRANCH   30   29
ENDBRANCH   32   30
ENDBRANCH   36   35
BRANCH   40   41
ATOM     41  C35 UNL A   1      45.735  11.350  47.561  1.00  0.00    +0.000 C 
ATOM     42  C36 UNL A   1      45.265  10.605  46.468  1.00  0.00    +0.000 C 
ATOM     43  F1  UNL A   1      44.558   9.482  46.671  1.00  0.00    +0.000 F 
ATOM     44  C37 UNL A   1      45.549  10.990  45.160  1.00  0.00    +0.000 C 
ATOM     45  F2  UNL A   1      45.126  10.238  44.135  1.00  0.00    +0.000 F 
ATOM     46  C38 UNL A   1      46.274  12.147  44.918  1.00  0.00    +0.000 C 
ATOM     47  F3  UNL A   1      46.533  12.525  43.659  1.00  0.00    +0.000 F 
ATOM     48  C39 UNL A   1      46.735  12.908  45.981  1.00  0.00    +0.000 C 
ATOM     49  F4  UNL A   1      47.424  14.034  45.748  1.00  0.00    +0.000 F 
ATOM     50  C40 UNL A   1      46.480  12.508  47.291  1.00  0.00    +0.000 C 
ATOM     51  F5  UNL A   1      46.949  13.261  48.297  1.00  0.00    +0.000 F 
ENDBRANCH   40   41
BRANCH   57   58
ATOM     65  C50 UNL A   1      49.929   5.553  53.035  1.00  0.00    +0.000 C 
ATOM     66  F9  UNL A   1      51.162   5.776  53.513  1.00  0.00    +0.000 F 
ATOM     67  C51 UNL A   1      49.023   6.604  52.937  1.00  0.00    +0.000 C 
ATOM     68  F10 UNL A   1      49.406   7.825  53.340  1.00  0.00    +0.000 F 
ATOM     58  C46 UNL A   1      47.733   6.400  52.422  1.00  0.00    +0.000 C 
ATOM     59  C47 UNL A   1      47.390   5.105  52.005  1.00  0.00    +0.000 C 
ATOM     60  F6  UNL A   1      46.166   4.853  51.519  1.00  0.00    +0.000 F 
ATOM     61  C48 UNL A   1      48.288   4.049  52.141  1.00  0.00    +0.000 C 
ATOM     62  F7  UNL A   1      47.913   2.807  51.799  1.00  0.00    +0.000 F 
ATOM     63  C49 UNL A   1      49.558   4.273  52.650  1.00  0.00    +0.000 C 
ATOM     64  F8  UNL A   1      50.418   3.256  52.780  1.00  0.00    +0.000 F 
ENDBRANCH   57   58
BRANCH   72   73
ATOM     73  C55 UNL A   1      43.176   9.077  56.955  1.00  0.00    +0.000 C 
ATOM     74  C56 UNL A   1      42.222   8.078  57.195  1.00  0.00    +0.000 C 
ATOM     75  F11 UNL A   1      41.658   7.429  56.165  1.00  0.00    +0.000 F 
ATOM     76  C57 UNL A   1      41.800   7.780  58.490  1.00  0.00    +0.000 C 
ATOM     77  F12 UNL A   1      40.839   6.867  58.685  1.00  0.00    +0.000 F 
ATOM     78  C58 UNL A   1      42.355   8.446  59.573  1.00  0.00    +0.000 C 
ATOM     79  F13 UNL A   1      41.948   8.160  60.817  1.00  0.00    +0.000 F 
ATOM     80  C59 UNL A   1      43.325   9.414  59.363  1.00  0.00    +0.000 C 
ATOM     81  F14 UNL A   1      43.877  10.046  60.407  1.00  0.00    +0.000 F 
ATOM     82  C60 UNL A   1      43.719   9.738  58.066  1.00  0.00    +0.000 C 
ATOM     83  F15 UNL A   1      44.641  10.696  57.895  1.00  0.00    +0.000 F 
ENDBRANCH   72   73
TORSDOF 33
ENDMDL
MODEL 3
REMARK VINA RESULT:      -6.9      3.782      5.889
ROOT
ATOM    140  H46 UNL A   1      16.850  17.552   8.625  1.00  0.00    +0.000 H 
ATOM    141  H47 UNL A   1      19.268  16.976   9.410  1.00  0.00    +0.000 H 
ATOM    142  H48 UNL A   1      19.523  19.121   5.878  1.00  0.00    +0.000 H 
ATOM    143  H49 UNL A   1      23.055  21.572   1.159  1.00  0.00    +0.000 H 
ATOM    144  H50 UNL A   1      20.701  22.196   0.440  1.00  0.00    +0.000 H 
ATOM    145  H51 UNL A   1      20.424  20.121   4.031  1.00  0.00    +0.000 H 
ATOM    146  H52 UNL A   1      25.135  19.032   5.378  1.00  0.00    +0.000 H 
ATOM    147  H53 UNL A   1      24.131  17.683   7.306  1.00  0.00    +0.000 H 
ATOM    148  H54 UNL A   1      14.879  20.489   4.584  1.00  0.00    +0.000 H 
ATOM    149  H55 UNL A   1      15.806  21.384   2.372  1.00  0.00    +0.000 H 
ATOM     36  C31 UNL A   1      18.651  21.252   2.182  1.00  0.00    +0.000 C 
ATOM     37  C32 UNL A   1      17.776  20.730   3.287  1.00  0.00    +0.000 C 
ATOM     38  N3  UNL A   1      18.117  20.109   4.388  1.00  0.00    +0.000 N 
ATOM     39  C33 UNL A   1      16.932  19.858   5.065  1.00  0.00    +0.000 C 
ATOM     40  C34 UNL A   1      16.745  19.164   6.214  1.00  0.00    +0.000 C 
ATOM     52  C41 UNL A   1      17.809  18.569   6.982  1.00  0.00    +0.000 C 
ATOM     53  C42 UNL A   1      17.722  17.822   8.145  1.00  0.00    +0.000 C 
ATOM     54  C43 UNL A   1      19.019  17.497   8.554  1.00  0.00    +0.000 C 
ATOM     55  C44 UNL A   1      19.912  17.990   7.618  1.00  0.00    +0.000 C 
ATOM     56  N4  UNL A   1      19.157  18.656   6.664  1.00  0.00    +0.000 N 
ATOM     57  C45 UNL A   1      21.347  17.863   7.591  1.00  0.00    +0.000 C 
ATOM     69  C52 UNL A   1      22.154  18.374   6.629  1.00  0.00    +0.000 C 
ATOM     70  N5  UNL A   1      21.816  19.115   5.504  1.00  0.00    +0.000 N 
ATOM     71  C53 UNL A   1      22.949  19.408   4.912  1.00  0.00    +0.000 C 
ATOM     72  C54 UNL A   1      23.187  20.168   3.635  1.00  0.00    +0.000 C 
ATOM     84  C61 UNL A   1      22.126  20.627   2.945  1.00  0.00    +0.000 C 
ATOM     85  C62 UNL A   1      22.191  21.346   1.676  1.00  0.00    +0.000 C 
ATOM     86  C63 UNL A   1      20.946  21.666   1.291  1.00  0.00    +0.000 C 
ATOM     87  C64 UNL A   1      19.991  21.143   2.270  1.00  0.00    +0.000 C 
ATOM     88  N6  UNL A   1      20.783  20.554   3.224  1.00  0.00    +0.000 N 
ATOM     89  C65 UNL A   1      24.139  18.901   5.611  1.00  0.00    +0.000 C 
ATOM     90  C66 UNL A   1      23.595  18.234   6.617  1.00  0.00    +0.000 C 
ATOM     91  C67 UNL A   1      15.867  20.455   4.290  1.00  0.00    +0.000 C 
ATOM     92  C68 UNL A   1      16.328  20.953   3.151  1.00  0.00    +0.000 C 
ENDROOT
BRANCH   36   35
ATOM     33  C28 UNL A   1      17.211  23.908  -0.103  1.00  0.00    +0.000 C 
ATOM     34  C29 UNL A   1      17.844  23.298   0.979  1.00  0.00    +0.000 C 
ATOM     35  C30 UNL A   1      18.057  21.909   0.989  1.00  0.00    +0.000 C 
ATOM    138  H44 UNL A   1      17.026  24.923  -0.090  1.00  0.00    +0.000 H 
ATOM    139  H45 UNL A   1      18.160  23.870   1.779  1.00  0.00    +0.000 H 
ATOM    150  H56 UNL A   1      17.835  20.132  -0.134  1.00  0.00    +0.000 H 
ATOM    151  H57 UNL A   1      16.927  21.229  -2.098  1.00  0.00    +0.000 H 
ATOM     93  C69 UNL A   1      17.689  21.153  -0.132  1.00  0.00    +0.000 C 
ATOM     94  C70 UNL A   1      17.124  21.775  -1.245  1.00  0.00    +0.000 C 
ATOM     32  C27 UNL A   1      16.826  23.140  -1.204  1.00  0.00    +0.000 C 
BRANCH   32   30
ATOM     30  C26 UNL A   1      16.124  23.821  -2.316  1.00  0.00    +0.000 C 
ATOM     31  O2  UNL A   1      16.768  24.389  -3.185  1.00  0.00    +0.000 O 
BRANCH   30   29
ATOM    137  H43 UNL A   1      14.335  24.559  -1.819  1.00  0.00    +0.000 H 
ATOM     29  N2  UNL A   1      14.751  23.846  -2.354  1.00  0.00    +0.000 N 
BRANCH   29   28
ATOM     28  C25 UNL A   1      13.820  22.983  -3.059  1.00  0.00    +0.000 C 
ATOM    135  H41 UNL A   1      14.121  21.966  -2.917  1.00  0.00    +0.000 H 
ATOM    136  H42 UNL A   1      12.844  23.169  -2.661  1.00  0.00    +0.000 H 
BRANCH   28   27
ATOM     27  C24 UNL A   1      13.766  23.270  -4.557  1.00  0.00    +0.000 C 
ATOM    133  H39 UNL A   1      14.363  24.137  -4.748  1.00  0.00    +0.000 H 
ATOM    134  H40 UNL A   1      14.126  22.386  -5.040  1.00  0.00    +0.000 H 
BRANCH   27   26
ATOM     26  C23 UNL A   1      12.369  23.524  -5.127  1.00  0.00    +0.000 C 
ATOM    131  H37 UNL A   1      12.255  22.917  -6.001  1.00  0.00    +0.000 H 
ATOM    132  H38 UNL A   1      11.686  23.283  -4.339  1.00  0.00    +0.000 H 
BRANCH   26   25
ATOM     25  C22 UNL A   1      12.061  24.974  -5.517  1.00  0.00    +0.000 C 
ATOM    130  H36 UNL A   1      11.337  24.921  -6.302  1.00  0.00    +0.000 H 
ATOM    129  H35 UNL A   1      12.980  25.439  -5.809  1.00  0.00    +0.000 H 
BRANCH   25   24
ATOM    128  H34 UNL A   1      11.438  25.264  -3.505  1.00  0.00    +0.000 H 
ATOM    127  H33 UNL A   1      10.426  26.078  -4.699  1.00  0.00    +0.000 H 
ATOM     24  C21 UNL A   1      11.428  25.830  -4.413  1.00  0.00    +0.000 C 
BRANCH   24   23
ATOM    125  H31 UNL A   1      12.347  27.611  -5.119  1.00  0.00    +0.000 H 
ATOM    126  H32 UNL A   1      11.641  27.722  -3.500  1.00  0.00    +0.000 H 
ATOM     23  C20 UNL A   1      12.207  27.119  -4.179  1.00  0.00    +0.000 C 
BRANCH   23   22
ATOM    124  H30 UNL A   1      13.848  25.959  -3.654  1.00  0.00    +0.000 H 
ATOM     22  N1  UNL A   1      13.508  26.880  -3.579  1.00  0.00    +0.000 N 
BRANCH   22   20
ATOM     20  C19 UNL A   1      14.322  27.753  -2.930  1.00  0.00    +0.000 C 
ATOM     21  O1  UNL A   1      15.311  27.269  -2.369  1.00  0.00    +0.000 O 
BRANCH   20   19
ATOM    122  H28 UNL A   1      13.773  29.581  -3.799  1.00  0.00    +0.000 H 
ATOM     19  C18 UNL A   1      14.068  29.247  -2.826  1.00  0.00    +0.000 C 
ATOM    123  H29 UNL A   1      13.343  29.323  -2.043  1.00  0.00    +0.000 H 
BRANCH   19   18
ATOM    121  H27 UNL A   1      14.916  31.106  -2.808  1.00  0.00    +0.000 H 
ATOM     18  C17 UNL A   1      15.177  30.167  -2.366  1.00  0.00    +0.000 C 
ATOM    120  H26 UNL A   1      16.097  29.716  -2.672  1.00  0.00    +0.000 H 
BRANCH   18   17
ATOM     17  C16 UNL A   1      15.326  30.510  -0.886  1.00  0.00    +0.000 C 
ATOM    118  H24 UNL A   1      15.413  29.562  -0.398  1.00  0.00    +0.000 H 
ATOM    119  H25 UNL A   1      16.114  31.228  -0.968  1.00  0.00    +0.000 H 
BRANCH   17   16
ATOM     16  S1  UNL A   1      14.174  31.483   0.182  1.00  0.00    +0.000 S 
BRANCH   16   15
ATOM    116  H22 UNL A   1      14.559  33.088   1.916  1.00  0.00    +0.000 H 
ATOM    117  H23 UNL A   1      14.997  31.396   2.386  1.00  0.00    +0.000 H 
ATOM     15  C15 UNL A   1      15.049  32.174   1.652  1.00  0.00    +0.000 C 
BRANCH   15   14
ATOM    114  H20 UNL A   1      16.903  32.054   0.592  1.00  0.00    +0.000 H 
ATOM    115  H21 UNL A   1      16.646  33.549   1.556  1.00  0.00    +0.000 H 
ATOM     14  C14 UNL A   1      16.565  32.483   1.513  1.00  0.00    +0.000 C 
BRANCH   14   13
ATOM    113  H19 UNL A   1      17.243  32.311   3.565  1.00  0.00    +0.000 H 
ATOM     13  C13 UNL A   1      17.451  31.965   2.615  1.00  0.00    +0.000 C 
BRANCH   13   12
ATOM     12  C12 UNL A   1      18.480  31.105   2.508  1.00  0.00    +0.000 C 
ATOM    112  H18 UNL A   1      19.115  30.994   3.314  1.00  0.00    +0.000 H 
BRANCH   12   11
ATOM     11  C11 UNL A   1      18.749  30.289   1.256  1.00  0.00    +0.000 C 
ATOM    110  H16 UNL A   1      18.668  29.254   1.511  1.00  0.00    +0.000 H 
ATOM    111  H17 UNL A   1      18.027  30.609   0.533  1.00  0.00    +0.000 H 
BRANCH   11   10
ATOM     10  C10 UNL A   1      20.093  30.509   0.627  1.00  0.00    +0.000 C 
ATOM    109  H15 UNL A   1      20.160  31.160  -0.170  1.00  0.00    +0.000 H 
BRANCH   10    9
ATOM      9  C9  UNL A   1      21.213  29.899   1.051  1.00  0.00    +0.000 C 
ATOM    108  H14 UNL A   1      22.116  30.224   0.671  1.00  0.00    +0.000 H 
BRANCH    9    8
ATOM    106  H12 UNL A   1      21.749  29.078   2.931  1.00  0.00    +0.000 H 
ATOM    107  H13 UNL A   1      20.230  28.500   2.311  1.00  0.00    +0.000 H 
ATOM      8  C8  UNL A   1      21.230  28.772   2.047  1.00  0.00    +0.000 C 
BRANCH    8    7
ATOM    105  H11 UNL A   1      22.744  27.803   0.814  1.00  0.00    +0.000 H 
ATOM      7  C7  UNL A   1      21.935  27.605   1.423  1.00  0.00    +0.000 C 
BRANCH    7    6
ATOM      6  C6  UNL A   1      21.587  26.322   1.601  1.00  0.00    +0.000 C 
ATOM    104  H10 UNL A   1      21.708  25.905   2.537  1.00  0.00    +0.000 H 
BRANCH    6    5
ATOM      5  C5  UNL A   1      21.028  25.463   0.504  1.00  0.00    +0.000 C 
ATOM    102  H8  UNL A   1      21.775  24.772   0.173  1.00  0.00    +0.000 H 
ATOM    103  H9  UNL A   1      20.182  24.917   0.867  1.00  0.00    +0.000 H 
BRANCH    5    4
ATOM      4  C4  UNL A   1      20.613  26.343  -0.641  1.00  0.00    +0.000 C 
ATOM    101  H7  UNL A   1      21.347  26.679  -1.283  1.00  0.00    +0.000 H 
BRANCH    4    3
ATOM      3  C3  UNL A   1      19.349  26.722  -0.880  1.00  0.00    +0.000 C 
ATOM    100  H6  UNL A   1      18.585  26.135  -0.511  1.00  0.00    +0.000 H 
BRANCH    3    2
ATOM      2  C2  UNL A   1      18.986  27.953  -1.659  1.00  0.00    +0.000 C 
ATOM     99  H5  UNL A   1      19.774  28.668  -1.561  1.00  0.00    +0.000 H 
ATOM     98  H4  UNL A   1      18.072  28.355  -1.275  1.00  0.00    +0.000 H 
BRANCH    2    1
ATOM      1  C1  UNL A   1      18.805  27.617  -3.132  1.00  0.00    +0.000 C 
ATOM     97  H3  UNL A   1      17.762  27.626  -3.374  1.00  0.00    +0.000 H 
ATOM     95  H1  UNL A   1      19.209  26.646  -3.329  1.00  0.00    +0.000 H 
ATOM     96  H2  UNL A   1      19.315  28.344  -3.729  1.00  0.00    +0.000 H 
ENDBRANCH    2    1
ENDBRANCH    3    2
ENDBRANCH    4    3
ENDBRANCH    5    4
ENDBRANCH    6    5
ENDBRANCH    7    6
ENDBRANCH    8    7
ENDBRANCH    9    8
ENDBRANCH   10    9
ENDBRANCH   11   10
ENDBRANCH   12   11
ENDBRANCH   13   12
ENDBRANCH   14   13
ENDBRANCH   15   14
ENDBRANCH   16   15
ENDBRANCH   17   16
ENDBRANCH   18   17
ENDBRANCH   19   18
ENDBRANCH   20   19
ENDBRANCH   22   20
ENDBRANCH   23   22
ENDBRANCH   24   23
ENDBRANCH   25   24
ENDBRANCH   26   25
ENDBRANCH   27   26
ENDBRANCH   28   27
ENDBRANCH   29   28
ENDBRANCH   30   29
ENDBRANCH   32   30
ENDBRANCH   36   35
BRANCH   40   41
ATOM     41  C35 UNL A   1      15.335  18.992   6.703  1.00  0.00    +0.000 C 
ATOM     42  C36 UNL A   1      14.565  17.878   6.336  1.00  0.00    +0.000 C 
ATOM     43  F1  UNL A   1      15.057  16.971   5.478  1.00  0.00    +0.000 F 
ATOM     44  C37 UNL A   1      13.272  17.705   6.824  1.00  0.00    +0.000 C 
ATOM     45  F2  UNL A   1      12.541  16.655   6.424  1.00  0.00    +0.000 F 
ATOM     46  C38 UNL A   1      12.737  18.624   7.714  1.00  0.00    +0.000 C 
ATOM     47  F3  UNL A   1      11.498  18.449   8.194  1.00  0.00    +0.000 F 
ATOM     48  C39 UNL A   1      13.484  19.724   8.103  1.00  0.00    +0.000 C 
ATOM     49  F4  UNL A   1      12.974  20.605   8.976  1.00  0.00    +0.000 F 
ATOM     50  C40 UNL A   1      14.767  19.915   7.594  1.00  0.00    +0.000 C 
ATOM     51  F5  UNL A   1      15.459  20.996   7.982  1.00  0.00    +0.000 F 
ENDBRANCH   40   41
BRANCH   57   58
ATOM     65  C50 UNL A   1      23.007  15.020   9.503  1.00  0.00    +0.000 C 
ATOM     66  F9  UNL A   1      23.351  13.741   9.291  1.00  0.00    +0.000 F 
ATOM     67  C51 UNL A   1      22.394  15.751   8.489  1.00  0.00    +0.000 C 
ATOM     68  F10 UNL A   1      22.173  15.155   7.308  1.00  0.00    +0.000 F 
ATOM     58  C46 UNL A   1      22.008  17.085   8.693  1.00  0.00    +0.000 C 
ATOM     59  C47 UNL A   1      22.254  17.654   9.951  1.00  0.00    +0.000 C 
ATOM     60  F6  UNL A   1      21.917  18.929  10.194  1.00  0.00    +0.000 F 
ATOM     61  C48 UNL A   1      22.902  16.931  10.950  1.00  0.00    +0.000 C 
ATOM     62  F7  UNL A   1      23.187  17.518  12.121  1.00  0.00    +0.000 F 
ATOM     63  C49 UNL A   1      23.273  15.613  10.727  1.00  0.00    +0.000 C 
ATOM     64  F8  UNL A   1      23.895  14.920  11.689  1.00  0.00    +0.000 F 
ENDBRANCH   57   58
BRANCH   72   73
ATOM     73  C55 UNL A   1      24.567  20.403   3.132  1.00  0.00    +0.000 C 
ATOM     74  C56 UNL A   1      25.252  19.423   2.400  1.00  0.00    +0.000 C 
ATOM     75  F11 UNL A   1      24.659  18.249   2.134  1.00  0.00    +0.000 F 
ATOM     76  C57 UNL A   1      26.568  19.620   1.988  1.00  0.00    +0.000 C 
ATOM     77  F12 UNL A   1      27.221  18.640   1.347  1.00  0.00    +0.000 F 
ATOM     78  C58 UNL A   1      27.212  20.818   2.262  1.00  0.00    +0.000 C 
ATOM     79  F13 UNL A   1      28.478  21.006   1.867  1.00  0.00    +0.000 F 
ATOM     80  C59 UNL A   1      26.543  21.815   2.955  1.00  0.00    +0.000 C 
ATOM     81  F14 UNL A   1      27.155  22.980   3.206  1.00  0.00    +0.000 F 
ATOM     82  C60 UNL A   1      25.240  21.604   3.400  1.00  0.00    +0.000 C 
ATOM     83  F15 UNL A   1      24.629  22.579   4.089  1.00  0.00    +0.000 F 
ENDBRANCH   72   73
TORSDOF 33
ENDMDL
MODEL 4
REMARK VINA RESULT:      -6.9      3.854      7.089
ROOT
ATOM    140  H46 UNL A   1      16.569  18.993   7.403  1.00  0.00    +0.000 H 
ATOM    141  H47 UNL A   1      18.430  17.185   7.656  1.00  0.00    +0.000 H 
ATOM    142  H48 UNL A   1      19.690  19.966   4.859  1.00  0.00    +0.000 H 
ATOM    143  H49 UNL A   1      23.998  21.906   0.568  1.00  0.00    +0.000 H 
ATOM    144  H50 UNL A   1      22.217  23.705   0.383  1.00  0.00    +0.000 H 
ATOM    145  H51 UNL A   1      20.969  20.975   3.258  1.00  0.00    +0.000 H 
ATOM    146  H52 UNL A   1      24.612  17.536   3.586  1.00  0.00    +0.000 H 
ATOM    147  H53 UNL A   1      23.076  16.256   5.182  1.00  0.00    +0.000 H 
ATOM    148  H54 UNL A   1      16.237  23.592   4.650  1.00  0.00    +0.000 H 
ATOM    149  H55 UNL A   1      17.494  24.614   2.668  1.00  0.00    +0.000 H 
ATOM     36  C31 UNL A   1      19.948  23.290   2.059  1.00  0.00    +0.000 C 
ATOM     37  C32 UNL A   1      18.921  22.901   3.084  1.00  0.00    +0.000 C 
ATOM     38  N3  UNL A   1      18.922  21.886   3.911  1.00  0.00    +0.000 N 
ATOM     39  C33 UNL A   1      17.752  21.995   4.649  1.00  0.00    +0.000 C 
ATOM     40  C34 UNL A   1      17.252  21.140   5.573  1.00  0.00    +0.000 C 
ATOM     52  C41 UNL A   1      17.907  19.927   5.992  1.00  0.00    +0.000 C 
ATOM     53  C42 UNL A   1      17.470  18.978   6.901  1.00  0.00    +0.000 C 
ATOM     54  C43 UNL A   1      18.461  17.998   7.022  1.00  0.00    +0.000 C 
ATOM     55  C44 UNL A   1      19.489  18.304   6.145  1.00  0.00    +0.000 C 
ATOM     56  N4  UNL A   1      19.141  19.496   5.528  1.00  0.00    +0.000 N 
ATOM     57  C45 UNL A   1      20.698  17.563   5.887  1.00  0.00    +0.000 C 
ATOM     69  C52 UNL A   1      21.659  17.929   5.003  1.00  0.00    +0.000 C 
ATOM     70  N5  UNL A   1      21.716  19.051   4.187  1.00  0.00    +0.000 N 
ATOM     71  C53 UNL A   1      22.860  18.973   3.549  1.00  0.00    +0.000 C 
ATOM     72  C54 UNL A   1      23.436  19.901   2.513  1.00  0.00    +0.000 C 
ATOM     84  C61 UNL A   1      22.720  20.975   2.131  1.00  0.00    +0.000 C 
ATOM     85  C62 UNL A   1      23.125  21.942   1.116  1.00  0.00    +0.000 C 
ATOM     86  C63 UNL A   1      22.177  22.887   1.011  1.00  0.00    +0.000 C 
ATOM     87  C64 UNL A   1      21.080  22.572   1.927  1.00  0.00    +0.000 C 
ATOM     88  N6  UNL A   1      21.497  21.428   2.561  1.00  0.00    +0.000 N 
ATOM     89  C65 UNL A   1      23.668  17.800   3.908  1.00  0.00    +0.000 C 
ATOM     90  C66 UNL A   1      22.866  17.171   4.754  1.00  0.00    +0.000 C 
ATOM     91  C67 UNL A   1      17.096  23.213   4.225  1.00  0.00    +0.000 C 
ATOM     92  C68 UNL A   1      17.747  23.778   3.217  1.00  0.00    +0.000 C 
ENDROOT
BRANCH   36   35
ATOM     33  C28 UNL A   1      18.937  25.438  -0.893  1.00  0.00    +0.000 C 
ATOM     34  C29 UNL A   1      19.060  24.347  -0.033  1.00  0.00    +0.000 C 
ATOM     35  C30 UNL A   1      19.741  24.476   1.189  1.00  0.00    +0.000 C 
ATOM    138  H44 UNL A   1      18.466  25.329  -1.804  1.00  0.00    +0.000 H 
ATOM    139  H45 UNL A   1      18.647  23.438  -0.296  1.00  0.00    +0.000 H 
ATOM    150  H56 UNL A   1      20.741  25.839   2.459  1.00  0.00    +0.000 H 
ATOM    151  H57 UNL A   1      20.340  27.777   1.057  1.00  0.00    +0.000 H 
ATOM     93  C69 UNL A   1      20.235  25.732   1.567  1.00  0.00    +0.000 C 
ATOM     94  C70 UNL A   1      20.045  26.840   0.741  1.00  0.00    +0.000 C 
ATOM     32  C27 UNL A   1      19.455  26.680  -0.516  1.00  0.00    +0.000 C 
BRANCH   32   30
ATOM     30  C26 UNL A   1      19.335  27.803  -1.473  1.00  0.00    +0.000 C 
ATOM     31  O2  UNL A   1      19.966  27.782  -2.519  1.00  0.00    +0.000 O 
BRANCH   30   29
ATOM    137  H43 UNL A   1      18.889  29.463  -0.453  1.00  0.00    +0.000 H 
ATOM     29  N2  UNL A   1      18.544  28.886  -1.171  1.00  0.00    +0.000 N 
BRANCH   29   28
ATOM     28  C25 UNL A   1      17.280  29.309  -1.746  1.00  0.00    +0.000 C 
ATOM    135  H41 UNL A   1      17.479  29.848  -2.649  1.00  0.00    +0.000 H 
ATOM    136  H42 UNL A   1      16.699  28.429  -1.929  1.00  0.00    +0.000 H 
BRANCH   28   27
ATOM     27  C24 UNL A   1      16.475  30.205  -0.810  1.00  0.00    +0.000 C 
ATOM    133  H39 UNL A   1      16.646  29.873   0.192  1.00  0.00    +0.000 H 
ATOM    134  H40 UNL A   1      16.811  31.203  -0.997  1.00  0.00    +0.000 H 
BRANCH   27   26
ATOM     26  C23 UNL A   1      14.963  30.217  -1.052  1.00  0.00    +0.000 C 
ATOM    131  H37 UNL A   1      14.482  30.384  -0.111  1.00  0.00    +0.000 H 
ATOM    132  H38 UNL A   1      14.790  30.989  -1.772  1.00  0.00    +0.000 H 
BRANCH   26   25
ATOM     25  C22 UNL A   1      14.377  28.939  -1.661  1.00  0.00    +0.000 C 
ATOM    130  H36 UNL A   1      14.784  28.127  -1.096  1.00  0.00    +0.000 H 
ATOM    129  H35 UNL A   1      14.640  28.916  -2.698  1.00  0.00    +0.000 H 
BRANCH   25   24
ATOM    128  H34 UNL A   1      12.534  28.071  -2.270  1.00  0.00    +0.000 H 
ATOM    127  H33 UNL A   1      12.405  29.755  -1.760  1.00  0.00    +0.000 H 
ATOM     24  C21 UNL A   1      12.852  28.803  -1.557  1.00  0.00    +0.000 C 
BRANCH   24   23
ATOM    125  H31 UNL A   1      13.274  28.332   0.471  1.00  0.00    +0.000 H 
ATOM    126  H32 UNL A   1      11.670  29.017   0.179  1.00  0.00    +0.000 H 
ATOM     23  C20 UNL A   1      12.419  28.338  -0.172  1.00  0.00    +0.000 C 
BRANCH   23   22
ATOM    124  H30 UNL A   1      11.967  26.498  -1.021  1.00  0.00    +0.000 H 
ATOM     22  N1  UNL A   1      11.838  27.008  -0.188  1.00  0.00    +0.000 N 
BRANCH   22   20
ATOM     20  C19 UNL A   1      11.140  26.369   0.787  1.00  0.00    +0.000 C 
ATOM     21  O1  UNL A   1      11.802  25.900   1.719  1.00  0.00    +0.000 O 
BRANCH   20   19
ATOM    122  H28 UNL A   1       9.378  25.792  -0.193  1.00  0.00    +0.000 H 
ATOM     19  C18 UNL A   1       9.634  26.171   0.774  1.00  0.00    +0.000 C 
ATOM    123  H29 UNL A   1       9.460  25.530   1.613  1.00  0.00    +0.000 H 
BRANCH   19   18
ATOM    121  H27 UNL A   1       7.835  27.098   0.489  1.00  0.00    +0.000 H 
ATOM     18  C17 UNL A   1       8.720  27.348   1.038  1.00  0.00    +0.000 C 
ATOM    120  H26 UNL A   1       9.254  28.225   0.740  1.00  0.00    +0.000 H 
BRANCH   18   17
ATOM     17  C16 UNL A   1       8.193  27.610   2.446  1.00  0.00    +0.000 C 
ATOM    118  H24 UNL A   1       7.644  28.524   2.362  1.00  0.00    +0.000 H 
ATOM    119  H25 UNL A   1       7.757  26.652   2.634  1.00  0.00    +0.000 H 
BRANCH   17   16
ATOM     16  S1  UNL A   1       9.160  27.786   4.012  1.00  0.00    +0.000 S 
BRANCH   16   15
ATOM    116  H22 UNL A   1      11.014  29.145   4.677  1.00  0.00    +0.000 H 
ATOM    117  H23 UNL A   1      11.393  28.028   3.305  1.00  0.00    +0.000 H 
ATOM     15  C15 UNL A   1      10.715  28.737   3.734  1.00  0.00    +0.000 C 
BRANCH   15   14
ATOM    114  H20 UNL A   1      10.458  29.495   1.750  1.00  0.00    +0.000 H 
ATOM    115  H21 UNL A   1       9.929  30.583   3.080  1.00  0.00    +0.000 H 
ATOM     14  C14 UNL A   1      10.675  29.908   2.713  1.00  0.00    +0.000 C 
BRANCH   14   13
ATOM    113  H19 UNL A   1      12.666  30.538   3.294  1.00  0.00    +0.000 H 
ATOM     13  C13 UNL A   1      11.934  30.724   2.591  1.00  0.00    +0.000 C 
BRANCH   13   12
ATOM     12  C12 UNL A   1      12.218  31.668   1.675  1.00  0.00    +0.000 C 
ATOM    112  H18 UNL A   1      12.979  32.335   1.874  1.00  0.00    +0.000 H 
BRANCH   12   11
ATOM     11  C11 UNL A   1      11.468  31.795   0.360  1.00  0.00    +0.000 C 
ATOM    110  H16 UNL A   1      11.485  30.841  -0.124  1.00  0.00    +0.000 H 
ATOM    111  H17 UNL A   1      10.483  32.129   0.612  1.00  0.00    +0.000 H 
BRANCH   11   10
ATOM     10  C10 UNL A   1      12.021  32.811  -0.595  1.00  0.00    +0.000 C 
ATOM    109  H15 UNL A   1      12.357  33.709  -0.215  1.00  0.00    +0.000 H 
BRANCH   10    9
ATOM      9  C9  UNL A   1      12.102  32.608  -1.921  1.00  0.00    +0.000 C 
ATOM    108  H14 UNL A   1      13.026  32.388  -2.323  1.00  0.00    +0.000 H 
BRANCH    9    8
ATOM    106  H12 UNL A   1      11.219  33.143  -3.773  1.00  0.00    +0.000 H 
ATOM    107  H13 UNL A   1      10.562  31.696  -3.066  1.00  0.00    +0.000 H 
ATOM      8  C8  UNL A   1      10.924  32.680  -2.854  1.00  0.00    +0.000 C 
BRANCH    8    7
ATOM    105  H11 UNL A   1      10.011  34.511  -2.102  1.00  0.00    +0.000 H 
ATOM      7  C7  UNL A   1       9.852  33.495  -2.197  1.00  0.00    +0.000 C 
BRANCH    7    6
ATOM      6  C6  UNL A   1       8.701  32.998  -1.722  1.00  0.00    +0.000 C 
ATOM    104  H10 UNL A   1       8.180  32.323  -2.304  1.00  0.00    +0.000 H 
BRANCH    6    5
ATOM      5  C5  UNL A   1       8.132  33.374  -0.384  1.00  0.00    +0.000 C 
ATOM    102  H8  UNL A   1       8.835  33.982   0.146  1.00  0.00    +0.000 H 
ATOM    103  H9  UNL A   1       7.224  33.924  -0.519  1.00  0.00    +0.000 H 
BRANCH    5    4
ATOM      4  C4  UNL A   1       7.857  32.121   0.397  1.00  0.00    +0.000 C 
ATOM    101  H7  UNL A   1       8.640  31.692   0.913  1.00  0.00    +0.000 H 
BRANCH    4    3
ATOM      3  C3  UNL A   1       6.658  31.524   0.467  1.00  0.00    +0.000 C 
ATOM    100  H6  UNL A   1       6.330  30.990  -0.353  1.00  0.00    +0.000 H 
BRANCH    3    2
ATOM      2  C2  UNL A   1       5.767  31.591   1.672  1.00  0.00    +0.000 C 
ATOM     99  H5  UNL A   1       6.341  31.345   2.540  1.00  0.00    +0.000 H 
ATOM     98  H4  UNL A   1       4.961  30.898   1.554  1.00  0.00    +0.000 H 
BRANCH    2    1
ATOM      1  C1  UNL A   1       5.200  32.994   1.838  1.00  0.00    +0.000 C 
ATOM     97  H3  UNL A   1       4.395  33.137   1.147  1.00  0.00    +0.000 H 
ATOM     95  H1  UNL A   1       5.968  33.713   1.646  1.00  0.00    +0.000 H 
ATOM     96  H2  UNL A   1       4.838  33.116   2.837  1.00  0.00    +0.000 H 
ENDBRANCH    2    1
ENDBRANCH    3    2
ENDBRANCH    4    3
ENDBRANCH    5    4
ENDBRANCH    6    5
ENDBRANCH    7    6
ENDBRANCH    8    7
ENDBRANCH    9    8
ENDBRANCH   10    9
ENDBRANCH   11   10
ENDBRANCH   12   11
ENDBRANCH   13   12
ENDBRANCH   14   13
ENDBRANCH   15   14
ENDBRANCH   16   15
ENDBRANCH   17   16
ENDBRANCH   18   17
ENDBRANCH   19   18
ENDBRANCH   20   19
ENDBRANCH   22   20
ENDBRANCH   23   22
ENDBRANCH   24   23
ENDBRANCH   25   24
ENDBRANCH   26   25
ENDBRANCH   27   26
ENDBRANCH   28   27
ENDBRANCH   29   28
ENDBRANCH   30   29
ENDBRANCH   32   30
ENDBRANCH   36   35
BRANCH   40   41
ATOM     41  C35 UNL A   1      15.921  21.475   6.185  1.00  0.00    +0.000 C 
ATOM     42  C36 UNL A   1      15.829  22.212   7.375  1.00  0.00    +0.000 C 
ATOM     43  F1  UNL A   1      16.942  22.576   8.032  1.00  0.00    +0.000 F 
ATOM     44  C37 UNL A   1      14.592  22.552   7.917  1.00  0.00    +0.000 C 
ATOM     45  F2  UNL A   1      14.530  23.220   9.078  1.00  0.00    +0.000 F 
ATOM     46  C38 UNL A   1      13.424  22.194   7.261  1.00  0.00    +0.000 C 
ATOM     47  F3  UNL A   1      12.234  22.535   7.775  1.00  0.00    +0.000 F 
ATOM     48  C39 UNL A   1      13.490  21.479   6.075  1.00  0.00    +0.000 C 
ATOM     49  F4  UNL A   1      12.362  21.145   5.432  1.00  0.00    +0.000 F 
ATOM     50  C40 UNL A   1      14.725  21.111   5.547  1.00  0.00    +0.000 C 
ATOM     51  F5  UNL A   1      14.754  20.410   4.404  1.00  0.00    +0.000 F 
ENDBRANCH   40   41
BRANCH   57   58
ATOM     65  C50 UNL A   1      21.888  15.051   8.488  1.00  0.00    +0.000 C 
ATOM     66  F9  UNL A   1      22.651  15.041   9.590  1.00  0.00    +0.000 F 
ATOM     67  C51 UNL A   1      21.686  16.240   7.794  1.00  0.00    +0.000 C 
ATOM     68  F10 UNL A   1      22.255  17.363   8.261  1.00  0.00    +0.000 F 
ATOM     58  C46 UNL A   1      20.908  16.273   6.627  1.00  0.00    +0.000 C 
ATOM     59  C47 UNL A   1      20.347  15.068   6.179  1.00  0.00    +0.000 C 
ATOM     60  F6  UNL A   1      19.583  15.046   5.077  1.00  0.00    +0.000 F 
ATOM     61  C48 UNL A   1      20.521  13.887   6.897  1.00  0.00    +0.000 C 
ATOM     62  F7  UNL A   1      19.918  12.762   6.487  1.00  0.00    +0.000 F 
ATOM     63  C49 UNL A   1      21.295  13.878   8.047  1.00  0.00    +0.000 C 
ATOM     64  F8  UNL A   1      21.461  12.741   8.735  1.00  0.00    +0.000 F 
ENDBRANCH   57   58
BRANCH   72   73
ATOM     73  C55 UNL A   1      24.770  19.637   1.910  1.00  0.00    +0.000 C 
ATOM     74  C56 UNL A   1      25.951  19.830   2.642  1.00  0.00    +0.000 C 
ATOM     75  F11 UNL A   1      25.889  20.252   3.914  1.00  0.00    +0.000 F 
ATOM     76  C57 UNL A   1      27.201  19.646   2.054  1.00  0.00    +0.000 C 
ATOM     77  F12 UNL A   1      28.313  19.901   2.758  1.00  0.00    +0.000 F 
ATOM     78  C58 UNL A   1      27.296  19.225   0.736  1.00  0.00    +0.000 C 
ATOM     79  F13 UNL A   1      28.498  19.050   0.172  1.00  0.00    +0.000 F 
ATOM     80  C59 UNL A   1      26.142  18.995   0.003  1.00  0.00    +0.000 C 
ATOM     81  F14 UNL A   1      26.229  18.571  -1.265  1.00  0.00    +0.000 F 
ATOM     82  C60 UNL A   1      24.893  19.215   0.578  1.00  0.00    +0.000 C 
ATOM     83  F15 UNL A   1      23.796  19.007  -0.165  1.00  0.00    +0.000 F 
ENDBRANCH   72   73
TORSDOF 33
ENDMDL
MODEL 5
REMARK VINA RESULT:      -6.9      2.586      8.345
ROOT
ATOM    140  H46 UNL A   1      20.037  19.387   1.865  1.00  0.00    +0.000 H 
ATOM    141  H47 UNL A   1      20.736  17.434   3.444  1.00  0.00    +0.000 H 
ATOM    142  H48 UNL A   1      17.319  19.193   4.983  1.00  0.00    +0.000 H 
ATOM    143  H49 UNL A   1      12.936  19.608   9.606  1.00  0.00    +0.000 H 
ATOM    144  H50 UNL A   1      12.217  21.459   8.024  1.00  0.00    +0.000 H 
ATOM    145  H51 UNL A   1      15.596  19.653   6.412  1.00  0.00    +0.000 H 
ATOM    146  H52 UNL A   1      16.852  15.969   9.582  1.00  0.00    +0.000 H 
ATOM    147  H53 UNL A   1      18.933  15.615   8.136  1.00  0.00    +0.000 H 
ATOM    148  H54 UNL A   1      15.825  22.717   1.749  1.00  0.00    +0.000 H 
ATOM    149  H55 UNL A   1      14.047  23.451   3.437  1.00  0.00    +0.000 H 
ATOM     36  C31 UNL A   1      13.916  21.796   5.759  1.00  0.00    +0.000 C 
ATOM     37  C32 UNL A   1      14.897  21.715   4.624  1.00  0.00    +0.000 C 
ATOM     38  N3  UNL A   1      15.894  20.884   4.451  1.00  0.00    +0.000 N 
ATOM     39  C33 UNL A   1      16.472  21.231   3.239  1.00  0.00    +0.000 C 
ATOM     40  C34 UNL A   1      17.587  20.725   2.658  1.00  0.00    +0.000 C 
ATOM     52  C41 UNL A   1      18.379  19.660   3.217  1.00  0.00    +0.000 C 
ATOM     53  C42 UNL A   1      19.541  19.094   2.721  1.00  0.00    +0.000 C 
ATOM     54  C43 UNL A   1      19.926  18.059   3.579  1.00  0.00    +0.000 C 
ATOM     55  C44 UNL A   1      19.038  18.017   4.641  1.00  0.00    +0.000 C 
ATOM     56  N4  UNL A   1      18.087  18.996   4.400  1.00  0.00    +0.000 N 
ATOM     57  C45 UNL A   1      19.056  17.149   5.791  1.00  0.00    +0.000 C 
ATOM     69  C52 UNL A   1      18.146  17.175   6.797  1.00  0.00    +0.000 C 
ATOM     70  N5  UNL A   1      17.031  17.988   6.949  1.00  0.00    +0.000 N 
ATOM     71  C53 UNL A   1      16.453  17.601   8.061  1.00  0.00    +0.000 C 
ATOM     72  C54 UNL A   1      15.222  18.148   8.734  1.00  0.00    +0.000 C 
ATOM     84  C61 UNL A   1      14.585  19.194   8.174  1.00  0.00    +0.000 C 
ATOM     85  C62 UNL A   1      13.407  19.857   8.722  1.00  0.00    +0.000 C 
ATOM     86  C63 UNL A   1      13.034  20.842   7.891  1.00  0.00    +0.000 C 
ATOM     87  C64 UNL A   1      13.969  20.903   6.767  1.00  0.00    +0.000 C 
ATOM     88  N6  UNL A   1      14.848  19.877   7.012  1.00  0.00    +0.000 N 
ATOM     89  C65 UNL A   1      17.128  16.480   8.729  1.00  0.00    +0.000 C 
ATOM     90  C66 UNL A   1      18.182  16.297   7.948  1.00  0.00    +0.000 C 
ATOM     91  C67 UNL A   1      15.676  22.302   2.681  1.00  0.00    +0.000 C 
ATOM     92  C68 UNL A   1      14.727  22.680   3.526  1.00  0.00    +0.000 C 
ENDROOT
BRANCH   36   35
ATOM     33  C28 UNL A   1      12.095  25.031   6.515  1.00  0.00    +0.000 C 
ATOM     34  C29 UNL A   1      13.105  24.075   6.417  1.00  0.00    +0.000 C 
ATOM     35  C30 UNL A   1      12.864  22.845   5.781  1.00  0.00    +0.000 C 
ATOM    138  H44 UNL A   1      12.267  25.918   7.013  1.00  0.00    +0.000 H 
ATOM    139  H45 UNL A   1      14.038  24.272   6.815  1.00  0.00    +0.000 H 
ATOM    150  H56 UNL A   1      11.426  21.717   4.718  1.00  0.00    +0.000 H 
ATOM    151  H57 UNL A   1       9.745  23.465   4.708  1.00  0.00    +0.000 H 
ATOM     93  C69 UNL A   1      11.617  22.618   5.183  1.00  0.00    +0.000 C 
ATOM     94  C70 UNL A   1      10.632  23.604   5.216  1.00  0.00    +0.000 C 
ATOM     32  C27 UNL A   1      10.847  24.783   5.937  1.00  0.00    +0.000 C 
BRANCH   32   30
ATOM     30  C26 UNL A   1       9.791  25.808   6.094  1.00  0.00    +0.000 C 
ATOM     31  O2  UNL A   1       9.244  25.956   7.176  1.00  0.00    +0.000 O 
BRANCH   30   29
ATOM    137  H43 UNL A   1       8.528  26.320   4.632  1.00  0.00    +0.000 H 
ATOM     29  N2  UNL A   1       9.400  26.567   5.018  1.00  0.00    +0.000 N 
BRANCH   29   28
ATOM     28  C25 UNL A   1      10.071  27.674   4.362  1.00  0.00    +0.000 C 
ATOM    135  H41 UNL A   1       9.349  28.435   4.150  1.00  0.00    +0.000 H 
ATOM    136  H42 UNL A   1      10.835  28.025   5.024  1.00  0.00    +0.000 H 
BRANCH   28   27
ATOM     27  C24 UNL A   1      10.747  27.267   3.056  1.00  0.00    +0.000 C 
ATOM    133  H39 UNL A   1      11.563  26.618   3.296  1.00  0.00    +0.000 H 
ATOM    134  H40 UNL A   1       9.988  26.803   2.464  1.00  0.00    +0.000 H 
BRANCH   27   26
ATOM     26  C23 UNL A   1      11.295  28.421   2.213  1.00  0.00    +0.000 C 
ATOM    131  H37 UNL A   1      12.011  28.951   2.807  1.00  0.00    +0.000 H 
ATOM    132  H38 UNL A   1      11.708  27.969   1.336  1.00  0.00    +0.000 H 
BRANCH   26   25
ATOM     25  C22 UNL A   1      10.257  29.432   1.713  1.00  0.00    +0.000 C 
ATOM    130  H36 UNL A   1       9.478  29.442   2.446  1.00  0.00    +0.000 H 
ATOM    129  H35 UNL A   1       9.930  29.118   0.743  1.00  0.00    +0.000 H 
BRANCH   25   24
ATOM    128  H34 UNL A   1      10.268  31.457   2.360  1.00  0.00    +0.000 H 
ATOM    127  H33 UNL A   1      10.512  31.252   0.625  1.00  0.00    +0.000 H 
ATOM     24  C21 UNL A   1      10.751  30.879   1.600  1.00  0.00    +0.000 C 
BRANCH   24   23
ATOM    125  H31 UNL A   1      12.450  31.118   2.855  1.00  0.00    +0.000 H 
ATOM    126  H32 UNL A   1      12.699  30.076   1.448  1.00  0.00    +0.000 H 
ATOM     23  C20 UNL A   1      12.258  30.980   1.811  1.00  0.00    +0.000 C 
BRANCH   23   22
ATOM    124  H30 UNL A   1      12.298  32.901   1.022  1.00  0.00    +0.000 H 
ATOM     22  N1  UNL A   1      12.848  32.086   1.078  1.00  0.00    +0.000 N 
BRANCH   22   20
ATOM     20  C19 UNL A   1      14.056  32.152   0.458  1.00  0.00    +0.000 C 
ATOM     21  O1  UNL A   1      14.651  33.232   0.530  1.00  0.00    +0.000 O 
BRANCH   20   19
ATOM    122  H28 UNL A   1      15.729  31.034  -0.130  1.00  0.00    +0.000 H 
ATOM     19  C18 UNL A   1      14.679  31.012  -0.329  1.00  0.00    +0.000 C 
ATOM    123  H29 UNL A   1      14.136  30.152   0.007  1.00  0.00    +0.000 H 
BRANCH   19   18
ATOM    121  H27 UNL A   1      14.727  29.939  -2.067  1.00  0.00    +0.000 H 
ATOM     18  C17 UNL A   1      14.519  30.962  -1.832  1.00  0.00    +0.000 C 
ATOM    120  H26 UNL A   1      15.173  31.705  -2.236  1.00  0.00    +0.000 H 
BRANCH   18   17
ATOM     17  C16 UNL A   1      13.150  31.191  -2.466  1.00  0.00    +0.000 C 
ATOM    118  H24 UNL A   1      12.958  32.234  -2.325  1.00  0.00    +0.000 H 
ATOM    119  H25 UNL A   1      13.333  30.728  -3.413  1.00  0.00    +0.000 H 
BRANCH   17   16
ATOM     16  S1  UNL A   1      11.549  30.362  -2.058  1.00  0.00    +0.000 S 
BRANCH   16   15
ATOM    116  H22 UNL A   1      10.722  28.116  -2.077  1.00  0.00    +0.000 H 
ATOM    117  H23 UNL A   1      11.642  28.560  -3.571  1.00  0.00    +0.000 H 
ATOM     15  C15 UNL A   1      11.592  28.572  -2.501  1.00  0.00    +0.000 C 
BRANCH   15   14
ATOM    114  H20 UNL A   1      13.453  28.385  -1.464  1.00  0.00    +0.000 H 
ATOM    115  H21 UNL A   1      12.421  26.914  -1.493  1.00  0.00    +0.000 H 
ATOM     14  C14 UNL A   1      12.822  27.742  -2.041  1.00  0.00    +0.000 C 
BRANCH   14   13
ATOM    113  H19 UNL A   1      14.647  27.431  -3.170  1.00  0.00    +0.000 H 
ATOM     13  C13 UNL A   1      13.659  27.135  -3.135  1.00  0.00    +0.000 C 
BRANCH   13   12
ATOM     12  C12 UNL A   1      13.271  26.252  -4.075  1.00  0.00    +0.000 C 
ATOM    112  H18 UNL A   1      12.627  26.571  -4.814  1.00  0.00    +0.000 H 
BRANCH   12   11
ATOM     11  C11 UNL A   1      13.741  24.809  -4.095  1.00  0.00    +0.000 C 
ATOM    110  H16 UNL A   1      13.269  24.295  -3.284  1.00  0.00    +0.000 H 
ATOM    111  H17 UNL A   1      13.475  24.423  -5.057  1.00  0.00    +0.000 H 
BRANCH   11   10
ATOM     10  C10 UNL A   1      15.223  24.617  -3.965  1.00  0.00    +0.000 C 
ATOM    109  H15 UNL A   1      15.832  24.979  -4.715  1.00  0.00    +0.000 H 
BRANCH   10    9
ATOM      9  C9  UNL A   1      15.797  23.999  -2.920  1.00  0.00    +0.000 C 
ATOM    108  H14 UNL A   1      16.187  23.054  -3.068  1.00  0.00    +0.000 H 
BRANCH    9    8
ATOM    106  H12 UNL A   1      16.830  24.302  -1.092  1.00  0.00    +0.000 H 
ATOM    107  H13 UNL A   1      15.883  25.667  -1.607  1.00  0.00    +0.000 H 
ATOM      8  C8  UNL A   1      15.907  24.599  -1.545  1.00  0.00    +0.000 C 
BRANCH    8    7
ATOM    105  H11 UNL A   1      14.228  24.797  -0.169  1.00  0.00    +0.000 H 
ATOM      7  C7  UNL A   1      14.756  24.104  -0.722  1.00  0.00    +0.000 C 
BRANCH    7    6
ATOM      6  C6  UNL A   1      14.366  22.823  -0.652  1.00  0.00    +0.000 C 
ATOM    104  H10 UNL A   1      15.084  22.097  -0.500  1.00  0.00    +0.000 H 
BRANCH    6    5
ATOM      5  C5  UNL A   1      12.933  22.392  -0.783  1.00  0.00    +0.000 C 
ATOM    102  H8  UNL A   1      12.310  23.252  -0.907  1.00  0.00    +0.000 H 
ATOM    103  H9  UNL A   1      12.824  21.754  -1.635  1.00  0.00    +0.000 H 
BRANCH    5    4
ATOM      4  C4  UNL A   1      12.532  21.652   0.461  1.00  0.00    +0.000 C 
ATOM    101  H7  UNL A   1      12.820  20.666   0.550  1.00  0.00    +0.000 H 
BRANCH    4    3
ATOM      3  C3  UNL A   1      11.821  22.191   1.463  1.00  0.00    +0.000 C 
ATOM    100  H6  UNL A   1      11.398  21.556   2.158  1.00  0.00    +0.000 H 
BRANCH    3    2
ATOM      2  C2  UNL A   1      11.608  23.667   1.628  1.00  0.00    +0.000 C 
ATOM     99  H5  UNL A   1      12.182  24.183   0.888  1.00  0.00    +0.000 H 
ATOM     98  H4  UNL A   1      11.919  23.960   2.608  1.00  0.00    +0.000 H 
BRANCH    2    1
ATOM      1  C1  UNL A   1      10.138  24.016   1.443  1.00  0.00    +0.000 C 
ATOM     97  H3  UNL A   1       9.700  23.349   0.730  1.00  0.00    +0.000 H 
ATOM     95  H1  UNL A   1      10.053  25.023   1.090  1.00  0.00    +0.000 H 
ATOM     96  H2  UNL A   1       9.628  23.922   2.378  1.00  0.00    +0.000 H 
ENDBRANCH    2    1
ENDBRANCH    3    2
ENDBRANCH    4    3
ENDBRANCH    5    4
ENDBRANCH    6    5
ENDBRANCH    7    6
ENDBRANCH    8    7
ENDBRANCH    9    8
ENDBRANCH   10    9
ENDBRANCH   11   10
ENDBRANCH   12   11
ENDBRANCH   13   12
ENDBRANCH   14   13
ENDBRANCH   15   14
ENDBRANCH   16   15
ENDBRANCH   17   16
ENDBRANCH   18   17
ENDBRANCH   19   18
ENDBRANCH   20   19
ENDBRANCH   22   20
ENDBRANCH   23   22
ENDBRANCH   24   23
ENDBRANCH   25   24
ENDBRANCH   26   25
ENDBRANCH   27   26
ENDBRANCH   28   27
ENDBRANCH   29   28
ENDBRANCH   30   29
ENDBRANCH   32   30
ENDBRANCH   36   35
BRANCH   40   41
ATOM     41  C35 UNL A   1      18.030  21.330   1.355  1.00  0.00    +0.000 C 
ATOM     42  C36 UNL A   1      17.476  20.918   0.133  1.00  0.00    +0.000 C 
ATOM     43  F1  UNL A   1      16.582  19.918   0.100  1.00  0.00    +0.000 F 
ATOM     44  C37 UNL A   1      17.864  21.509  -1.067  1.00  0.00    +0.000 C 
ATOM     45  F2  UNL A   1      17.353  21.069  -2.225  1.00  0.00    +0.000 F 
ATOM     46  C38 UNL A   1      18.783  22.547  -1.066  1.00  0.00    +0.000 C 
ATOM     47  F3  UNL A   1      19.144  23.125  -2.219  1.00  0.00    +0.000 F 
ATOM     48  C39 UNL A   1      19.332  22.981   0.131  1.00  0.00    +0.000 C 
ATOM     49  F4  UNL A   1      20.210  23.994   0.135  1.00  0.00    +0.000 F 
ATOM     50  C40 UNL A   1      18.970  22.372   1.330  1.00  0.00    +0.000 C 
ATOM     51  F5  UNL A   1      19.527  22.809   2.469  1.00  0.00    +0.000 F 
ENDBRANCH   40   41
BRANCH   57   58
ATOM     65  C50 UNL A   1      21.072  13.935   5.484  1.00  0.00    +0.000 C 
ATOM     66  F9  UNL A   1      20.912  12.700   4.986  1.00  0.00    +0.000 F 
ATOM     67  C51 UNL A   1      20.041  14.864   5.380  1.00  0.00    +0.000 C 
ATOM     68  F10 UNL A   1      18.906  14.500   4.763  1.00  0.00    +0.000 F 
ATOM     58  C46 UNL A   1      20.176  16.156   5.911  1.00  0.00    +0.000 C 
ATOM     59  C47 UNL A   1      21.380  16.478   6.555  1.00  0.00    +0.000 C 
ATOM     60  F6  UNL A   1      21.566  17.703   7.067  1.00  0.00    +0.000 F 
ATOM     61  C48 UNL A   1      22.423  15.557   6.624  1.00  0.00    +0.000 C 
ATOM     62  F7  UNL A   1      23.589  15.910   7.184  1.00  0.00    +0.000 F 
ATOM     63  C49 UNL A   1      22.267  14.285   6.094  1.00  0.00    +0.000 C 
ATOM     64  F8  UNL A   1      23.271  13.402   6.162  1.00  0.00    +0.000 F 
ENDBRANCH   57   58
BRANCH   72   73
ATOM     73  C55 UNL A   1      14.718  17.555  10.001  1.00  0.00    +0.000 C 
ATOM     74  C56 UNL A   1      15.115  18.056  11.249  1.00  0.00    +0.000 C 
ATOM     75  F11 UNL A   1      15.960  19.097  11.314  1.00  0.00    +0.000 F 
ATOM     76  C57 UNL A   1      14.694  17.457  12.434  1.00  0.00    +0.000 C 
ATOM     77  F12 UNL A   1      15.142  17.917  13.610  1.00  0.00    +0.000 F 
ATOM     78  C58 UNL A   1      13.833  16.371  12.397  1.00  0.00    +0.000 C 
ATOM     79  F13 UNL A   1      13.429  15.794  13.537  1.00  0.00    +0.000 F 
ATOM     80  C59 UNL A   1      13.399  15.878  11.176  1.00  0.00    +0.000 C 
ATOM     81  F14 UNL A   1      12.553  14.840  11.135  1.00  0.00    +0.000 F 
ATOM     82  C60 UNL A   1      13.850  16.454   9.990  1.00  0.00    +0.000 C 
ATOM     83  F15 UNL A   1      13.431  15.938   8.825  1.00  0.00    +0.000 F 
ENDBRANCH   72   73
TORSDOF 33
ENDMDL
MODEL 6
REMARK VINA RESULT:      -6.8     39.945     44.595
ROOT
ATOM    140  H46 UNL A   1      44.091  44.255  22.884  1.00  0.00    +0.000 H 
ATOM    141  H47 UNL A   1      43.399  45.257  20.579  1.00  0.00    +0.000 H 
ATOM    142  H48 UNL A   1      47.449  44.407  20.464  1.00  0.00    +0.000 H 
ATOM    143  H49 UNL A   1      53.034  44.581  17.377  1.00  0.00    +0.000 H 
ATOM    144  H50 UNL A   1      53.686  43.535  19.597  1.00  0.00    +0.000 H 
ATOM    145  H51 UNL A   1      49.601  44.297  19.704  1.00  0.00    +0.000 H 
ATOM    146  H52 UNL A   1      48.435  46.272  15.239  1.00  0.00    +0.000 H 
ATOM    147  H53 UNL A   1      46.080  46.645  16.168  1.00  0.00    +0.000 H 
ATOM    148  H54 UNL A   1      48.665  42.182  24.787  1.00  0.00    +0.000 H 
ATOM    149  H55 UNL A   1      51.127  42.283  24.095  1.00  0.00    +0.000 H 
ATOM     36  C31 UNL A   1      51.538  43.289  21.456  1.00  0.00    +0.000 C 
ATOM     37  C32 UNL A   1      50.244  43.186  22.212  1.00  0.00    +0.000 C 
ATOM     38  N3  UNL A   1      49.038  43.531  21.836  1.00  0.00    +0.000 N 
ATOM     39  C33 UNL A   1      48.204  43.216  22.899  1.00  0.00    +0.000 C 
ATOM     40  C34 UNL A   1      46.878  43.459  23.035  1.00  0.00    +0.000 C 
ATOM     52  C41 UNL A   1      46.063  44.088  22.027  1.00  0.00    +0.000 C 
ATOM     53  C42 UNL A   1      44.716  44.404  22.077  1.00  0.00    +0.000 C 
ATOM     54  C43 UNL A   1      44.350  44.959  20.846  1.00  0.00    +0.000 C 
ATOM     55  C44 UNL A   1      45.479  45.043  20.050  1.00  0.00    +0.000 C 
ATOM     56  N4  UNL A   1      46.521  44.494  20.781  1.00  0.00    +0.000 N 
ATOM     57  C45 UNL A   1      45.602  45.586  18.720  1.00  0.00    +0.000 C 
ATOM     69  C52 UNL A   1      46.752  45.637  18.005  1.00  0.00    +0.000 C 
ATOM     70  N5  UNL A   1      48.021  45.191  18.353  1.00  0.00    +0.000 N 
ATOM     71  C53 UNL A   1      48.784  45.428  17.313  1.00  0.00    +0.000 C 
ATOM     72  C54 UNL A   1      50.257  45.177  17.137  1.00  0.00    +0.000 C 
ATOM     84  C61 UNL A   1      50.954  44.650  18.162  1.00  0.00    +0.000 C 
ATOM     85  C62 UNL A   1      52.389  44.384  18.158  1.00  0.00    +0.000 C 
ATOM     86  C63 UNL A   1      52.735  43.841  19.336  1.00  0.00    +0.000 C 
ATOM     87  C64 UNL A   1      51.551  43.754  20.192  1.00  0.00    +0.000 C 
ATOM     88  N6  UNL A   1      50.537  44.243  19.405  1.00  0.00    +0.000 N 
ATOM     89  C65 UNL A   1      48.076  46.032  16.176  1.00  0.00    +0.000 C 
ATOM     90  C66 UNL A   1      46.857  46.188  16.671  1.00  0.00    +0.000 C 
ATOM     91  C67 UNL A   1      49.026  42.587  23.910  1.00  0.00    +0.000 C 
ATOM     92  C68 UNL A   1      50.304  42.600  23.560  1.00  0.00    +0.000 C 
ENDROOT
BRANCH   36   35
ATOM     33  C28 UNL A   1      54.528  41.171  22.423  1.00  0.00    +0.000 C 
ATOM     34  C29 UNL A   1      53.372  41.610  21.777  1.00  0.00    +0.000 C 
ATOM     35  C30 UNL A   1      52.818  42.865  22.081  1.00  0.00    +0.000 C 
ATOM    138  H44 UNL A   1      54.911  40.235  22.221  1.00  0.00    +0.000 H 
ATOM    139  H45 UNL A   1      52.921  41.008  21.069  1.00  0.00    +0.000 H 
ATOM    150  H56 UNL A   1      53.080  44.623  23.226  1.00  0.00    +0.000 H 
ATOM    151  H57 UNL A   1      55.200  43.941  24.187  1.00  0.00    +0.000 H 
ATOM     93  C69 UNL A   1      53.480  43.701  22.990  1.00  0.00    +0.000 C 
ATOM     94  C70 UNL A   1      54.675  43.293  23.579  1.00  0.00    +0.000 C 
ATOM     32  C27 UNL A   1      55.164  42.004  23.346  1.00  0.00    +0.000 C 
BRANCH   32   30
ATOM     30  C26 UNL A   1      56.368  41.487  24.036  1.00  0.00    +0.000 C 
ATOM     31  O2  UNL A   1      56.259  40.590  24.858  1.00  0.00    +0.000 O 
BRANCH   30   29
ATOM    137  H43 UNL A   1      58.130  42.257  24.581  1.00  0.00    +0.000 H 
ATOM     29  N2  UNL A   1      57.600  42.038  23.781  1.00  0.00    +0.000 N 
BRANCH   29   28
ATOM     28  C25 UNL A   1      58.242  42.346  22.515  1.00  0.00    +0.000 C 
ATOM    135  H41 UNL A   1      59.122  41.745  22.423  1.00  0.00    +0.000 H 
ATOM    136  H42 UNL A   1      57.536  42.140  21.738  1.00  0.00    +0.000 H 
BRANCH   28   27
ATOM     27  C24 UNL A   1      58.639  43.814  22.396  1.00  0.00    +0.000 C 
ATOM    133  H39 UNL A   1      59.635  43.918  22.772  1.00  0.00    +0.000 H 
ATOM    134  H40 UNL A   1      58.543  44.062  21.360  1.00  0.00    +0.000 H 
BRANCH   27   26
ATOM     26  C23 UNL A   1      57.745  44.800  23.151  1.00  0.00    +0.000 C 
ATOM    131  H37 UNL A   1      56.879  44.267  23.486  1.00  0.00    +0.000 H 
ATOM    132  H38 UNL A   1      58.347  45.190  23.945  1.00  0.00    +0.000 H 
BRANCH   26   25
ATOM     25  C22 UNL A   1      57.269  46.017  22.350  1.00  0.00    +0.000 C 
ATOM    130  H36 UNL A   1      58.137  46.405  21.860  1.00  0.00    +0.000 H 
ATOM    129  H35 UNL A   1      56.816  46.705  23.033  1.00  0.00    +0.000 H 
BRANCH   25   24
ATOM    128  H34 UNL A   1      55.290  45.613  21.688  1.00  0.00    +0.000 H 
ATOM    127  H33 UNL A   1      56.545  44.812  20.742  1.00  0.00    +0.000 H 
ATOM     24  C21 UNL A   1      56.256  45.715  21.239  1.00  0.00    +0.000 C 
BRANCH   24   23
ATOM    125  H31 UNL A   1      56.039  47.767  20.731  1.00  0.00    +0.000 H 
ATOM    126  H32 UNL A   1      57.108  46.841  19.669  1.00  0.00    +0.000 H 
ATOM     23  C20 UNL A   1      56.188  46.842  20.215  1.00  0.00    +0.000 C 
BRANCH   23   22
ATOM    124  H30 UNL A   1      55.166  45.853  18.702  1.00  0.00    +0.000 H 
ATOM     22  N1  UNL A   1      55.108  46.661  19.261  1.00  0.00    +0.000 N 
BRANCH   22   20
ATOM     20  C19 UNL A   1      54.028  47.454  19.034  1.00  0.00    +0.000 C 
ATOM     21  O1  UNL A   1      54.075  48.171  18.028  1.00  0.00    +0.000 O 
BRANCH   20   19
ATOM    122  H28 UNL A   1      52.069  46.890  19.525  1.00  0.00    +0.000 H 
ATOM     19  C18 UNL A   1      52.815  47.532  19.945  1.00  0.00    +0.000 C 
ATOM    123  H29 UNL A   1      53.207  47.265  20.904  1.00  0.00    +0.000 H 
BRANCH   19   18
ATOM    121  H27 UNL A   1      51.225  48.597  20.661  1.00  0.00    +0.000 H 
ATOM     18  C17 UNL A   1      52.151  48.867  20.197  1.00  0.00    +0.000 C 
ATOM    120  H26 UNL A   1      52.103  49.371  19.255  1.00  0.00    +0.000 H 
BRANCH   18   17
ATOM     17  C16 UNL A   1      52.761  49.852  21.190  1.00  0.00    +0.000 C 
ATOM    118  H24 UNL A   1      52.681  50.805  20.710  1.00  0.00    +0.000 H 
ATOM    119  H25 UNL A   1      52.213  49.561  22.061  1.00  0.00    +0.000 H 
BRANCH   17   16
ATOM     16  S1  UNL A   1      54.461  49.837  21.916  1.00  0.00    +0.000 S 
BRANCH   16   15
ATOM    116  H22 UNL A   1      55.552  48.677  23.704  1.00  0.00    +0.000 H 
ATOM    117  H23 UNL A   1      53.949  49.378  24.168  1.00  0.00    +0.000 H 
ATOM     15  C15 UNL A   1      54.521  48.821  23.455  1.00  0.00    +0.000 C 
BRANCH   15   14
ATOM    114  H20 UNL A   1      53.446  47.273  22.444  1.00  0.00    +0.000 H 
ATOM    115  H21 UNL A   1      54.624  46.726  23.688  1.00  0.00    +0.000 H 
ATOM     14  C14 UNL A   1      53.851  47.419  23.424  1.00  0.00    +0.000 C 
BRANCH   14   13
ATOM    113  H19 UNL A   1      52.805  47.733  25.296  1.00  0.00    +0.000 H 
ATOM     13  C13 UNL A   1      52.745  47.192  24.419  1.00  0.00    +0.000 C 
BRANCH   13   12
ATOM     12  C12 UNL A   1      51.689  46.366  24.302  1.00  0.00    +0.000 C 
ATOM    112  H18 UNL A   1      51.242  46.266  23.379  1.00  0.00    +0.000 H 
BRANCH   12   11
ATOM     11  C11 UNL A   1      51.127  45.574  25.469  1.00  0.00    +0.000 C 
ATOM    110  H16 UNL A   1      51.370  44.543  25.318  1.00  0.00    +0.000 H 
ATOM    111  H17 UNL A   1      51.568  45.991  26.351  1.00  0.00    +0.000 H 
BRANCH   11   10
ATOM     10  C10 UNL A   1      49.643  45.678  25.657  1.00  0.00    +0.000 C 
ATOM    109  H15 UNL A   1      49.065  44.846  25.466  1.00  0.00    +0.000 H 
BRANCH   10    9
ATOM      9  C9  UNL A   1      49.029  46.803  26.062  1.00  0.00    +0.000 C 
ATOM    108  H14 UNL A   1      48.251  47.165  25.489  1.00  0.00    +0.000 H 
BRANCH    9    8
ATOM    106  H12 UNL A   1      48.637  47.471  28.036  1.00  0.00    +0.000 H 
ATOM    107  H13 UNL A   1      50.321  47.181  27.706  1.00  0.00    +0.000 H 
ATOM      8  C8  UNL A   1      49.408  47.567  27.301  1.00  0.00    +0.000 C 
BRANCH    8    7
ATOM    105  H11 UNL A   1      49.181  49.718  27.568  1.00  0.00    +0.000 H 
ATOM      7  C7  UNL A   1      49.577  49.010  26.931  1.00  0.00    +0.000 C 
BRANCH    7    6
ATOM      6  C6  UNL A   1      50.207  49.445  25.830  1.00  0.00    +0.000 C 
ATOM    104  H10 UNL A   1      51.139  49.059  25.612  1.00  0.00    +0.000 H 
BRANCH    6    5
ATOM      5  C5  UNL A   1      49.621  50.465  24.896  1.00  0.00    +0.000 C 
ATOM    102  H8  UNL A   1      48.570  50.552  25.074  1.00  0.00    +0.000 H 
ATOM    103  H9  UNL A   1      50.084  51.415  25.062  1.00  0.00    +0.000 H 
BRANCH    5    4
ATOM      4  C4  UNL A   1      49.858  50.022  23.480  1.00  0.00    +0.000 C 
ATOM    101  H7  UNL A   1      50.253  50.709  22.820  1.00  0.00    +0.000 H 
BRANCH    4    3
ATOM      3  C3  UNL A   1      49.589  48.792  23.020  1.00  0.00    +0.000 C 
ATOM    100  H6  UNL A   1      49.940  47.983  23.555  1.00  0.00    +0.000 H 
BRANCH    3    2
ATOM      2  C2  UNL A   1      48.806  48.529  21.767  1.00  0.00    +0.000 C 
ATOM     99  H5  UNL A   1      49.178  49.160  20.988  1.00  0.00    +0.000 H 
ATOM     98  H4  UNL A   1      47.772  48.735  21.948  1.00  0.00    +0.000 H 
BRANCH    2    1
ATOM      1  C1  UNL A   1      48.960  47.076  21.338  1.00  0.00    +0.000 C 
ATOM     97  H3  UNL A   1      48.147  46.807  20.696  1.00  0.00    +0.000 H 
ATOM     95  H1  UNL A   1      48.956  46.447  22.203  1.00  0.00    +0.000 H 
ATOM     96  H2  UNL A   1      49.884  46.955  20.813  1.00  0.00    +0.000 H 
ENDBRANCH    2    1
ENDBRANCH    3    2
ENDBRANCH    4    3
ENDBRANCH    5    4
ENDBRANCH    6    5
ENDBRANCH    7    6
ENDBRANCH    8    7
ENDBRANCH    9    8
ENDBRANCH   10    9
ENDBRANCH   11   10
ENDBRANCH   12   11
ENDBRANCH   13   12
ENDBRANCH   14   13
ENDBRANCH   15   14
ENDBRANCH   16   15
ENDBRANCH   17   16
ENDBRANCH   18   17
ENDBRANCH   19   18
ENDBRANCH   20   19
ENDBRANCH   22   20
ENDBRANCH   23   22
ENDBRANCH   24   23
ENDBRANCH   25   24
ENDBRANCH   26   25
ENDBRANCH   27   26
ENDBRANCH   28   27
ENDBRANCH   29   28
ENDBRANCH   30   29
ENDBRANCH   32   30
ENDBRANCH   36   35
BRANCH   40   41
ATOM     41  C35 UNL A   1      46.225  43.061  24.328  1.00  0.00    +0.000 C 
ATOM     42  C36 UNL A   1      45.937  41.719  24.618  1.00  0.00    +0.000 C 
ATOM     43  F1  UNL A   1      46.180  40.764  23.707  1.00  0.00    +0.000 F 
ATOM     44  C37 UNL A   1      45.366  41.352  25.835  1.00  0.00    +0.000 C 
ATOM     45  F2  UNL A   1      45.062  40.069  26.071  1.00  0.00    +0.000 F 
ATOM     46  C38 UNL A   1      45.106  42.315  26.798  1.00  0.00    +0.000 C 
ATOM     47  F3  UNL A   1      44.571  41.960  27.974  1.00  0.00    +0.000 F 
ATOM     48  C39 UNL A   1      45.396  43.646  26.540  1.00  0.00    +0.000 C 
ATOM     49  F4  UNL A   1      45.159  44.575  27.476  1.00  0.00    +0.000 F 
ATOM     50  C40 UNL A   1      45.939  44.019  25.313  1.00  0.00    +0.000 C 
ATOM     51  F5  UNL A   1      46.198  45.317  25.091  1.00  0.00    +0.000 F 
ENDBRANCH   40   41
BRANCH   57   58
ATOM     65  C50 UNL A   1      42.445  45.915  16.618  1.00  0.00    +0.000 C 
ATOM     66  F9  UNL A   1      41.716  45.157  15.786  1.00  0.00    +0.000 F 
ATOM     67  C51 UNL A   1      43.584  45.388  17.219  1.00  0.00    +0.000 C 
ATOM     68  F10 UNL A   1      43.919  44.115  16.958  1.00  0.00    +0.000 F 
ATOM     58  C46 UNL A   1      44.374  46.167  18.078  1.00  0.00    +0.000 C 
ATOM     59  C47 UNL A   1      43.982  47.494  18.306  1.00  0.00    +0.000 C 
ATOM     60  F6  UNL A   1      44.694  48.277  19.130  1.00  0.00    +0.000 F 
ATOM     61  C48 UNL A   1      42.821  48.006  17.733  1.00  0.00    +0.000 C 
ATOM     62  F7  UNL A   1      42.430  49.256  18.020  1.00  0.00    +0.000 F 
ATOM     63  C49 UNL A   1      42.056  47.219  16.885  1.00  0.00    +0.000 C 
ATOM     64  F8  UNL A   1      40.940  47.714  16.335  1.00  0.00    +0.000 F 
ENDBRANCH   57   58
BRANCH   72   73
ATOM     73  C55 UNL A   1      50.941  45.512  15.860  1.00  0.00    +0.000 C 
ATOM     74  C56 UNL A   1      51.106  44.554  14.849  1.00  0.00    +0.000 C 
ATOM     75  F11 UNL A   1      50.634  43.310  15.022  1.00  0.00    +0.000 F 
ATOM     76  C57 UNL A   1      51.806  44.852  13.681  1.00  0.00    +0.000 C 
ATOM     77  F12 UNL A   1      52.005  43.897  12.761  1.00  0.00    +0.000 F 
ATOM     78  C58 UNL A   1      52.318  46.125  13.481  1.00  0.00    +0.000 C 
ATOM     79  F13 UNL A   1      52.991  46.410  12.359  1.00  0.00    +0.000 F 
ATOM     80  C59 UNL A   1      52.138  47.099  14.452  1.00  0.00    +0.000 C 
ATOM     81  F14 UNL A   1      52.615  48.335  14.255  1.00  0.00    +0.000 F 
ATOM     82  C60 UNL A   1      51.471  46.791  15.635  1.00  0.00    +0.000 C 
ATOM     83  F15 UNL A   1      51.336  47.748  16.565  1.00  0.00    +0.000 F 
ENDBRANCH   72   73
TORSDOF 33
ENDMDL
MODEL 7
REMARK VINA RESULT:      -6.8     27.439     32.862
ROOT
ATOM    140  H46 UNL A   1       5.171   9.739  24.417  1.00  0.00    +0.000 H 
ATOM    141  H47 UNL A   1       6.952  10.931  25.900  1.00  0.00    +0.000 H 
ATOM    142  H48 UNL A   1       7.560   6.844  26.167  1.00  0.00    +0.000 H 
ATOM    143  H49 UNL A   1      10.683   1.890  28.707  1.00  0.00    +0.000 H 
ATOM    144  H50 UNL A   1       8.995   0.738  27.200  1.00  0.00    +0.000 H 
ATOM    145  H51 UNL A   1       8.421   4.840  26.846  1.00  0.00    +0.000 H 
ATOM    146  H52 UNL A   1      11.869   6.988  29.796  1.00  0.00    +0.000 H 
ATOM    147  H53 UNL A   1      10.748   9.223  29.253  1.00  0.00    +0.000 H 
ATOM    148  H54 UNL A   1       4.334   4.613  23.047  1.00  0.00    +0.000 H 
ATOM    149  H55 UNL A   1       5.075   2.345  23.974  1.00  0.00    +0.000 H 
ATOM     36  C31 UNL A   1       7.225   2.515  25.843  1.00  0.00    +0.000 C 
ATOM     37  C32 UNL A   1       6.485   3.645  25.185  1.00  0.00    +0.000 C 
ATOM     38  N3  UNL A   1       6.657   4.936  25.321  1.00  0.00    +0.000 N 
ATOM     39  C33 UNL A   1       5.725   5.534  24.484  1.00  0.00    +0.000 C 
ATOM     40  C34 UNL A   1       5.446   6.851  24.333  1.00  0.00    +0.000 C 
ATOM     52  C41 UNL A   1       6.134   7.908  25.029  1.00  0.00    +0.000 C 
ATOM     53  C42 UNL A   1       5.908   9.274  24.967  1.00  0.00    +0.000 C 
ATOM     54  C43 UNL A   1       6.852   9.911  25.779  1.00  0.00    +0.000 C 
ATOM     55  C44 UNL A   1       7.629   8.942  26.392  1.00  0.00    +0.000 C 
ATOM     56  N4  UNL A   1       7.185   7.719  25.914  1.00  0.00    +0.000 N 
ATOM     57  C45 UNL A   1       8.695   9.118  27.346  1.00  0.00    +0.000 C 
ATOM     69  C52 UNL A   1       9.408   8.110  27.908  1.00  0.00    +0.000 C 
ATOM     70  N5  UNL A   1       9.299   6.741  27.704  1.00  0.00    +0.000 N 
ATOM     71  C53 UNL A   1      10.232   6.192  28.444  1.00  0.00    +0.000 C 
ATOM     72  C54 UNL A   1      10.560   4.736  28.638  1.00  0.00    +0.000 C 
ATOM     84  C61 UNL A   1       9.816   3.812  28.001  1.00  0.00    +0.000 C 
ATOM     85  C62 UNL A   1       9.985   2.367  28.116  1.00  0.00    +0.000 C 
ATOM     86  C63 UNL A   1       9.085   1.759  27.327  1.00  0.00    +0.000 C 
ATOM     87  C64 UNL A   1       8.252   2.772  26.678  1.00  0.00    +0.000 C 
ATOM     88  N6  UNL A   1       8.769   3.962  27.125  1.00  0.00    +0.000 N 
ATOM     89  C65 UNL A   1      11.054   7.158  29.186  1.00  0.00    +0.000 C 
ATOM     90  C66 UNL A   1      10.474   8.306  28.867  1.00  0.00    +0.000 C 
ATOM     91  C67 UNL A   1       5.036   4.469  23.789  1.00  0.00    +0.000 C 
ATOM     92  C68 UNL A   1       5.425   3.281  24.231  1.00  0.00    +0.000 C 
ENDROOT
BRANCH   36   35
ATOM     33  C28 UNL A   1       5.752  -0.948  26.275  1.00  0.00    +0.000 C 
ATOM     34  C29 UNL A   1       6.037   0.402  26.479  1.00  0.00    +0.000 C 
ATOM     35  C30 UNL A   1       6.851   1.103  25.574  1.00  0.00    +0.000 C 
ATOM    138  H44 UNL A   1       5.182  -1.467  26.961  1.00  0.00    +0.000 H 
ATOM    139  H45 UNL A   1       5.646   0.890  27.301  1.00  0.00    +0.000 H 
ATOM    150  H56 UNL A   1       7.920   0.951  23.756  1.00  0.00    +0.000 H 
ATOM    151  H57 UNL A   1       7.248  -1.335  23.300  1.00  0.00    +0.000 H 
ATOM     93  C69 UNL A   1       7.317   0.448  24.425  1.00  0.00    +0.000 C 
ATOM     94  C70 UNL A   1       6.970  -0.880  24.184  1.00  0.00    +0.000 C 
ATOM     32  C27 UNL A   1       6.243  -1.596  25.139  1.00  0.00    +0.000 C 
BRANCH   32   30
ATOM     30  C26 UNL A   1       5.948  -3.038  24.978  1.00  0.00    +0.000 C 
ATOM     31  O2  UNL A   1       5.697  -3.721  25.960  1.00  0.00    +0.000 O 
BRANCH   30   29
ATOM    137  H43 UNL A   1       5.134  -3.623  23.249  1.00  0.00    +0.000 H 
ATOM     29  N2  UNL A   1       5.991  -3.617  23.733  1.00  0.00    +0.000 N 
BRANCH   29   28
ATOM     28  C25 UNL A   1       7.104  -4.220  23.022  1.00  0.00    +0.000 C 
ATOM    135  H41 UNL A   1       7.072  -3.898  22.002  1.00  0.00    +0.000 H 
ATOM    136  H42 UNL A   1       8.004  -3.909  23.509  1.00  0.00    +0.000 H 
BRANCH   28   27
ATOM     27  C24 UNL A   1       7.068  -5.745  23.052  1.00  0.00    +0.000 C 
ATOM    133  H39 UNL A   1       6.065  -6.048  23.267  1.00  0.00    +0.000 H 
ATOM    134  H40 UNL A   1       7.419  -6.067  22.094  1.00  0.00    +0.000 H 
BRANCH   27   26
ATOM     26  C23 UNL A   1       7.990  -6.403  24.083  1.00  0.00    +0.000 C 
ATOM    131  H37 UNL A   1       8.974  -6.007  23.942  1.00  0.00    +0.000 H 
ATOM    132  H38 UNL A   1       7.565  -6.178  25.038  1.00  0.00    +0.000 H 
BRANCH   26   25
ATOM     25  C22 UNL A   1       8.082  -7.931  24.015  1.00  0.00    +0.000 C 
ATOM    130  H36 UNL A   1       7.598  -8.295  24.898  1.00  0.00    +0.000 H 
ATOM    129  H35 UNL A   1       9.116  -8.197  23.950  1.00  0.00    +0.000 H 
BRANCH   25   24
ATOM    128  H34 UNL A   1       8.008  -8.573  21.990  1.00  0.00    +0.000 H 
ATOM    127  H33 UNL A   1       6.458  -8.024  22.630  1.00  0.00    +0.000 H 
ATOM     24  C21 UNL A   1       7.351  -8.580  22.834  1.00  0.00    +0.000 C 
BRANCH   24   23
ATOM    125  H31 UNL A   1       7.486 -10.343  24.013  1.00  0.00    +0.000 H 
ATOM    126  H32 UNL A   1       5.911 -10.067  23.256  1.00  0.00    +0.000 H 
ATOM     23  C20 UNL A   1       6.973 -10.027  23.129  1.00  0.00    +0.000 C 
BRANCH   23   22
ATOM    124  H30 UNL A   1       8.112 -11.491  22.196  1.00  0.00    +0.000 H 
ATOM     22  N1  UNL A   1       7.321 -10.925  22.042  1.00  0.00    +0.000 N 
BRANCH   22   20
ATOM     20  C19 UNL A   1       6.706 -11.093  20.842  1.00  0.00    +0.000 C 
ATOM     21  O1  UNL A   1       5.522 -11.444  20.876  1.00  0.00    +0.000 O 
BRANCH   20   19
ATOM    122  H28 UNL A   1       8.392 -11.264  19.608  1.00  0.00    +0.000 H 
ATOM     19  C18 UNL A   1       7.388 -10.913  19.497  1.00  0.00    +0.000 C 
ATOM    123  H29 UNL A   1       6.754 -11.451  18.823  1.00  0.00    +0.000 H 
BRANCH   19   18
ATOM    121  H27 UNL A   1       7.866  -8.934  19.668  1.00  0.00    +0.000 H 
ATOM     18  C17 UNL A   1       7.473  -9.537  18.876  1.00  0.00    +0.000 C 
ATOM    120  H26 UNL A   1       6.494  -9.301  18.515  1.00  0.00    +0.000 H 
BRANCH   18   17
ATOM     17  C16 UNL A   1       8.440  -9.271  17.726  1.00  0.00    +0.000 C 
ATOM    118  H24 UNL A   1       9.247  -9.954  17.889  1.00  0.00    +0.000 H 
ATOM    119  H25 UNL A   1       7.745  -9.333  16.915  1.00  0.00    +0.000 H 
BRANCH   17   16
ATOM     16  S1  UNL A   1       9.260  -7.679  17.267  1.00  0.00    +0.000 S 
BRANCH   16   15
ATOM    116  H22 UNL A   1       8.091  -6.108  18.643  1.00  0.00    +0.000 H 
ATOM    117  H23 UNL A   1       9.446  -6.949  19.498  1.00  0.00    +0.000 H 
ATOM     15  C15 UNL A   1       9.109  -6.436  18.621  1.00  0.00    +0.000 C 
BRANCH   15   14
ATOM    114  H20 UNL A   1      10.442  -5.137  17.566  1.00  0.00    +0.000 H 
ATOM    115  H21 UNL A   1       9.352  -4.344  18.755  1.00  0.00    +0.000 H 
ATOM     14  C14 UNL A   1      10.003  -5.167  18.541  1.00  0.00    +0.000 C 
BRANCH   14   13
ATOM    113  H19 UNL A   1      11.923  -5.699  19.395  1.00  0.00    +0.000 H 
ATOM     13  C13 UNL A   1      11.116  -5.076  19.551  1.00  0.00    +0.000 C 
BRANCH   13   12
ATOM     12  C12 UNL A   1      11.182  -4.279  20.634  1.00  0.00    +0.000 C 
ATOM    112  H18 UNL A   1      11.687  -3.383  20.556  1.00  0.00    +0.000 H 
BRANCH   12   11
ATOM     11  C11 UNL A   1      10.547  -4.641  21.965  1.00  0.00    +0.000 C 
ATOM    110  H16 UNL A   1       9.519  -4.348  21.932  1.00  0.00    +0.000 H 
ATOM    111  H17 UNL A   1      10.687  -5.695  22.084  1.00  0.00    +0.000 H 
BRANCH   11   10
ATOM     10  C10 UNL A   1      11.174  -3.999  23.167  1.00  0.00    +0.000 C 
ATOM    109  H15 UNL A   1      12.079  -3.518  23.050  1.00  0.00    +0.000 H 
BRANCH   10    9
ATOM      9  C9  UNL A   1      10.615  -4.019  24.388  1.00  0.00    +0.000 C 
ATOM    108  H14 UNL A   1       9.879  -4.719  24.574  1.00  0.00    +0.000 H 
BRANCH    9    8
ATOM    106  H12 UNL A   1      10.691  -3.495  26.442  1.00  0.00    +0.000 H 
ATOM    107  H13 UNL A   1      12.057  -2.942  25.517  1.00  0.00    +0.000 H 
ATOM      8  C8  UNL A   1      10.996  -3.083  25.503  1.00  0.00    +0.000 C 
BRANCH    8    7
ATOM    105  H11 UNL A   1       9.296  -1.795  25.056  1.00  0.00    +0.000 H 
ATOM      7  C7  UNL A   1      10.304  -1.773  25.275  1.00  0.00    +0.000 C 
BRANCH    7    6
ATOM      6  C6  UNL A   1      10.903  -0.575  25.333  1.00  0.00    +0.000 C 
ATOM    104  H10 UNL A   1      10.707   0.034  26.144  1.00  0.00    +0.000 H 
BRANCH    6    5
ATOM      5  C5  UNL A   1      11.847  -0.075  24.278  1.00  0.00    +0.000 C 
ATOM    102  H8  UNL A   1      12.853  -0.142  24.635  1.00  0.00    +0.000 H 
ATOM    103  H9  UNL A   1      11.749  -0.670  23.394  1.00  0.00    +0.000 H 
BRANCH    5    4
ATOM      4  C4  UNL A   1      11.516   1.357  23.967  1.00  0.00    +0.000 C 
ATOM    101  H7  UNL A   1      12.130   2.089  24.353  1.00  0.00    +0.000 H 
BRANCH    4    3
ATOM      3  C3  UNL A   1      10.470   1.744  23.221  1.00  0.00    +0.000 C 
ATOM    100  H6  UNL A   1      10.108   1.088  22.511  1.00  0.00    +0.000 H 
BRANCH    3    2
ATOM      2  C2  UNL A   1       9.801   3.079  23.362  1.00  0.00    +0.000 C 
ATOM     99  H5  UNL A   1      10.327   3.654  24.093  1.00  0.00    +0.000 H 
ATOM     98  H4  UNL A   1       8.785   2.934  23.666  1.00  0.00    +0.000 H 
BRANCH    2    1
ATOM      1  C1  UNL A   1       9.823   3.829  22.037  1.00  0.00    +0.000 C 
ATOM     97  H3  UNL A   1       9.350   4.781  22.158  1.00  0.00    +0.000 H 
ATOM     95  H1  UNL A   1       9.300   3.260  21.297  1.00  0.00    +0.000 H 
ATOM     96  H2  UNL A   1      10.837   3.973  21.726  1.00  0.00    +0.000 H 
ENDBRANCH    2    1
ENDBRANCH    3    2
ENDBRANCH    4    3
ENDBRANCH    5    4
ENDBRANCH    6    5
ENDBRANCH    7    6
ENDBRANCH    8    7
ENDBRANCH    9    8
ENDBRANCH   10    9
ENDBRANCH   11   10
ENDBRANCH   12   11
ENDBRANCH   13   12
ENDBRANCH   14   13
ENDBRANCH   15   14
ENDBRANCH   16   15
ENDBRANCH   17   16
ENDBRANCH   18   17
ENDBRANCH   19   18
ENDBRANCH   20   19
ENDBRANCH   22   20
ENDBRANCH   23   22
ENDBRANCH   24   23
ENDBRANCH   25   24
ENDBRANCH   26   25
ENDBRANCH   27   26
ENDBRANCH   28   27
ENDBRANCH   29   28
ENDBRANCH   30   29
ENDBRANCH   32   30
ENDBRANCH   36   35
BRANCH   40   41
ATOM     41  C35 UNL A   1       4.337   7.225  23.392  1.00  0.00    +0.000 C 
ATOM     42  C36 UNL A   1       3.098   7.680  23.867  1.00  0.00    +0.000 C 
ATOM     43  F1  UNL A   1       2.856   7.724  25.187  1.00  0.00    +0.000 F 
ATOM     44  C37 UNL A   1       2.086   8.061  22.988  1.00  0.00    +0.000 C 
ATOM     45  F2  UNL A   1       0.897   8.451  23.467  1.00  0.00    +0.000 F 
ATOM     46  C38 UNL A   1       2.307   8.030  21.620  1.00  0.00    +0.000 C 
ATOM     47  F3  UNL A   1       1.338   8.411  20.776  1.00  0.00    +0.000 F 
ATOM     48  C39 UNL A   1       3.528   7.599  21.127  1.00  0.00    +0.000 C 
ATOM     49  F4  UNL A   1       3.748   7.582  19.805  1.00  0.00    +0.000 F 
ATOM     50  C40 UNL A   1       4.531   7.188  22.002  1.00  0.00    +0.000 C 
ATOM     51  F5  UNL A   1       5.698   6.766  21.493  1.00  0.00    +0.000 F 
ENDBRANCH   40   41
BRANCH   57   58
ATOM     65  C50 UNL A   1      10.425  12.501  27.575  1.00  0.00    +0.000 C 
ATOM     66  F9  UNL A   1      11.462  13.133  27.005  1.00  0.00    +0.000 F 
ATOM     67  C51 UNL A   1      10.102  11.206  27.183  1.00  0.00    +0.000 C 
ATOM     68  F10 UNL A   1      10.835  10.621  26.223  1.00  0.00    +0.000 F 
ATOM     58  C46 UNL A   1       9.034  10.516  27.778  1.00  0.00    +0.000 C 
ATOM     59  C47 UNL A   1       8.309  11.172  28.783  1.00  0.00    +0.000 C 
ATOM     60  F6  UNL A   1       7.270  10.564  29.374  1.00  0.00    +0.000 F 
ATOM     61  C48 UNL A   1       8.612  12.482  29.146  1.00  0.00    +0.000 C 
ATOM     62  F7  UNL A   1       7.862  13.112  30.061  1.00  0.00    +0.000 F 
ATOM     63  C49 UNL A   1       9.673  13.144  28.546  1.00  0.00    +0.000 C 
ATOM     64  F8  UNL A   1       9.963  14.403  28.897  1.00  0.00    +0.000 F 
ENDBRANCH   57   58
BRANCH   72   73
ATOM     73  C55 UNL A   1      11.678   4.316  29.525  1.00  0.00    +0.000 C 
ATOM     74  C56 UNL A   1      11.587   4.439  30.919  1.00  0.00    +0.000 C 
ATOM     75  F11 UNL A   1      10.472   4.935  31.476  1.00  0.00    +0.000 F 
ATOM     76  C57 UNL A   1      12.661   4.108  31.743  1.00  0.00    +0.000 C 
ATOM     77  F12 UNL A   1      12.569   4.297  33.066  1.00  0.00    +0.000 F 
ATOM     78  C58 UNL A   1      13.831   3.607  31.194  1.00  0.00    +0.000 C 
ATOM     79  F13 UNL A   1      14.864   3.290  31.987  1.00  0.00    +0.000 F 
ATOM     80  C59 UNL A   1      13.933   3.444  29.821  1.00  0.00    +0.000 C 
ATOM     81  F14 UNL A   1      15.055   2.944  29.287  1.00  0.00    +0.000 F 
ATOM     82  C60 UNL A   1      12.873   3.811  28.994  1.00  0.00    +0.000 C 
ATOM     83  F15 UNL A   1      13.011   3.665  27.668  1.00  0.00    +0.000 F 
ENDBRANCH   72   73
TORSDOF 33
ENDMDL
MODEL 8
REMARK VINA RESULT:      -6.8      5.603     11.692
ROOT
ATOM    140  H46 UNL A   1      14.933  20.797   0.718  1.00  0.00    +0.000 H 
ATOM    141  H47 UNL A   1      14.304  19.548   2.918  1.00  0.00    +0.000 H 
ATOM    142  H48 UNL A   1      12.459  23.255   2.952  1.00  0.00    +0.000 H 
ATOM    143  H49 UNL A   1       8.908  27.618   5.970  1.00  0.00    +0.000 H 
ATOM    144  H50 UNL A   1       9.462  28.798   3.791  1.00  0.00    +0.000 H 
ATOM    145  H51 UNL A   1      11.252  25.047   3.694  1.00  0.00    +0.000 H 
ATOM    146  H52 UNL A   1      10.005  22.797   8.004  1.00  0.00    +0.000 H 
ATOM    147  H53 UNL A   1      11.565  20.893   7.307  1.00  0.00    +0.000 H 
ATOM    148  H54 UNL A   1      13.424  25.482  -1.432  1.00  0.00    +0.000 H 
ATOM    149  H55 UNL A   1      12.318  27.612  -0.544  1.00  0.00    +0.000 H 
ATOM     36  C31 UNL A   1      11.148  27.306   2.042  1.00  0.00    +0.000 C 
ATOM     37  C32 UNL A   1      11.955  26.300   1.271  1.00  0.00    +0.000 C 
ATOM     38  N3  UNL A   1      12.296  25.081   1.607  1.00  0.00    +0.000 N 
ATOM     39  C33 UNL A   1      13.025  24.582   0.537  1.00  0.00    +0.000 C 
ATOM     40  C34 UNL A   1      13.670  23.394   0.433  1.00  0.00    +0.000 C 
ATOM     52  C41 UNL A   1      13.675  22.385   1.460  1.00  0.00    +0.000 C 
ATOM     53  C42 UNL A   1      14.320  21.159   1.465  1.00  0.00    +0.000 C 
ATOM     54  C43 UNL A   1      13.997  20.498   2.654  1.00  0.00    +0.000 C 
ATOM     55  C44 UNL A   1      13.199  21.333   3.417  1.00  0.00    +0.000 C 
ATOM     56  N4  UNL A   1      12.999  22.483   2.668  1.00  0.00    +0.000 N 
ATOM     57  C45 UNL A   1      12.659  21.102   4.733  1.00  0.00    +0.000 C 
ATOM     69  C52 UNL A   1      11.886  21.979   5.420  1.00  0.00    +0.000 C 
ATOM     70  N5  UNL A   1      11.438  23.237   5.039  1.00  0.00    +0.000 N 
ATOM     71  C53 UNL A   1      10.691  23.668   6.027  1.00  0.00    +0.000 C 
ATOM     72  C54 UNL A   1       9.972  24.982   6.174  1.00  0.00    +0.000 C 
ATOM     84  C61 UNL A   1      10.081  25.896   5.192  1.00  0.00    +0.000 C 
ATOM     85  C62 UNL A   1       9.476  27.225   5.204  1.00  0.00    +0.000 C 
ATOM     86  C63 UNL A   1       9.779  27.852   4.057  1.00  0.00    +0.000 C 
ATOM     87  C64 UNL A   1      10.630  26.982   3.243  1.00  0.00    +0.000 C 
ATOM     88  N6  UNL A   1      10.744  25.837   3.991  1.00  0.00    +0.000 N 
ATOM     89  C65 UNL A   1      10.564  22.717   7.141  1.00  0.00    +0.000 C 
ATOM     90  C66 UNL A   1      11.354  21.731   6.744  1.00  0.00    +0.000 C 
ATOM     91  C67 UNL A   1      13.019  25.599  -0.491  1.00  0.00    +0.000 C 
ATOM     92  C68 UNL A   1      12.424  26.704  -0.064  1.00  0.00    +0.000 C 
ENDROOT
BRANCH   36   35
ATOM     33  C28 UNL A   1       9.599  30.135   0.055  1.00  0.00    +0.000 C 
ATOM     34  C29 UNL A   1       9.794  28.886   0.645  1.00  0.00    +0.000 C 
ATOM     35  C30 UNL A   1      10.895  28.661   1.489  1.00  0.00    +0.000 C 
ATOM    138  H44 UNL A   1       8.809  30.285  -0.591  1.00  0.00    +0.000 H 
ATOM    139  H45 UNL A   1       9.125  28.122   0.460  1.00  0.00    +0.000 H 
ATOM    150  H56 UNL A   1      12.570  29.572   2.402  1.00  0.00    +0.000 H 
ATOM    151  H57 UNL A   1      12.105  31.792   1.542  1.00  0.00    +0.000 H 
ATOM     93  C69 UNL A   1      11.755  29.726   1.788  1.00  0.00    +0.000 C 
ATOM     94  C70 UNL A   1      11.516  30.993   1.258  1.00  0.00    +0.000 C 
ATOM     32  C27 UNL A   1      10.478  31.182   0.341  1.00  0.00    +0.000 C 
BRANCH   32   30
ATOM     30  C26 UNL A   1      10.256  32.481  -0.333  1.00  0.00    +0.000 C 
ATOM     31  O2  UNL A   1      11.184  33.264  -0.464  1.00  0.00    +0.000 O 
BRANCH   30   29
ATOM    137  H43 UNL A   1       8.799  32.542  -1.700  1.00  0.00    +0.000 H 
ATOM     29  N2  UNL A   1       9.002  32.823  -0.778  1.00  0.00    +0.000 N 
BRANCH   29   28
ATOM     28  C25 UNL A   1       7.932  33.533  -0.102  1.00  0.00    +0.000 C 
ATOM    135  H41 UNL A   1       8.337  34.025   0.758  1.00  0.00    +0.000 H 
ATOM    136  H42 UNL A   1       7.517  34.230  -0.800  1.00  0.00    +0.000 H 
BRANCH   28   27
ATOM     27  C24 UNL A   1       6.804  32.611   0.351  1.00  0.00    +0.000 C 
ATOM    133  H39 UNL A   1       7.106  32.145   1.266  1.00  0.00    +0.000 H 
ATOM    134  H40 UNL A   1       5.938  33.231   0.450  1.00  0.00    +0.000 H 
BRANCH   27   26
ATOM     26  C23 UNL A   1       6.422  31.507  -0.637  1.00  0.00    +0.000 C 
ATOM    131  H37 UNL A   1       7.308  31.215  -1.162  1.00  0.00    +0.000 H 
ATOM    132  H38 UNL A   1       5.990  30.725  -0.047  1.00  0.00    +0.000 H 
BRANCH   26   25
ATOM     25  C22 UNL A   1       5.360  31.881  -1.677  1.00  0.00    +0.000 C 
ATOM    130  H36 UNL A   1       5.848  31.837  -2.627  1.00  0.00    +0.000 H 
ATOM    129  H35 UNL A   1       4.984  32.852  -1.430  1.00  0.00    +0.000 H 
BRANCH   25   24
ATOM    128  H34 UNL A   1       3.306  31.487  -2.061  1.00  0.00    +0.000 H 
ATOM    127  H33 UNL A   1       4.017  30.461  -0.815  1.00  0.00    +0.000 H 
ATOM     24  C21 UNL A   1       4.166  30.922  -1.770  1.00  0.00    +0.000 C 
BRANCH   24   23
ATOM    125  H31 UNL A   1       3.465  29.621  -3.297  1.00  0.00    +0.000 H 
ATOM    126  H32 UNL A   1       5.124  30.197  -3.507  1.00  0.00    +0.000 H 
ATOM     23  C20 UNL A   1       4.395  29.834  -2.813  1.00  0.00    +0.000 C 
BRANCH   23   22
ATOM    124  H30 UNL A   1       4.350  28.201  -1.530  1.00  0.00    +0.000 H 
ATOM     22  N1  UNL A   1       4.910  28.607  -2.231  1.00  0.00    +0.000 N 
BRANCH   22   20
ATOM     20  C19 UNL A   1       6.058  27.941  -2.522  1.00  0.00    +0.000 C 
ATOM     21  O1  UNL A   1       6.241  27.653  -3.710  1.00  0.00    +0.000 O 
BRANCH   20   19
ATOM    122  H28 UNL A   1       7.520  28.399  -1.090  1.00  0.00    +0.000 H 
ATOM     19  C18 UNL A   1       7.083  27.507  -1.488  1.00  0.00    +0.000 C 
ATOM    123  H29 UNL A   1       6.516  26.899  -0.815  1.00  0.00    +0.000 H 
BRANCH   19   18
ATOM    121  H27 UNL A   1       9.007  27.295  -2.143  1.00  0.00    +0.000 H 
ATOM     18  C17 UNL A   1       8.227  26.605  -1.896  1.00  0.00    +0.000 C 
ATOM    120  H26 UNL A   1       7.858  25.976  -2.678  1.00  0.00    +0.000 H 
BRANCH   18   17
ATOM     17  C16 UNL A   1       8.886  25.689  -0.869  1.00  0.00    +0.000 C 
ATOM    118  H24 UNL A   1       9.713  26.255  -0.495  1.00  0.00    +0.000 H 
ATOM    119  H25 UNL A   1       8.016  25.433  -0.302  1.00  0.00    +0.000 H 
BRANCH   17   16
ATOM     16  S1  UNL A   1       9.561  23.987  -1.124  1.00  0.00    +0.000 S 
BRANCH   16   15
ATOM    116  H22 UNL A   1      10.657  22.790   0.635  1.00  0.00    +0.000 H 
ATOM    117  H23 UNL A   1       9.203  23.715   1.187  1.00  0.00    +0.000 H 
ATOM     15  C15 UNL A   1       9.634  23.053   0.465  1.00  0.00    +0.000 C 
BRANCH   15   14
ATOM    114  H20 UNL A   1       7.829  21.946   0.162  1.00  0.00    +0.000 H 
ATOM    115  H21 UNL A   1       9.355  21.002   0.053  1.00  0.00    +0.000 H 
ATOM     14  C14 UNL A   1       8.795  21.749   0.577  1.00  0.00    +0.000 C 
BRANCH   14   13
ATOM    113  H19 UNL A   1       8.180  20.265   2.033  1.00  0.00    +0.000 H 
ATOM     13  C13 UNL A   1       8.598  21.206   1.967  1.00  0.00    +0.000 C 
BRANCH   13   12
ATOM     12  C12 UNL A   1       8.902  21.803   3.135  1.00  0.00    +0.000 C 
ATOM    112  H18 UNL A   1       9.870  21.737   3.484  1.00  0.00    +0.000 H 
BRANCH   12   11
ATOM     11  C11 UNL A   1       7.883  22.568   3.961  1.00  0.00    +0.000 C 
ATOM    110  H16 UNL A   1       7.622  21.966   4.805  1.00  0.00    +0.000 H 
ATOM    111  H17 UNL A   1       8.350  23.495   4.224  1.00  0.00    +0.000 H 
BRANCH   11   10
ATOM     10  C10 UNL A   1       6.619  22.930   3.239  1.00  0.00    +0.000 C 
ATOM    109  H15 UNL A   1       5.878  22.217   3.160  1.00  0.00    +0.000 H 
BRANCH   10    9
ATOM      9  C9  UNL A   1       6.404  24.138   2.691  1.00  0.00    +0.000 C 
ATOM    108  H14 UNL A   1       5.498  24.306   2.225  1.00  0.00    +0.000 H 
BRANCH    9    8
ATOM    106  H12 UNL A   1       7.646  25.510   3.727  1.00  0.00    +0.000 H 
ATOM    107  H13 UNL A   1       8.300  24.967   2.209  1.00  0.00    +0.000 H 
ATOM      8  C8  UNL A   1       7.404  25.262   2.715  1.00  0.00    +0.000 C 
BRANCH    8    7
ATOM    105  H11 UNL A   1       6.785  26.459   1.002  1.00  0.00    +0.000 H 
ATOM      7  C7  UNL A   1       6.794  26.450   2.034  1.00  0.00    +0.000 C 
BRANCH    7    6
ATOM      6  C6  UNL A   1       6.260  27.501   2.672  1.00  0.00    +0.000 C 
ATOM    104  H10 UNL A   1       5.956  28.314   2.112  1.00  0.00    +0.000 H 
BRANCH    6    5
ATOM      5  C5  UNL A   1       6.082  27.556   4.162  1.00  0.00    +0.000 C 
ATOM    102  H8  UNL A   1       6.590  26.730   4.614  1.00  0.00    +0.000 H 
ATOM    103  H9  UNL A   1       6.490  28.469   4.542  1.00  0.00    +0.000 H 
BRANCH    5    4
ATOM      4  C4  UNL A   1       4.616  27.483   4.481  1.00  0.00    +0.000 C 
ATOM    101  H7  UNL A   1       4.152  28.339   4.820  1.00  0.00    +0.000 H 
BRANCH    4    3
ATOM      3  C3  UNL A   1       3.871  26.374   4.353  1.00  0.00    +0.000 C 
ATOM    100  H6  UNL A   1       3.993  25.622   5.048  1.00  0.00    +0.000 H 
BRANCH    3    2
ATOM      2  C2  UNL A   1       2.871  26.170   3.253  1.00  0.00    +0.000 C 
ATOM     99  H5  UNL A   1       3.193  26.710   2.388  1.00  0.00    +0.000 H 
ATOM     98  H4  UNL A   1       1.915  26.526   3.576  1.00  0.00    +0.000 H 
BRANCH    2    1
ATOM      1  C1  UNL A   1       2.762  24.693   2.900  1.00  0.00    +0.000 C 
ATOM     97  H3  UNL A   1       3.588  24.413   2.281  1.00  0.00    +0.000 H 
ATOM     95  H1  UNL A   1       1.846  24.519   2.375  1.00  0.00    +0.000 H 
ATOM     96  H2  UNL A   1       2.775  24.110   3.797  1.00  0.00    +0.000 H 
ENDBRANCH    2    1
ENDBRANCH    3    2
ENDBRANCH    4    3
ENDBRANCH    5    4
ENDBRANCH    6    5
ENDBRANCH    7    6
ENDBRANCH    8    7
ENDBRANCH    9    8
ENDBRANCH   10    9
ENDBRANCH   11   10
ENDBRANCH   12   11
ENDBRANCH   13   12
ENDBRANCH   14   13
ENDBRANCH   15   14
ENDBRANCH   16   15
ENDBRANCH   17   16
ENDBRANCH   18   17
ENDBRANCH   19   18
ENDBRANCH   20   19
ENDBRANCH   22   20
ENDBRANCH   23   22
ENDBRANCH   24   23
ENDBRANCH   25   24
ENDBRANCH   26   25
ENDBRANCH   27   26
ENDBRANCH   28   27
ENDBRANCH   29   28
ENDBRANCH   30   29
ENDBRANCH   32   30
ENDBRANCH   36   35
BRANCH   40   41
ATOM     41  C35 UNL A   1      14.440  23.128  -0.828  1.00  0.00    +0.000 C 
ATOM     42  C36 UNL A   1      13.839  22.505  -1.933  1.00  0.00    +0.000 C 
ATOM     43  F1  UNL A   1      12.572  22.072  -1.857  1.00  0.00    +0.000 F 
ATOM     44  C37 UNL A   1      14.549  22.295  -3.114  1.00  0.00    +0.000 C 
ATOM     45  F2  UNL A   1      13.965  21.660  -4.140  1.00  0.00    +0.000 F 
ATOM     46  C38 UNL A   1      15.859  22.735  -3.225  1.00  0.00    +0.000 C 
ATOM     47  F3  UNL A   1      16.535  22.545  -4.366  1.00  0.00    +0.000 F 
ATOM     48  C39 UNL A   1      16.468  23.366  -2.152  1.00  0.00    +0.000 C 
ATOM     49  F4  UNL A   1      17.731  23.804  -2.263  1.00  0.00    +0.000 F 
ATOM     50  C40 UNL A   1      15.772  23.550  -0.960  1.00  0.00    +0.000 C 
ATOM     51  F5  UNL A   1      16.395  24.155   0.063  1.00  0.00    +0.000 F 
ENDBRANCH   40   41
BRANCH   57   58
ATOM     65  C50 UNL A   1      14.449  18.515   6.878  1.00  0.00    +0.000 C 
ATOM     66  F9  UNL A   1      15.548  18.440   7.642  1.00  0.00    +0.000 F 
ATOM     67  C51 UNL A   1      14.129  19.709   6.239  1.00  0.00    +0.000 C 
ATOM     68  F10 UNL A   1      14.929  20.771   6.417  1.00  0.00    +0.000 F 
ATOM     58  C46 UNL A   1      12.994  19.808   5.418  1.00  0.00    +0.000 C 
ATOM     59  C47 UNL A   1      12.199  18.663   5.258  1.00  0.00    +0.000 C 
ATOM     60  F6  UNL A   1      11.096  18.707   4.496  1.00  0.00    +0.000 F 
ATOM     61  C48 UNL A   1      12.503  17.481   5.930  1.00  0.00    +0.000 C 
ATOM     62  F7  UNL A   1      11.690  16.422   5.816  1.00  0.00    +0.000 F 
ATOM     63  C49 UNL A   1      13.629  17.406   6.734  1.00  0.00    +0.000 C 
ATOM     64  F8  UNL A   1      13.919  16.269   7.378  1.00  0.00    +0.000 F 
ENDBRANCH   57   58
BRANCH   72   73
ATOM     73  C55 UNL A   1       9.159  25.276   7.384  1.00  0.00    +0.000 C 
ATOM     74  C56 UNL A   1       9.763  25.628   8.600  1.00  0.00    +0.000 C 
ATOM     75  F11 UNL A   1      11.100  25.714   8.683  1.00  0.00    +0.000 F 
ATOM     76  C57 UNL A   1       9.003  25.839   9.749  1.00  0.00    +0.000 C 
ATOM     77  F12 UNL A   1       9.613  26.109  10.911  1.00  0.00    +0.000 F 
ATOM     78  C58 UNL A   1       7.621  25.742   9.696  1.00  0.00    +0.000 C 
ATOM     79  F13 UNL A   1       6.891  25.943  10.802  1.00  0.00    +0.000 F 
ATOM     80  C59 UNL A   1       6.998  25.429   8.498  1.00  0.00    +0.000 C 
ATOM     81  F14 UNL A   1       5.662  25.352   8.438  1.00  0.00    +0.000 F 
ATOM     82  C60 UNL A   1       7.760  25.182   7.358  1.00  0.00    +0.000 C 
ATOM     83  F15 UNL A   1       7.129  24.856   6.220  1.00  0.00    +0.000 F 
ENDBRANCH   72   73
TORSDOF 33
ENDMDL
MODEL 9
REMARK VINA RESULT:      -6.7     33.031     41.677
ROOT
ATOM    140  H46 UNL A   1      25.547  60.695  -1.098  1.00  0.00    +0.000 H 
ATOM    141  H47 UNL A   1      27.911  61.727  -0.725  1.00  0.00    +0.000 H 
ATOM    142  H48 UNL A   1      25.315  63.389   2.039  1.00  0.00    +0.000 H 
ATOM    143  H49 UNL A   1      24.204  67.548   6.753  1.00  0.00    +0.000 H 
ATOM    144  H50 UNL A   1      21.922  66.482   6.436  1.00  0.00    +0.000 H 
ATOM    145  H51 UNL A   1      24.529  64.734   3.710  1.00  0.00    +0.000 H 
ATOM    146  H52 UNL A   1      29.006  66.861   4.505  1.00  0.00    +0.000 H 
ATOM    147  H53 UNL A   1      29.838  65.559   2.465  1.00  0.00    +0.000 H 
ATOM    148  H54 UNL A   1      20.870  61.137   1.506  1.00  0.00    +0.000 H 
ATOM    149  H55 UNL A   1      19.876  62.801   3.177  1.00  0.00    +0.000 H 
ATOM     36  C31 UNL A   1      21.806  64.555   4.337  1.00  0.00    +0.000 C 
ATOM     37  C32 UNL A   1      22.021  63.532   3.259  1.00  0.00    +0.000 C 
ATOM     38  N3  UNL A   1      23.123  63.223   2.621  1.00  0.00    +0.000 N 
ATOM     39  C33 UNL A   1      22.779  62.209   1.738  1.00  0.00    +0.000 C 
ATOM     40  C34 UNL A   1      23.548  61.610   0.797  1.00  0.00    +0.000 C 
ATOM     52  C41 UNL A   1      24.936  61.920   0.569  1.00  0.00    +0.000 C 
ATOM     53  C42 UNL A   1      25.796  61.390  -0.378  1.00  0.00    +0.000 C 
ATOM     54  C43 UNL A   1      27.060  61.959  -0.190  1.00  0.00    +0.000 C 
ATOM     55  C44 UNL A   1      26.975  62.886   0.835  1.00  0.00    +0.000 C 
ATOM     56  N4  UNL A   1      25.669  62.844   1.300  1.00  0.00    +0.000 N 
ATOM     57  C45 UNL A   1      28.007  63.750   1.352  1.00  0.00    +0.000 C 
ATOM     69  C52 UNL A   1      27.841  64.641   2.361  1.00  0.00    +0.000 C 
ATOM     70  N5  UNL A   1      26.703  64.913   3.110  1.00  0.00    +0.000 N 
ATOM     71  C53 UNL A   1      27.060  65.821   3.987  1.00  0.00    +0.000 C 
ATOM     72  C54 UNL A   1      26.228  66.509   5.036  1.00  0.00    +0.000 C 
ATOM     84  C61 UNL A   1      24.919  66.206   5.130  1.00  0.00    +0.000 C 
ATOM     85  C62 UNL A   1      23.978  66.812   6.067  1.00  0.00    +0.000 C 
ATOM     86  C63 UNL A   1      22.769  66.256   5.891  1.00  0.00    +0.000 C 
ATOM     87  C64 UNL A   1      22.843  65.278   4.804  1.00  0.00    +0.000 C 
ATOM     88  N6  UNL A   1      24.162  65.305   4.423  1.00  0.00    +0.000 N 
ATOM     89  C65 UNL A   1      28.475  66.209   3.907  1.00  0.00    +0.000 C 
ATOM     90  C66 UNL A   1      28.888  65.502   2.866  1.00  0.00    +0.000 C 
ATOM     91  C67 UNL A   1      21.384  61.902   1.969  1.00  0.00    +0.000 C 
ATOM     92  C68 UNL A   1      20.854  62.732   2.855  1.00  0.00    +0.000 C 
ENDROOT
BRANCH   36   35
ATOM     33  C28 UNL A   1      18.305  65.905   4.860  1.00  0.00    +0.000 C 
ATOM     34  C29 UNL A   1      19.542  65.629   4.278  1.00  0.00    +0.000 C 
ATOM     35  C30 UNL A   1      20.456  64.774   4.917  1.00  0.00    +0.000 C 
ATOM    138  H44 UNL A   1      17.652  66.560   4.403  1.00  0.00    +0.000 H 
ATOM    139  H45 UNL A   1      19.787  66.055   3.369  1.00  0.00    +0.000 H 
ATOM    150  H56 UNL A   1      20.747  63.522   6.595  1.00  0.00    +0.000 H 
ATOM    151  H57 UNL A   1      18.517  63.842   7.494  1.00  0.00    +0.000 H 
ATOM     93  C69 UNL A   1      20.082  64.147   6.113  1.00  0.00    +0.000 C 
ATOM     94  C70 UNL A   1      18.817  64.365   6.657  1.00  0.00    +0.000 C 
ATOM     32  C27 UNL A   1      17.954  65.293   6.066  1.00  0.00    +0.000 C 
BRANCH   32   30
ATOM     30  C26 UNL A   1      16.648  65.641   6.669  1.00  0.00    +0.000 C 
ATOM     31  O2  UNL A   1      15.883  66.386   6.075  1.00  0.00    +0.000 O 
BRANCH   30   29
ATOM    137  H43 UNL A   1      16.905  65.439   8.641  1.00  0.00    +0.000 H 
ATOM     29  N2  UNL A   1      16.309  65.157   7.909  1.00  0.00    +0.000 N 
BRANCH   29   28
ATOM     28  C25 UNL A   1      15.211  64.296   8.308  1.00  0.00    +0.000 C 
ATOM    135  H41 UNL A   1      14.303  64.861   8.275  1.00  0.00    +0.000 H 
ATOM    136  H42 UNL A   1      15.188  63.468   7.631  1.00  0.00    +0.000 H 
BRANCH   28   27
ATOM     27  C24 UNL A   1      15.382  63.732   9.716  1.00  0.00    +0.000 C 
ATOM    133  H39 UNL A   1      16.360  63.996  10.060  1.00  0.00    +0.000 H 
ATOM    134  H40 UNL A   1      14.592  64.154  10.300  1.00  0.00    +0.000 H 
BRANCH   27   26
ATOM     26  C23 UNL A   1      15.232  62.213   9.838  1.00  0.00    +0.000 C 
ATOM    131  H37 UNL A   1      15.509  61.780   8.899  1.00  0.00    +0.000 H 
ATOM    132  H38 UNL A   1      15.864  61.924  10.652  1.00  0.00    +0.000 H 
BRANCH   26   25
ATOM     25  C22 UNL A   1      13.831  61.709  10.195  1.00  0.00    +0.000 C 
ATOM    130  H36 UNL A   1      13.180  62.553  10.101  1.00  0.00    +0.000 H 
ATOM    129  H35 UNL A   1      13.868  61.303  11.185  1.00  0.00    +0.000 H 
BRANCH   25   24
ATOM    128  H34 UNL A   1      12.196  60.667   9.322  1.00  0.00    +0.000 H 
ATOM    127  H33 UNL A   1      13.633  59.675   9.574  1.00  0.00    +0.000 H 
ATOM     24  C21 UNL A   1      13.263  60.631   9.263  1.00  0.00    +0.000 C 
BRANCH   24   23
ATOM    125  H31 UNL A   1      12.935  61.496   7.350  1.00  0.00    +0.000 H 
ATOM    126  H32 UNL A   1      14.634  61.328   7.815  1.00  0.00    +0.000 H 
ATOM     23  C20 UNL A   1      13.668  60.868   7.813  1.00  0.00    +0.000 C 
BRANCH   23   22
ATOM    124  H30 UNL A   1      13.428  59.672   6.132  1.00  0.00    +0.000 H 
ATOM     22  N1  UNL A   1      13.768  59.633   7.055  1.00  0.00    +0.000 N 
BRANCH   22   20
ATOM     20  C19 UNL A   1      14.268  58.431   7.445  1.00  0.00    +0.000 C 
ATOM     21  O1  UNL A   1      15.495  58.361   7.571  1.00  0.00    +0.000 O 
BRANCH   20   19
ATOM    122  H28 UNL A   1      12.691  57.453   8.421  1.00  0.00    +0.000 H 
ATOM     19  C18 UNL A   1      13.425  57.191   7.688  1.00  0.00    +0.000 C 
ATOM    123  H29 UNL A   1      13.071  56.935   6.711  1.00  0.00    +0.000 H 
BRANCH   19   18
ATOM    121  H27 UNL A   1      13.341  55.477   8.797  1.00  0.00    +0.000 H 
ATOM     18  C17 UNL A   1      14.085  55.916   8.166  1.00  0.00    +0.000 C 
ATOM    120  H26 UNL A   1      15.012  56.200   8.618  1.00  0.00    +0.000 H 
BRANCH   18   17
ATOM     17  C16 UNL A   1      14.404  54.799   7.176  1.00  0.00    +0.000 C 
ATOM    118  H24 UNL A   1      14.482  55.292   6.230  1.00  0.00    +0.000 H 
ATOM    119  H25 UNL A   1      15.222  54.352   7.699  1.00  0.00    +0.000 H 
BRANCH   17   16
ATOM     16  S1  UNL A   1      13.428  53.269   6.828  1.00  0.00    +0.000 S 
BRANCH   16   15
ATOM    116  H22 UNL A   1      11.561  54.386   7.827  1.00  0.00    +0.000 H 
ATOM    117  H23 UNL A   1      11.097  52.934   6.851  1.00  0.00    +0.000 H 
ATOM     15  C15 UNL A   1      11.748  53.361   7.586  1.00  0.00    +0.000 C 
BRANCH   15   14
ATOM    114  H20 UNL A   1      10.640  51.901   8.689  1.00  0.00    +0.000 H 
ATOM    115  H21 UNL A   1      12.397  51.994   9.057  1.00  0.00    +0.000 H 
ATOM     14  C14 UNL A   1      11.488  52.528   8.872  1.00  0.00    +0.000 C 
BRANCH   14   13
ATOM    113  H19 UNL A   1      10.281  53.198  10.544  1.00  0.00    +0.000 H 
ATOM     13  C13 UNL A   1      11.218  53.314  10.127  1.00  0.00    +0.000 C 
BRANCH   13   12
ATOM     12  C12 UNL A   1      12.054  54.151  10.770  1.00  0.00    +0.000 C 
ATOM    112  H18 UNL A   1      11.686  55.055  11.104  1.00  0.00    +0.000 H 
BRANCH   12   11
ATOM     11  C11 UNL A   1      13.514  53.823  11.028  1.00  0.00    +0.000 C 
ATOM    110  H16 UNL A   1      13.818  53.084  10.316  1.00  0.00    +0.000 H 
ATOM    111  H17 UNL A   1      14.046  54.748  10.937  1.00  0.00    +0.000 H 
BRANCH   11   10
ATOM     10  C10 UNL A   1      13.819  53.300  12.400  1.00  0.00    +0.000 C 
ATOM    109  H15 UNL A   1      14.105  53.972  13.128  1.00  0.00    +0.000 H 
BRANCH   10    9
ATOM      9  C9  UNL A   1      13.737  51.999  12.727  1.00  0.00    +0.000 C 
ATOM    108  H14 UNL A   1      12.799  51.571  12.784  1.00  0.00    +0.000 H 
BRANCH    9    8
ATOM    106  H12 UNL A   1      15.032  50.995  14.072  1.00  0.00    +0.000 H 
ATOM    107  H13 UNL A   1      14.804  50.170  12.558  1.00  0.00    +0.000 H 
ATOM      8  C8  UNL A   1      14.929  51.129  13.016  1.00  0.00    +0.000 C 
BRANCH    8    7
ATOM    105  H11 UNL A   1      16.466  52.672  12.935  1.00  0.00    +0.000 H 
ATOM      7  C7  UNL A   1      16.150  51.807  12.470  1.00  0.00    +0.000 C 
BRANCH    7    6
ATOM      6  C6  UNL A   1      16.858  51.368  11.420  1.00  0.00    +0.000 C 
ATOM    104  H10 UNL A   1      17.009  52.010  10.626  1.00  0.00    +0.000 H 
BRANCH    6    5
ATOM      5  C5  UNL A   1      17.444  49.987  11.342  1.00  0.00    +0.000 C 
ATOM    102  H8  UNL A   1      18.462  50.011  11.671  1.00  0.00    +0.000 H 
ATOM    103  H9  UNL A   1      16.888  49.323  11.970  1.00  0.00    +0.000 H 
BRANCH    5    4
ATOM      4  C4  UNL A   1      17.384  49.513   9.918  1.00  0.00    +0.000 C 
ATOM    101  H7  UNL A   1      18.170  49.753   9.296  1.00  0.00    +0.000 H 
BRANCH    4    3
ATOM      3  C3  UNL A   1      16.372  48.798   9.404  1.00  0.00    +0.000 C 
ATOM    100  H6  UNL A   1      16.417  48.536   8.407  1.00  0.00    +0.000 H 
BRANCH    3    2
ATOM      2  C2  UNL A   1      15.179  48.359  10.200  1.00  0.00    +0.000 C 
ATOM     99  H5  UNL A   1      15.434  48.368  11.239  1.00  0.00    +0.000 H 
ATOM     98  H4  UNL A   1      14.897  47.372   9.897  1.00  0.00    +0.000 H 
BRANCH    2    1
ATOM      1  C1  UNL A   1      14.009  49.306   9.972  1.00  0.00    +0.000 C 
ATOM     97  H3  UNL A   1      14.147  50.190  10.559  1.00  0.00    +0.000 H 
ATOM     95  H1  UNL A   1      13.099  48.823  10.260  1.00  0.00    +0.000 H 
ATOM     96  H2  UNL A   1      13.961  49.570   8.937  1.00  0.00    +0.000 H 
ENDBRANCH    2    1
ENDBRANCH    3    2
ENDBRANCH    4    3
ENDBRANCH    5    4
ENDBRANCH    6    5
ENDBRANCH    7    6
ENDBRANCH    8    7
ENDBRANCH    9    8
ENDBRANCH   10    9
ENDBRANCH   11   10
ENDBRANCH   12   11
ENDBRANCH   13   12
ENDBRANCH   14   13
ENDBRANCH   15   14
ENDBRANCH   16   15
ENDBRANCH   17   16
ENDBRANCH   18   17
ENDBRANCH   19   18
ENDBRANCH   20   19
ENDBRANCH   22   20
ENDBRANCH   23   22
ENDBRANCH   24   23
ENDBRANCH   25   24
ENDBRANCH   26   25
ENDBRANCH   27   26
ENDBRANCH   28   27
ENDBRANCH   29   28
ENDBRANCH   30   29
ENDBRANCH   32   30
ENDBRANCH   36   35
BRANCH   40   41
ATOM     41  C35 UNL A   1      22.902  60.569  -0.072  1.00  0.00    +0.000 C 
ATOM     42  C36 UNL A   1      22.843  59.223   0.321  1.00  0.00    +0.000 C 
ATOM     43  F1  UNL A   1      23.431  58.826   1.460  1.00  0.00    +0.000 F 
ATOM     44  C37 UNL A   1      22.209  58.269  -0.472  1.00  0.00    +0.000 C 
ATOM     45  F2  UNL A   1      22.204  56.983  -0.096  1.00  0.00    +0.000 F 
ATOM     46  C38 UNL A   1      21.590  58.648  -1.654  1.00  0.00    +0.000 C 
ATOM     47  F3  UNL A   1      20.967  57.733  -2.408  1.00  0.00    +0.000 F 
ATOM     48  C39 UNL A   1      21.621  59.975  -2.054  1.00  0.00    +0.000 C 
ATOM     49  F4  UNL A   1      21.010  60.345  -3.189  1.00  0.00    +0.000 F 
ATOM     50  C40 UNL A   1      22.281  60.926  -1.279  1.00  0.00    +0.000 C 
ATOM     51  F5  UNL A   1      22.301  62.199  -1.700  1.00  0.00    +0.000 F 
ENDBRANCH   40   41
BRANCH   57   58
ATOM     65  C50 UNL A   1      31.645  62.838   0.703  1.00  0.00    +0.000 C 
ATOM     66  F9  UNL A   1      32.606  62.097   1.275  1.00  0.00    +0.000 F 
ATOM     67  C51 UNL A   1      30.382  62.904   1.284  1.00  0.00    +0.000 C 
ATOM     68  F10 UNL A   1      30.152  62.204   2.406  1.00  0.00    +0.000 F 
ATOM     58  C46 UNL A   1      29.366  63.687   0.716  1.00  0.00    +0.000 C 
ATOM     59  C47 UNL A   1      29.666  64.405  -0.451  1.00  0.00    +0.000 C 
ATOM     60  F6  UNL A   1      28.727  65.158  -1.043  1.00  0.00    +0.000 F 
ATOM     61  C48 UNL A   1      30.920  64.306  -1.050  1.00  0.00    +0.000 C 
ATOM     62  F7  UNL A   1      31.162  64.948  -2.202  1.00  0.00    +0.000 F 
ATOM     63  C49 UNL A   1      31.910  63.528  -0.470  1.00  0.00    +0.000 C 
ATOM     64  F8  UNL A   1      33.115  63.435  -1.047  1.00  0.00    +0.000 F 
ENDBRANCH   57   58
BRANCH   72   73
ATOM     73  C55 UNL A   1      26.832  67.514   5.951  1.00  0.00    +0.000 C 
ATOM     74  C56 UNL A   1      27.284  67.156   7.230  1.00  0.00    +0.000 C 
ATOM     75  F11 UNL A   1      27.183  65.884   7.644  1.00  0.00    +0.000 F 
ATOM     76  C57 UNL A   1      27.788  68.112   8.109  1.00  0.00    +0.000 C 
ATOM     77  F12 UNL A   1      28.151  67.753   9.348  1.00  0.00    +0.000 F 
ATOM     78  C58 UNL A   1      27.890  69.438   7.714  1.00  0.00    +0.000 C 
ATOM     79  F13 UNL A   1      28.373  70.357   8.561  1.00  0.00    +0.000 F 
ATOM     80  C59 UNL A   1      27.480  69.810   6.443  1.00  0.00    +0.000 C 
ATOM     81  F14 UNL A   1      27.593  71.085   6.050  1.00  0.00    +0.000 F 
ATOM     82  C60 UNL A   1      26.942  68.861   5.576  1.00  0.00    +0.000 C 
ATOM     83  F15 UNL A   1      26.532  69.257   4.362  1.00  0.00    +0.000 F 
ENDBRANCH   72   73
TORSDOF 33
ENDMDL
MODEL 10
REMARK VINA RESULT:      -6.7     37.064     43.595
ROOT
ATOM    140  H46 UNL A   1      63.131  17.385  19.293  1.00  0.00    +0.000 H 
ATOM    141  H47 UNL A   1      64.098  15.173  18.310  1.00  0.00    +0.000 H 
ATOM    142  H48 UNL A   1      61.038  16.466  15.839  1.00  0.00    +0.000 H 
ATOM    143  H49 UNL A   1      57.270  15.521  10.774  1.00  0.00    +0.000 H 
ATOM    144  H50 UNL A   1      56.384  17.716  11.693  1.00  0.00    +0.000 H 
ATOM    145  H51 UNL A   1      59.511  16.485  14.139  1.00  0.00    +0.000 H 
ATOM    146  H52 UNL A   1      61.222  12.199  12.162  1.00  0.00    +0.000 H 
ATOM    147  H53 UNL A   1      62.757  12.026  14.202  1.00  0.00    +0.000 H 
ATOM    148  H54 UNL A   1      59.434  20.884  17.579  1.00  0.00    +0.000 H 
ATOM    149  H55 UNL A   1      57.536  20.820  15.863  1.00  0.00    +0.000 H 
ATOM     36  C31 UNL A   1      57.677  18.599  14.076  1.00  0.00    +0.000 C 
ATOM     37  C32 UNL A   1      58.561  18.891  15.254  1.00  0.00    +0.000 C 
ATOM     38  N3  UNL A   1      59.575  18.203  15.717  1.00  0.00    +0.000 N 
ATOM     39  C33 UNL A   1      60.050  18.915  16.810  1.00  0.00    +0.000 C 
ATOM     40  C34 UNL A   1      61.033  18.575  17.679  1.00  0.00    +0.000 C 
ATOM     52  C41 UNL A   1      61.814  17.368  17.585  1.00  0.00    +0.000 C 
ATOM     53  C42 UNL A   1      62.814  16.917  18.430  1.00  0.00    +0.000 C 
ATOM     54  C43 UNL A   1      63.319  15.720  17.912  1.00  0.00    +0.000 C 
ATOM     55  C44 UNL A   1      62.596  15.394  16.777  1.00  0.00    +0.000 C 
ATOM     56  N4  UNL A   1      61.683  16.419  16.581  1.00  0.00    +0.000 N 
ATOM     57  C45 UNL A   1      62.724  14.232  15.935  1.00  0.00    +0.000 C 
ATOM     69  C52 UNL A   1      61.969  13.981  14.837  1.00  0.00    +0.000 C 
ATOM     70  N5  UNL A   1      60.953  14.746  14.280  1.00  0.00    +0.000 N 
ATOM     71  C53 UNL A   1      60.562  14.099  13.208  1.00  0.00    +0.000 C 
ATOM     72  C54 UNL A   1      59.470  14.447  12.231  1.00  0.00    +0.000 C 
ATOM     84  C61 UNL A   1      58.743  15.561  12.439  1.00  0.00    +0.000 C 
ATOM     85  C62 UNL A   1      57.632  16.011  11.606  1.00  0.00    +0.000 C 
ATOM     86  C63 UNL A   1      57.157  17.165  12.100  1.00  0.00    +0.000 C 
ATOM     87  C64 UNL A   1      57.908  17.518  13.305  1.00  0.00    +0.000 C 
ATOM     88  N6  UNL A   1      58.839  16.516  13.421  1.00  0.00    +0.000 N 
ATOM     89  C65 UNL A   1      61.305  12.858  12.953  1.00  0.00    +0.000 C 
ATOM     90  C66 UNL A   1      62.110  12.806  14.004  1.00  0.00    +0.000 C 
ATOM     91  C67 UNL A   1      59.262  20.124  16.903  1.00  0.00    +0.000 C 
ATOM     92  C68 UNL A   1      58.289  20.129  16.002  1.00  0.00    +0.000 C 
ENDROOT
BRANCH   36   35
ATOM     33  C28 UNL A   1      54.190  20.067  13.887  1.00  0.00    +0.000 C 
ATOM     34  C29 UNL A   1      55.271  19.275  14.272  1.00  0.00    +0.000 C 
ATOM     35  C30 UNL A   1      56.548  19.502  13.731  1.00  0.00    +0.000 C 
ATOM    138  H44 UNL A   1      53.247  19.875  14.261  1.00  0.00    +0.000 H 
ATOM    139  H45 UNL A   1      55.133  18.518  14.960  1.00  0.00    +0.000 H 
ATOM    150  H56 UNL A   1      57.669  20.751  12.445  1.00  0.00    +0.000 H 
ATOM    151  H57 UNL A   1      55.830  22.251  11.944  1.00  0.00    +0.000 H 
ATOM     93  C69 UNL A   1      56.737  20.578  12.853  1.00  0.00    +0.000 C 
ATOM     94  C70 UNL A   1      55.671  21.415  12.527  1.00  0.00    +0.000 C 
ATOM     32  C27 UNL A   1      54.386  21.121  12.992  1.00  0.00    +0.000 C 
BRANCH   32   30
ATOM     30  C26 UNL A   1      53.205  21.915  12.581  1.00  0.00    +0.000 C 
ATOM     31  O2  UNL A   1      53.227  23.132  12.680  1.00  0.00    +0.000 O 
BRANCH   30   29
ATOM    137  H43 UNL A   1      51.281  21.389  12.696  1.00  0.00    +0.000 H 
ATOM     29  N2  UNL A   1      52.074  21.284  12.124  1.00  0.00    +0.000 N 
BRANCH   29   28
ATOM     28  C25 UNL A   1      51.868  20.486  10.928  1.00  0.00    +0.000 C 
ATOM    135  H41 UNL A   1      51.488  21.121  10.155  1.00  0.00    +0.000 H 
ATOM    136  H42 UNL A   1      52.811  20.056  10.661  1.00  0.00    +0.000 H 
BRANCH   28   27
ATOM     27  C24 UNL A   1      50.885  19.340  11.144  1.00  0.00    +0.000 C 
ATOM    133  H39 UNL A   1      50.599  19.340  12.175  1.00  0.00    +0.000 H 
ATOM    134  H40 UNL A   1      50.072  19.518  10.472  1.00  0.00    +0.000 H 
BRANCH   27   26
ATOM     26  C23 UNL A   1      51.417  17.946  10.802  1.00  0.00    +0.000 C 
ATOM    131  H37 UNL A   1      51.187  17.297  11.621  1.00  0.00    +0.000 H 
ATOM    132  H38 UNL A   1      50.940  17.670   9.884  1.00  0.00    +0.000 H 
BRANCH   26   25
ATOM     25  C22 UNL A   1      52.923  17.855  10.534  1.00  0.00    +0.000 C 
ATOM    130  H36 UNL A   1      53.384  17.713  11.489  1.00  0.00    +0.000 H 
ATOM    129  H35 UNL A   1      53.226  18.754  10.039  1.00  0.00    +0.000 H 
BRANCH   25   24
ATOM    128  H34 UNL A   1      54.065  16.087  10.235  1.00  0.00    +0.000 H 
ATOM    127  H33 UNL A   1      53.813  17.040   8.772  1.00  0.00    +0.000 H 
ATOM     24  C21 UNL A   1      53.365  16.667   9.671  1.00  0.00    +0.000 C 
BRANCH   24   23
ATOM    125  H31 UNL A   1      52.448  14.755   9.533  1.00  0.00    +0.000 H 
ATOM    126  H32 UNL A   1      51.341  16.095   9.863  1.00  0.00    +0.000 H 
ATOM     23  C20 UNL A   1      52.191  15.768   9.301  1.00  0.00    +0.000 C 
BRANCH   23   22
ATOM    124  H30 UNL A   1      51.984  15.027   7.373  1.00  0.00    +0.000 H 
ATOM     22  N1  UNL A   1      51.849  15.852   7.893  1.00  0.00    +0.000 N 
BRANCH   22   20
ATOM     20  C19 UNL A   1      51.367  16.912   7.193  1.00  0.00    +0.000 C 
ATOM     21  O1  UNL A   1      50.278  17.365   7.563  1.00  0.00    +0.000 O 
BRANCH   20   19
ATOM    122  H28 UNL A   1      51.647  17.057   5.120  1.00  0.00    +0.000 H 
ATOM     19  C18 UNL A   1      52.056  17.530   5.988  1.00  0.00    +0.000 C 
ATOM    123  H29 UNL A   1      51.874  18.577   6.107  1.00  0.00    +0.000 H 
BRANCH   19   18
ATOM    121  H27 UNL A   1      53.890  17.392   6.879  1.00  0.00    +0.000 H 
ATOM     18  C17 UNL A   1      53.562  17.448   5.862  1.00  0.00    +0.000 C 
ATOM    120  H26 UNL A   1      53.869  18.298   5.290  1.00  0.00    +0.000 H 
BRANCH   18   17
ATOM     17  C16 UNL A   1      54.213  16.227   5.219  1.00  0.00    +0.000 C 
ATOM    118  H24 UNL A   1      53.860  15.398   5.795  1.00  0.00    +0.000 H 
ATOM    119  H25 UNL A   1      53.944  16.421   4.202  1.00  0.00    +0.000 H 
BRANCH   17   16
ATOM     16  S1  UNL A   1      56.014  15.892   4.970  1.00  0.00    +0.000 S 
BRANCH   16   15
ATOM    116  H22 UNL A   1      56.045  15.098   7.228  1.00  0.00    +0.000 H 
ATOM    117  H23 UNL A   1      57.489  14.588   6.262  1.00  0.00    +0.000 H 
ATOM     15  C15 UNL A   1      56.822  15.376   6.546  1.00  0.00    +0.000 C 
BRANCH   15   14
ATOM    114  H20 UNL A   1      58.540  15.882   7.714  1.00  0.00    +0.000 H 
ATOM    115  H21 UNL A   1      58.017  17.115   6.515  1.00  0.00    +0.000 H 
ATOM     14  C14 UNL A   1      57.725  16.413   7.270  1.00  0.00    +0.000 C 
BRANCH   14   13
ATOM    113  H19 UNL A   1      57.225  16.917   9.318  1.00  0.00    +0.000 H 
ATOM     13  C13 UNL A   1      57.063  17.230   8.348  1.00  0.00    +0.000 C 
BRANCH   13   12
ATOM     12  C12 UNL A   1      56.285  18.318   8.197  1.00  0.00    +0.000 C 
ATOM    112  H18 UNL A   1      55.847  18.487   7.278  1.00  0.00    +0.000 H 
BRANCH   12   11
ATOM     11  C11 UNL A   1      56.024  19.307   9.318  1.00  0.00    +0.000 C 
ATOM    110  H16 UNL A   1      55.272  18.893   9.957  1.00  0.00    +0.000 H 
ATOM    111  H17 UNL A   1      56.964  19.458   9.806  1.00  0.00    +0.000 H 
BRANCH   11   10
ATOM     10  C10 UNL A   1      55.561  20.664   8.877  1.00  0.00    +0.000 C 
ATOM    109  H15 UNL A   1      54.573  20.782   8.608  1.00  0.00    +0.000 H 
BRANCH   10    9
ATOM      9  C9  UNL A   1      56.372  21.734   8.815  1.00  0.00    +0.000 C 
ATOM    108  H14 UNL A   1      55.994  22.608   8.416  1.00  0.00    +0.000 H 
BRANCH    9    8
ATOM    106  H12 UNL A   1      57.985  22.619   9.870  1.00  0.00    +0.000 H 
ATOM    107  H13 UNL A   1      57.981  20.879   9.908  1.00  0.00    +0.000 H 
ATOM      8  C8  UNL A   1      57.798  21.737   9.294  1.00  0.00    +0.000 C 
BRANCH    8    7
ATOM    105  H11 UNL A   1      59.336  22.513   7.959  1.00  0.00    +0.000 H 
ATOM      7  C7  UNL A   1      58.697  21.714   8.095  1.00  0.00    +0.000 C 
BRANCH    7    6
ATOM      6  C6  UNL A   1      58.729  20.729   7.185  1.00  0.00    +0.000 C 
ATOM    104  H10 UNL A   1      57.931  20.634   6.537  1.00  0.00    +0.000 H 
BRANCH    6    5
ATOM      5  C5  UNL A   1      59.868  19.759   7.063  1.00  0.00    +0.000 C 
ATOM    102  H8  UNL A   1      59.509  18.832   6.669  1.00  0.00    +0.000 H 
ATOM    103  H9  UNL A   1      60.612  20.156   6.405  1.00  0.00    +0.000 H 
BRANCH    5    4
ATOM      4  C4  UNL A   1      60.462  19.532   8.425  1.00  0.00    +0.000 C 
ATOM    101  H7  UNL A   1      61.069  20.268   8.815  1.00  0.00    +0.000 H 
BRANCH    4    3
ATOM      3  C3  UNL A   1      60.254  18.433   9.165  1.00  0.00    +0.000 C 
ATOM    100  H6  UNL A   1      59.919  17.581   8.689  1.00  0.00    +0.000 H 
BRANCH    3    2
ATOM      2  C2  UNL A   1      60.481  18.376  10.647  1.00  0.00    +0.000 C 
ATOM     99  H5  UNL A   1      61.529  18.271  10.832  1.00  0.00    +0.000 H 
ATOM     98  H4  UNL A   1      59.949  17.542  11.053  1.00  0.00    +0.000 H 
BRANCH    2    1
ATOM      1  C1  UNL A   1      59.990  19.655  11.310  1.00  0.00    +0.000 C 
ATOM     97  H3  UNL A   1      60.738  20.016  11.985  1.00  0.00    +0.000 H 
ATOM     95  H1  UNL A   1      59.089  19.453  11.850  1.00  0.00    +0.000 H 
ATOM     96  H2  UNL A   1      59.799  20.395  10.562  1.00  0.00    +0.000 H 
ENDBRANCH    2    1
ENDBRANCH    3    2
ENDBRANCH    4    3
ENDBRANCH    5    4
ENDBRANCH    6    5
ENDBRANCH    7    6
ENDBRANCH    8    7
ENDBRANCH    9    8
ENDBRANCH   10    9
ENDBRANCH   11   10
ENDBRANCH   12   11
ENDBRANCH   13   12
ENDBRANCH   14   13
ENDBRANCH   15   14
ENDBRANCH   16   15
ENDBRANCH   17   16
ENDBRANCH   18   17
ENDBRANCH   19   18
ENDBRANCH   20   19
ENDBRANCH   22   20
ENDBRANCH   23   22
ENDBRANCH   24   23
ENDBRANCH   25   24
ENDBRANCH   26   25
ENDBRANCH   27   26
ENDBRANCH   28   27
ENDBRANCH   29   28
ENDBRANCH   30   29
ENDBRANCH   32   30
ENDBRANCH   36   35
BRANCH   40   41
ATOM     41  C35 UNL A   1      61.309  19.512  18.820  1.00  0.00    +0.000 C 
ATOM     42  C36 UNL A   1      60.599  19.421  20.027  1.00  0.00    +0.000 C 
ATOM     43  F1  UNL A   1      59.603  18.532  20.160  1.00  0.00    +0.000 F 
ATOM     44  C37 UNL A   1      60.887  20.269  21.095  1.00  0.00    +0.000 C 
ATOM     45  F2  UNL A   1      60.166  20.191  22.222  1.00  0.00    +0.000 F 
ATOM     46  C38 UNL A   1      61.912  21.196  20.990  1.00  0.00    +0.000 C 
ATOM     47  F3  UNL A   1      62.197  22.000  22.024  1.00  0.00    +0.000 F 
ATOM     48  C39 UNL A   1      62.637  21.293  19.813  1.00  0.00    +0.000 C 
ATOM     49  F4  UNL A   1      63.638  22.179  19.715  1.00  0.00    +0.000 F 
ATOM     50  C40 UNL A   1      62.332  20.468  18.732  1.00  0.00    +0.000 C 
ATOM     51  F5  UNL A   1      63.046  20.595  17.604  1.00  0.00    +0.000 F 
ENDBRANCH   40   41
BRANCH   57   58
ATOM     65  C50 UNL A   1      65.970  12.244  16.022  1.00  0.00    +0.000 C 
ATOM     66  F9  UNL A   1      67.160  12.248  15.404  1.00  0.00    +0.000 F 
ATOM     67  C51 UNL A   1      65.011  13.195  15.687  1.00  0.00    +0.000 C 
ATOM     68  F10 UNL A   1      65.311  14.112  14.754  1.00  0.00    +0.000 F 
ATOM     58  C46 UNL A   1      63.751  13.200  16.305  1.00  0.00    +0.000 C 
ATOM     59  C47 UNL A   1      63.489  12.212  17.266  1.00  0.00    +0.000 C 
ATOM     60  F6  UNL A   1      62.306  12.180  17.898  1.00  0.00    +0.000 F 
ATOM     61  C48 UNL A   1      64.465  11.285  17.625  1.00  0.00    +0.000 C 
ATOM     62  F7  UNL A   1      64.214  10.394  18.595  1.00  0.00    +0.000 F 
ATOM     63  C49 UNL A   1      65.702  11.298  17.000  1.00  0.00    +0.000 C 
ATOM     64  F8  UNL A   1      66.639  10.406  17.347  1.00  0.00    +0.000 F 
ENDBRANCH   57   58
BRANCH   72   73
ATOM     73  C55 UNL A   1      59.188  13.575  11.060  1.00  0.00    +0.000 C 
ATOM     74  C56 UNL A   1      58.554  12.334  11.212  1.00  0.00    +0.000 C 
ATOM     75  F11 UNL A   1      58.182  11.917  12.432  1.00  0.00    +0.000 F 
ATOM     76  C57 UNL A   1      58.350  11.490  10.122  1.00  0.00    +0.000 C 
ATOM     77  F12 UNL A   1      57.801  10.281  10.308  1.00  0.00    +0.000 F 
ATOM     78  C58 UNL A   1      58.738  11.888   8.852  1.00  0.00    +0.000 C 
ATOM     79  F13 UNL A   1      58.544  11.075   7.804  1.00  0.00    +0.000 F 
ATOM     80  C59 UNL A   1      59.336  13.125   8.671  1.00  0.00    +0.000 C 
ATOM     81  F14 UNL A   1      59.696  13.521   7.443  1.00  0.00    +0.000 F 
ATOM     82  C60 UNL A   1      59.574  13.953   9.766  1.00  0.00    +0.000 C 
ATOM     83  F15 UNL A   1      60.177  15.133   9.561  1.00  0.00    +0.000 F 
ENDBRANCH   72   73
TORSDOF 33
ENDMDL
