MODEL 1
REMARK VINA RESULT:      -9.7      0.000      0.000
ROOT
ATOM     28  C19 UNL A   1      53.048  20.185  11.646  1.00  0.00    +0.000 C 
ATOM     29  C20 UNL A   1      52.848  20.768  13.015  1.00  0.00    +0.000 C 
ATOM     30  N5  UNL A   1      53.702  20.877  14.002  1.00  0.00    +0.000 N 
ATOM     31  C21 UNL A   1      53.020  21.533  15.018  1.00  0.00    +0.000 C 
ATOM     32  C22 UNL A   1      53.447  21.827  16.271  1.00  0.00    +0.000 C 
ATOM     44  C29 UNL A   1      54.751  21.492  16.781  1.00  0.00    +0.000 C 
ATOM     45  C30 UNL A   1      55.257  21.685  18.054  1.00  0.00    +0.000 C 
ATOM     46  C31 UNL A   1      56.585  21.243  18.069  1.00  0.00    +0.000 C 
ATOM     47  C32 UNL A   1      56.892  20.732  16.819  1.00  0.00    +0.000 C 
ATOM     48  N6  UNL A   1      55.759  20.895  16.037  1.00  0.00    +0.000 N 
ATOM     49  C33 UNL A   1      58.126  20.139  16.369  1.00  0.00    +0.000 C 
ATOM     61  C40 UNL A   1      58.344  19.646  15.124  1.00  0.00    +0.000 C 
ATOM     62  N7  UNL A   1      57.480  19.603  14.040  1.00  0.00    +0.000 N 
ATOM     63  C41 UNL A   1      58.154  19.047  13.063  1.00  0.00    +0.000 C 
ATOM     64  C42 UNL A   1      57.706  18.731  11.663  1.00  0.00    +0.000 C 
ATOM     76  C49 UNL A   1      56.430  18.974  11.308  1.00  0.00    +0.000 C 
ATOM     77  C50 UNL A   1      55.851  18.700   9.997  1.00  0.00    +0.000 C 
ATOM     78  C51 UNL A   1      54.575  19.116   9.986  1.00  0.00    +0.000 C 
ATOM     79  C52 UNL A   1      54.239  19.660  11.303  1.00  0.00    +0.000 C 
ATOM     80  N8  UNL A   1      55.396  19.516  12.028  1.00  0.00    +0.000 N 
ATOM     81  C53 UNL A   1      59.535  18.689  13.413  1.00  0.00    +0.000 C 
ATOM     82  C54 UNL A   1      59.589  19.045  14.690  1.00  0.00    +0.000 C 
ATOM     83  C55 UNL A   1      51.703  21.847  14.510  1.00  0.00    +0.000 C 
ATOM     84  C56 UNL A   1      51.522  21.334  13.302  1.00  0.00    +0.000 C 
ATOM    117  H22 UNL A   1      54.743  22.085  18.855  1.00  0.00    +0.000 H 
ATOM    118  H23 UNL A   1      57.227  21.289  18.877  1.00  0.00    +0.000 H 
ATOM    119  H24 UNL A   1      55.680  20.626  15.093  1.00  0.00    +0.000 H 
ATOM    120  H25 UNL A   1      56.343  18.258   9.204  1.00  0.00    +0.000 H 
ATOM    121  H26 UNL A   1      53.933  19.063   9.180  1.00  0.00    +0.000 H 
ATOM    122  H27 UNL A   1      55.474  19.778  12.975  1.00  0.00    +0.000 H 
ATOM    123  H28 UNL A   1      60.271  18.271  12.822  1.00  0.00    +0.000 H 
ATOM    124  H29 UNL A   1      60.413  18.910  15.297  1.00  0.00    +0.000 H 
ATOM    125  H30 UNL A   1      50.996  22.400  15.021  1.00  0.00    +0.000 H 
ATOM    126  H31 UNL A   1      50.672  21.331  12.716  1.00  0.00    +0.000 H 
ENDROOT
BRANCH   28   27
ATOM    115  H20 UNL A   1      49.540  18.384   9.233  1.00  0.00    +0.000 H 
ATOM    116  H21 UNL A   1      51.239  18.286  10.964  1.00  0.00    +0.000 H 
ATOM     85  C57 UNL A   1      51.754  21.432   9.913  1.00  0.00    +0.000 C 
ATOM     86  C58 UNL A   1      50.725  21.513   8.976  1.00  0.00    +0.000 C 
ATOM     24  C15 UNL A   1      49.956  20.383   8.687  1.00  0.00    +0.000 C 
ATOM     25  C16 UNL A   1      50.135  19.206   9.420  1.00  0.00    +0.000 C 
ATOM     26  C17 UNL A   1      51.122  19.145  10.406  1.00  0.00    +0.000 C 
ATOM     27  C18 UNL A   1      51.958  20.249  10.640  1.00  0.00    +0.000 C 
ATOM    127  H32 UNL A   1      52.369  22.245  10.072  1.00  0.00    +0.000 H 
ATOM    128  H33 UNL A   1      50.533  22.406   8.497  1.00  0.00    +0.000 H 
BRANCH   24   22
ATOM     22  C14 UNL A   1      48.928  20.407   7.624  1.00  0.00    +0.000 C 
ATOM     23  O4  UNL A   1      48.363  21.461   7.348  1.00  0.00    +0.000 O 
BRANCH   22   21
ATOM    114  H19 UNL A   1      48.412  18.475   7.542  1.00  0.00    +0.000 H 
ATOM     21  N4  UNL A   1      48.592  19.252   6.965  1.00  0.00    +0.000 N 
BRANCH   21   20
ATOM    113  H18 UNL A   1      49.213  18.295   5.264  1.00  0.00    +0.000 H 
ATOM     20  C13 UNL A   1      48.467  19.011   5.539  1.00  0.00    +0.000 C 
ATOM    112  H17 UNL A   1      48.602  19.938   5.021  1.00  0.00    +0.000 H 
BRANCH   20   19
ATOM     19  C12 UNL A   1      47.107  18.434   5.163  1.00  0.00    +0.000 C 
ATOM    110  H15 UNL A   1      47.058  17.432   5.538  1.00  0.00    +0.000 H 
ATOM    111  H16 UNL A   1      46.377  19.087   5.595  1.00  0.00    +0.000 H 
BRANCH   19   18
ATOM     18  C11 UNL A   1      46.809  18.395   3.662  1.00  0.00    +0.000 C 
ATOM    108  H13 UNL A   1      47.419  19.134   3.186  1.00  0.00    +0.000 H 
ATOM    109  H14 UNL A   1      47.017  17.394   3.348  1.00  0.00    +0.000 H 
BRANCH   18   17
ATOM     17  C10 UNL A   1      45.352  18.662   3.270  1.00  0.00    +0.000 C 
ATOM    106  H11 UNL A   1      44.873  17.718   3.116  1.00  0.00    +0.000 H 
ATOM    107  H12 UNL A   1      44.932  19.233   4.072  1.00  0.00    +0.000 H 
BRANCH   17   16
ATOM    105  H10 UNL A   1      45.616  18.961   1.207  1.00  0.00    +0.000 H 
ATOM    104  H9  UNL A   1      45.595  20.464   2.171  1.00  0.00    +0.000 H 
ATOM     16  C9  UNL A   1      45.154  19.503   2.005  1.00  0.00    +0.000 C 
BRANCH   16   15
ATOM    103  H8  UNL A   1      43.408  18.916   0.945  1.00  0.00    +0.000 H 
ATOM    102  H7  UNL A   1      43.603  20.655   1.105  1.00  0.00    +0.000 H 
ATOM     15  C8  UNL A   1      43.698  19.711   1.600  1.00  0.00    +0.000 C 
BRANCH   15   14
ATOM    101  H6  UNL A   1      43.061  20.388   3.418  1.00  0.00    +0.000 H 
ATOM     14  N3  UNL A   1      42.832  19.694   2.759  1.00  0.00    +0.000 N 
BRANCH   14   12
ATOM     12  C7  UNL A   1      41.763  18.927   3.143  1.00  0.00    +0.000 C 
ATOM     13  O3  UNL A   1      42.010  17.873   3.727  1.00  0.00    +0.000 O 
BRANCH   12   11
ATOM    129  H34 UNL A   1      39.229  19.126   4.659  1.00  0.00    +0.000 H 
ATOM    130  H35 UNL A   1      39.052  17.739   3.711  1.00  0.00    +0.000 H 
ATOM    131  H36 UNL A   1      37.312  18.841   2.419  1.00  0.00    +0.000 H 
ATOM      9  N1  UNL A   1      38.703  20.347   1.949  1.00  0.00    +0.000 N 
ATOM     10  N2  UNL A   1      40.020  20.032   1.826  1.00  0.00    +0.000 N 
ATOM     11  C6  UNL A   1      40.314  19.262   2.830  1.00  0.00    +0.000 C 
ATOM     87  C59 UNL A   1      39.151  18.801   3.642  1.00  0.00    +0.000 C 
ATOM     88  C60 UNL A   1      37.995  19.499   2.915  1.00  0.00    +0.000 C 
BRANCH    9    8
ATOM     99  H4  UNL A   1      35.135  20.916  -0.833  1.00  0.00    +0.000 H 
ATOM    100  H5  UNL A   1      36.202  19.902   1.098  1.00  0.00    +0.000 H 
ATOM      5  C2  UNL A   1      36.815  22.081  -1.376  1.00  0.00    +0.000 C 
ATOM      6  C3  UNL A   1      36.106  21.165  -0.590  1.00  0.00    +0.000 C 
ATOM      7  C4  UNL A   1      36.722  20.587   0.527  1.00  0.00    +0.000 C 
ATOM    136  H41 UNL A   1      38.647  23.101  -1.627  1.00  0.00    +0.000 H 
ATOM    135  H40 UNL A   1      39.690  22.101   0.311  1.00  0.00    +0.000 H 
ATOM      8  C5  UNL A   1      38.034  20.927   0.877  1.00  0.00    +0.000 C 
ATOM     94  C65 UNL A   1      38.720  21.846   0.070  1.00  0.00    +0.000 C 
ATOM     95  C66 UNL A   1      38.123  22.425  -1.049  1.00  0.00    +0.000 C 
BRANCH    5    2
ATOM      2  S1  UNL A   1      36.016  22.745  -2.816  1.00  0.00    +0.000 S 
ATOM      3  O1  UNL A   1      36.391  21.887  -3.923  1.00  0.00    +0.000 O 
ATOM      4  O2  UNL A   1      36.303  24.166  -2.834  1.00  0.00    +0.000 O 
BRANCH    2    1
ATOM      1  C1  UNL A   1      34.270  22.567  -2.566  1.00  0.00    +0.000 C 
ATOM     98  H3  UNL A   1      33.771  22.580  -3.514  1.00  0.00    +0.000 H 
ATOM     97  H2  UNL A   1      34.073  21.640  -2.072  1.00  0.00    +0.000 H 
ATOM     96  H1  UNL A   1      33.912  23.376  -1.965  1.00  0.00    +0.000 H 
ENDBRANCH    2    1
ENDBRANCH    5    2
ENDBRANCH    9    8
BRANCH   88   89
ATOM    132  H37 UNL A   1      37.194  22.338   3.596  1.00  0.00    +0.000 H 
ATOM    133  H38 UNL A   1      35.441  22.417   5.585  1.00  0.00    +0.000 H 
ATOM    134  H39 UNL A   1      34.915  19.966   6.209  1.00  0.00    +0.000 H 
ATOM     89  C61 UNL A   1      37.056  20.195   3.856  1.00  0.00    +0.000 C 
ATOM     90  C62 UNL A   1      36.788  21.530   4.093  1.00  0.00    +0.000 C 
ATOM     91  C63 UNL A   1      35.846  21.573   5.150  1.00  0.00    +0.000 C 
ATOM     92  C64 UNL A   1      35.579  20.266   5.477  1.00  0.00    +0.000 C 
ATOM     93  O5  UNL A   1      36.310  19.425   4.706  1.00  0.00    +0.000 O 
ENDBRANCH   88   89
ENDBRANCH   12   11
ENDBRANCH   14   12
ENDBRANCH   15   14
ENDBRANCH   16   15
ENDBRANCH   17   16
ENDBRANCH   18   17
ENDBRANCH   19   18
ENDBRANCH   20   19
ENDBRANCH   21   20
ENDBRANCH   22   21
ENDBRANCH   24   22
ENDBRANCH   28   27
BRANCH   32   33
ATOM     33  C23 UNL A   1      52.487  22.547  17.172  1.00  0.00    +0.000 C 
ATOM     34  C24 UNL A   1      51.683  21.858  18.094  1.00  0.00    +0.000 C 
ATOM     35  F1  UNL A   1      51.744  20.520  18.173  1.00  0.00    +0.000 F 
ATOM     36  C25 UNL A   1      50.774  22.536  18.901  1.00  0.00    +0.000 C 
ATOM     37  F2  UNL A   1      49.973  21.849  19.728  1.00  0.00    +0.000 F 
ATOM     38  C26 UNL A   1      50.679  23.917  18.833  1.00  0.00    +0.000 C 
ATOM     39  F3  UNL A   1      49.802  24.569  19.609  1.00  0.00    +0.000 F 
ATOM     40  C27 UNL A   1      51.486  24.623  17.953  1.00  0.00    +0.000 C 
ATOM     41  F4  UNL A   1      51.404  25.959  17.896  1.00  0.00    +0.000 F 
ATOM     42  C28 UNL A   1      52.374  23.945  17.123  1.00  0.00    +0.000 C 
ATOM     43  F5  UNL A   1      53.124  24.655  16.265  1.00  0.00    +0.000 F 
ENDBRANCH   32   33
BRANCH   49   50
ATOM     50  C34 UNL A   1      59.253  20.037  17.354  1.00  0.00    +0.000 C 
ATOM     51  C35 UNL A   1      60.065  21.139  17.656  1.00  0.00    +0.000 C 
ATOM     52  F6  UNL A   1      59.882  22.306  17.021  1.00  0.00    +0.000 F 
ATOM     53  C36 UNL A   1      61.096  21.034  18.587  1.00  0.00    +0.000 C 
ATOM     54  F7  UNL A   1      61.887  22.088  18.828  1.00  0.00    +0.000 F 
ATOM     55  C37 UNL A   1      61.312  19.838  19.254  1.00  0.00    +0.000 C 
ATOM     56  F8  UNL A   1      62.300  19.741  20.154  1.00  0.00    +0.000 F 
ATOM     57  C38 UNL A   1      60.510  18.740  18.982  1.00  0.00    +0.000 C 
ATOM     58  F9  UNL A   1      60.712  17.586  19.635  1.00  0.00    +0.000 F 
ATOM     59  C39 UNL A   1      59.497  18.833  18.033  1.00  0.00    +0.000 C 
ATOM     60  F10 UNL A   1      58.744  17.752  17.783  1.00  0.00    +0.000 F 
ENDBRANCH   49   50
BRANCH   64   65
ATOM     65  C43 UNL A   1      58.637  18.134  10.673  1.00  0.00    +0.000 C 
ATOM     66  C44 UNL A   1      59.410  18.944   9.830  1.00  0.00    +0.000 C 
ATOM     67  F11 UNL A   1      59.276  20.278   9.877  1.00  0.00    +0.000 F 
ATOM     68  C45 UNL A   1      60.303  18.387   8.918  1.00  0.00    +0.000 C 
ATOM     69  F12 UNL A   1      61.009  19.182   8.103  1.00  0.00    +0.000 F 
ATOM     70  C46 UNL A   1      60.457  17.010   8.847  1.00  0.00    +0.000 C 
ATOM     71  F13 UNL A   1      61.326  16.474   7.979  1.00  0.00    +0.000 F 
ATOM     72  C47 UNL A   1      59.710  16.189   9.678  1.00  0.00    +0.000 C 
ATOM     73  F14 UNL A   1      59.867  14.859   9.624  1.00  0.00    +0.000 F 
ATOM     74  C48 UNL A   1      58.799  16.744  10.574  1.00  0.00    +0.000 C 
ATOM     75  F15 UNL A   1      58.088  15.927  11.365  1.00  0.00    +0.000 F 
ENDBRANCH   64   65
TORSDOF 19
ENDMDL
MODEL 2
REMARK VINA RESULT:      -9.7     20.775     26.351
ROOT
ATOM     28  C19 UNL A   1      39.787  28.707  29.439  1.00  0.00    +0.000 C 
ATOM     29  C20 UNL A   1      40.607  29.555  30.368  1.00  0.00    +0.000 C 
ATOM     30  N5  UNL A   1      41.818  29.353  30.824  1.00  0.00    +0.000 N 
ATOM     31  C21 UNL A   1      42.118  30.463  31.601  1.00  0.00    +0.000 C 
ATOM     32  C22 UNL A   1      43.228  30.701  32.343  1.00  0.00    +0.000 C 
ATOM     44  C29 UNL A   1      44.341  29.795  32.449  1.00  0.00    +0.000 C 
ATOM     45  C30 UNL A   1      45.480  29.912  33.224  1.00  0.00    +0.000 C 
ATOM     46  C31 UNL A   1      46.302  28.810  32.964  1.00  0.00    +0.000 C 
ATOM     47  C32 UNL A   1      45.655  27.982  32.062  1.00  0.00    +0.000 C 
ATOM     48  N6  UNL A   1      44.454  28.600  31.751  1.00  0.00    +0.000 N 
ATOM     49  C33 UNL A   1      46.095  26.720  31.523  1.00  0.00    +0.000 C 
ATOM     61  C40 UNL A   1      45.392  25.958  30.650  1.00  0.00    +0.000 C 
ATOM     62  N7  UNL A   1      44.147  26.200  30.088  1.00  0.00    +0.000 N 
ATOM     63  C41 UNL A   1      43.902  25.182  29.300  1.00  0.00    +0.000 C 
ATOM     64  C42 UNL A   1      42.688  24.909  28.455  1.00  0.00    +0.000 C 
ATOM     76  C49 UNL A   1      41.643  25.756  28.509  1.00  0.00    +0.000 C 
ATOM     77  C50 UNL A   1      40.396  25.608  27.764  1.00  0.00    +0.000 C 
ATOM     78  C51 UNL A   1      39.606  26.662  28.021  1.00  0.00    +0.000 C 
ATOM     79  C52 UNL A   1      40.281  27.546  28.973  1.00  0.00    +0.000 C 
ATOM     80  N8  UNL A   1      41.476  26.917  29.221  1.00  0.00    +0.000 N 
ATOM     81  C53 UNL A   1      44.977  24.182  29.258  1.00  0.00    +0.000 C 
ATOM     82  C54 UNL A   1      45.847  24.687  30.123  1.00  0.00    +0.000 C 
ATOM     83  C55 UNL A   1      40.987  31.360  31.511  1.00  0.00    +0.000 C 
ATOM     84  C56 UNL A   1      39.998  30.816  30.818  1.00  0.00    +0.000 C 
ATOM    117  H22 UNL A   1      45.689  30.681  33.881  1.00  0.00    +0.000 H 
ATOM    118  H23 UNL A   1      47.234  28.641  33.377  1.00  0.00    +0.000 H 
ATOM    119  H24 UNL A   1      43.780  28.245  31.128  1.00  0.00    +0.000 H 
ATOM    120  H25 UNL A   1      40.161  24.821  27.140  1.00  0.00    +0.000 H 
ATOM    121  H26 UNL A   1      38.672  26.825  27.613  1.00  0.00    +0.000 H 
ATOM    122  H27 UNL A   1      42.149  27.267  29.849  1.00  0.00    +0.000 H 
ATOM    123  H28 UNL A   1      45.040  23.315  28.702  1.00  0.00    +0.000 H 
ATOM    124  H29 UNL A   1      46.734  24.231  30.389  1.00  0.00    +0.000 H 
ATOM    125  H30 UNL A   1      40.956  32.303  31.931  1.00  0.00    +0.000 H 
ATOM    126  H31 UNL A   1      39.049  31.180  30.642  1.00  0.00    +0.000 H 
ENDROOT
BRANCH   28   27
ATOM    115  H20 UNL A   1      36.929  30.611  26.344  1.00  0.00    +0.000 H 
ATOM    116  H21 UNL A   1      39.088  29.742  27.034  1.00  0.00    +0.000 H 
ATOM     85  C57 UNL A   1      37.351  29.090  29.831  1.00  0.00    +0.000 C 
ATOM     86  C58 UNL A   1      36.095  29.514  29.403  1.00  0.00    +0.000 C 
ATOM     24  C15 UNL A   1      35.953  30.122  28.154  1.00  0.00    +0.000 C 
ATOM     25  C16 UNL A   1      37.044  30.197  27.282  1.00  0.00    +0.000 C 
ATOM     26  C17 UNL A   1      38.289  29.710  27.685  1.00  0.00    +0.000 C 
ATOM     27  C18 UNL A   1      38.458  29.179  28.974  1.00  0.00    +0.000 C 
ATOM    127  H32 UNL A   1      37.468  28.708  30.783  1.00  0.00    +0.000 H 
ATOM    128  H33 UNL A   1      35.271  29.379  30.010  1.00  0.00    +0.000 H 
BRANCH   24   22
ATOM     22  C14 UNL A   1      34.655  30.678  27.714  1.00  0.00    +0.000 C 
ATOM     23  O4  UNL A   1      33.870  29.970  27.090  1.00  0.00    +0.000 O 
BRANCH   22   21
ATOM    114  H19 UNL A   1      33.383  32.162  28.147  1.00  0.00    +0.000 H 
ATOM     21  N4  UNL A   1      34.338  31.984  27.985  1.00  0.00    +0.000 N 
BRANCH   21   20
ATOM    113  H18 UNL A   1      35.223  33.607  27.103  1.00  0.00    +0.000 H 
ATOM     20  C13 UNL A   1      35.208  33.143  28.066  1.00  0.00    +0.000 C 
ATOM    112  H17 UNL A   1      36.185  32.819  28.361  1.00  0.00    +0.000 H 
BRANCH   20   19
ATOM     19  C12 UNL A   1      34.711  34.176  29.071  1.00  0.00    +0.000 C 
ATOM    110  H15 UNL A   1      34.739  33.731  30.045  1.00  0.00    +0.000 H 
ATOM    111  H16 UNL A   1      35.357  35.023  28.971  1.00  0.00    +0.000 H 
BRANCH   19   18
ATOM     18  C11 UNL A   1      33.291  34.692  28.826  1.00  0.00    +0.000 C 
ATOM    108  H13 UNL A   1      33.034  34.477  27.809  1.00  0.00    +0.000 H 
ATOM    109  H14 UNL A   1      32.671  34.196  29.543  1.00  0.00    +0.000 H 
BRANCH   18   17
ATOM     17  C10 UNL A   1      33.082  36.192  29.058  1.00  0.00    +0.000 C 
ATOM    106  H11 UNL A   1      33.811  36.719  28.479  1.00  0.00    +0.000 H 
ATOM    107  H12 UNL A   1      32.073  36.396  28.770  1.00  0.00    +0.000 H 
BRANCH   17   16
ATOM    105  H10 UNL A   1      32.859  37.669  30.537  1.00  0.00    +0.000 H 
ATOM    104  H9  UNL A   1      34.232  36.560  30.806  1.00  0.00    +0.000 H 
ATOM     16  C9  UNL A   1      33.208  36.657  30.512  1.00  0.00    +0.000 C 
BRANCH   16   15
ATOM    103  H8  UNL A   1      31.787  35.145  30.972  1.00  0.00    +0.000 H 
ATOM    102  H7  UNL A   1      31.695  36.559  32.011  1.00  0.00    +0.000 H 
ATOM     15  C8  UNL A   1      32.351  35.881  31.507  1.00  0.00    +0.000 C 
BRANCH   15   14
ATOM    101  H6  UNL A   1      32.908  34.273  32.636  1.00  0.00    +0.000 H 
ATOM     14  N3  UNL A   1      33.178  35.207  32.484  1.00  0.00    +0.000 N 
BRANCH   14   12
ATOM     12  C7  UNL A   1      34.255  35.580  33.246  1.00  0.00    +0.000 C 
ATOM     13  O3  UNL A   1      34.121  36.571  33.961  1.00  0.00    +0.000 O 
BRANCH   12   11
ATOM    129  H34 UNL A   1      35.427  33.076  34.304  1.00  0.00    +0.000 H 
ATOM    130  H35 UNL A   1      36.142  34.303  35.219  1.00  0.00    +0.000 H 
ATOM    131  H36 UNL A   1      38.294  33.811  34.198  1.00  0.00    +0.000 H 
ATOM      9  N1  UNL A   1      37.417  34.181  32.323  1.00  0.00    +0.000 N 
ATOM     10  N2  UNL A   1      36.424  35.103  32.214  1.00  0.00    +0.000 N 
ATOM     11  C6  UNL A   1      35.611  34.892  33.204  1.00  0.00    +0.000 C 
ATOM     87  C59 UNL A   1      36.087  33.914  34.224  1.00  0.00    +0.000 C 
ATOM     88  C60 UNL A   1      37.441  33.510  33.626  1.00  0.00    +0.000 C 
BRANCH    9    8
ATOM     99  H4  UNL A   1      41.906  34.790  31.791  1.00  0.00    +0.000 H 
ATOM    100  H5  UNL A   1      39.940  34.462  33.179  1.00  0.00    +0.000 H 
ATOM      5  C2  UNL A   1      40.845  34.742  29.962  1.00  0.00    +0.000 C 
ATOM      6  C3  UNL A   1      40.977  34.686  31.354  1.00  0.00    +0.000 C 
ATOM      7  C4  UNL A   1      39.842  34.490  32.152  1.00  0.00    +0.000 C 
ATOM    136  H41 UNL A   1      39.496  34.637  28.341  1.00  0.00    +0.000 H 
ATOM    135  H40 UNL A   1      37.549  34.288  29.733  1.00  0.00    +0.000 H 
ATOM      8  C5  UNL A   1      38.578  34.332  31.572  1.00  0.00    +0.000 C 
ATOM     94  C65 UNL A   1      38.476  34.395  30.175  1.00  0.00    +0.000 C 
ATOM     95  C66 UNL A   1      39.595  34.596  29.368  1.00  0.00    +0.000 C 
BRANCH    5    2
ATOM      2  S1  UNL A   1      42.299  35.050  28.993  1.00  0.00    +0.000 S 
ATOM      3  O1  UNL A   1      41.863  35.784  27.822  1.00  0.00    +0.000 O 
ATOM      4  O2  UNL A   1      42.997  33.785  28.872  1.00  0.00    +0.000 O 
BRANCH    2    1
ATOM      1  C1  UNL A   1      43.336  36.128  29.946  1.00  0.00    +0.000 C 
ATOM     98  H3  UNL A   1      42.776  36.992  30.241  1.00  0.00    +0.000 H 
ATOM     97  H2  UNL A   1      43.681  35.612  30.817  1.00  0.00    +0.000 H 
ATOM     96  H1  UNL A   1      44.173  36.432  29.354  1.00  0.00    +0.000 H 
ENDBRANCH    2    1
ENDBRANCH    5    2
ENDBRANCH    9    8
BRANCH   88   89
ATOM    132  H37 UNL A   1      36.162  31.080  32.350  1.00  0.00    +0.000 H 
ATOM    133  H38 UNL A   1      37.323  28.829  33.137  1.00  0.00    +0.000 H 
ATOM    134  H39 UNL A   1      39.279  29.502  34.684  1.00  0.00    +0.000 H 
ATOM     89  C61 UNL A   1      37.645  32.023  33.612  1.00  0.00    +0.000 C 
ATOM     90  C62 UNL A   1      36.967  30.991  32.991  1.00  0.00    +0.000 C 
ATOM     91  C63 UNL A   1      37.591  29.789  33.404  1.00  0.00    +0.000 C 
ATOM     92  C64 UNL A   1      38.624  30.159  34.231  1.00  0.00    +0.000 C 
ATOM     93  O5  UNL A   1      38.662  31.507  34.368  1.00  0.00    +0.000 O 
ENDBRANCH   88   89
ENDBRANCH   12   11
ENDBRANCH   14   12
ENDBRANCH   15   14
ENDBRANCH   16   15
ENDBRANCH   17   16
ENDBRANCH   18   17
ENDBRANCH   19   18
ENDBRANCH   20   19
ENDBRANCH   21   20
ENDBRANCH   22   21
ENDBRANCH   24   22
ENDBRANCH   28   27
BRANCH   32   33
ATOM     33  C23 UNL A   1      43.284  31.998  33.096  1.00  0.00    +0.000 C 
ATOM     34  C24 UNL A   1      43.990  33.107  32.602  1.00  0.00    +0.000 C 
ATOM     35  F1  UNL A   1      44.653  33.020  31.438  1.00  0.00    +0.000 F 
ATOM     36  C25 UNL A   1      44.061  34.294  33.326  1.00  0.00    +0.000 C 
ATOM     37  F2  UNL A   1      44.792  35.317  32.861  1.00  0.00    +0.000 F 
ATOM     38  C26 UNL A   1      43.397  34.410  34.537  1.00  0.00    +0.000 C 
ATOM     39  F3  UNL A   1      43.468  35.553  35.234  1.00  0.00    +0.000 F 
ATOM     40  C27 UNL A   1      42.667  33.340  35.030  1.00  0.00    +0.000 C 
ATOM     41  F4  UNL A   1      42.014  33.455  36.195  1.00  0.00    +0.000 F 
ATOM     42  C28 UNL A   1      42.619  32.141  34.323  1.00  0.00    +0.000 C 
ATOM     43  F5  UNL A   1      41.925  31.115  34.840  1.00  0.00    +0.000 F 
ENDBRANCH   32   33
BRANCH   49   50
ATOM     50  C34 UNL A   1      47.425  26.193  31.976  1.00  0.00    +0.000 C 
ATOM     51  C35 UNL A   1      47.552  25.426  33.142  1.00  0.00    +0.000 C 
ATOM     52  F6  UNL A   1      46.481  25.191  33.915  1.00  0.00    +0.000 F 
ATOM     53  C36 UNL A   1      48.790  24.927  33.540  1.00  0.00    +0.000 C 
ATOM     54  F7  UNL A   1      48.895  24.233  34.681  1.00  0.00    +0.000 F 
ATOM     55  C37 UNL A   1      49.916  25.159  32.764  1.00  0.00    +0.000 C 
ATOM     56  F8  UNL A   1      51.105  24.673  33.144  1.00  0.00    +0.000 F 
ATOM     57  C38 UNL A   1      49.810  25.902  31.597  1.00  0.00    +0.000 C 
ATOM     58  F9  UNL A   1      50.896  26.118  30.841  1.00  0.00    +0.000 F 
ATOM     59  C39 UNL A   1      48.580  26.424  31.212  1.00  0.00    +0.000 C 
ATOM     60  F10 UNL A   1      48.509  27.148  30.084  1.00  0.00    +0.000 F 
ENDBRANCH   49   50
BRANCH   64   65
ATOM     65  C43 UNL A   1      42.611  23.710  27.584  1.00  0.00    +0.000 C 
ATOM     66  C44 UNL A   1      43.030  23.761  26.248  1.00  0.00    +0.000 C 
ATOM     67  F11 UNL A   1      43.462  24.919  25.727  1.00  0.00    +0.000 F 
ATOM     68  C45 UNL A   1      42.982  22.631  25.435  1.00  0.00    +0.000 C 
ATOM     69  F12 UNL A   1      43.361  22.714  24.153  1.00  0.00    +0.000 F 
ATOM     70  C46 UNL A   1      42.536  21.422  25.950  1.00  0.00    +0.000 C 
ATOM     71  F13 UNL A   1      42.503  20.332  25.171  1.00  0.00    +0.000 F 
ATOM     72  C47 UNL A   1      42.126  21.346  27.271  1.00  0.00    +0.000 C 
ATOM     73  F14 UNL A   1      41.709  20.176  27.777  1.00  0.00    +0.000 F 
ATOM     74  C48 UNL A   1      42.150  22.481  28.078  1.00  0.00    +0.000 C 
ATOM     75  F15 UNL A   1      41.746  22.379  29.353  1.00  0.00    +0.000 F 
ENDBRANCH   64   65
TORSDOF 19
ENDMDL
MODEL 3
REMARK VINA RESULT:      -9.6     40.228     46.352
ROOT
ATOM     28  C19 UNL A   1      25.643  36.514  45.637  1.00  0.00    +0.000 C 
ATOM     29  C20 UNL A   1      25.554  37.706  46.546  1.00  0.00    +0.000 C 
ATOM     30  N5  UNL A   1      26.482  38.572  46.872  1.00  0.00    +0.000 N 
ATOM     31  C21 UNL A   1      25.860  39.497  47.698  1.00  0.00    +0.000 C 
ATOM     32  C22 UNL A   1      26.408  40.553  48.350  1.00  0.00    +0.000 C 
ATOM     44  C29 UNL A   1      27.801  40.910  48.284  1.00  0.00    +0.000 C 
ATOM     45  C30 UNL A   1      28.467  41.918  48.957  1.00  0.00    +0.000 C 
ATOM     46  C31 UNL A   1      29.803  41.913  48.541  1.00  0.00    +0.000 C 
ATOM     47  C32 UNL A   1      29.981  40.873  47.643  1.00  0.00    +0.000 C 
ATOM     48  N6  UNL A   1      28.743  40.268  47.492  1.00  0.00    +0.000 N 
ATOM     49  C33 UNL A   1      31.188  40.459  46.974  1.00  0.00    +0.000 C 
ATOM     61  C40 UNL A   1      31.283  39.415  46.115  1.00  0.00    +0.000 C 
ATOM     62  N7  UNL A   1      30.291  38.542  45.691  1.00  0.00    +0.000 N 
ATOM     63  C41 UNL A   1      30.870  37.715  44.856  1.00  0.00    +0.000 C 
ATOM     64  C42 UNL A   1      30.277  36.553  44.109  1.00  0.00    +0.000 C 
ATOM     76  C49 UNL A   1      28.990  36.220  44.322  1.00  0.00    +0.000 C 
ATOM     77  C50 UNL A   1      28.288  35.108  43.687  1.00  0.00    +0.000 C 
ATOM     78  C51 UNL A   1      27.009  35.108  44.094  1.00  0.00    +0.000 C 
ATOM     79  C52 UNL A   1      26.810  36.206  45.042  1.00  0.00    +0.000 C 
ATOM     80  N8  UNL A   1      28.045  36.798  45.130  1.00  0.00    +0.000 N 
ATOM     81  C53 UNL A   1      32.299  37.982  44.639  1.00  0.00    +0.000 C 
ATOM     82  C54 UNL A   1      32.507  39.006  45.455  1.00  0.00    +0.000 C 
ATOM     83  C55 UNL A   1      24.465  39.121  47.781  1.00  0.00    +0.000 C 
ATOM     84  C56 UNL A   1      24.239  37.982  47.144  1.00  0.00    +0.000 C 
ATOM    117  H22 UNL A   1      28.051  42.563  49.647  1.00  0.00    +0.000 H 
ATOM    118  H23 UNL A   1      30.535  42.574  48.852  1.00  0.00    +0.000 H 
ATOM    119  H24 UNL A   1      28.558  39.497  46.909  1.00  0.00    +0.000 H 
ATOM    120  H25 UNL A   1      28.707  34.431  43.031  1.00  0.00    +0.000 H 
ATOM    121  H26 UNL A   1      26.282  34.443  43.787  1.00  0.00    +0.000 H 
ATOM    122  H27 UNL A   1      28.233  37.566  45.718  1.00  0.00    +0.000 H 
ATOM    123  H28 UNL A   1      32.966  37.499  44.017  1.00  0.00    +0.000 H 
ATOM    124  H29 UNL A   1      33.424  39.456  45.603  1.00  0.00    +0.000 H 
ATOM    125  H30 UNL A   1      23.741  39.670  48.271  1.00  0.00    +0.000 H 
ATOM    126  H31 UNL A   1      23.369  37.431  47.084  1.00  0.00    +0.000 H 
ENDROOT
BRANCH   28   27
ATOM    115  H20 UNL A   1      22.855  32.868  46.181  1.00  0.00    +0.000 H 
ATOM    116  H21 UNL A   1      24.785  34.212  46.780  1.00  0.00    +0.000 H 
ATOM     85  C57 UNL A   1      23.538  36.157  44.345  1.00  0.00    +0.000 C 
ATOM     86  C58 UNL A   1      22.386  35.425  44.059  1.00  0.00    +0.000 C 
ATOM     24  C15 UNL A   1      22.168  34.196  44.687  1.00  0.00    +0.000 C 
ATOM     25  C16 UNL A   1      23.038  33.756  45.689  1.00  0.00    +0.000 C 
ATOM     26  C17 UNL A   1      24.156  34.523  46.024  1.00  0.00    +0.000 C 
ATOM     27  C18 UNL A   1      24.429  35.715  45.333  1.00  0.00    +0.000 C 
ATOM    127  H32 UNL A   1      23.734  37.027  43.826  1.00  0.00    +0.000 H 
ATOM    128  H33 UNL A   1      21.697  35.791  43.383  1.00  0.00    +0.000 H 
BRANCH   24   22
ATOM     22  C14 UNL A   1      21.011  33.347  44.329  1.00  0.00    +0.000 C 
ATOM     23  O4  UNL A   1      19.880  33.823  44.342  1.00  0.00    +0.000 O 
BRANCH   22   21
ATOM    114  H19 UNL A   1      21.578  31.864  43.110  1.00  0.00    +0.000 H 
ATOM     21  N4  UNL A   1      21.200  32.028  44.005  1.00  0.00    +0.000 N 
BRANCH   21   20
ATOM    113  H18 UNL A   1      21.412  30.952  45.734  1.00  0.00    +0.000 H 
ATOM     20  C13 UNL A   1      20.923  30.839  44.790  1.00  0.00    +0.000 C 
ATOM    112  H17 UNL A   1      21.288  29.984  44.258  1.00  0.00    +0.000 H 
BRANCH   20   19
ATOM     19  C12 UNL A   1      19.434  30.651  45.056  1.00  0.00    +0.000 C 
ATOM    110  H15 UNL A   1      19.302  30.499  46.108  1.00  0.00    +0.000 H 
ATOM    111  H16 UNL A   1      18.953  31.534  44.690  1.00  0.00    +0.000 H 
BRANCH   19   18
ATOM     18  C11 UNL A   1      18.784  29.476  44.321  1.00  0.00    +0.000 C 
ATOM    108  H13 UNL A   1      19.499  29.087  43.626  1.00  0.00    +0.000 H 
ATOM    109  H14 UNL A   1      18.495  28.780  45.080  1.00  0.00    +0.000 H 
BRANCH   18   17
ATOM     17  C10 UNL A   1      17.505  29.806  43.545  1.00  0.00    +0.000 C 
ATOM    106  H11 UNL A   1      17.373  30.868  43.564  1.00  0.00    +0.000 H 
ATOM    107  H12 UNL A   1      17.645  29.406  42.564  1.00  0.00    +0.000 H 
BRANCH   17   16
ATOM    105  H10 UNL A   1      15.435  29.462  43.424  1.00  0.00    +0.000 H 
ATOM    104  H9  UNL A   1      16.078  29.499  45.089  1.00  0.00    +0.000 H 
ATOM     16  C9  UNL A   1      16.223  29.163  44.084  1.00  0.00    +0.000 C 
BRANCH   16   15
ATOM    103  H8  UNL A   1      15.335  27.294  44.567  1.00  0.00    +0.000 H 
ATOM    102  H7  UNL A   1      17.092  27.291  44.614  1.00  0.00    +0.000 H 
ATOM     15  C8  UNL A   1      16.228  27.638  44.087  1.00  0.00    +0.000 C 
BRANCH   15   14
ATOM    101  H6  UNL A   1      16.999  26.491  42.584  1.00  0.00    +0.000 H 
ATOM     14  N3  UNL A   1      16.256  27.118  42.737  1.00  0.00    +0.000 N 
BRANCH   14   12
ATOM     12  C7  UNL A   1      15.479  27.306  41.623  1.00  0.00    +0.000 C 
ATOM     13  O3  UNL A   1      15.143  28.459  41.361  1.00  0.00    +0.000 O 
BRANCH   12   11
ATOM    129  H34 UNL A   1      15.852  26.410  38.827  1.00  0.00    +0.000 H 
ATOM    130  H35 UNL A   1      14.280  27.027  38.873  1.00  0.00    +0.000 H 
ATOM    131  H36 UNL A   1      13.392  24.791  38.515  1.00  0.00    +0.000 H 
ATOM      9  N1  UNL A   1      14.404  24.179  40.254  1.00  0.00    +0.000 N 
ATOM     10  N2  UNL A   1      14.574  25.057  41.278  1.00  0.00    +0.000 N 
ATOM     11  C6  UNL A   1      14.957  26.179  40.747  1.00  0.00    +0.000 C 
ATOM     87  C59 UNL A   1      14.888  26.236  39.258  1.00  0.00    +0.000 C 
ATOM     88  C60 UNL A   1      14.375  24.827  38.938  1.00  0.00    +0.000 C 
BRANCH    9    8
ATOM     99  H4  UNL A   1      13.463  20.391  42.612  1.00  0.00    +0.000 H 
ATOM    100  H5  UNL A   1      14.632  22.501  42.329  1.00  0.00    +0.000 H 
ATOM      5  C2  UNL A   1      12.400  20.528  40.788  1.00  0.00    +0.000 C 
ATOM      6  C3  UNL A   1      13.295  20.966  41.771  1.00  0.00    +0.000 C 
ATOM      7  C4  UNL A   1      13.963  22.186  41.608  1.00  0.00    +0.000 C 
ATOM    136  H41 UNL A   1      11.505  20.982  38.930  1.00  0.00    +0.000 H 
ATOM    135  H40 UNL A   1      12.658  23.091  38.672  1.00  0.00    +0.000 H 
ATOM      8  C5  UNL A   1      13.733  22.983  40.481  1.00  0.00    +0.000 C 
ATOM     94  C65 UNL A   1      12.832  22.519  39.512  1.00  0.00    +0.000 C 
ATOM     95  C66 UNL A   1      12.165  21.303  39.656  1.00  0.00    +0.000 C 
BRANCH    5    2
ATOM      2  S1  UNL A   1      11.621  18.949  41.006  1.00  0.00    +0.000 S 
ATOM      3  O1  UNL A   1      10.272  19.217  41.463  1.00  0.00    +0.000 O 
ATOM      4  O2  UNL A   1      12.533  18.137  41.790  1.00  0.00    +0.000 O 
BRANCH    2    1
ATOM      1  C1  UNL A   1      11.506  18.203  39.402  1.00  0.00    +0.000 C 
ATOM     98  H3  UNL A   1      10.901  17.322  39.460  1.00  0.00    +0.000 H 
ATOM     97  H2  UNL A   1      11.063  18.896  38.718  1.00  0.00    +0.000 H 
ATOM     96  H1  UNL A   1      12.485  17.941  39.060  1.00  0.00    +0.000 H 
ENDBRANCH    2    1
ENDBRANCH    5    2
ENDBRANCH    9    8
BRANCH   88   89
ATOM    132  H37 UNL A   1      14.518  24.900  35.915  1.00  0.00    +0.000 H 
ATOM    133  H38 UNL A   1      16.266  23.144  34.969  1.00  0.00    +0.000 H 
ATOM    134  H39 UNL A   1      17.365  22.014  37.015  1.00  0.00    +0.000 H 
ATOM     89  C61 UNL A   1      15.157  24.160  37.845  1.00  0.00    +0.000 C 
ATOM     90  C62 UNL A   1      15.116  24.265  36.467  1.00  0.00    +0.000 C 
ATOM     91  C63 UNL A   1      16.055  23.334  35.962  1.00  0.00    +0.000 C 
ATOM     92  C64 UNL A   1      16.627  22.734  37.057  1.00  0.00    +0.000 C 
ATOM     93  O5  UNL A   1      16.087  23.222  38.200  1.00  0.00    +0.000 O 
ENDBRANCH   88   89
ENDBRANCH   12   11
ENDBRANCH   14   12
ENDBRANCH   15   14
ENDBRANCH   16   15
ENDBRANCH   17   16
ENDBRANCH   18   17
ENDBRANCH   19   18
ENDBRANCH   20   19
ENDBRANCH   21   20
ENDBRANCH   22   21
ENDBRANCH   24   22
ENDBRANCH   28   27
BRANCH   32   33
ATOM     33  C23 UNL A   1      25.490  41.393  49.189  1.00  0.00    +0.000 C 
ATOM     34  C24 UNL A   1      25.251  41.098  50.541  1.00  0.00    +0.000 C 
ATOM     35  F1  UNL A   1      25.832  40.032  51.111  1.00  0.00    +0.000 F 
ATOM     36  C25 UNL A   1      24.373  41.868  51.298  1.00  0.00    +0.000 C 
ATOM     37  F2  UNL A   1      24.114  41.529  52.570  1.00  0.00    +0.000 F 
ATOM     38  C26 UNL A   1      23.748  42.969  50.734  1.00  0.00    +0.000 C 
ATOM     39  F3  UNL A   1      22.901  43.707  51.464  1.00  0.00    +0.000 F 
ATOM     40  C27 UNL A   1      23.993  43.298  49.410  1.00  0.00    +0.000 C 
ATOM     41  F4  UNL A   1      23.399  44.370  48.867  1.00  0.00    +0.000 F 
ATOM     42  C28 UNL A   1      24.847  42.513  48.640  1.00  0.00    +0.000 C 
ATOM     43  F5  UNL A   1      25.044  42.845  47.355  1.00  0.00    +0.000 F 
ENDBRANCH   32   33
BRANCH   49   50
ATOM     50  C34 UNL A   1      32.444  41.227  47.260  1.00  0.00    +0.000 C 
ATOM     51  C35 UNL A   1      33.397  40.759  48.176  1.00  0.00    +0.000 C 
ATOM     52  F6  UNL A   1      33.174  39.628  48.863  1.00  0.00    +0.000 F 
ATOM     53  C36 UNL A   1      34.569  41.473  48.418  1.00  0.00    +0.000 C 
ATOM     54  F7  UNL A   1      35.445  41.028  49.329  1.00  0.00    +0.000 F 
ATOM     55  C37 UNL A   1      34.822  42.648  47.727  1.00  0.00    +0.000 C 
ATOM     56  F8  UNL A   1      35.953  43.330  47.956  1.00  0.00    +0.000 F 
ATOM     57  C38 UNL A   1      33.901  43.121  46.805  1.00  0.00    +0.000 C 
ATOM     58  F9  UNL A   1      34.150  44.252  46.129  1.00  0.00    +0.000 F 
ATOM     59  C39 UNL A   1      32.717  42.425  46.581  1.00  0.00    +0.000 C 
ATOM     60  F10 UNL A   1      31.839  42.911  45.691  1.00  0.00    +0.000 F 
ENDBRANCH   49   50
BRANCH   64   65
ATOM     65  C43 UNL A   1      31.091  35.750  43.162  1.00  0.00    +0.000 C 
ATOM     66  C44 UNL A   1      31.675  34.540  43.560  1.00  0.00    +0.000 C 
ATOM     67  F11 UNL A   1      31.542  34.118  44.826  1.00  0.00    +0.000 F 
ATOM     68  C45 UNL A   1      32.418  33.772  42.666  1.00  0.00    +0.000 C 
ATOM     69  F12 UNL A   1      32.990  32.633  43.080  1.00  0.00    +0.000 F 
ATOM     70  C46 UNL A   1      32.573  34.189  41.352  1.00  0.00    +0.000 C 
ATOM     71  F13 UNL A   1      33.277  33.444  40.489  1.00  0.00    +0.000 F 
ATOM     72  C47 UNL A   1      31.997  35.378  40.934  1.00  0.00    +0.000 C 
ATOM     73  F14 UNL A   1      32.130  35.776  39.661  1.00  0.00    +0.000 F 
ATOM     74  C48 UNL A   1      31.273  36.159  41.833  1.00  0.00    +0.000 C 
ATOM     75  F15 UNL A   1      30.727  37.305  41.402  1.00  0.00    +0.000 F 
ENDBRANCH   64   65
TORSDOF 19
ENDMDL
MODEL 4
REMARK VINA RESULT:      -9.5     43.437     49.937
ROOT
ATOM     28  C19 UNL A   1      23.410  37.368  46.799  1.00  0.00    +0.000 C 
ATOM     29  C20 UNL A   1      24.804  37.857  46.528  1.00  0.00    +0.000 C 
ATOM     30  N5  UNL A   1      25.367  38.989  46.870  1.00  0.00    +0.000 N 
ATOM     31  C21 UNL A   1      26.675  38.911  46.415  1.00  0.00    +0.000 C 
ATOM     32  C22 UNL A   1      27.647  39.855  46.465  1.00  0.00    +0.000 C 
ATOM     44  C29 UNL A   1      27.472  41.166  47.034  1.00  0.00    +0.000 C 
ATOM     45  C30 UNL A   1      28.370  42.217  47.075  1.00  0.00    +0.000 C 
ATOM     46  C31 UNL A   1      27.774  43.276  47.769  1.00  0.00    +0.000 C 
ATOM     47  C32 UNL A   1      26.487  42.902  48.121  1.00  0.00    +0.000 C 
ATOM     48  N6  UNL A   1      26.317  41.603  47.667  1.00  0.00    +0.000 N 
ATOM     49  C33 UNL A   1      25.486  43.670  48.817  1.00  0.00    +0.000 C 
ATOM     61  C40 UNL A   1      24.237  43.234  49.113  1.00  0.00    +0.000 C 
ATOM     62  N7  UNL A   1      23.654  42.006  48.836  1.00  0.00    +0.000 N 
ATOM     63  C41 UNL A   1      22.442  42.062  49.331  1.00  0.00    +0.000 C 
ATOM     64  C42 UNL A   1      21.359  41.019  49.304  1.00  0.00    +0.000 C 
ATOM     76  C49 UNL A   1      21.571  39.864  48.646  1.00  0.00    +0.000 C 
ATOM     77  C50 UNL A   1      20.608  38.775  48.517  1.00  0.00    +0.000 C 
ATOM     78  C51 UNL A   1      21.179  37.764  47.844  1.00  0.00    +0.000 C 
ATOM     79  C52 UNL A   1      22.540  38.147  47.469  1.00  0.00    +0.000 C 
ATOM     80  N8  UNL A   1      22.679  39.418  47.970  1.00  0.00    +0.000 N 
ATOM     81  C53 UNL A   1      22.123  43.331  49.998  1.00  0.00    +0.000 C 
ATOM     82  C54 UNL A   1      23.239  44.022  49.808  1.00  0.00    +0.000 C 
ATOM     83  C55 UNL A   1      26.840  37.601  45.823  1.00  0.00    +0.000 C 
ATOM     84  C56 UNL A   1      25.694  36.937  45.804  1.00  0.00    +0.000 C 
ATOM    117  H22 UNL A   1      29.317  42.221  46.664  1.00  0.00    +0.000 H 
ATOM    118  H23 UNL A   1      28.218  44.184  47.982  1.00  0.00    +0.000 H 
ATOM    119  H24 UNL A   1      25.497  41.069  47.777  1.00  0.00    +0.000 H 
ATOM    120  H25 UNL A   1      19.644  38.780  48.885  1.00  0.00    +0.000 H 
ATOM    121  H26 UNL A   1      20.731  36.860  47.626  1.00  0.00    +0.000 H 
ATOM    122  H27 UNL A   1      23.496  39.956  47.855  1.00  0.00    +0.000 H 
ATOM    123  H28 UNL A   1      21.258  43.613  50.487  1.00  0.00    +0.000 H 
ATOM    124  H29 UNL A   1      23.378  44.998  50.114  1.00  0.00    +0.000 H 
ATOM    125  H30 UNL A   1      27.735  37.231  45.463  1.00  0.00    +0.000 H 
ATOM    126  H31 UNL A   1      25.481  36.017  45.390  1.00  0.00    +0.000 H 
ENDROOT
BRANCH   28   27
ATOM    115  H20 UNL A   1      23.097  32.799  47.429  1.00  0.00    +0.000 H 
ATOM    116  H21 UNL A   1      23.663  35.042  48.166  1.00  0.00    +0.000 H 
ATOM     85  C57 UNL A   1      22.380  35.796  45.157  1.00  0.00    +0.000 C 
ATOM     86  C58 UNL A   1      21.981  34.517  44.771  1.00  0.00    +0.000 C 
ATOM     24  C15 UNL A   1      22.296  33.417  45.573  1.00  0.00    +0.000 C 
ATOM     25  C16 UNL A   1      22.901  33.608  46.819  1.00  0.00    +0.000 C 
ATOM     26  C17 UNL A   1      23.239  34.897  47.237  1.00  0.00    +0.000 C 
ATOM     27  C18 UNL A   1      23.007  35.997  46.396  1.00  0.00    +0.000 C 
ATOM    127  H32 UNL A   1      22.212  36.597  44.529  1.00  0.00    +0.000 H 
ATOM    128  H33 UNL A   1      21.456  34.384  43.893  1.00  0.00    +0.000 H 
BRANCH   24   22
ATOM     22  C14 UNL A   1      21.981  32.038  45.142  1.00  0.00    +0.000 C 
ATOM     23  O4  UNL A   1      22.843  31.167  45.210  1.00  0.00    +0.000 O 
BRANCH   22   21
ATOM    114  H19 UNL A   1      20.728  31.256  43.791  1.00  0.00    +0.000 H 
ATOM     21  N4  UNL A   1      20.737  31.739  44.649  1.00  0.00    +0.000 N 
BRANCH   21   20
ATOM    113  H18 UNL A   1      19.163  33.024  44.907  1.00  0.00    +0.000 H 
ATOM     20  C13 UNL A   1      19.431  32.034  45.210  1.00  0.00    +0.000 C 
ATOM    112  H17 UNL A   1      19.488  31.950  46.276  1.00  0.00    +0.000 H 
BRANCH   20   19
ATOM     19  C12 UNL A   1      18.351  31.084  44.702  1.00  0.00    +0.000 C 
ATOM    110  H15 UNL A   1      17.582  31.030  45.445  1.00  0.00    +0.000 H 
ATOM    111  H16 UNL A   1      18.017  31.486  43.769  1.00  0.00    +0.000 H 
BRANCH   19   18
ATOM     18  C11 UNL A   1      18.825  29.658  44.407  1.00  0.00    +0.000 C 
ATOM    108  H13 UNL A   1      19.651  29.720  43.728  1.00  0.00    +0.000 H 
ATOM    109  H14 UNL A   1      19.075  29.230  45.354  1.00  0.00    +0.000 H 
BRANCH   18   17
ATOM     17  C10 UNL A   1      17.777  28.727  43.789  1.00  0.00    +0.000 C 
ATOM    106  H11 UNL A   1      17.740  28.924  42.738  1.00  0.00    +0.000 H 
ATOM    107  H12 UNL A   1      18.088  27.733  44.031  1.00  0.00    +0.000 H 
BRANCH   17   16
ATOM    105  H10 UNL A   1      15.951  29.762  43.912  1.00  0.00    +0.000 H 
ATOM    104  H9  UNL A   1      16.421  28.917  45.413  1.00  0.00    +0.000 H 
ATOM     16  C9  UNL A   1      16.357  28.872  44.346  1.00  0.00    +0.000 C 
BRANCH   16   15
ATOM    103  H8  UNL A   1      14.428  28.143  43.833  1.00  0.00    +0.000 H 
ATOM    102  H7  UNL A   1      15.402  27.012  44.760  1.00  0.00    +0.000 H 
ATOM     15  C8  UNL A   1      15.408  27.737  43.974  1.00  0.00    +0.000 C 
BRANCH   15   14
ATOM    101  H6  UNL A   1      16.527  26.424  42.882  1.00  0.00    +0.000 H 
ATOM     14  N3  UNL A   1      15.824  27.098  42.744  1.00  0.00    +0.000 N 
BRANCH   14   12
ATOM     12  C7  UNL A   1      15.457  27.224  41.429  1.00  0.00    +0.000 C 
ATOM     13  O3  UNL A   1      15.529  28.345  40.931  1.00  0.00    +0.000 O 
BRANCH   12   11
ATOM    129  H34 UNL A   1      15.794  26.251  38.654  1.00  0.00    +0.000 H 
ATOM    130  H35 UNL A   1      14.235  26.902  38.693  1.00  0.00    +0.000 H 
ATOM    131  H36 UNL A   1      13.297  24.678  38.396  1.00  0.00    +0.000 H 
ATOM      9  N1  UNL A   1      14.306  24.088  40.144  1.00  0.00    +0.000 N 
ATOM     10  N2  UNL A   1      14.501  24.987  41.145  1.00  0.00    +0.000 N 
ATOM     11  C6  UNL A   1      14.905  26.087  40.584  1.00  0.00    +0.000 C 
ATOM     87  C59 UNL A   1      14.829  26.108  39.095  1.00  0.00    +0.000 C 
ATOM     88  C60 UNL A   1      14.283  24.703  38.813  1.00  0.00    +0.000 C 
BRANCH    9    8
ATOM     99  H4  UNL A   1      12.757  20.755  42.844  1.00  0.00    +0.000 H 
ATOM    100  H5  UNL A   1      13.935  22.849  42.490  1.00  0.00    +0.000 H 
ATOM      5  C2  UNL A   1      12.272  20.474  40.805  1.00  0.00    +0.000 C 
ATOM      6  C3  UNL A   1      12.836  21.149  41.893  1.00  0.00    +0.000 C 
ATOM      7  C4  UNL A   1      13.509  22.360  41.687  1.00  0.00    +0.000 C 
ATOM    136  H41 UNL A   1      11.955  20.508  38.717  1.00  0.00    +0.000 H 
ATOM    135  H40 UNL A   1      13.111  22.605  38.381  1.00  0.00    +0.000 H 
ATOM      8  C5  UNL A   1      13.610  22.913  40.405  1.00  0.00    +0.000 C 
ATOM     94  C65 UNL A   1      13.038  22.214  39.333  1.00  0.00    +0.000 C 
ATOM     95  C66 UNL A   1      12.371  21.004  39.521  1.00  0.00    +0.000 C 
BRANCH    5    2
ATOM      2  S1  UNL A   1      11.480  18.914  41.103  1.00  0.00    +0.000 S 
ATOM      3  O1  UNL A   1      10.182  19.216  41.673  1.00  0.00    +0.000 O 
ATOM      4  O2  UNL A   1      12.439  18.087  41.810  1.00  0.00    +0.000 O 
BRANCH    2    1
ATOM      1  C1  UNL A   1      11.210  18.162  39.521  1.00  0.00    +0.000 C 
ATOM     98  H3  UNL A   1      11.147  18.923  38.770  1.00  0.00    +0.000 H 
ATOM     97  H2  UNL A   1      12.021  17.503  39.295  1.00  0.00    +0.000 H 
ATOM     96  H1  UNL A   1      10.295  17.607  39.542  1.00  0.00    +0.000 H 
ENDBRANCH    2    1
ENDBRANCH    5    2
ENDBRANCH    9    8
BRANCH   88   89
ATOM    132  H37 UNL A   1      16.629  22.801  38.599  1.00  0.00    +0.000 H 
ATOM    133  H38 UNL A   1      17.218  22.245  36.074  1.00  0.00    +0.000 H 
ATOM    134  H39 UNL A   1      15.469  23.463  34.616  1.00  0.00    +0.000 H 
ATOM     89  C61 UNL A   1      15.044  23.992  37.733  1.00  0.00    +0.000 C 
ATOM     90  C62 UNL A   1      16.137  23.146  37.760  1.00  0.00    +0.000 C 
ATOM     91  C63 UNL A   1      16.447  22.842  36.412  1.00  0.00    +0.000 C 
ATOM     92  C64 UNL A   1      15.515  23.500  35.647  1.00  0.00    +0.000 C 
ATOM     93  O5  UNL A   1      14.667  24.204  36.435  1.00  0.00    +0.000 O 
ENDBRANCH   88   89
ENDBRANCH   12   11
ENDBRANCH   14   12
ENDBRANCH   15   14
ENDBRANCH   16   15
ENDBRANCH   17   16
ENDBRANCH   18   17
ENDBRANCH   19   18
ENDBRANCH   20   19
ENDBRANCH   21   20
ENDBRANCH   22   21
ENDBRANCH   24   22
ENDBRANCH   28   27
BRANCH   32   33
ATOM     33  C23 UNL A   1      28.985  39.497  45.887  1.00  0.00    +0.000 C 
ATOM     34  C24 UNL A   1      29.334  39.840  44.571  1.00  0.00    +0.000 C 
ATOM     35  F1  UNL A   1      28.459  40.488  43.788  1.00  0.00    +0.000 F 
ATOM     36  C25 UNL A   1      30.567  39.473  44.037  1.00  0.00    +0.000 C 
ATOM     37  F2  UNL A   1      30.852  39.759  42.759  1.00  0.00    +0.000 F 
ATOM     38  C26 UNL A   1      31.488  38.792  44.818  1.00  0.00    +0.000 C 
ATOM     39  F3  UNL A   1      32.673  38.437  44.302  1.00  0.00    +0.000 F 
ATOM     40  C27 UNL A   1      31.177  38.470  46.130  1.00  0.00    +0.000 C 
ATOM     41  F4  UNL A   1      32.072  37.822  46.889  1.00  0.00    +0.000 F 
ATOM     42  C28 UNL A   1      29.934  38.809  46.658  1.00  0.00    +0.000 C 
ATOM     43  F5  UNL A   1      29.655  38.461  47.923  1.00  0.00    +0.000 F 
ENDBRANCH   32   33
BRANCH   49   50
ATOM     50  C34 UNL A   1      25.841  45.067  49.232  1.00  0.00    +0.000 C 
ATOM     51  C35 UNL A   1      26.374  45.344  50.499  1.00  0.00    +0.000 C 
ATOM     52  F6  UNL A   1      26.528  44.357  51.396  1.00  0.00    +0.000 F 
ATOM     53  C36 UNL A   1      26.716  46.644  50.864  1.00  0.00    +0.000 C 
ATOM     54  F7  UNL A   1      27.183  46.890  52.095  1.00  0.00    +0.000 F 
ATOM     55  C37 UNL A   1      26.561  47.683  49.959  1.00  0.00    +0.000 C 
ATOM     56  F8  UNL A   1      26.897  48.932  50.309  1.00  0.00    +0.000 F 
ATOM     57  C38 UNL A   1      26.051  47.430  48.694  1.00  0.00    +0.000 C 
ATOM     58  F9  UNL A   1      25.911  48.433  47.816  1.00  0.00    +0.000 F 
ATOM     59  C39 UNL A   1      25.683  46.137  48.337  1.00  0.00    +0.000 C 
ATOM     60  F10 UNL A   1      25.182  45.923  47.111  1.00  0.00    +0.000 F 
ENDBRANCH   49   50
BRANCH   64   65
ATOM     65  C43 UNL A   1      20.050  41.252  49.965  1.00  0.00    +0.000 C 
ATOM     66  C44 UNL A   1      19.797  40.762  51.254  1.00  0.00    +0.000 C 
ATOM     67  F11 UNL A   1      20.726  40.030  51.885  1.00  0.00    +0.000 F 
ATOM     68  C45 UNL A   1      18.579  40.999  51.887  1.00  0.00    +0.000 C 
ATOM     69  F12 UNL A   1      18.352  40.495  53.107  1.00  0.00    +0.000 F 
ATOM     70  C46 UNL A   1      17.600  41.751  51.253  1.00  0.00    +0.000 C 
ATOM     71  F13 UNL A   1      16.434  41.991  51.868  1.00  0.00    +0.000 F 
ATOM     72  C47 UNL A   1      17.832  42.253  49.982  1.00  0.00    +0.000 C 
ATOM     73  F14 UNL A   1      16.895  42.993  49.373  1.00  0.00    +0.000 F 
ATOM     74  C48 UNL A   1      19.040  41.996  49.338  1.00  0.00    +0.000 C 
ATOM     75  F15 UNL A   1      19.238  42.493  48.108  1.00  0.00    +0.000 F 
ENDBRANCH   64   65
TORSDOF 19
ENDMDL
MODEL 5
REMARK VINA RESULT:      -9.3     42.230     48.620
ROOT
ATOM     28  C19 UNL A   1      23.044  38.038  48.572  1.00  0.00    +0.000 C 
ATOM     29  C20 UNL A   1      24.323  38.821  48.483  1.00  0.00    +0.000 C 
ATOM     30  N5  UNL A   1      25.448  38.506  47.892  1.00  0.00    +0.000 N 
ATOM     31  C21 UNL A   1      26.285  39.598  48.069  1.00  0.00    +0.000 C 
ATOM     32  C22 UNL A   1      27.581  39.741  47.699  1.00  0.00    +0.000 C 
ATOM     44  C29 UNL A   1      28.344  38.727  47.018  1.00  0.00    +0.000 C 
ATOM     45  C30 UNL A   1      29.680  38.746  46.659  1.00  0.00    +0.000 C 
ATOM     46  C31 UNL A   1      29.967  37.558  45.977  1.00  0.00    +0.000 C 
ATOM     47  C32 UNL A   1      28.822  36.778  45.951  1.00  0.00    +0.000 C 
ATOM     48  N6  UNL A   1      27.833  37.509  46.591  1.00  0.00    +0.000 N 
ATOM     49  C33 UNL A   1      28.642  35.464  45.389  1.00  0.00    +0.000 C 
ATOM     61  C40 UNL A   1      27.485  34.756  45.418  1.00  0.00    +0.000 C 
ATOM     62  N7  UNL A   1      26.260  35.111  45.963  1.00  0.00    +0.000 N 
ATOM     63  C41 UNL A   1      25.455  34.104  45.728  1.00  0.00    +0.000 C 
ATOM     64  C42 UNL A   1      24.011  33.936  46.113  1.00  0.00    +0.000 C 
ATOM     76  C49 UNL A   1      23.410  34.887  46.851  1.00  0.00    +0.000 C 
ATOM     77  C50 UNL A   1      22.026  34.850  47.315  1.00  0.00    +0.000 C 
ATOM     78  C51 UNL A   1      21.755  35.986  47.975  1.00  0.00    +0.000 C 
ATOM     79  C52 UNL A   1      22.958  36.820  48.007  1.00  0.00    +0.000 C 
ATOM     80  N8  UNL A   1      23.895  36.078  47.332  1.00  0.00    +0.000 N 
ATOM     81  C53 UNL A   1      26.077  32.997  44.988  1.00  0.00    +0.000 C 
ATOM     82  C54 UNL A   1      27.323  33.431  44.853  1.00  0.00    +0.000 C 
ATOM     83  C55 UNL A   1      25.522  40.606  48.774  1.00  0.00    +0.000 C 
ATOM     84  C56 UNL A   1      24.327  40.148  49.115  1.00  0.00    +0.000 C 
ATOM    117  H22 UNL A   1      30.350  39.505  46.859  1.00  0.00    +0.000 H 
ATOM    118  H23 UNL A   1      30.879  37.304  45.563  1.00  0.00    +0.000 H 
ATOM    119  H24 UNL A   1      26.905  37.210  46.723  1.00  0.00    +0.000 H 
ATOM    120  H25 UNL A   1      21.363  34.076  47.158  1.00  0.00    +0.000 H 
ATOM    121  H26 UNL A   1      20.845  36.234  48.394  1.00  0.00    +0.000 H 
ATOM    122  H27 UNL A   1      24.826  36.373  47.205  1.00  0.00    +0.000 H 
ATOM    123  H28 UNL A   1      25.656  32.114  44.660  1.00  0.00    +0.000 H 
ATOM    124  H29 UNL A   1      28.080  32.894  44.404  1.00  0.00    +0.000 H 
ATOM    125  H30 UNL A   1      25.864  41.557  48.982  1.00  0.00    +0.000 H 
ATOM    126  H31 UNL A   1      23.591  40.604  49.677  1.00  0.00    +0.000 H 
ENDROOT
BRANCH   28   27
ATOM    115  H20 UNL A   1      20.202  38.738  52.150  1.00  0.00    +0.000 H 
ATOM    116  H21 UNL A   1      22.226  37.848  51.149  1.00  0.00    +0.000 H 
ATOM     85  C57 UNL A   1      20.980  39.438  48.468  1.00  0.00    +0.000 C 
ATOM     86  C58 UNL A   1      19.862  40.016  49.066  1.00  0.00    +0.000 C 
ATOM     24  C15 UNL A   1      19.546  39.712  50.393  1.00  0.00    +0.000 C 
ATOM     25  C16 UNL A   1      20.415  38.929  51.159  1.00  0.00    +0.000 C 
ATOM     26  C17 UNL A   1      21.572  38.405  50.578  1.00  0.00    +0.000 C 
ATOM     27  C18 UNL A   1      21.848  38.632  49.221  1.00  0.00    +0.000 C 
ATOM    127  H32 UNL A   1      21.170  39.604  47.468  1.00  0.00    +0.000 H 
ATOM    128  H33 UNL A   1      19.267  40.665  48.528  1.00  0.00    +0.000 H 
BRANCH   24   22
ATOM     22  C14 UNL A   1      18.311  40.225  51.024  1.00  0.00    +0.000 C 
ATOM     23  O4  UNL A   1      18.242  41.404  51.357  1.00  0.00    +0.000 O 
BRANCH   22   21
ATOM    114  H19 UNL A   1      17.255  38.933  52.130  1.00  0.00    +0.000 H 
ATOM     21  N4  UNL A   1      17.255  39.381  51.253  1.00  0.00    +0.000 N 
BRANCH   21   20
ATOM    113  H18 UNL A   1      16.423  39.284  49.384  1.00  0.00    +0.000 H 
ATOM     20  C13 UNL A   1      16.136  39.052  50.387  1.00  0.00    +0.000 C 
ATOM    112  H17 UNL A   1      15.285  39.624  50.695  1.00  0.00    +0.000 H 
BRANCH   20   19
ATOM     19  C12 UNL A   1      15.776  37.571  50.438  1.00  0.00    +0.000 C 
ATOM    110  H15 UNL A   1      16.107  37.182  51.380  1.00  0.00    +0.000 H 
ATOM    111  H16 UNL A   1      14.716  37.518  50.304  1.00  0.00    +0.000 H 
BRANCH   19   18
ATOM     18  C11 UNL A   1      16.390  36.714  49.329  1.00  0.00    +0.000 C 
ATOM    108  H13 UNL A   1      16.959  35.934  49.792  1.00  0.00    +0.000 H 
ATOM    109  H14 UNL A   1      15.569  36.360  48.743  1.00  0.00    +0.000 H 
BRANCH   18   17
ATOM     17  C10 UNL A   1      17.312  37.454  48.354  1.00  0.00    +0.000 C 
ATOM    106  H11 UNL A   1      16.697  37.980  47.654  1.00  0.00    +0.000 H 
ATOM    107  H12 UNL A   1      17.923  38.093  48.955  1.00  0.00    +0.000 H 
BRANCH   17   16
ATOM    105  H10 UNL A   1      18.068  35.560  47.845  1.00  0.00    +0.000 H 
ATOM    104  H9  UNL A   1      19.277  36.873  47.795  1.00  0.00    +0.000 H 
ATOM     16  C9  UNL A   1      18.278  36.570  47.560  1.00  0.00    +0.000 C 
BRANCH   16   15
ATOM    103  H8  UNL A   1      18.552  37.542  45.690  1.00  0.00    +0.000 H 
ATOM    102  H7  UNL A   1      17.063  36.616  45.809  1.00  0.00    +0.000 H 
ATOM     15  C8  UNL A   1      18.106  36.636  46.046  1.00  0.00    +0.000 C 
BRANCH   15   14
ATOM    101  H6  UNL A   1      19.495  35.791  44.810  1.00  0.00    +0.000 H 
ATOM     14  N3  UNL A   1      18.759  35.516  45.403  1.00  0.00    +0.000 N 
BRANCH   14   12
ATOM     12  C7  UNL A   1      18.581  34.157  45.435  1.00  0.00    +0.000 C 
ATOM     13  O3  UNL A   1      19.299  33.516  46.200  1.00  0.00    +0.000 O 
BRANCH   12   11
ATOM    129  H34 UNL A   1      17.065  34.714  42.955  1.00  0.00    +0.000 H 
ATOM    130  H35 UNL A   1      15.893  34.666  44.171  1.00  0.00    +0.000 H 
ATOM    131  H36 UNL A   1      14.970  32.634  43.202  1.00  0.00    +0.000 H 
ATOM      9  N1  UNL A   1      16.860  31.741  43.434  1.00  0.00    +0.000 N 
ATOM     10  N2  UNL A   1      17.653  32.104  44.477  1.00  0.00    +0.000 N 
ATOM     11  C6  UNL A   1      17.611  33.401  44.542  1.00  0.00    +0.000 C 
ATOM     87  C59 UNL A   1      16.603  34.052  43.657  1.00  0.00    +0.000 C 
ATOM     88  C60 UNL A   1      15.996  32.828  42.961  1.00  0.00    +0.000 C 
BRANCH    9    8
ATOM     99  H4  UNL A   1      13.874  28.387  42.641  1.00  0.00    +0.000 H 
ATOM    100  H5  UNL A   1      14.456  30.738  42.806  1.00  0.00    +0.000 H 
ATOM      5  C2  UNL A   1      15.809  27.687  43.130  1.00  0.00    +0.000 C 
ATOM      6  C3  UNL A   1      14.837  28.664  42.886  1.00  0.00    +0.000 C 
ATOM      7  C4  UNL A   1      15.178  30.020  42.974  1.00  0.00    +0.000 C 
ATOM    136  H41 UNL A   1      17.829  27.336  43.635  1.00  0.00    +0.000 H 
ATOM    135  H40 UNL A   1      18.402  29.682  43.774  1.00  0.00    +0.000 H 
ATOM      8  C5  UNL A   1      16.485  30.410  43.290  1.00  0.00    +0.000 C 
ATOM     94  C65 UNL A   1      17.436  29.409  43.532  1.00  0.00    +0.000 C 
ATOM     95  C66 UNL A   1      17.111  28.056  43.454  1.00  0.00    +0.000 C 
BRANCH    5    2
ATOM      2  S1  UNL A   1      15.319  25.982  43.065  1.00  0.00    +0.000 S 
ATOM      3  O1  UNL A   1      16.214  25.265  43.951  1.00  0.00    +0.000 O 
ATOM      4  O2  UNL A   1      15.211  25.633  41.661  1.00  0.00    +0.000 O 
BRANCH    2    1
ATOM      1  C1  UNL A   1      13.689  25.886  43.754  1.00  0.00    +0.000 C 
ATOM     98  H3  UNL A   1      13.633  26.505  44.626  1.00  0.00    +0.000 H 
ATOM     97  H2  UNL A   1      12.976  26.221  43.032  1.00  0.00    +0.000 H 
ATOM     96  H1  UNL A   1      13.475  24.873  44.024  1.00  0.00    +0.000 H 
ENDBRANCH    2    1
ENDBRANCH    5    2
ENDBRANCH    9    8
BRANCH   88   89
ATOM    132  H37 UNL A   1      16.939  31.404  40.462  1.00  0.00    +0.000 H 
ATOM    133  H38 UNL A   1      16.236  32.706  38.261  1.00  0.00    +0.000 H 
ATOM    134  H39 UNL A   1      14.849  34.749  39.018  1.00  0.00    +0.000 H 
ATOM     89  C61 UNL A   1      15.889  33.001  41.474  1.00  0.00    +0.000 C 
ATOM     90  C62 UNL A   1      16.393  32.278  40.409  1.00  0.00    +0.000 C 
ATOM     91  C63 UNL A   1      16.011  32.968  39.234  1.00  0.00    +0.000 C 
ATOM     92  C64 UNL A   1      15.280  34.055  39.649  1.00  0.00    +0.000 C 
ATOM     93  O5  UNL A   1      15.206  34.088  41.001  1.00  0.00    +0.000 O 
ENDBRANCH   88   89
ENDBRANCH   12   11
ENDBRANCH   14   12
ENDBRANCH   15   14
ENDBRANCH   16   15
ENDBRANCH   17   16
ENDBRANCH   18   17
ENDBRANCH   19   18
ENDBRANCH   20   19
ENDBRANCH   21   20
ENDBRANCH   22   21
ENDBRANCH   24   22
ENDBRANCH   28   27
BRANCH   32   33
ATOM     33  C23 UNL A   1      28.250  41.044  48.025  1.00  0.00    +0.000 C 
ATOM     34  C24 UNL A   1      28.903  41.250  49.251  1.00  0.00    +0.000 C 
ATOM     35  F1  UNL A   1      28.925  40.277  50.175  1.00  0.00    +0.000 F 
ATOM     36  C25 UNL A   1      29.492  42.475  49.553  1.00  0.00    +0.000 C 
ATOM     37  F2  UNL A   1      30.055  42.666  50.755  1.00  0.00    +0.000 F 
ATOM     38  C26 UNL A   1      29.476  43.503  48.624  1.00  0.00    +0.000 C 
ATOM     39  F3  UNL A   1      30.040  44.682  48.917  1.00  0.00    +0.000 F 
ATOM     40  C27 UNL A   1      28.864  43.312  47.394  1.00  0.00    +0.000 C 
ATOM     41  F4  UNL A   1      28.858  44.302  46.490  1.00  0.00    +0.000 F 
ATOM     42  C28 UNL A   1      28.248  42.099  47.100  1.00  0.00    +0.000 C 
ATOM     43  F5  UNL A   1      27.643  41.954  45.910  1.00  0.00    +0.000 F 
ENDBRANCH   32   33
BRANCH   49   50
ATOM     50  C34 UNL A   1      29.826  34.814  44.737  1.00  0.00    +0.000 C 
ATOM     51  C35 UNL A   1      30.108  35.000  43.376  1.00  0.00    +0.000 C 
ATOM     52  F6  UNL A   1      29.282  35.729  42.609  1.00  0.00    +0.000 F 
ATOM     53  C36 UNL A   1      31.222  34.406  42.788  1.00  0.00    +0.000 C 
ATOM     54  F7  UNL A   1      31.449  34.563  41.477  1.00  0.00    +0.000 F 
ATOM     55  C37 UNL A   1      32.090  33.643  43.555  1.00  0.00    +0.000 C 
ATOM     56  F8  UNL A   1      33.165  33.078  42.989  1.00  0.00    +0.000 F 
ATOM     57  C38 UNL A   1      31.839  33.459  44.907  1.00  0.00    +0.000 C 
ATOM     58  F9  UNL A   1      32.682  32.730  45.651  1.00  0.00    +0.000 F 
ATOM     59  C39 UNL A   1      30.712  34.029  45.491  1.00  0.00    +0.000 C 
ATOM     60  F10 UNL A   1      30.489  33.825  46.798  1.00  0.00    +0.000 F 
ENDBRANCH   49   50
BRANCH   64   65
ATOM     65  C43 UNL A   1      23.244  32.729  45.715  1.00  0.00    +0.000 C 
ATOM     66  C44 UNL A   1      23.462  31.497  46.346  1.00  0.00    +0.000 C 
ATOM     67  F11 UNL A   1      24.409  31.387  47.290  1.00  0.00    +0.000 F 
ATOM     68  C45 UNL A   1      22.727  30.368  45.993  1.00  0.00    +0.000 C 
ATOM     69  F12 UNL A   1      22.974  29.195  46.591  1.00  0.00    +0.000 F 
ATOM     70  C46 UNL A   1      21.744  30.455  45.017  1.00  0.00    +0.000 C 
ATOM     71  F13 UNL A   1      21.027  29.372  44.686  1.00  0.00    +0.000 F 
ATOM     72  C47 UNL A   1      21.505  31.666  44.386  1.00  0.00    +0.000 C 
ATOM     73  F14 UNL A   1      20.546  31.758  43.454  1.00  0.00    +0.000 F 
ATOM     74  C48 UNL A   1      22.257  32.790  44.721  1.00  0.00    +0.000 C 
ATOM     75  F15 UNL A   1      22.005  33.948  44.094  1.00  0.00    +0.000 F 
ENDBRANCH   64   65
TORSDOF 19
ENDMDL
MODEL 6
REMARK VINA RESULT:      -9.3     41.215     48.533
ROOT
ATOM     28  C19 UNL A   1      25.227  38.221  48.344  1.00  0.00    +0.000 C 
ATOM     29  C20 UNL A   1      25.016  36.917  47.629  1.00  0.00    +0.000 C 
ATOM     30  N5  UNL A   1      25.838  36.256  46.852  1.00  0.00    +0.000 N 
ATOM     31  C21 UNL A   1      25.165  35.095  46.495  1.00  0.00    +0.000 C 
ATOM     32  C22 UNL A   1      25.564  34.112  45.651  1.00  0.00    +0.000 C 
ATOM     44  C29 UNL A   1      26.821  34.107  44.951  1.00  0.00    +0.000 C 
ATOM     45  C30 UNL A   1      27.291  33.194  44.024  1.00  0.00    +0.000 C 
ATOM     46  C31 UNL A   1      28.584  33.576  43.649  1.00  0.00    +0.000 C 
ATOM     47  C32 UNL A   1      28.903  34.753  44.307  1.00  0.00    +0.000 C 
ATOM     48  N6  UNL A   1      27.814  35.065  45.105  1.00  0.00    +0.000 N 
ATOM     49  C33 UNL A   1      30.108  35.536  44.214  1.00  0.00    +0.000 C 
ATOM     61  C40 UNL A   1      30.339  36.693  44.884  1.00  0.00    +0.000 C 
ATOM     62  N7  UNL A   1      29.515  37.361  45.778  1.00  0.00    +0.000 N 
ATOM     63  C41 UNL A   1      30.186  38.419  46.165  1.00  0.00    +0.000 C 
ATOM     64  C42 UNL A   1      29.770  39.508  47.114  1.00  0.00    +0.000 C 
ATOM     76  C49 UNL A   1      28.528  39.492  47.633  1.00  0.00    +0.000 C 
ATOM     77  C50 UNL A   1      27.981  40.491  48.547  1.00  0.00    +0.000 C 
ATOM     78  C51 UNL A   1      26.738  40.127  48.899  1.00  0.00    +0.000 C 
ATOM     79  C52 UNL A   1      26.391  38.883  48.211  1.00  0.00    +0.000 C 
ATOM     80  N8  UNL A   1      27.507  38.591  47.467  1.00  0.00    +0.000 N 
ATOM     81  C53 UNL A   1      31.525  38.532  45.572  1.00  0.00    +0.000 C 
ATOM     82  C54 UNL A   1      31.555  37.473  44.774  1.00  0.00    +0.000 C 
ATOM     83  C55 UNL A   1      23.892  35.115  47.183  1.00  0.00    +0.000 C 
ATOM     84  C56 UNL A   1      23.722  36.252  47.840  1.00  0.00    +0.000 C 
ATOM    117  H22 UNL A   1      26.777  32.372  43.670  1.00  0.00    +0.000 H 
ATOM    118  H23 UNL A   1      29.197  33.067  42.991  1.00  0.00    +0.000 H 
ATOM    119  H24 UNL A   1      27.752  35.851  45.695  1.00  0.00    +0.000 H 
ATOM    120  H25 UNL A   1      28.471  41.339  48.871  1.00  0.00    +0.000 H 
ATOM    121  H26 UNL A   1      26.125  40.641  49.551  1.00  0.00    +0.000 H 
ATOM    122  H27 UNL A   1      27.568  37.809  46.871  1.00  0.00    +0.000 H 
ATOM    123  H28 UNL A   1      32.252  39.247  45.733  1.00  0.00    +0.000 H 
ATOM    124  H29 UNL A   1      32.344  37.235  44.152  1.00  0.00    +0.000 H 
ATOM    125  H30 UNL A   1      23.207  34.343  47.164  1.00  0.00    +0.000 H 
ATOM    126  H31 UNL A   1      22.897  36.585  48.363  1.00  0.00    +0.000 H 
ENDROOT
BRANCH   28   27
ATOM    115  H20 UNL A   1      21.478  40.745  49.313  1.00  0.00    +0.000 H 
ATOM    116  H21 UNL A   1      23.103  39.805  47.775  1.00  0.00    +0.000 H 
ATOM     85  C57 UNL A   1      24.215  38.408  50.618  1.00  0.00    +0.000 C 
ATOM     86  C58 UNL A   1      23.232  38.883  51.485  1.00  0.00    +0.000 C 
ATOM     24  C15 UNL A   1      22.269  39.783  51.021  1.00  0.00    +0.000 C 
ATOM     25  C16 UNL A   1      22.214  40.112  49.663  1.00  0.00    +0.000 C 
ATOM     26  C17 UNL A   1      23.158  39.583  48.781  1.00  0.00    +0.000 C 
ATOM     27  C18 UNL A   1      24.182  38.749  49.258  1.00  0.00    +0.000 C 
ATOM    127  H32 UNL A   1      24.968  37.803  50.979  1.00  0.00    +0.000 H 
ATOM    128  H33 UNL A   1      23.218  38.572  52.469  1.00  0.00    +0.000 H 
BRANCH   24   22
ATOM     22  C14 UNL A   1      21.278  40.387  51.938  1.00  0.00    +0.000 C 
ATOM     23  O4  UNL A   1      20.581  39.663  52.643  1.00  0.00    +0.000 O 
BRANCH   22   21
ATOM    114  H19 UNL A   1      21.793  42.230  52.524  1.00  0.00    +0.000 H 
ATOM     21  N4  UNL A   1      21.125  41.748  51.985  1.00  0.00    +0.000 N 
BRANCH   21   20
ATOM    113  H18 UNL A   1      20.100  42.340  50.313  1.00  0.00    +0.000 H 
ATOM     20  C13 UNL A   1      20.117  42.582  51.355  1.00  0.00    +0.000 C 
ATOM    112  H17 UNL A   1      20.373  43.610  51.515  1.00  0.00    +0.000 H 
BRANCH   20   19
ATOM     19  C12 UNL A   1      18.721  42.333  51.914  1.00  0.00    +0.000 C 
ATOM    110  H15 UNL A   1      18.822  41.758  52.812  1.00  0.00    +0.000 H 
ATOM    111  H16 UNL A   1      18.287  43.298  52.072  1.00  0.00    +0.000 H 
BRANCH   19   18
ATOM     18  C11 UNL A   1      17.769  41.586  50.977  1.00  0.00    +0.000 C 
ATOM    108  H13 UNL A   1      16.926  42.219  50.791  1.00  0.00    +0.000 H 
ATOM    109  H14 UNL A   1      18.339  41.356  50.102  1.00  0.00    +0.000 H 
BRANCH   18   17
ATOM     17  C10 UNL A   1      17.244  40.244  51.499  1.00  0.00    +0.000 C 
ATOM    106  H11 UNL A   1      18.026  39.782  52.064  1.00  0.00    +0.000 H 
ATOM    107  H12 UNL A   1      16.373  40.475  52.077  1.00  0.00    +0.000 H 
BRANCH   17   16
ATOM    105  H10 UNL A   1      17.362  39.469  49.549  1.00  0.00    +0.000 H 
ATOM    104  H9  UNL A   1      15.735  39.381  50.279  1.00  0.00    +0.000 H 
ATOM     16  C9  UNL A   1      16.787  39.252  50.426  1.00  0.00    +0.000 C 
BRANCH   16   15
ATOM    103  H8  UNL A   1      16.761  37.188  49.920  1.00  0.00    +0.000 H 
ATOM    102  H7  UNL A   1      16.469  37.516  51.621  1.00  0.00    +0.000 H 
ATOM     15  C8  UNL A   1      17.044  37.786  50.760  1.00  0.00    +0.000 C 
BRANCH   15   14
ATOM    101  H6  UNL A   1      18.712  37.860  51.936  1.00  0.00    +0.000 H 
ATOM     14  N3  UNL A   1      18.446  37.559  51.038  1.00  0.00    +0.000 N 
BRANCH   14   12
ATOM     12  C7  UNL A   1      19.487  37.019  50.327  1.00  0.00    +0.000 C 
ATOM     13  O3  UNL A   1      20.505  36.732  50.953  1.00  0.00    +0.000 O 
BRANCH   12   11
ATOM    129  H34 UNL A   1      20.889  38.195  48.001  1.00  0.00    +0.000 H 
ATOM    130  H35 UNL A   1      19.303  38.762  47.876  1.00  0.00    +0.000 H 
ATOM    131  H36 UNL A   1      18.985  37.433  45.864  1.00  0.00    +0.000 H 
ATOM      9  N1  UNL A   1      19.477  35.726  46.990  1.00  0.00    +0.000 N 
ATOM     10  N2  UNL A   1      19.151  35.673  48.309  1.00  0.00    +0.000 N 
ATOM     11  C6  UNL A   1      19.480  36.821  48.820  1.00  0.00    +0.000 C 
ATOM     87  C59 UNL A   1      19.885  37.865  47.835  1.00  0.00    +0.000 C 
ATOM     88  C60 UNL A   1      19.758  37.087  46.520  1.00  0.00    +0.000 C 
BRANCH    9    8
ATOM     99  H4  UNL A   1      16.573  34.091  43.877  1.00  0.00    +0.000 H 
ATOM    100  H5  UNL A   1      17.397  35.872  45.308  1.00  0.00    +0.000 H 
ATOM      5  C2  UNL A   1      18.023  32.680  44.492  1.00  0.00    +0.000 C 
ATOM      6  C3  UNL A   1      17.391  33.928  44.485  1.00  0.00    +0.000 C 
ATOM      7  C4  UNL A   1      17.872  34.955  45.306  1.00  0.00    +0.000 C 
ATOM    136  H41 UNL A   1      19.597  31.537  45.313  1.00  0.00    +0.000 H 
ATOM    135  H40 UNL A   1      20.421  33.324  46.717  1.00  0.00    +0.000 H 
ATOM      8  C5  UNL A   1      18.990  34.753  46.124  1.00  0.00    +0.000 C 
ATOM     94  C65 UNL A   1      19.601  33.491  46.113  1.00  0.00    +0.000 C 
ATOM     95  C66 UNL A   1      19.130  32.457  45.306  1.00  0.00    +0.000 C 
BRANCH    5    2
ATOM      2  S1  UNL A   1      17.344  31.390  43.480  1.00  0.00    +0.000 S 
ATOM      3  O1  UNL A   1      17.619  30.143  44.167  1.00  0.00    +0.000 O 
ATOM      4  O2  UNL A   1      17.818  31.625  42.130  1.00  0.00    +0.000 O 
BRANCH    2    1
ATOM      1  C1  UNL A   1      15.586  31.617  43.464  1.00  0.00    +0.000 C 
ATOM     98  H3  UNL A   1      15.326  32.434  44.106  1.00  0.00    +0.000 H 
ATOM     97  H2  UNL A   1      15.263  31.829  42.467  1.00  0.00    +0.000 H 
ATOM     96  H1  UNL A   1      15.108  30.725  43.812  1.00  0.00    +0.000 H 
ENDBRANCH    2    1
ENDBRANCH    5    2
ENDBRANCH    9    8
BRANCH   88   89
ATOM    132  H37 UNL A   1      20.955  35.736  44.089  1.00  0.00    +0.000 H 
ATOM    133  H38 UNL A   1      23.255  36.850  43.376  1.00  0.00    +0.000 H 
ATOM    134  H39 UNL A   1      23.646  38.837  44.979  1.00  0.00    +0.000 H 
ATOM     89  C61 UNL A   1      20.954  37.255  45.629  1.00  0.00    +0.000 C 
ATOM     90  C62 UNL A   1      21.415  36.545  44.537  1.00  0.00    +0.000 C 
ATOM     91  C63 UNL A   1      22.639  37.143  44.151  1.00  0.00    +0.000 C 
ATOM     92  C64 UNL A   1      22.839  38.194  45.013  1.00  0.00    +0.000 C 
ATOM     93  O5  UNL A   1      21.831  38.266  45.915  1.00  0.00    +0.000 O 
ENDBRANCH   88   89
ENDBRANCH   12   11
ENDBRANCH   14   12
ENDBRANCH   15   14
ENDBRANCH   16   15
ENDBRANCH   17   16
ENDBRANCH   18   17
ENDBRANCH   19   18
ENDBRANCH   20   19
ENDBRANCH   21   20
ENDBRANCH   22   21
ENDBRANCH   24   22
ENDBRANCH   28   27
BRANCH   32   33
ATOM     33  C23 UNL A   1      24.623  32.961  45.444  1.00  0.00    +0.000 C 
ATOM     34  C24 UNL A   1      24.715  31.787  46.210  1.00  0.00    +0.000 C 
ATOM     35  F1  UNL A   1      25.672  31.664  47.142  1.00  0.00    +0.000 F 
ATOM     36  C25 UNL A   1      23.855  30.715  45.985  1.00  0.00    +0.000 C 
ATOM     37  F2  UNL A   1      24.004  29.583  46.688  1.00  0.00    +0.000 F 
ATOM     38  C26 UNL A   1      22.864  30.808  45.022  1.00  0.00    +0.000 C 
ATOM     39  F3  UNL A   1      22.039  29.775  44.805  1.00  0.00    +0.000 F 
ATOM     40  C27 UNL A   1      22.733  31.969  44.275  1.00  0.00    +0.000 C 
ATOM     41  F4  UNL A   1      21.766  32.065  43.351  1.00  0.00    +0.000 F 
ATOM     42  C28 UNL A   1      23.610  33.032  44.476  1.00  0.00    +0.000 C 
ATOM     43  F5  UNL A   1      23.473  34.133  43.720  1.00  0.00    +0.000 F 
ENDBRANCH   32   33
BRANCH   49   50
ATOM     50  C34 UNL A   1      31.188  35.052  43.291  1.00  0.00    +0.000 C 
ATOM     51  C35 UNL A   1      32.073  34.032  43.669  1.00  0.00    +0.000 C 
ATOM     52  F6  UNL A   1      32.004  33.501  44.900  1.00  0.00    +0.000 F 
ATOM     53  C36 UNL A   1      33.058  33.579  42.795  1.00  0.00    +0.000 C 
ATOM     54  F7  UNL A   1      33.920  32.634  43.193  1.00  0.00    +0.000 F 
ATOM     55  C37 UNL A   1      33.156  34.115  41.520  1.00  0.00    +0.000 C 
ATOM     56  F8  UNL A   1      34.100  33.673  40.677  1.00  0.00    +0.000 F 
ATOM     57  C38 UNL A   1      32.280  35.113  41.119  1.00  0.00    +0.000 C 
ATOM     58  F9  UNL A   1      32.367  35.623  39.883  1.00  0.00    +0.000 F 
ATOM     59  C39 UNL A   1      31.312  35.586  42.000  1.00  0.00    +0.000 C 
ATOM     60  F10 UNL A   1      30.486  36.560  41.589  1.00  0.00    +0.000 F 
ENDBRANCH   49   50
BRANCH   64   65
ATOM     65  C43 UNL A   1      30.695  40.614  47.468  1.00  0.00    +0.000 C 
ATOM     66  C44 UNL A   1      31.609  40.480  48.521  1.00  0.00    +0.000 C 
ATOM     67  F11 UNL A   1      31.623  39.359  49.256  1.00  0.00    +0.000 F 
ATOM     68  C45 UNL A   1      32.495  41.507  48.839  1.00  0.00    +0.000 C 
ATOM     69  F12 UNL A   1      33.340  41.365  49.870  1.00  0.00    +0.000 F 
ATOM     70  C46 UNL A   1      32.498  42.679  48.096  1.00  0.00    +0.000 C 
ATOM     71  F13 UNL A   1      33.360  43.661  48.394  1.00  0.00    +0.000 F 
ATOM     72  C47 UNL A   1      31.609  42.830  47.044  1.00  0.00    +0.000 C 
ATOM     73  F14 UNL A   1      31.619  43.953  46.313  1.00  0.00    +0.000 F 
ATOM     74  C48 UNL A   1      30.706  41.813  46.740  1.00  0.00    +0.000 C 
ATOM     75  F15 UNL A   1      29.855  41.986  45.718  1.00  0.00    +0.000 F 
ENDBRANCH   64   65
TORSDOF 19
ENDMDL
MODEL 7
REMARK VINA RESULT:      -9.2     20.687     26.145
ROOT
ATOM     28  C19 UNL A   1      40.109  28.762  29.390  1.00  0.00    +0.000 C 
ATOM     29  C20 UNL A   1      40.981  29.662  30.217  1.00  0.00    +0.000 C 
ATOM     30  N5  UNL A   1      42.226  29.498  30.589  1.00  0.00    +0.000 N 
ATOM     31  C21 UNL A   1      42.563  30.646  31.292  1.00  0.00    +0.000 C 
ATOM     32  C22 UNL A   1      43.720  30.933  31.937  1.00  0.00    +0.000 C 
ATOM     44  C29 UNL A   1      44.854  30.049  31.999  1.00  0.00    +0.000 C 
ATOM     45  C30 UNL A   1      46.046  30.217  32.681  1.00  0.00    +0.000 C 
ATOM     46  C31 UNL A   1      46.866  29.116  32.409  1.00  0.00    +0.000 C 
ATOM     47  C32 UNL A   1      46.168  28.239  31.595  1.00  0.00    +0.000 C 
ATOM     48  N6  UNL A   1      44.936  28.825  31.348  1.00  0.00    +0.000 N 
ATOM     49  C33 UNL A   1      46.589  26.960  31.081  1.00  0.00    +0.000 C 
ATOM     61  C40 UNL A   1      45.836  26.150  30.296  1.00  0.00    +0.000 C 
ATOM     62  N7  UNL A   1      44.549  26.349  29.820  1.00  0.00    +0.000 N 
ATOM     63  C41 UNL A   1      44.263  25.293  29.098  1.00  0.00    +0.000 C 
ATOM     64  C42 UNL A   1      42.996  24.965  28.359  1.00  0.00    +0.000 C 
ATOM     76  C49 UNL A   1      41.943  25.798  28.453  1.00  0.00    +0.000 C 
ATOM     77  C50 UNL A   1      40.647  25.599  27.812  1.00  0.00    +0.000 C 
ATOM     78  C51 UNL A   1      39.859  26.652  28.080  1.00  0.00    +0.000 C 
ATOM     79  C52 UNL A   1      40.588  27.587  28.939  1.00  0.00    +0.000 C 
ATOM     80  N8  UNL A   1      41.809  26.988  29.124  1.00  0.00    +0.000 N 
ATOM     81  C53 UNL A   1      45.350  24.308  29.019  1.00  0.00    +0.000 C 
ATOM     82  C54 UNL A   1      46.273  24.863  29.793  1.00  0.00    +0.000 C 
ATOM     83  C55 UNL A   1      41.413  31.522  31.248  1.00  0.00    +0.000 C 
ATOM     84  C56 UNL A   1      40.385  30.933  30.656  1.00  0.00    +0.000 C 
ATOM    117  H22 UNL A   1      46.289  31.017  33.286  1.00  0.00    +0.000 H 
ATOM    118  H23 UNL A   1      47.828  28.979  32.757  1.00  0.00    +0.000 H 
ATOM    119  H24 UNL A   1      44.224  28.433  30.793  1.00  0.00    +0.000 H 
ATOM    120  H25 UNL A   1      40.379  24.782  27.242  1.00  0.00    +0.000 H 
ATOM    121  H26 UNL A   1      38.895  26.783  27.737  1.00  0.00    +0.000 H 
ATOM    122  H27 UNL A   1      42.520  27.376  29.685  1.00  0.00    +0.000 H 
ATOM    123  H28 UNL A   1      45.387  23.417  28.498  1.00  0.00    +0.000 H 
ATOM    124  H29 UNL A   1      47.185  24.432  30.011  1.00  0.00    +0.000 H 
ATOM    125  H30 UNL A   1      41.396  32.482  31.627  1.00  0.00    +0.000 H 
ATOM    126  H31 UNL A   1      39.419  31.275  30.535  1.00  0.00    +0.000 H 
ENDROOT
BRANCH   28   27
ATOM    115  H20 UNL A   1      37.007  30.535  26.457  1.00  0.00    +0.000 H 
ATOM    116  H21 UNL A   1      39.228  29.730  27.017  1.00  0.00    +0.000 H 
ATOM     85  C57 UNL A   1      37.696  29.096  29.937  1.00  0.00    +0.000 C 
ATOM     86  C58 UNL A   1      36.404  29.482  29.585  1.00  0.00    +0.000 C 
ATOM     24  C15 UNL A   1      36.165  30.061  28.337  1.00  0.00    +0.000 C 
ATOM     25  C16 UNL A   1      37.193  30.143  27.393  1.00  0.00    +0.000 C 
ATOM     26  C17 UNL A   1      38.475  29.694  27.721  1.00  0.00    +0.000 C 
ATOM     27  C18 UNL A   1      38.741  29.193  29.005  1.00  0.00    +0.000 C 
ATOM    127  H32 UNL A   1      37.884  28.737  30.885  1.00  0.00    +0.000 H 
ATOM    128  H33 UNL A   1      35.625  29.341  30.248  1.00  0.00    +0.000 H 
BRANCH   24   22
ATOM     22  C14 UNL A   1      34.827  30.578  27.974  1.00  0.00    +0.000 C 
ATOM     23  O4  UNL A   1      34.032  29.848  27.390  1.00  0.00    +0.000 O 
BRANCH   22   21
ATOM    114  H19 UNL A   1      33.574  31.998  28.621  1.00  0.00    +0.000 H 
ATOM     21  N4  UNL A   1      34.486  31.872  28.271  1.00  0.00    +0.000 N 
BRANCH   21   20
ATOM    113  H18 UNL A   1      35.161  33.441  27.141  1.00  0.00    +0.000 H 
ATOM     20  C13 UNL A   1      35.275  33.083  28.143  1.00  0.00    +0.000 C 
ATOM    112  H17 UNL A   1      36.297  32.852  28.363  1.00  0.00    +0.000 H 
BRANCH   20   19
ATOM     19  C12 UNL A   1      34.808  34.186  29.087  1.00  0.00    +0.000 C 
ATOM    110  H15 UNL A   1      34.923  33.832  30.091  1.00  0.00    +0.000 H 
ATOM    111  H16 UNL A   1      35.409  35.042  28.864  1.00  0.00    +0.000 H 
BRANCH   19   18
ATOM     18  C11 UNL A   1      33.353  34.627  28.903  1.00  0.00    +0.000 C 
ATOM    108  H13 UNL A   1      33.059  34.381  27.903  1.00  0.00    +0.000 H 
ATOM    109  H14 UNL A   1      32.794  34.115  29.657  1.00  0.00    +0.000 H 
BRANCH   18   17
ATOM     17  C10 UNL A   1      33.082  36.119  29.120  1.00  0.00    +0.000 C 
ATOM    106  H11 UNL A   1      33.777  36.671  28.521  1.00  0.00    +0.000 H 
ATOM    107  H12 UNL A   1      32.060  36.275  28.847  1.00  0.00    +0.000 H 
BRANCH   17   16
ATOM    105  H10 UNL A   1      32.728  37.563  30.606  1.00  0.00    +0.000 H 
ATOM    104  H9  UNL A   1      34.254  36.658  30.808  1.00  0.00    +0.000 H 
ATOM     16  C9  UNL A   1      33.213  36.610  30.565  1.00  0.00    +0.000 C 
BRANCH   16   15
ATOM    103  H8  UNL A   1      31.893  35.030  31.092  1.00  0.00    +0.000 H 
ATOM    102  H7  UNL A   1      31.942  36.345  32.256  1.00  0.00    +0.000 H 
ATOM     15  C8  UNL A   1      32.523  35.729  31.602  1.00  0.00    +0.000 C 
BRANCH   15   14
ATOM    101  H6  UNL A   1      33.426  34.019  32.258  1.00  0.00    +0.000 H 
ATOM     14  N3  UNL A   1      33.494  34.993  32.383  1.00  0.00    +0.000 N 
BRANCH   14   12
ATOM     12  C7  UNL A   1      34.487  35.351  33.257  1.00  0.00    +0.000 C 
ATOM     13  O3  UNL A   1      34.225  36.230  34.075  1.00  0.00    +0.000 O 
BRANCH   12   11
ATOM    129  H34 UNL A   1      35.896  33.039  34.454  1.00  0.00    +0.000 H 
ATOM    130  H35 UNL A   1      36.517  34.385  35.264  1.00  0.00    +0.000 H 
ATOM    131  H36 UNL A   1      38.684  34.012  34.225  1.00  0.00    +0.000 H 
ATOM      9  N1  UNL A   1      37.742  34.170  32.352  1.00  0.00    +0.000 N 
ATOM     10  N2  UNL A   1      36.669  34.993  32.205  1.00  0.00    +0.000 N 
ATOM     11  C6  UNL A   1      35.897  34.782  33.228  1.00  0.00    +0.000 C 
ATOM     87  C59 UNL A   1      36.478  33.924  34.300  1.00  0.00    +0.000 C 
ATOM     88  C60 UNL A   1      37.850  33.597  33.697  1.00  0.00    +0.000 C 
BRANCH    9    8
ATOM     99  H4  UNL A   1      42.184  34.944  31.671  1.00  0.00    +0.000 H 
ATOM    100  H5  UNL A   1      40.281  34.535  33.123  1.00  0.00    +0.000 H 
ATOM      5  C2  UNL A   1      41.063  34.871  29.880  1.00  0.00    +0.000 C 
ATOM      6  C3  UNL A   1      41.245  34.810  31.266  1.00  0.00    +0.000 C 
ATOM      7  C4  UNL A   1      40.146  34.568  32.100  1.00  0.00    +0.000 C 
ATOM    136  H41 UNL A   1      39.663  34.730  28.305  1.00  0.00    +0.000 H 
ATOM    135  H40 UNL A   1      37.780  34.302  29.760  1.00  0.00    +0.000 H 
ATOM      8  C5  UNL A   1      38.870  34.369  31.563  1.00  0.00    +0.000 C 
ATOM     94  C65 UNL A   1      38.717  34.438  30.171  1.00  0.00    +0.000 C 
ATOM     95  C66 UNL A   1      39.799  34.685  29.327  1.00  0.00    +0.000 C 
BRANCH    5    2
ATOM      2  S1  UNL A   1      42.472  35.239  28.864  1.00  0.00    +0.000 S 
ATOM      3  O1  UNL A   1      43.373  36.025  29.683  1.00  0.00    +0.000 O 
ATOM      4  O2  UNL A   1      41.958  35.749  27.607  1.00  0.00    +0.000 O 
BRANCH    2    1
ATOM      1  C1  UNL A   1      43.272  33.696  28.513  1.00  0.00    +0.000 C 
ATOM     98  H3  UNL A   1      43.780  33.764  27.573  1.00  0.00    +0.000 H 
ATOM     97  H2  UNL A   1      43.978  33.477  29.285  1.00  0.00    +0.000 H 
ATOM     96  H1  UNL A   1      42.540  32.918  28.467  1.00  0.00    +0.000 H 
ENDBRANCH    2    1
ENDBRANCH    5    2
ENDBRANCH    9    8
BRANCH   88   89
ATOM    132  H37 UNL A   1      40.198  31.877  34.528  1.00  0.00    +0.000 H 
ATOM    133  H38 UNL A   1      39.714  29.297  34.143  1.00  0.00    +0.000 H 
ATOM    134  H39 UNL A   1      37.290  29.118  33.268  1.00  0.00    +0.000 H 
ATOM     89  C61 UNL A   1      38.185  32.137  33.779  1.00  0.00    +0.000 C 
ATOM     90  C62 UNL A   1      39.326  31.459  34.165  1.00  0.00    +0.000 C 
ATOM     91  C63 UNL A   1      39.066  30.082  33.967  1.00  0.00    +0.000 C 
ATOM     92  C64 UNL A   1      37.778  30.000  33.496  1.00  0.00    +0.000 C 
ATOM     93  O5  UNL A   1      37.239  31.236  33.372  1.00  0.00    +0.000 O 
ENDBRANCH   88   89
ENDBRANCH   12   11
ENDBRANCH   14   12
ENDBRANCH   15   14
ENDBRANCH   16   15
ENDBRANCH   17   16
ENDBRANCH   18   17
ENDBRANCH   19   18
ENDBRANCH   20   19
ENDBRANCH   21   20
ENDBRANCH   22   21
ENDBRANCH   24   22
ENDBRANCH   28   27
BRANCH   32   33
ATOM     33  C23 UNL A   1      43.810  32.264  32.627  1.00  0.00    +0.000 C 
ATOM     34  C24 UNL A   1      43.206  32.489  33.874  1.00  0.00    +0.000 C 
ATOM     35  F1  UNL A   1      42.512  31.510  34.474  1.00  0.00    +0.000 F 
ATOM     36  C25 UNL A   1      43.271  33.737  34.487  1.00  0.00    +0.000 C 
ATOM     37  F2  UNL A   1      42.634  33.944  35.649  1.00  0.00    +0.000 F 
ATOM     38  C26 UNL A   1      43.971  34.772  33.887  1.00  0.00    +0.000 C 
ATOM     39  F3  UNL A   1      44.030  35.974  34.477  1.00  0.00    +0.000 F 
ATOM     40  C27 UNL A   1      44.602  34.564  32.670  1.00  0.00    +0.000 C 
ATOM     41  F4  UNL A   1      45.290  35.560  32.095  1.00  0.00    +0.000 F 
ATOM     42  C28 UNL A   1      44.515  33.326  32.039  1.00  0.00    +0.000 C 
ATOM     43  F5  UNL A   1      45.116  33.164  30.851  1.00  0.00    +0.000 F 
ENDBRANCH   32   33
BRANCH   49   50
ATOM     50  C34 UNL A   1      47.958  26.473  31.455  1.00  0.00    +0.000 C 
ATOM     51  C35 UNL A   1      49.087  26.799  30.689  1.00  0.00    +0.000 C 
ATOM     52  F6  UNL A   1      48.954  27.516  29.563  1.00  0.00    +0.000 F 
ATOM     53  C36 UNL A   1      50.354  26.355  31.059  1.00  0.00    +0.000 C 
ATOM     54  F7  UNL A   1      51.413  26.642  30.290  1.00  0.00    +0.000 F 
ATOM     55  C37 UNL A   1      50.519  25.607  32.215  1.00  0.00    +0.000 C 
ATOM     56  F8  UNL A   1      51.740  25.187  32.574  1.00  0.00    +0.000 F 
ATOM     57  C38 UNL A   1      49.418  25.288  32.996  1.00  0.00    +0.000 C 
ATOM     58  F9  UNL A   1      49.579  24.573  34.119  1.00  0.00    +0.000 F 
ATOM     59  C39 UNL A   1      48.148  25.706  32.614  1.00  0.00    +0.000 C 
ATOM     60  F10 UNL A   1      47.100  25.373  33.383  1.00  0.00    +0.000 F 
ENDBRANCH   49   50
BRANCH   64   65
ATOM     65  C43 UNL A   1      42.875  23.726  27.550  1.00  0.00    +0.000 C 
ATOM     66  C44 UNL A   1      42.384  22.542  28.114  1.00  0.00    +0.000 C 
ATOM     67  F11 UNL A   1      42.061  22.504  29.415  1.00  0.00    +0.000 F 
ATOM     68  C45 UNL A   1      42.246  21.385  27.351  1.00  0.00    +0.000 C 
ATOM     69  F12 UNL A   1      41.801  20.257  27.921  1.00  0.00    +0.000 F 
ATOM     70  C46 UNL A   1      42.576  21.397  26.003  1.00  0.00    +0.000 C 
ATOM     71  F13 UNL A   1      42.430  20.287  25.266  1.00  0.00    +0.000 F 
ATOM     72  C47 UNL A   1      43.055  22.560  25.421  1.00  0.00    +0.000 C 
ATOM     73  F14 UNL A   1      43.360  22.580  24.116  1.00  0.00    +0.000 F 
ATOM     74  C48 UNL A   1      43.216  23.711  26.189  1.00  0.00    +0.000 C 
ATOM     75  F15 UNL A   1      43.683  24.822  25.601  1.00  0.00    +0.000 F 
ENDBRANCH   64   65
TORSDOF 19
ENDMDL
MODEL 8
REMARK VINA RESULT:      -9.2      1.524      2.455
ROOT
ATOM     28  C19 UNL A   1      53.960  18.684  11.246  1.00  0.00    +0.000 C 
ATOM     29  C20 UNL A   1      53.741  19.637  12.385  1.00  0.00    +0.000 C 
ATOM     30  N5  UNL A   1      54.550  19.961  13.362  1.00  0.00    +0.000 N 
ATOM     31  C21 UNL A   1      53.875  20.917  14.109  1.00  0.00    +0.000 C 
ATOM     32  C22 UNL A   1      54.261  21.520  15.260  1.00  0.00    +0.000 C 
ATOM     44  C29 UNL A   1      55.506  21.256  15.933  1.00  0.00    +0.000 C 
ATOM     45  C30 UNL A   1      55.962  21.763  17.137  1.00  0.00    +0.000 C 
ATOM     46  C31 UNL A   1      57.246  21.257  17.366  1.00  0.00    +0.000 C 
ATOM     47  C32 UNL A   1      57.573  20.400  16.329  1.00  0.00    +0.000 C 
ATOM     48  N6  UNL A   1      56.498  20.411  15.454  1.00  0.00    +0.000 N 
ATOM     49  C33 UNL A   1      58.775  19.625  16.147  1.00  0.00    +0.000 C 
ATOM     61  C40 UNL A   1      59.014  18.792  15.104  1.00  0.00    +0.000 C 
ATOM     62  N7  UNL A   1      58.204  18.505  14.015  1.00  0.00    +0.000 N 
ATOM     63  C41 UNL A   1      58.878  17.656  13.278  1.00  0.00    +0.000 C 
ATOM     64  C42 UNL A   1      58.476  16.993  11.990  1.00  0.00    +0.000 C 
ATOM     76  C49 UNL A   1      57.244  17.209  11.493  1.00  0.00    +0.000 C 
ATOM     77  C50 UNL A   1      56.710  16.619  10.269  1.00  0.00    +0.000 C 
ATOM     78  C51 UNL A   1      55.475  17.098  10.055  1.00  0.00    +0.000 C 
ATOM     79  C52 UNL A   1      55.120  18.008  11.145  1.00  0.00    +0.000 C 
ATOM     80  N8  UNL A   1      56.223  17.997  11.962  1.00  0.00    +0.000 N 
ATOM     81  C53 UNL A   1      60.206  17.321  13.810  1.00  0.00    +0.000 C 
ATOM     82  C54 UNL A   1      60.225  18.014  14.940  1.00  0.00    +0.000 C 
ATOM     83  C55 UNL A   1      52.614  21.162  13.442  1.00  0.00    +0.000 C 
ATOM     84  C56 UNL A   1      52.452  20.346  12.412  1.00  0.00    +0.000 C 
ATOM    117  H22 UNL A   1      55.444  22.403  17.759  1.00  0.00    +0.000 H 
ATOM    118  H23 UNL A   1      57.849  21.485  18.174  1.00  0.00    +0.000 H 
ATOM    119  H24 UNL A   1      56.444  19.896  14.617  1.00  0.00    +0.000 H 
ATOM    120  H25 UNL A   1      57.203  15.943   9.665  1.00  0.00    +0.000 H 
ATOM    121  H26 UNL A   1      54.872  16.864   9.251  1.00  0.00    +0.000 H 
ATOM    122  H27 UNL A   1      56.275  18.506  12.803  1.00  0.00    +0.000 H 
ATOM    123  H28 UNL A   1      60.934  16.708  13.410  1.00  0.00    +0.000 H 
ATOM    124  H29 UNL A   1      61.004  18.001  15.618  1.00  0.00    +0.000 H 
ATOM    125  H30 UNL A   1      51.931  21.880  13.731  1.00  0.00    +0.000 H 
ATOM    126  H31 UNL A   1      51.636  20.235  11.790  1.00  0.00    +0.000 H 
ENDROOT
BRANCH   28   27
ATOM    115  H20 UNL A   1      50.334  16.608   9.268  1.00  0.00    +0.000 H 
ATOM    116  H21 UNL A   1      51.932  16.895  11.073  1.00  0.00    +0.000 H 
ATOM     85  C57 UNL A   1      52.923  19.422   9.098  1.00  0.00    +0.000 C 
ATOM     86  C58 UNL A   1      51.953  19.306   8.104  1.00  0.00    +0.000 C 
ATOM     24  C15 UNL A   1      51.046  18.244   8.136  1.00  0.00    +0.000 C 
ATOM     25  C16 UNL A   1      51.030  17.368   9.226  1.00  0.00    +0.000 C 
ATOM     26  C17 UNL A   1      51.959  17.525  10.257  1.00  0.00    +0.000 C 
ATOM     27  C18 UNL A   1      52.930  18.536  10.186  1.00  0.00    +0.000 C 
ATOM    127  H32 UNL A   1      53.638  20.163   9.034  1.00  0.00    +0.000 H 
ATOM    128  H33 UNL A   1      51.907  20.004   7.345  1.00  0.00    +0.000 H 
BRANCH   24   22
ATOM     22  C14 UNL A   1      50.074  18.033   7.041  1.00  0.00    +0.000 C 
ATOM     23  O4  UNL A   1      49.042  17.405   7.258  1.00  0.00    +0.000 O 
BRANCH   22   21
ATOM    114  H19 UNL A   1      51.212  18.272   5.412  1.00  0.00    +0.000 H 
ATOM     21  N4  UNL A   1      50.335  18.518   5.786  1.00  0.00    +0.000 N 
BRANCH   21   20
ATOM    113  H18 UNL A   1      48.779  18.710   4.468  1.00  0.00    +0.000 H 
ATOM     20  C13 UNL A   1      49.505  19.346   4.930  1.00  0.00    +0.000 C 
ATOM    112  H17 UNL A   1      50.130  19.822   4.202  1.00  0.00    +0.000 H 
BRANCH   20   19
ATOM     19  C12 UNL A   1      48.754  20.420   5.709  1.00  0.00    +0.000 C 
ATOM    110  H15 UNL A   1      48.750  20.139   6.742  1.00  0.00    +0.000 H 
ATOM    111  H16 UNL A   1      49.268  21.339   5.519  1.00  0.00    +0.000 H 
BRANCH   19   18
ATOM     18  C11 UNL A   1      47.303  20.645   5.273  1.00  0.00    +0.000 C 
ATOM    108  H13 UNL A   1      46.796  21.150   6.069  1.00  0.00    +0.000 H 
ATOM    109  H14 UNL A   1      47.354  21.209   4.366  1.00  0.00    +0.000 H 
BRANCH   18   17
ATOM     17  C10 UNL A   1      46.509  19.379   4.936  1.00  0.00    +0.000 C 
ATOM    106  H11 UNL A   1      47.206  18.576   4.814  1.00  0.00    +0.000 H 
ATOM    107  H12 UNL A   1      45.826  19.237   5.746  1.00  0.00    +0.000 H 
BRANCH   17   16
ATOM    105  H10 UNL A   1      45.263  18.472   3.507  1.00  0.00    +0.000 H 
ATOM    104  H9  UNL A   1      46.272  19.799   2.867  1.00  0.00    +0.000 H 
ATOM     16  C9  UNL A   1      45.652  19.456   3.669  1.00  0.00    +0.000 C 
BRANCH   16   15
ATOM    103  H8  UNL A   1      44.602  21.218   3.115  1.00  0.00    +0.000 H 
ATOM    102  H7  UNL A   1      44.346  20.721   4.781  1.00  0.00    +0.000 H 
ATOM     15  C8  UNL A   1      44.447  20.386   3.770  1.00  0.00    +0.000 C 
BRANCH   15   14
ATOM    101  H6  UNL A   1      42.753  19.306   4.134  1.00  0.00    +0.000 H 
ATOM     14  N3  UNL A   1      43.234  19.704   3.374  1.00  0.00    +0.000 N 
BRANCH   14   12
ATOM     12  C7  UNL A   1      42.606  19.489   2.174  1.00  0.00    +0.000 C 
ATOM     13  O3  UNL A   1      43.321  19.293   1.194  1.00  0.00    +0.000 O 
BRANCH   12   11
ATOM    129  H34 UNL A   1      40.200  18.965   3.816  1.00  0.00    +0.000 H 
ATOM    130  H35 UNL A   1      40.239  17.699   2.699  1.00  0.00    +0.000 H 
ATOM    131  H36 UNL A   1      38.223  18.564   1.647  1.00  0.00    +0.000 H 
ATOM      9  N1  UNL A   1      39.244  20.373   1.324  1.00  0.00    +0.000 N 
ATOM     10  N2  UNL A   1      40.585  20.359   1.099  1.00  0.00    +0.000 N 
ATOM     11  C6  UNL A   1      41.100  19.550   1.975  1.00  0.00    +0.000 C 
ATOM     87  C59 UNL A   1      40.116  18.760   2.770  1.00  0.00    +0.000 C 
ATOM     88  C60 UNL A   1      38.794  19.284   2.197  1.00  0.00    +0.000 C 
BRANCH    9    8
ATOM     99  H4  UNL A   1      38.200  23.256  -2.052  1.00  0.00    +0.000 H 
ATOM    100  H5  UNL A   1      39.768  22.298  -0.465  1.00  0.00    +0.000 H 
ATOM      5  C2  UNL A   1      36.570  22.055  -1.442  1.00  0.00    +0.000 C 
ATOM      6  C3  UNL A   1      37.892  22.511  -1.408  1.00  0.00    +0.000 C 
ATOM      7  C4  UNL A   1      38.796  21.951  -0.496  1.00  0.00    +0.000 C 
ATOM    136  H41 UNL A   1      35.176  20.707  -0.605  1.00  0.00    +0.000 H 
ATOM    135  H40 UNL A   1      36.753  19.746   0.955  1.00  0.00    +0.000 H 
ATOM      8  C5  UNL A   1      38.396  20.928   0.371  1.00  0.00    +0.000 C 
ATOM     94  C65 UNL A   1      37.065  20.493   0.316  1.00  0.00    +0.000 C 
ATOM     95  C66 UNL A   1      36.151  21.045  -0.581  1.00  0.00    +0.000 C 
BRANCH    5    2
ATOM      2  S1  UNL A   1      35.443  22.832  -2.572  1.00  0.00    +0.000 S 
ATOM      3  O1  UNL A   1      35.975  24.155  -2.835  1.00  0.00    +0.000 O 
ATOM      4  O2  UNL A   1      34.112  22.652  -2.026  1.00  0.00    +0.000 O 
BRANCH    2    1
ATOM      1  C1  UNL A   1      35.515  21.914  -4.087  1.00  0.00    +0.000 C 
ATOM     98  H3  UNL A   1      34.553  21.924  -4.556  1.00  0.00    +0.000 H 
ATOM     97  H2  UNL A   1      36.235  22.359  -4.740  1.00  0.00    +0.000 H 
ATOM     96  H1  UNL A   1      35.798  20.904  -3.878  1.00  0.00    +0.000 H 
ENDBRANCH    2    1
ENDBRANCH    5    2
ENDBRANCH    9    8
BRANCH   88   89
ATOM    132  H37 UNL A   1      36.539  17.950   3.714  1.00  0.00    +0.000 H 
ATOM    133  H38 UNL A   1      35.335  19.634   5.371  1.00  0.00    +0.000 H 
ATOM    134  H39 UNL A   1      36.605  21.877   5.204  1.00  0.00    +0.000 H 
ATOM     89  C61 UNL A   1      37.803  19.647   3.265  1.00  0.00    +0.000 C 
ATOM     90  C62 UNL A   1      36.785  18.939   3.875  1.00  0.00    +0.000 C 
ATOM     91  C63 UNL A   1      36.147  19.835   4.766  1.00  0.00    +0.000 C 
ATOM     92  C64 UNL A   1      36.825  21.025   4.663  1.00  0.00    +0.000 C 
ATOM     93  O5  UNL A   1      37.825  20.924   3.754  1.00  0.00    +0.000 O 
ENDBRANCH   88   89
ENDBRANCH   12   11
ENDBRANCH   14   12
ENDBRANCH   15   14
ENDBRANCH   16   15
ENDBRANCH   17   16
ENDBRANCH   18   17
ENDBRANCH   19   18
ENDBRANCH   20   19
ENDBRANCH   21   20
ENDBRANCH   22   21
ENDBRANCH   24   22
ENDBRANCH   28   27
BRANCH   32   33
ATOM     33  C23 UNL A   1      53.320  22.524  15.859  1.00  0.00    +0.000 C 
ATOM     34  C24 UNL A   1      52.403  22.168  16.861  1.00  0.00    +0.000 C 
ATOM     35  F1  UNL A   1      52.337  20.900  17.295  1.00  0.00    +0.000 F 
ATOM     36  C25 UNL A   1      51.514  23.103  17.385  1.00  0.00    +0.000 C 
ATOM     37  F2  UNL A   1      50.607  22.723  18.297  1.00  0.00    +0.000 F 
ATOM     38  C26 UNL A   1      51.550  24.417  16.949  1.00  0.00    +0.000 C 
ATOM     39  F3  UNL A   1      50.692  25.316  17.452  1.00  0.00    +0.000 F 
ATOM     40  C27 UNL A   1      52.468  24.800  15.983  1.00  0.00    +0.000 C 
ATOM     41  F4  UNL A   1      52.512  26.074  15.569  1.00  0.00    +0.000 F 
ATOM     42  C28 UNL A   1      53.338  23.861  15.434  1.00  0.00    +0.000 C 
ATOM     43  F5  UNL A   1      54.198  24.257  14.483  1.00  0.00    +0.000 F 
ENDBRANCH   32   33
BRANCH   49   50
ATOM     50  C34 UNL A   1      59.839  19.729  17.200  1.00  0.00    +0.000 C 
ATOM     51  C35 UNL A   1      59.931  18.797  18.244  1.00  0.00    +0.000 C 
ATOM     52  F6  UNL A   1      59.024  17.814  18.353  1.00  0.00    +0.000 F 
ATOM     53  C36 UNL A   1      60.936  18.895  19.203  1.00  0.00    +0.000 C 
ATOM     54  F7  UNL A   1      60.979  18.019  20.216  1.00  0.00    +0.000 F 
ATOM     55  C37 UNL A   1      61.883  19.904  19.118  1.00  0.00    +0.000 C 
ATOM     56  F8  UNL A   1      62.854  19.992  20.038  1.00  0.00    +0.000 F 
ATOM     57  C38 UNL A   1      61.820  20.827  18.084  1.00  0.00    +0.000 C 
ATOM     58  F9  UNL A   1      62.742  21.796  17.996  1.00  0.00    +0.000 F 
ATOM     59  C39 UNL A   1      60.802  20.748  17.140  1.00  0.00    +0.000 C 
ATOM     60  F10 UNL A   1      60.759  21.661  16.158  1.00  0.00    +0.000 F 
ENDBRANCH   49   50
BRANCH   64   65
ATOM     65  C43 UNL A   1      59.404  16.084  11.270  1.00  0.00    +0.000 C 
ATOM     66  C44 UNL A   1      59.385  14.703  11.505  1.00  0.00    +0.000 C 
ATOM     67  F11 UNL A   1      58.555  14.192  12.426  1.00  0.00    +0.000 F 
ATOM     68  C45 UNL A   1      60.236  13.844  10.813  1.00  0.00    +0.000 C 
ATOM     69  F12 UNL A   1      60.219  12.531  11.077  1.00  0.00    +0.000 F 
ATOM     70  C46 UNL A   1      61.107  14.349   9.857  1.00  0.00    +0.000 C 
ATOM     71  F13 UNL A   1      61.916  13.521   9.182  1.00  0.00    +0.000 F 
ATOM     72  C47 UNL A   1      61.136  15.711   9.603  1.00  0.00    +0.000 C 
ATOM     73  F14 UNL A   1      61.964  16.200   8.669  1.00  0.00    +0.000 F 
ATOM     74  C48 UNL A   1      60.302  16.573  10.311  1.00  0.00    +0.000 C 
ATOM     75  F15 UNL A   1      60.351  17.887  10.045  1.00  0.00    +0.000 F 
ENDBRANCH   64   65
TORSDOF 19
ENDMDL
MODEL 9
REMARK VINA RESULT:      -9.1      1.097      2.278
ROOT
ATOM     28  C19 UNL A   1      52.938  20.709  11.853  1.00  0.00    +0.000 C 
ATOM     29  C20 UNL A   1      52.921  21.611  13.053  1.00  0.00    +0.000 C 
ATOM     30  N5  UNL A   1      53.818  21.752  13.997  1.00  0.00    +0.000 N 
ATOM     31  C21 UNL A   1      53.332  22.747  14.832  1.00  0.00    +0.000 C 
ATOM     32  C22 UNL A   1      53.862  23.214  15.990  1.00  0.00    +0.000 C 
ATOM     44  C29 UNL A   1      55.086  22.730  16.573  1.00  0.00    +0.000 C 
ATOM     45  C30 UNL A   1      55.673  23.089  17.773  1.00  0.00    +0.000 C 
ATOM     46  C31 UNL A   1      56.878  22.388  17.898  1.00  0.00    +0.000 C 
ATOM     47  C32 UNL A   1      57.020  21.558  16.798  1.00  0.00    +0.000 C 
ATOM     48  N6  UNL A   1      55.915  21.781  15.991  1.00  0.00    +0.000 N 
ATOM     49  C33 UNL A   1      58.081  20.629  16.504  1.00  0.00    +0.000 C 
ATOM     61  C40 UNL A   1      58.141  19.837  15.405  1.00  0.00    +0.000 C 
ATOM     62  N7  UNL A   1      57.243  19.739  14.351  1.00  0.00    +0.000 N 
ATOM     63  C41 UNL A   1      57.744  18.849  13.531  1.00  0.00    +0.000 C 
ATOM     64  C42 UNL A   1      57.183  18.333  12.235  1.00  0.00    +0.000 C 
ATOM     76  C49 UNL A   1      55.973  18.758  11.825  1.00  0.00    +0.000 C 
ATOM     77  C50 UNL A   1      55.296  18.330  10.604  1.00  0.00    +0.000 C 
ATOM     78  C51 UNL A   1      54.137  18.996  10.490  1.00  0.00    +0.000 C 
ATOM     79  C52 UNL A   1      53.977  19.879  11.647  1.00  0.00    +0.000 C 
ATOM     80  N8  UNL A   1      55.106  19.655  12.395  1.00  0.00    +0.000 N 
ATOM     81  C53 UNL A   1      59.033  18.291  13.964  1.00  0.00    +0.000 C 
ATOM     82  C54 UNL A   1      59.212  18.902  15.127  1.00  0.00    +0.000 C 
ATOM     83  C55 UNL A   1      52.090  23.215  14.256  1.00  0.00    +0.000 C 
ATOM     84  C56 UNL A   1      51.756  22.497  13.194  1.00  0.00    +0.000 C 
ATOM    117  H22 UNL A   1      55.288  23.758  18.459  1.00  0.00    +0.000 H 
ATOM    118  H23 UNL A   1      57.548  22.473  18.680  1.00  0.00    +0.000 H 
ATOM    119  H24 UNL A   1      55.743  21.332  15.132  1.00  0.00    +0.000 H 
ATOM    120  H25 UNL A   1      55.651  17.628   9.936  1.00  0.00    +0.000 H 
ATOM    121  H26 UNL A   1      53.466  18.904   9.712  1.00  0.00    +0.000 H 
ATOM    122  H27 UNL A   1      55.277  20.098  13.258  1.00  0.00    +0.000 H 
ATOM    123  H28 UNL A   1      59.639  17.604  13.489  1.00  0.00    +0.000 H 
ATOM    124  H29 UNL A   1      60.013  18.732  15.756  1.00  0.00    +0.000 H 
ATOM    125  H30 UNL A   1      51.538  24.005  14.623  1.00  0.00    +0.000 H 
ATOM    126  H31 UNL A   1      50.902  22.546  12.618  1.00  0.00    +0.000 H 
ENDROOT
BRANCH   28   27
ATOM    115  H20 UNL A   1      48.980  19.271   9.945  1.00  0.00    +0.000 H 
ATOM    116  H21 UNL A   1      50.691  19.205  11.666  1.00  0.00    +0.000 H 
ATOM     85  C57 UNL A   1      51.897  21.748   9.836  1.00  0.00    +0.000 C 
ATOM     86  C58 UNL A   1      50.871  21.837   8.897  1.00  0.00    +0.000 C 
ATOM     24  C15 UNL A   1      49.838  20.896   8.902  1.00  0.00    +0.000 C 
ATOM     25  C16 UNL A   1      49.765  19.940   9.919  1.00  0.00    +0.000 C 
ATOM     26  C17 UNL A   1      50.757  19.893  10.901  1.00  0.00    +0.000 C 
ATOM     27  C18 UNL A   1      51.845  20.779  10.850  1.00  0.00    +0.000 C 
ATOM    127  H32 UNL A   1      52.696  22.398   9.786  1.00  0.00    +0.000 H 
ATOM    128  H33 UNL A   1      50.876  22.597   8.198  1.00  0.00    +0.000 H 
BRANCH   24   22
ATOM     22  C14 UNL A   1      48.792  20.900   7.856  1.00  0.00    +0.000 C 
ATOM     23  O4  UNL A   1      48.282  21.961   7.509  1.00  0.00    +0.000 O 
BRANCH   22   21
ATOM    114  H19 UNL A   1      47.846  19.136   7.874  1.00  0.00    +0.000 H 
ATOM     21  N4  UNL A   1      48.382  19.720   7.290  1.00  0.00    +0.000 N 
BRANCH   21   20
ATOM    113  H18 UNL A   1      48.429  18.157   5.968  1.00  0.00    +0.000 H 
ATOM     20  C13 UNL A   1      48.625  19.208   5.954  1.00  0.00    +0.000 C 
ATOM    112  H17 UNL A   1      49.641  19.414   5.687  1.00  0.00    +0.000 H 
BRANCH   20   19
ATOM     19  C12 UNL A   1      47.708  19.838   4.912  1.00  0.00    +0.000 C 
ATOM    110  H15 UNL A   1      47.076  20.544   5.411  1.00  0.00    +0.000 H 
ATOM    111  H16 UNL A   1      48.350  20.283   4.180  1.00  0.00    +0.000 H 
BRANCH   19   18
ATOM     18  C11 UNL A   1      46.813  18.855   4.152  1.00  0.00    +0.000 C 
ATOM    108  H13 UNL A   1      47.356  18.510   3.296  1.00  0.00    +0.000 H 
ATOM    109  H14 UNL A   1      46.568  18.083   4.849  1.00  0.00    +0.000 H 
BRANCH   18   17
ATOM     17  C10 UNL A   1      45.474  19.420   3.665  1.00  0.00    +0.000 C 
ATOM    106  H11 UNL A   1      44.693  18.821   4.082  1.00  0.00    +0.000 H 
ATOM    107  H12 UNL A   1      45.453  20.441   3.984  1.00  0.00    +0.000 H 
BRANCH   17   16
ATOM    105  H10 UNL A   1      45.212  18.430   1.829  1.00  0.00    +0.000 H 
ATOM    104  H9  UNL A   1      46.121  19.963   1.715  1.00  0.00    +0.000 H 
ATOM     16  C9  UNL A   1      45.286  19.450   2.145  1.00  0.00    +0.000 C 
BRANCH   16   15
ATOM    103  H8  UNL A   1      43.689  19.682   0.763  1.00  0.00    +0.000 H 
ATOM    102  H7  UNL A   1      44.211  21.180   1.518  1.00  0.00    +0.000 H 
ATOM     15  C8  UNL A   1      44.010  20.141   1.674  1.00  0.00    +0.000 C 
BRANCH   15   14
ATOM    101  H6  UNL A   1      42.947  20.740   3.312  1.00  0.00    +0.000 H 
ATOM     14  N3  UNL A   1      42.957  20.005   2.657  1.00  0.00    +0.000 N 
BRANCH   14   12
ATOM     12  C7  UNL A   1      41.969  19.081   2.878  1.00  0.00    +0.000 C 
ATOM     13  O3  UNL A   1      42.320  17.963   3.252  1.00  0.00    +0.000 O 
BRANCH   12   11
ATOM    129  H34 UNL A   1      39.465  18.945   4.450  1.00  0.00    +0.000 H 
ATOM    130  H35 UNL A   1      39.369  17.642   3.380  1.00  0.00    +0.000 H 
ATOM    131  H36 UNL A   1      37.520  18.723   2.227  1.00  0.00    +0.000 H 
ATOM      9  N1  UNL A   1      38.783  20.367   1.877  1.00  0.00    +0.000 N 
ATOM     10  N2  UNL A   1      40.116  20.167   1.701  1.00  0.00    +0.000 N 
ATOM     11  C6  UNL A   1      40.491  19.332   2.624  1.00  0.00    +0.000 C 
ATOM     87  C59 UNL A   1      39.387  18.711   3.409  1.00  0.00    +0.000 C 
ATOM     88  C60 UNL A   1      38.165  19.382   2.771  1.00  0.00    +0.000 C 
BRANCH    9    8
ATOM     99  H4  UNL A   1      35.030  21.074  -0.616  1.00  0.00    +0.000 H 
ATOM    100  H5  UNL A   1      36.220  19.983   1.198  1.00  0.00    +0.000 H 
ATOM      5  C2  UNL A   1      36.683  22.235  -1.243  1.00  0.00    +0.000 C 
ATOM      6  C3  UNL A   1      36.021  21.302  -0.437  1.00  0.00    +0.000 C 
ATOM      7  C4  UNL A   1      36.708  20.680   0.613  1.00  0.00    +0.000 C 
ATOM    136  H41 UNL A   1      38.508  23.238  -1.596  1.00  0.00    +0.000 H 
ATOM    135  H40 UNL A   1      39.675  22.161   0.228  1.00  0.00    +0.000 H 
ATOM      8  C5  UNL A   1      38.047  20.991   0.876  1.00  0.00    +0.000 C 
ATOM     94  C65 UNL A   1      38.685  21.927   0.051  1.00  0.00    +0.000 C 
ATOM     95  C66 UNL A   1      38.017  22.550  -1.002  1.00  0.00    +0.000 C 
BRANCH    5    2
ATOM      2  S1  UNL A   1      35.792  22.956  -2.598  1.00  0.00    +0.000 S 
ATOM      3  O1  UNL A   1      36.428  24.229  -2.875  1.00  0.00    +0.000 O 
ATOM      4  O2  UNL A   1      34.384  22.876  -2.262  1.00  0.00    +0.000 O 
BRANCH    2    1
ATOM      1  C1  UNL A   1      36.053  21.907  -4.004  1.00  0.00    +0.000 C 
ATOM     98  H3  UNL A   1      36.528  21.001  -3.690  1.00  0.00    +0.000 H 
ATOM     97  H2  UNL A   1      35.113  21.679  -4.458  1.00  0.00    +0.000 H 
ATOM     96  H1  UNL A   1      36.679  22.410  -4.711  1.00  0.00    +0.000 H 
ENDBRANCH    2    1
ENDBRANCH    5    2
ENDBRANCH    9    8
BRANCH   88   89
ATOM    132  H37 UNL A   1      36.025  18.297   4.617  1.00  0.00    +0.000 H 
ATOM    133  H38 UNL A   1      34.811  20.233   5.964  1.00  0.00    +0.000 H 
ATOM    134  H39 UNL A   1      35.978  22.441   5.304  1.00  0.00    +0.000 H 
ATOM     89  C61 UNL A   1      37.199  19.914   3.789  1.00  0.00    +0.000 C 
ATOM     90  C62 UNL A   1      36.234  19.307   4.571  1.00  0.00    +0.000 C 
ATOM     91  C63 UNL A   1      35.591  20.339   5.296  1.00  0.00    +0.000 C 
ATOM     92  C64 UNL A   1      36.215  21.508   4.932  1.00  0.00    +0.000 C 
ATOM     93  O5  UNL A   1      37.184  21.263   4.017  1.00  0.00    +0.000 O 
ENDBRANCH   88   89
ENDBRANCH   12   11
ENDBRANCH   14   12
ENDBRANCH   15   14
ENDBRANCH   16   15
ENDBRANCH   17   16
ENDBRANCH   18   17
ENDBRANCH   19   18
ENDBRANCH   20   19
ENDBRANCH   21   20
ENDBRANCH   22   21
ENDBRANCH   24   22
ENDBRANCH   28   27
BRANCH   32   33
ATOM     33  C23 UNL A   1      53.113  24.306  16.697  1.00  0.00    +0.000 C 
ATOM     34  C24 UNL A   1      53.341  25.661  16.410  1.00  0.00    +0.000 C 
ATOM     35  F1  UNL A   1      54.260  26.011  15.498  1.00  0.00    +0.000 F 
ATOM     36  C25 UNL A   1      52.662  26.664  17.096  1.00  0.00    +0.000 C 
ATOM     37  F2  UNL A   1      52.943  27.951  16.847  1.00  0.00    +0.000 F 
ATOM     38  C26 UNL A   1      51.715  26.334  18.053  1.00  0.00    +0.000 C 
ATOM     39  F3  UNL A   1      51.064  27.300  18.715  1.00  0.00    +0.000 F 
ATOM     40  C27 UNL A   1      51.450  25.002  18.331  1.00  0.00    +0.000 C 
ATOM     41  F4  UNL A   1      50.525  24.681  19.247  1.00  0.00    +0.000 F 
ATOM     42  C28 UNL A   1      52.149  23.996  17.669  1.00  0.00    +0.000 C 
ATOM     43  F5  UNL A   1      51.886  22.717  17.978  1.00  0.00    +0.000 F 
ENDBRANCH   32   33
BRANCH   49   50
ATOM     50  C34 UNL A   1      59.201  20.510  17.495  1.00  0.00    +0.000 C 
ATOM     51  C35 UNL A   1      59.126  19.630  18.584  1.00  0.00    +0.000 C 
ATOM     52  F6  UNL A   1      58.015  18.908  18.792  1.00  0.00    +0.000 F 
ATOM     53  C36 UNL A   1      60.182  19.516  19.486  1.00  0.00    +0.000 C 
ATOM     54  F7  UNL A   1      60.071  18.700  20.543  1.00  0.00    +0.000 F 
ATOM     55  C37 UNL A   1      61.340  20.255  19.298  1.00  0.00    +0.000 C 
ATOM     56  F8  UNL A   1      62.357  20.139  20.163  1.00  0.00    +0.000 F 
ATOM     57  C38 UNL A   1      61.442  21.119  18.218  1.00  0.00    +0.000 C 
ATOM     58  F9  UNL A   1      62.565  21.826  18.031  1.00  0.00    +0.000 F 
ATOM     59  C39 UNL A   1      60.379  21.256  17.331  1.00  0.00    +0.000 C 
ATOM     60  F10 UNL A   1      60.501  22.108  16.302  1.00  0.00    +0.000 F 
ENDBRANCH   49   50
BRANCH   64   65
ATOM     65  C43 UNL A   1      57.927  17.345  11.413  1.00  0.00    +0.000 C 
ATOM     66  C44 UNL A   1      57.828  15.972  11.673  1.00  0.00    +0.000 C 
ATOM     67  F11 UNL A   1      57.092  15.538  12.707  1.00  0.00    +0.000 F 
ATOM     68  C45 UNL A   1      58.504  15.041  10.888  1.00  0.00    +0.000 C 
ATOM     69  F12 UNL A   1      58.416  13.735  11.176  1.00  0.00    +0.000 F 
ATOM     70  C46 UNL A   1      59.274  15.464   9.815  1.00  0.00    +0.000 C 
ATOM     71  F13 UNL A   1      59.915  14.568   9.052  1.00  0.00    +0.000 F 
ATOM     72  C47 UNL A   1      59.380  16.818   9.534  1.00  0.00    +0.000 C 
ATOM     73  F14 UNL A   1      60.110  17.230   8.488  1.00  0.00    +0.000 F 
ATOM     74  C48 UNL A   1      58.723  17.751  10.333  1.00  0.00    +0.000 C 
ATOM     75  F15 UNL A   1      58.843  19.054  10.039  1.00  0.00    +0.000 F 
ENDBRANCH   64   65
TORSDOF 19
ENDMDL
MODEL 10
REMARK VINA RESULT:      -9.0     40.580     47.478
ROOT
ATOM     28  C19 UNL A   1      26.380  34.810  45.980  1.00  0.00    +0.000 C 
ATOM     29  C20 UNL A   1      26.102  35.972  46.889  1.00  0.00    +0.000 C 
ATOM     30  N5  UNL A   1      26.833  37.033  47.127  1.00  0.00    +0.000 N 
ATOM     31  C21 UNL A   1      26.091  37.813  48.002  1.00  0.00    +0.000 C 
ATOM     32  C22 UNL A   1      26.438  38.980  48.598  1.00  0.00    +0.000 C 
ATOM     44  C29 UNL A   1      27.702  39.641  48.407  1.00  0.00    +0.000 C 
ATOM     45  C30 UNL A   1      28.178  40.790  49.014  1.00  0.00    +0.000 C 
ATOM     46  C31 UNL A   1      29.439  41.077  48.481  1.00  0.00    +0.000 C 
ATOM     47  C32 UNL A   1      29.771  40.083  47.575  1.00  0.00    +0.000 C 
ATOM     48  N6  UNL A   1      28.694  39.210  47.537  1.00  0.00    +0.000 N 
ATOM     49  C33 UNL A   1      30.978  39.936  46.803  1.00  0.00    +0.000 C 
ATOM     61  C40 UNL A   1      31.234  38.920  45.943  1.00  0.00    +0.000 C 
ATOM     62  N7  UNL A   1      30.433  37.836  45.612  1.00  0.00    +0.000 N 
ATOM     63  C41 UNL A   1      31.112  37.141  44.732  1.00  0.00    +0.000 C 
ATOM     64  C42 UNL A   1      30.736  35.857  44.045  1.00  0.00    +0.000 C 
ATOM     76  C49 UNL A   1      29.582  35.247  44.373  1.00  0.00    +0.000 C 
ATOM     77  C50 UNL A   1      29.099  33.991  43.808  1.00  0.00    +0.000 C 
ATOM     78  C51 UNL A   1      27.893  33.712  44.326  1.00  0.00    +0.000 C 
ATOM     79  C52 UNL A   1      27.531  34.759  45.284  1.00  0.00    +0.000 C 
ATOM     80  N8  UNL A   1      28.603  35.617  45.260  1.00  0.00    +0.000 N 
ATOM     81  C53 UNL A   1      32.418  37.718  44.388  1.00  0.00    +0.000 C 
ATOM     82  C54 UNL A   1      32.458  38.783  45.178  1.00  0.00    +0.000 C 
ATOM     83  C55 UNL A   1      24.830  37.134  48.210  1.00  0.00    +0.000 C 
ATOM     84  C56 UNL A   1      24.815  35.958  47.600  1.00  0.00    +0.000 C 
ATOM    117  H22 UNL A   1      27.687  41.340  49.736  1.00  0.00    +0.000 H 
ATOM    118  H23 UNL A   1      30.025  41.893  48.723  1.00  0.00    +0.000 H 
ATOM    119  H24 UNL A   1      28.640  38.403  46.976  1.00  0.00    +0.000 H 
ATOM    120  H25 UNL A   1      29.603  33.411  43.119  1.00  0.00    +0.000 H 
ATOM    121  H26 UNL A   1      27.312  32.893  44.089  1.00  0.00    +0.000 H 
ATOM    122  H27 UNL A   1      28.661  36.421  45.826  1.00  0.00    +0.000 H 
ATOM    123  H28 UNL A   1      33.122  37.384  43.711  1.00  0.00    +0.000 H 
ATOM    124  H29 UNL A   1      33.258  39.431  45.242  1.00  0.00    +0.000 H 
ATOM    125  H30 UNL A   1      24.045  37.516  48.760  1.00  0.00    +0.000 H 
ATOM    126  H31 UNL A   1      24.090  35.224  47.619  1.00  0.00    +0.000 H 
ENDROOT
BRANCH   28   27
ATOM    115  H20 UNL A   1      22.731  32.923  43.862  1.00  0.00    +0.000 H 
ATOM    116  H21 UNL A   1      24.460  34.613  44.078  1.00  0.00    +0.000 H 
ATOM     85  C57 UNL A   1      25.331  32.649  46.658  1.00  0.00    +0.000 C 
ATOM     86  C58 UNL A   1      24.389  31.638  46.481  1.00  0.00    +0.000 C 
ATOM     24  C15 UNL A   1      23.404  31.767  45.499  1.00  0.00    +0.000 C 
ATOM     25  C16 UNL A   1      23.435  32.848  44.612  1.00  0.00    +0.000 C 
ATOM     26  C17 UNL A   1      24.421  33.828  44.747  1.00  0.00    +0.000 C 
ATOM     27  C18 UNL A   1      25.359  33.750  45.788  1.00  0.00    +0.000 C 
ATOM    127  H32 UNL A   1      26.011  32.587  47.431  1.00  0.00    +0.000 H 
ATOM    128  H33 UNL A   1      24.418  30.795  47.077  1.00  0.00    +0.000 H 
BRANCH   24   22
ATOM     22  C14 UNL A   1      22.327  30.763  45.355  1.00  0.00    +0.000 C 
ATOM     23  O4  UNL A   1      22.481  29.811  44.597  1.00  0.00    +0.000 O 
BRANCH   22   21
ATOM    114  H19 UNL A   1      20.827  30.095  46.500  1.00  0.00    +0.000 H 
ATOM     21  N4  UNL A   1      21.155  30.908  46.051  1.00  0.00    +0.000 N 
BRANCH   21   20
ATOM    113  H18 UNL A   1      19.304  31.781  46.144  1.00  0.00    +0.000 H 
ATOM     20  C13 UNL A   1      20.326  32.088  46.221  1.00  0.00    +0.000 C 
ATOM    112  H17 UNL A   1      20.581  32.798  45.461  1.00  0.00    +0.000 H 
BRANCH   20   19
ATOM     19  C12 UNL A   1      20.514  32.741  47.585  1.00  0.00    +0.000 C 
ATOM    110  H15 UNL A   1      19.652  33.344  47.786  1.00  0.00    +0.000 H 
ATOM    111  H16 UNL A   1      20.646  31.940  48.282  1.00  0.00    +0.000 H 
BRANCH   19   18
ATOM     18  C11 UNL A   1      21.755  33.628  47.716  1.00  0.00    +0.000 C 
ATOM    108  H13 UNL A   1      22.509  33.066  48.227  1.00  0.00    +0.000 H 
ATOM    109  H14 UNL A   1      22.023  33.906  46.719  1.00  0.00    +0.000 H 
BRANCH   18   17
ATOM     17  C10 UNL A   1      21.550  34.943  48.477  1.00  0.00    +0.000 C 
ATOM    106  H11 UNL A   1      22.451  35.514  48.396  1.00  0.00    +0.000 H 
ATOM    107  H12 UNL A   1      20.700  35.412  48.029  1.00  0.00    +0.000 H 
BRANCH   17   16
ATOM    105  H10 UNL A   1      22.064  34.329  50.421  1.00  0.00    +0.000 H 
ATOM    104  H9  UNL A   1      20.321  34.219  50.051  1.00  0.00    +0.000 H 
ATOM     16  C9  UNL A   1      21.217  34.798  49.965  1.00  0.00    +0.000 C 
BRANCH   16   15
ATOM    103  H8  UNL A   1      21.542  36.885  50.191  1.00  0.00    +0.000 H 
ATOM    102  H7  UNL A   1      21.356  36.018  51.707  1.00  0.00    +0.000 H 
ATOM     15  C8  UNL A   1      21.003  36.116  50.702  1.00  0.00    +0.000 C 
BRANCH   15   14
ATOM    101  H6  UNL A   1      19.140  36.162  51.538  1.00  0.00    +0.000 H 
ATOM     14  N3  UNL A   1      19.601  36.473  50.726  1.00  0.00    +0.000 N 
BRANCH   14   12
ATOM     12  C7  UNL A   1      18.770  37.147  49.868  1.00  0.00    +0.000 C 
ATOM     13  O3  UNL A   1      17.863  37.807  50.369  1.00  0.00    +0.000 O 
BRANCH   12   11
ATOM    129  H34 UNL A   1      20.730  37.926  47.791  1.00  0.00    +0.000 H 
ATOM    130  H35 UNL A   1      19.450  39.012  47.600  1.00  0.00    +0.000 H 
ATOM    131  H36 UNL A   1      18.925  38.015  45.444  1.00  0.00    +0.000 H 
ATOM      9  N1  UNL A   1      18.689  36.171  46.426  1.00  0.00    +0.000 N 
ATOM     10  N2  UNL A   1      18.223  36.142  47.703  1.00  0.00    +0.000 N 
ATOM     11  C6  UNL A   1      18.862  37.068  48.352  1.00  0.00    +0.000 C 
ATOM     87  C59 UNL A   1      19.698  37.975  47.514  1.00  0.00    +0.000 C 
ATOM     88  C60 UNL A   1      19.460  37.380  46.120  1.00  0.00    +0.000 C 
BRANCH    9    8
ATOM     99  H4  UNL A   1      15.037  35.265  43.850  1.00  0.00    +0.000 H 
ATOM    100  H5  UNL A   1      16.186  36.557  45.555  1.00  0.00    +0.000 H 
ATOM      5  C2  UNL A   1      16.666  33.969  43.478  1.00  0.00    +0.000 C 
ATOM      6  C3  UNL A   1      16.009  35.033  44.106  1.00  0.00    +0.000 C 
ATOM      7  C4  UNL A   1      16.677  35.781  45.084  1.00  0.00    +0.000 C 
ATOM    136  H41 UNL A   1      18.465  32.871  43.353  1.00  0.00    +0.000 H 
ATOM    135  H40 UNL A   1      19.606  34.179  45.036  1.00  0.00    +0.000 H 
ATOM      8  C5  UNL A   1      18.001  35.486  45.430  1.00  0.00    +0.000 C 
ATOM     94  C65 UNL A   1      18.632  34.414  44.786  1.00  0.00    +0.000 C 
ATOM     95  C66 UNL A   1      17.979  33.656  43.815  1.00  0.00    +0.000 C 
BRANCH    5    2
ATOM      2  S1  UNL A   1      15.763  33.011  42.287  1.00  0.00    +0.000 S 
ATOM      3  O1  UNL A   1      15.376  33.928  41.233  1.00  0.00    +0.000 O 
ATOM      4  O2  UNL A   1      14.772  32.253  43.026  1.00  0.00    +0.000 O 
BRANCH    2    1
ATOM      1  C1  UNL A   1      16.902  31.844  41.593  1.00  0.00    +0.000 C 
ATOM     98  H3  UNL A   1      16.377  30.951  41.321  1.00  0.00    +0.000 H 
ATOM     97  H2  UNL A   1      17.361  32.266  40.724  1.00  0.00    +0.000 H 
ATOM     96  H1  UNL A   1      17.655  31.608  42.315  1.00  0.00    +0.000 H 
ENDBRANCH    2    1
ENDBRANCH    5    2
ENDBRANCH    9    8
BRANCH   88   89
ATOM    132  H37 UNL A   1      20.507  35.565  43.935  1.00  0.00    +0.000 H 
ATOM    133  H38 UNL A   1      23.054  36.058  43.382  1.00  0.00    +0.000 H 
ATOM    134  H39 UNL A   1      23.764  38.052  44.862  1.00  0.00    +0.000 H 
ATOM     89  C61 UNL A   1      20.733  37.187  45.348  1.00  0.00    +0.000 C 
ATOM     90  C62 UNL A   1      21.104  36.289  44.366  1.00  0.00    +0.000 C 
ATOM     91  C63 UNL A   1      22.461  36.556  44.064  1.00  0.00    +0.000 C 
ATOM     92  C64 UNL A   1      22.829  37.613  44.861  1.00  0.00    +0.000 C 
ATOM     93  O5  UNL A   1      21.794  37.998  45.646  1.00  0.00    +0.000 O 
ENDBRANCH   88   89
ENDBRANCH   12   11
ENDBRANCH   14   12
ENDBRANCH   15   14
ENDBRANCH   16   15
ENDBRANCH   17   16
ENDBRANCH   18   17
ENDBRANCH   19   18
ENDBRANCH   20   19
ENDBRANCH   21   20
ENDBRANCH   22   21
ENDBRANCH   24   22
ENDBRANCH   28   27
BRANCH   32   33
ATOM     33  C23 UNL A   1      25.429  39.612  49.512  1.00  0.00    +0.000 C 
ATOM     34  C24 UNL A   1      25.377  39.300  50.880  1.00  0.00    +0.000 C 
ATOM     35  F1  UNL A   1      26.230  38.403  51.400  1.00  0.00    +0.000 F 
ATOM     36  C25 UNL A   1      24.415  39.869  51.710  1.00  0.00    +0.000 C 
ATOM     37  F2  UNL A   1      24.348  39.508  52.999  1.00  0.00    +0.000 F 
ATOM     38  C26 UNL A   1      23.513  40.790  51.200  1.00  0.00    +0.000 C 
ATOM     39  F3  UNL A   1      22.586  41.335  52.000  1.00  0.00    +0.000 F 
ATOM     40  C27 UNL A   1      23.565  41.137  49.859  1.00  0.00    +0.000 C 
ATOM     41  F4  UNL A   1      22.701  42.037  49.367  1.00  0.00    +0.000 F 
ATOM     42  C28 UNL A   1      24.506  40.547  49.019  1.00  0.00    +0.000 C 
ATOM     43  F5  UNL A   1      24.515  40.887  47.721  1.00  0.00    +0.000 F 
ENDBRANCH   32   33
BRANCH   49   50
ATOM     50  C34 UNL A   1      32.047  40.975  46.973  1.00  0.00    +0.000 C 
ATOM     51  C35 UNL A   1      33.205  40.719  47.722  1.00  0.00    +0.000 C 
ATOM     52  F6  UNL A   1      33.355  39.545  48.353  1.00  0.00    +0.000 F 
ATOM     53  C36 UNL A   1      34.198  41.686  47.856  1.00  0.00    +0.000 C 
ATOM     54  F7  UNL A   1      35.276  41.436  48.612  1.00  0.00    +0.000 F 
ATOM     55  C37 UNL A   1      34.067  42.911  47.220  1.00  0.00    +0.000 C 
ATOM     56  F8  UNL A   1      35.027  43.838  47.344  1.00  0.00    +0.000 F 
ATOM     57  C38 UNL A   1      32.938  43.179  46.460  1.00  0.00    +0.000 C 
ATOM     58  F9  UNL A   1      32.815  44.359  45.836  1.00  0.00    +0.000 F 
ATOM     59  C39 UNL A   1      31.931  42.225  46.347  1.00  0.00    +0.000 C 
ATOM     60  F10 UNL A   1      30.845  42.516  45.615  1.00  0.00    +0.000 F 
ENDBRANCH   49   50
BRANCH   64   65
ATOM     65  C43 UNL A   1      31.627  35.237  43.033  1.00  0.00    +0.000 C 
ATOM     66  C44 UNL A   1      32.531  34.228  43.390  1.00  0.00    +0.000 C 
ATOM     67  F11 UNL A   1      32.635  33.845  44.671  1.00  0.00    +0.000 F 
ATOM     68  C45 UNL A   1      33.350  33.626  42.438  1.00  0.00    +0.000 C 
ATOM     69  F12 UNL A   1      34.227  32.684  42.810  1.00  0.00    +0.000 F 
ATOM     70  C46 UNL A   1      33.265  34.007  41.106  1.00  0.00    +0.000 C 
ATOM     71  F13 UNL A   1      34.044  33.418  40.188  1.00  0.00    +0.000 F 
ATOM     72  C47 UNL A   1      32.371  34.996  40.728  1.00  0.00    +0.000 C 
ATOM     73  F14 UNL A   1      32.274  35.356  39.441  1.00  0.00    +0.000 F 
ATOM     74  C48 UNL A   1      31.569  35.616  41.684  1.00  0.00    +0.000 C 
ATOM     75  F15 UNL A   1      30.713  36.571  41.291  1.00  0.00    +0.000 F 
ENDBRANCH   64   65
TORSDOF 19
ENDMDL
