MODEL 1
REMARK VINA RESULT:     -10.1      0.000      0.000
ROOT
ATOM    129  H27 UNL A   1      44.505  32.295  31.070  1.00  0.00    +0.000 H 
ATOM    130  H28 UNL A   1      45.209  28.533  32.383  1.00  0.00    +0.000 H 
ATOM    131  H29 UNL A   1      41.372  27.759  25.181  1.00  0.00    +0.000 H 
ATOM    132  H30 UNL A   1      39.878  29.396  26.433  1.00  0.00    +0.000 H 
ATOM    133  H31 UNL A   1      42.782  28.130  29.110  1.00  0.00    +0.000 H 
ATOM    134  H32 UNL A   1      44.087  25.226  29.363  1.00  0.00    +0.000 H 
ATOM    135  H33 UNL A   1      44.646  27.070  31.083  1.00  0.00    +0.000 H 
ATOM    136  H34 UNL A   1      39.866  27.829  33.610  1.00  0.00    +0.000 H 
ATOM    137  H35 UNL A   1      38.897  27.562  31.234  1.00  0.00    +0.000 H 
ATOM     38  C28 UNL A   1      40.237  29.256  29.315  1.00  0.00    +0.000 C 
ATOM     39  C29 UNL A   1      40.588  28.991  30.733  1.00  0.00    +0.000 C 
ATOM     40  N5  UNL A   1      41.525  29.556  31.420  1.00  0.00    +0.000 N 
ATOM     41  C30 UNL A   1      41.509  28.944  32.668  1.00  0.00    +0.000 C 
ATOM     42  C31 UNL A   1      42.641  28.882  33.423  1.00  0.00    +0.000 C 
ATOM     54  C38 UNL A   1      43.630  29.819  32.943  1.00  0.00    +0.000 C 
ATOM     55  C39 UNL A   1      43.654  31.190  32.767  1.00  0.00    +0.000 C 
ATOM     56  C40 UNL A   1      44.353  31.390  31.540  1.00  0.00    +0.000 C 
ATOM     57  C41 UNL A   1      44.793  30.145  31.088  1.00  0.00    +0.000 C 
ATOM     58  N6  UNL A   1      44.663  29.328  32.182  1.00  0.00    +0.000 N 
ATOM     59  C42 UNL A   1      45.237  29.679  29.798  1.00  0.00    +0.000 C 
ATOM     71  C49 UNL A   1      45.169  28.380  29.382  1.00  0.00    +0.000 C 
ATOM     72  N7  UNL A   1      45.188  28.060  28.032  1.00  0.00    +0.000 N 
ATOM     73  C50 UNL A   1      44.508  26.946  27.951  1.00  0.00    +0.000 C 
ATOM     74  C51 UNL A   1      43.513  26.685  26.875  1.00  0.00    +0.000 C 
ATOM     86  C58 UNL A   1      42.494  27.560  27.076  1.00  0.00    +0.000 C 
ATOM     87  C59 UNL A   1      41.463  28.019  26.176  1.00  0.00    +0.000 C 
ATOM     88  C60 UNL A   1      40.641  28.844  26.853  1.00  0.00    +0.000 C 
ATOM     89  C61 UNL A   1      40.995  28.839  28.276  1.00  0.00    +0.000 C 
ATOM     90  N8  UNL A   1      42.200  28.173  28.318  1.00  0.00    +0.000 N 
ATOM     91  C62 UNL A   1      44.366  26.205  29.196  1.00  0.00    +0.000 C 
ATOM     92  C63 UNL A   1      44.705  27.170  30.057  1.00  0.00    +0.000 C 
ATOM     93  C64 UNL A   1      40.270  28.215  32.743  1.00  0.00    +0.000 C 
ATOM     94  C65 UNL A   1      39.717  28.113  31.532  1.00  0.00    +0.000 C 
ATOM    128  H26 UNL A   1      43.254  31.911  33.388  1.00  0.00    +0.000 H 
ENDROOT
BRANCH   38   37
ATOM     34  C24 UNL A   1      36.459  30.920  28.545  1.00  0.00    +0.000 C 
ATOM     35  C25 UNL A   1      36.634  29.554  28.301  1.00  0.00    +0.000 C 
ATOM     36  C26 UNL A   1      37.855  28.966  28.620  1.00  0.00    +0.000 C 
ATOM     37  C27 UNL A   1      38.890  29.774  29.110  1.00  0.00    +0.000 C 
ATOM    138  H36 UNL A   1      39.501  31.740  29.569  1.00  0.00    +0.000 H 
ATOM    139  H37 UNL A   1      37.251  32.622  29.504  1.00  0.00    +0.000 H 
ATOM    127  H25 UNL A   1      37.995  27.951  28.498  1.00  0.00    +0.000 H 
ATOM    126  H24 UNL A   1      35.872  28.991  27.891  1.00  0.00    +0.000 H 
ATOM     95  C66 UNL A   1      38.704  31.137  29.311  1.00  0.00    +0.000 C 
ATOM     96  C67 UNL A   1      37.454  31.670  29.162  1.00  0.00    +0.000 C 
BRANCH   34   32
ATOM     33  O4  UNL A   1      34.324  31.012  27.583  1.00  0.00    +0.000 O 
ATOM     32  C23 UNL A   1      35.236  31.623  28.126  1.00  0.00    +0.000 C 
BRANCH   32   31
ATOM    125  H23 UNL A   1      35.773  33.553  27.874  1.00  0.00    +0.000 H 
ATOM     31  N4  UNL A   1      35.144  32.979  28.366  1.00  0.00    +0.000 N 
BRANCH   31   30
ATOM    123  H21 UNL A   1      33.985  34.624  28.875  1.00  0.00    +0.000 H 
ATOM    124  H22 UNL A   1      33.329  33.062  29.353  1.00  0.00    +0.000 H 
ATOM     30  C22 UNL A   1      34.214  33.657  29.271  1.00  0.00    +0.000 C 
BRANCH   30   29
ATOM    121  H19 UNL A   1      35.873  33.920  30.564  1.00  0.00    +0.000 H 
ATOM    122  H20 UNL A   1      34.367  34.687  31.099  1.00  0.00    +0.000 H 
ATOM     29  C21 UNL A   1      34.812  33.820  30.659  1.00  0.00    +0.000 C 
BRANCH   29   28
ATOM     28  C20 UNL A   1      34.512  32.629  31.582  1.00  0.00    +0.000 C 
ATOM    119  H17 UNL A   1      33.451  32.564  31.699  1.00  0.00    +0.000 H 
ATOM    120  H18 UNL A   1      34.949  31.776  31.109  1.00  0.00    +0.000 H 
BRANCH   28   27
ATOM     27  C19 UNL A   1      35.139  32.701  32.985  1.00  0.00    +0.000 C 
ATOM    117  H15 UNL A   1      35.041  33.705  33.342  1.00  0.00    +0.000 H 
ATOM    118  H16 UNL A   1      34.614  31.986  33.584  1.00  0.00    +0.000 H 
BRANCH   27   26
ATOM     26  C18 UNL A   1      36.622  32.314  33.051  1.00  0.00    +0.000 C 
ATOM    115  H13 UNL A   1      36.768  31.662  33.887  1.00  0.00    +0.000 H 
ATOM    116  H14 UNL A   1      36.873  31.835  32.128  1.00  0.00    +0.000 H 
BRANCH   26   25
ATOM     25  C17 UNL A   1      37.540  33.528  33.207  1.00  0.00    +0.000 C 
ATOM    114  H12 UNL A   1      38.011  33.495  34.168  1.00  0.00    +0.000 H 
ATOM    113  H11 UNL A   1      36.962  34.425  33.121  1.00  0.00    +0.000 H 
BRANCH   25   24
ATOM    112  H10 UNL A   1      38.226  33.785  31.290  1.00  0.00    +0.000 H 
ATOM     24  N3  UNL A   1      38.556  33.510  32.176  1.00  0.00    +0.000 N 
BRANCH   24   22
ATOM     22  C16 UNL A   1      39.888  33.186  32.190  1.00  0.00    +0.000 C 
ATOM     23  O3  UNL A   1      40.258  32.347  33.011  1.00  0.00    +0.000 O 
BRANCH   22   21
ATOM     97  C68 UNL A   1      40.774  34.082  29.961  1.00  0.00    +0.000 C 
ATOM     98  C69 UNL A   1      41.668  34.908  29.279  1.00  0.00    +0.000 C 
ATOM    140  H38 UNL A   1      40.007  33.623  29.444  1.00  0.00    +0.000 H 
ATOM    141  H39 UNL A   1      41.502  35.152  28.290  1.00  0.00    +0.000 H 
ATOM    110  H8  UNL A   1      43.892  35.353  31.751  1.00  0.00    +0.000 H 
ATOM    111  H9  UNL A   1      42.198  34.130  32.984  1.00  0.00    +0.000 H 
ATOM     18  C12 UNL A   1      42.789  35.399  29.946  1.00  0.00    +0.000 C 
ATOM     19  C13 UNL A   1      43.018  35.063  31.284  1.00  0.00    +0.000 C 
ATOM     20  C14 UNL A   1      42.057  34.332  31.982  1.00  0.00    +0.000 C 
ATOM     21  C15 UNL A   1      40.901  33.867  31.337  1.00  0.00    +0.000 C 
BRANCH   18   17
ATOM     99  N9  UNL A   1      44.852  35.700  28.753  1.00  0.00    +0.000 N 
ATOM    100  N10 UNL A   1      45.484  36.669  28.117  1.00  0.00    +0.000 N 
ATOM    109  H7  UNL A   1      42.947  38.235  29.363  1.00  0.00    +0.000 H 
ATOM     15  C10 UNL A   1      44.782  37.836  28.276  1.00  0.00    +0.000 C 
ATOM     16  C11 UNL A   1      43.663  37.568  29.037  1.00  0.00    +0.000 C 
ATOM     17  N2  UNL A   1      43.716  36.210  29.265  1.00  0.00    +0.000 N 
BRANCH   15   14
ATOM    107  H5  UNL A   1      44.729  39.920  28.148  1.00  0.00    +0.000 H 
ATOM    108  H6  UNL A   1      46.352  39.157  28.086  1.00  0.00    +0.000 H 
ATOM     14  C9  UNL A   1      45.333  39.125  27.761  1.00  0.00    +0.000 C 
BRANCH   14   13
ATOM     13  O2  UNL A   1      45.374  39.259  26.329  1.00  0.00    +0.000 O 
BRANCH   13   12
ATOM    101  C70 UNL A   1      45.968  41.277  25.059  1.00  0.00    +0.000 C 
ATOM    102  C71 UNL A   1      45.504  42.394  24.361  1.00  0.00    +0.000 C 
ATOM      9  C5  UNL A   1      44.161  42.765  24.434  1.00  0.00    +0.000 C 
ATOM     10  C6  UNL A   1      43.302  42.048  25.270  1.00  0.00    +0.000 C 
ATOM    105  H3  UNL A   1      42.327  42.360  25.399  1.00  0.00    +0.000 H 
ATOM     11  C7  UNL A   1      43.764  40.904  25.932  1.00  0.00    +0.000 C 
ATOM    106  H4  UNL A   1      43.123  40.372  26.540  1.00  0.00    +0.000 H 
ATOM     12  C8  UNL A   1      45.085  40.477  25.777  1.00  0.00    +0.000 C 
ATOM    143  H41 UNL A   1      46.159  42.948  23.788  1.00  0.00    +0.000 H 
ATOM    142  H40 UNL A   1      46.974  41.044  25.040  1.00  0.00    +0.000 H 
BRANCH    9    8
ATOM    104  H2  UNL A   1      43.243  44.682  24.126  1.00  0.00    +0.000 H 
ATOM      8  C4  UNL A   1      43.673  43.887  23.629  1.00  0.00    +0.000 C 
BRANCH    8    7
ATOM      1  O1  UNL A   1      41.851  42.559  21.793  1.00  0.00    +0.000 O 
ATOM      2  C1  UNL A   1      42.770  43.250  21.415  1.00  0.00    +0.000 C 
ATOM      3  N1  UNL A   1      43.062  43.519  20.102  1.00  0.00    +0.000 N 
ATOM      4  C2  UNL A   1      44.128  44.321  19.831  1.00  0.00    +0.000 C 
ATOM      5  S1  UNL A   1      44.599  44.726  18.296  1.00  0.00    +0.000 S 
ATOM      6  S2  UNL A   1      44.885  44.824  21.323  1.00  0.00    +0.000 S 
ATOM      7  C3  UNL A   1      43.747  43.955  22.293  1.00  0.00    +0.000 C 
ATOM    103  H1  UNL A   1      42.515  43.143  19.376  1.00  0.00    +0.000 H 
ENDBRANCH    8    7
ENDBRANCH    9    8
ENDBRANCH   13   12
ENDBRANCH   14   13
ENDBRANCH   15   14
ENDBRANCH   18   17
ENDBRANCH   22   21
ENDBRANCH   24   22
ENDBRANCH   25   24
ENDBRANCH   26   25
ENDBRANCH   27   26
ENDBRANCH   28   27
ENDBRANCH   29   28
ENDBRANCH   30   29
ENDBRANCH   31   30
ENDBRANCH   32   31
ENDBRANCH   34   32
ENDBRANCH   38   37
BRANCH   42   43
ATOM     43  C32 UNL A   1      43.015  27.730  34.323  1.00  0.00    +0.000 C 
ATOM     44  C33 UNL A   1      43.279  26.472  33.742  1.00  0.00    +0.000 C 
ATOM     45  F1  UNL A   1      43.481  26.360  32.419  1.00  0.00    +0.000 F 
ATOM     46  C34 UNL A   1      43.239  25.291  34.486  1.00  0.00    +0.000 C 
ATOM     47  F2  UNL A   1      43.357  24.109  33.863  1.00  0.00    +0.000 F 
ATOM     48  C35 UNL A   1      43.003  25.327  35.847  1.00  0.00    +0.000 C 
ATOM     49  F3  UNL A   1      42.896  24.193  36.550  1.00  0.00    +0.000 F 
ATOM     50  C36 UNL A   1      42.829  26.545  36.468  1.00  0.00    +0.000 C 
ATOM     51  F4  UNL A   1      42.585  26.601  37.785  1.00  0.00    +0.000 F 
ATOM     52  C37 UNL A   1      42.814  27.721  35.721  1.00  0.00    +0.000 C 
ATOM     53  F5  UNL A   1      42.484  28.822  36.405  1.00  0.00    +0.000 F 
ENDBRANCH   42   43
BRANCH   59   60
ATOM     65  C46 UNL A   1      46.056  32.524  26.656  1.00  0.00    +0.000 C 
ATOM     66  F8  UNL A   1      46.281  33.361  25.632  1.00  0.00    +0.000 F 
ATOM     67  C47 UNL A   1      44.757  32.234  27.044  1.00  0.00    +0.000 C 
ATOM     68  F9  UNL A   1      43.725  32.770  26.379  1.00  0.00    +0.000 F 
ATOM     69  C48 UNL A   1      44.519  31.361  28.102  1.00  0.00    +0.000 C 
ATOM     70  F10 UNL A   1      43.249  31.082  28.432  1.00  0.00    +0.000 F 
ATOM     60  C43 UNL A   1      45.573  30.735  28.779  1.00  0.00    +0.000 C 
ATOM     61  C44 UNL A   1      46.878  31.019  28.344  1.00  0.00    +0.000 C 
ATOM     62  F6  UNL A   1      47.932  30.379  28.865  1.00  0.00    +0.000 F 
ATOM     63  C45 UNL A   1      47.118  31.925  27.311  1.00  0.00    +0.000 C 
ATOM     64  F7  UNL A   1      48.374  32.185  26.922  1.00  0.00    +0.000 F 
ENDBRANCH   59   60
BRANCH   74   75
ATOM     75  C52 UNL A   1      43.549  25.483  26.007  1.00  0.00    +0.000 C 
ATOM     76  C53 UNL A   1      44.666  25.204  25.202  1.00  0.00    +0.000 C 
ATOM     77  F11 UNL A   1      45.625  26.125  25.034  1.00  0.00    +0.000 F 
ATOM     78  C54 UNL A   1      44.854  23.947  24.614  1.00  0.00    +0.000 C 
ATOM     79  F12 UNL A   1      45.967  23.698  23.910  1.00  0.00    +0.000 F 
ATOM     80  C55 UNL A   1      43.926  22.937  24.806  1.00  0.00    +0.000 C 
ATOM     81  F13 UNL A   1      44.140  21.713  24.302  1.00  0.00    +0.000 F 
ATOM     82  C56 UNL A   1      42.798  23.189  25.562  1.00  0.00    +0.000 C 
ATOM     83  F14 UNL A   1      41.908  22.212  25.785  1.00  0.00    +0.000 F 
ATOM     84  C57 UNL A   1      42.613  24.439  26.155  1.00  0.00    +0.000 C 
ATOM     85  F15 UNL A   1      41.546  24.575  26.954  1.00  0.00    +0.000 F 
ENDBRANCH   74   75
TORSDOF 21
ENDMDL
MODEL 2
REMARK VINA RESULT:      -9.6     40.978     47.341
ROOT
ATOM    129  H27 UNL A   1       4.256  15.094  38.774  1.00  0.00    +0.000 H 
ATOM    130  H28 UNL A   1       2.577  17.377  41.662  1.00  0.00    +0.000 H 
ATOM    131  H29 UNL A   1       4.852  10.396  45.304  1.00  0.00    +0.000 H 
ATOM    132  H30 UNL A   1       3.555   9.567  43.278  1.00  0.00    +0.000 H 
ATOM    133  H31 UNL A   1       3.155  13.695  43.356  1.00  0.00    +0.000 H 
ATOM    134  H32 UNL A   1       2.877  15.592  45.910  1.00  0.00    +0.000 H 
ATOM    135  H33 UNL A   1       2.642  16.557  43.526  1.00  0.00    +0.000 H 
ATOM    136  H34 UNL A   1      -1.939  14.192  41.729  1.00  0.00    +0.000 H 
ATOM    137  H35 UNL A   1      -1.002  12.119  42.945  1.00  0.00    +0.000 H 
ATOM     38  C28 UNL A   1       1.741  11.576  42.215  1.00  0.00    +0.000 C 
ATOM     39  C29 UNL A   1       0.898  12.749  41.873  1.00  0.00    +0.000 C 
ATOM     40  N5  UNL A   1       1.207  13.725  41.086  1.00  0.00    +0.000 N 
ATOM     41  C30 UNL A   1       0.133  14.607  41.125  1.00  0.00    +0.000 C 
ATOM     42  C31 UNL A   1       0.318  15.934  40.882  1.00  0.00    +0.000 C 
ATOM     54  C38 UNL A   1       1.591  16.167  40.241  1.00  0.00    +0.000 C 
ATOM     55  C39 UNL A   1       2.172  15.728  39.067  1.00  0.00    +0.000 C 
ATOM     56  C40 UNL A   1       3.538  15.488  39.402  1.00  0.00    +0.000 C 
ATOM     57  C41 UNL A   1       3.731  15.880  40.727  1.00  0.00    +0.000 C 
ATOM     58  N6  UNL A   1       2.623  16.635  41.016  1.00  0.00    +0.000 N 
ATOM     59  C42 UNL A   1       4.760  15.580  41.691  1.00  0.00    +0.000 C 
ATOM     71  C49 UNL A   1       4.583  15.618  43.045  1.00  0.00    +0.000 C 
ATOM     72  N7  UNL A   1       5.427  14.919  43.896  1.00  0.00    +0.000 N 
ATOM     73  C50 UNL A   1       4.685  14.638  44.935  1.00  0.00    +0.000 C 
ATOM     74  C51 UNL A   1       4.706  13.310  45.606  1.00  0.00    +0.000 C 
ATOM     86  C58 UNL A   1       4.196  12.423  44.714  1.00  0.00    +0.000 C 
ATOM     87  C59 UNL A   1       4.305  10.985  44.657  1.00  0.00    +0.000 C 
ATOM     88  C60 UNL A   1       3.575  10.542  43.616  1.00  0.00    +0.000 C 
ATOM     89  C61 UNL A   1       2.814  11.652  43.035  1.00  0.00    +0.000 C 
ATOM     90  N8  UNL A   1       3.344  12.771  43.638  1.00  0.00    +0.000 N 
ATOM     91  C62 UNL A   1       3.490  15.455  45.091  1.00  0.00    +0.000 C 
ATOM     92  C63 UNL A   1       3.423  15.973  43.861  1.00  0.00    +0.000 C 
ATOM     93  C64 UNL A   1      -0.952  13.890  41.742  1.00  0.00    +0.000 C 
ATOM     94  C65 UNL A   1      -0.501  12.780  42.330  1.00  0.00    +0.000 C 
ATOM    128  H26 UNL A   1       1.719  15.601  38.148  1.00  0.00    +0.000 H 
ENDROOT
BRANCH   38   37
ATOM     34  C24 UNL A   1       0.390   7.784  41.022  1.00  0.00    +0.000 C 
ATOM     35  C25 UNL A   1       0.025   8.237  42.294  1.00  0.00    +0.000 C 
ATOM     36  C26 UNL A   1       0.399   9.522  42.680  1.00  0.00    +0.000 C 
ATOM     37  C27 UNL A   1       1.185  10.290  41.812  1.00  0.00    +0.000 C 
ATOM    138  H36 UNL A   1       2.231  10.333  39.981  1.00  0.00    +0.000 H 
ATOM    139  H37 UNL A   1       1.150   8.342  39.137  1.00  0.00    +0.000 H 
ATOM    127  H25 UNL A   1       0.100   9.901  43.592  1.00  0.00    +0.000 H 
ATOM    126  H24 UNL A   1      -0.510   7.631  42.935  1.00  0.00    +0.000 H 
ATOM     95  C66 UNL A   1       1.566   9.804  40.566  1.00  0.00    +0.000 C 
ATOM     96  C67 UNL A   1       1.050   8.618  40.126  1.00  0.00    +0.000 C 
BRANCH   34   32
ATOM     33  O4  UNL A   1       0.608   5.458  41.215  1.00  0.00    +0.000 O 
ATOM     32  C23 UNL A   1       0.126   6.400  40.597  1.00  0.00    +0.000 C 
BRANCH   32   31
ATOM    125  H23 UNL A   1      -0.263   5.728  38.733  1.00  0.00    +0.000 H 
ATOM     31  N4  UNL A   1      -0.678   6.193  39.495  1.00  0.00    +0.000 N 
BRANCH   31   30
ATOM    123  H21 UNL A   1      -2.588   5.840  38.764  1.00  0.00    +0.000 H 
ATOM    124  H22 UNL A   1      -2.515   6.689  40.305  1.00  0.00    +0.000 H 
ATOM     30  C22 UNL A   1      -2.078   6.589  39.334  1.00  0.00    +0.000 C 
BRANCH   30   29
ATOM    121  H19 UNL A   1      -1.214   8.307  38.441  1.00  0.00    +0.000 H 
ATOM    122  H20 UNL A   1      -2.725   7.749  37.701  1.00  0.00    +0.000 H 
ATOM     29  C21 UNL A   1      -2.197   7.923  38.616  1.00  0.00    +0.000 C 
BRANCH   29   28
ATOM     28  C20 UNL A   1      -2.995   8.963  39.416  1.00  0.00    +0.000 C 
ATOM    119  H17 UNL A   1      -3.779   9.331  38.787  1.00  0.00    +0.000 H 
ATOM    120  H18 UNL A   1      -3.344   8.455  40.290  1.00  0.00    +0.000 H 
BRANCH   28   27
ATOM     27  C19 UNL A   1      -2.191  10.172  39.925  1.00  0.00    +0.000 C 
ATOM    117  H15 UNL A   1      -2.014  10.036  40.971  1.00  0.00    +0.000 H 
ATOM    118  H16 UNL A   1      -1.293  10.200  39.344  1.00  0.00    +0.000 H 
BRANCH   27   26
ATOM     26  C18 UNL A   1      -2.874  11.531  39.729  1.00  0.00    +0.000 C 
ATOM    115  H13 UNL A   1      -3.552  11.694  40.541  1.00  0.00    +0.000 H 
ATOM    116  H14 UNL A   1      -2.108  12.277  39.699  1.00  0.00    +0.000 H 
BRANCH   26   25
ATOM     25  C17 UNL A   1      -3.654  11.614  38.415  1.00  0.00    +0.000 C 
ATOM    114  H12 UNL A   1      -4.518  12.231  38.553  1.00  0.00    +0.000 H 
ATOM    113  H11 UNL A   1      -3.957  10.631  38.119  1.00  0.00    +0.000 H 
BRANCH   25   24
ATOM    112  H10 UNL A   1      -2.895  13.169  37.311  1.00  0.00    +0.000 H 
ATOM     24  N3  UNL A   1      -2.817  12.191  37.384  1.00  0.00    +0.000 N 
BRANCH   24   22
ATOM     22  C16 UNL A   1      -1.935  11.643  36.488  1.00  0.00    +0.000 C 
ATOM     23  O3  UNL A   1      -2.379  11.305  35.391  1.00  0.00    +0.000 O 
BRANCH   22   21
ATOM     97  C68 UNL A   1       0.161  10.173  36.486  1.00  0.00    +0.000 C 
ATOM     98  C69 UNL A   1       1.544  10.068  36.646  1.00  0.00    +0.000 C 
ATOM    140  H38 UNL A   1      -0.372   9.370  36.117  1.00  0.00    +0.000 H 
ATOM    141  H39 UNL A   1       2.047   9.239  36.295  1.00  0.00    +0.000 H 
ATOM    110  H8  UNL A   1       2.052  12.929  38.322  1.00  0.00    +0.000 H 
ATOM    111  H9  UNL A   1      -0.302  13.207  37.809  1.00  0.00    +0.000 H 
ATOM     18  C12 UNL A   1       2.237  11.093  37.287  1.00  0.00    +0.000 C 
ATOM     19  C13 UNL A   1       1.554  12.213  37.770  1.00  0.00    +0.000 C 
ATOM     20  C14 UNL A   1       0.192  12.356  37.502  1.00  0.00    +0.000 C 
ATOM     21  C15 UNL A   1      -0.512  11.353  36.818  1.00  0.00    +0.000 C 
BRANCH   18   17
ATOM     99  N9  UNL A   1       4.441  12.047  37.302  1.00  0.00    +0.000 N 
ATOM    100  N10 UNL A   1       5.668  11.677  37.622  1.00  0.00    +0.000 N 
ATOM    109  H7  UNL A   1       4.024   8.917  37.979  1.00  0.00    +0.000 H 
ATOM     15  C10 UNL A   1       5.657  10.345  37.950  1.00  0.00    +0.000 C 
ATOM     16  C11 UNL A   1       4.364   9.881  37.834  1.00  0.00    +0.000 C 
ATOM     17  N2  UNL A   1       3.627  10.990  37.483  1.00  0.00    +0.000 N 
BRANCH   15   14
ATOM    107  H5  UNL A   1       7.707  10.362  38.348  1.00  0.00    +0.000 H 
ATOM    108  H6  UNL A   1       6.755   9.051  39.120  1.00  0.00    +0.000 H 
ATOM     14  C9  UNL A   1       6.936   9.628  38.237  1.00  0.00    +0.000 C 
BRANCH   14   13
ATOM     13  O2  UNL A   1       7.362   8.687  37.235  1.00  0.00    +0.000 O 
BRANCH   13   12
ATOM    101  C70 UNL A   1       6.166   6.687  38.017  1.00  0.00    +0.000 C 
ATOM    102  C71 UNL A   1       5.228   5.698  37.715  1.00  0.00    +0.000 C 
ATOM      9  C5  UNL A   1       4.776   5.528  36.406  1.00  0.00    +0.000 C 
ATOM     10  C6  UNL A   1       5.326   6.312  35.389  1.00  0.00    +0.000 C 
ATOM    105  H3  UNL A   1       5.063   6.141  34.406  1.00  0.00    +0.000 H 
ATOM     11  C7  UNL A   1       6.234   7.329  35.705  1.00  0.00    +0.000 C 
ATOM    106  H4  UNL A   1       6.631   7.912  34.952  1.00  0.00    +0.000 H 
ATOM     12  C8  UNL A   1       6.609   7.563  37.030  1.00  0.00    +0.000 C 
ATOM    143  H41 UNL A   1       4.866   5.089  38.466  1.00  0.00    +0.000 H 
ATOM    142  H40 UNL A   1       6.533   6.768  38.978  1.00  0.00    +0.000 H 
BRANCH    9    8
ATOM    104  H2  UNL A   1       3.979   3.546  36.184  1.00  0.00    +0.000 H 
ATOM      8  C4  UNL A   1       3.728   4.545  36.122  1.00  0.00    +0.000 C 
BRANCH    8    7
ATOM      1  O1  UNL A   1       2.053   2.975  34.339  1.00  0.00    +0.000 O 
ATOM      2  C1  UNL A   1       1.666   3.990  34.871  1.00  0.00    +0.000 C 
ATOM      3  N1  UNL A   1       0.409   4.520  34.733  1.00  0.00    +0.000 N 
ATOM      4  C2  UNL A   1       0.118   5.670  35.399  1.00  0.00    +0.000 C 
ATOM      5  S1  UNL A   1      -1.355   6.423  35.323  1.00  0.00    +0.000 S 
ATOM      6  S2  UNL A   1       1.513   6.195  36.311  1.00  0.00    +0.000 S 
ATOM      7  C3  UNL A   1       2.467   4.850  35.788  1.00  0.00    +0.000 C 
ATOM    103  H1  UNL A   1      -0.264   4.080  34.167  1.00  0.00    +0.000 H 
ENDBRANCH    8    7
ENDBRANCH    9    8
ENDBRANCH   13   12
ENDBRANCH   14   13
ENDBRANCH   15   14
ENDBRANCH   18   17
ENDBRANCH   22   21
ENDBRANCH   24   22
ENDBRANCH   25   24
ENDBRANCH   26   25
ENDBRANCH   27   26
ENDBRANCH   28   27
ENDBRANCH   29   28
ENDBRANCH   30   29
ENDBRANCH   31   30
ENDBRANCH   32   31
ENDBRANCH   34   32
ENDBRANCH   38   37
BRANCH   42   43
ATOM     43  C32 UNL A   1      -0.441  17.049  41.563  1.00  0.00    +0.000 C 
ATOM     44  C33 UNL A   1      -1.348  17.814  40.802  1.00  0.00    +0.000 C 
ATOM     45  F1  UNL A   1      -1.750  17.393  39.592  1.00  0.00    +0.000 F 
ATOM     46  C34 UNL A   1      -1.783  19.075  41.217  1.00  0.00    +0.000 C 
ATOM     47  F2  UNL A   1      -2.532  19.824  40.397  1.00  0.00    +0.000 F 
ATOM     48  C35 UNL A   1      -1.383  19.587  42.438  1.00  0.00    +0.000 C 
ATOM     49  F3  UNL A   1      -1.741  20.822  42.809  1.00  0.00    +0.000 F 
ATOM     50  C36 UNL A   1      -0.567  18.829  43.251  1.00  0.00    +0.000 C 
ATOM     51  F4  UNL A   1      -0.156  19.314  44.431  1.00  0.00    +0.000 F 
ATOM     52  C37 UNL A   1      -0.088  17.596  42.815  1.00  0.00    +0.000 C 
ATOM     53  F5  UNL A   1       0.815  17.024  43.619  1.00  0.00    +0.000 F 
ENDBRANCH   42   43
BRANCH   59   60
ATOM     65  C46 UNL A   1       8.301  13.913  39.869  1.00  0.00    +0.000 C 
ATOM     66  F8  UNL A   1       9.374  13.416  39.237  1.00  0.00    +0.000 F 
ATOM     67  C47 UNL A   1       8.071  15.280  39.877  1.00  0.00    +0.000 C 
ATOM     68  F9  UNL A   1       8.909  16.103  39.233  1.00  0.00    +0.000 F 
ATOM     69  C48 UNL A   1       6.955  15.800  40.526  1.00  0.00    +0.000 C 
ATOM     70  F10 UNL A   1       6.750  17.126  40.491  1.00  0.00    +0.000 F 
ATOM     60  C43 UNL A   1       6.025  14.964  41.157  1.00  0.00    +0.000 C 
ATOM     61  C44 UNL A   1       6.263  13.580  41.103  1.00  0.00    +0.000 C 
ATOM     62  F6  UNL A   1       5.368  12.710  41.586  1.00  0.00    +0.000 F 
ATOM     63  C45 UNL A   1       7.402  13.062  40.489  1.00  0.00    +0.000 C 
ATOM     64  F7  UNL A   1       7.609  11.738  40.462  1.00  0.00    +0.000 F 
ENDBRANCH   59   60
BRANCH   74   75
ATOM     75  C52 UNL A   1       4.942  13.136  47.060  1.00  0.00    +0.000 C 
ATOM     76  C53 UNL A   1       4.093  12.332  47.840  1.00  0.00    +0.000 C 
ATOM     77  F11 UNL A   1       2.934  11.886  47.336  1.00  0.00    +0.000 F 
ATOM     78  C54 UNL A   1       4.454  11.912  49.126  1.00  0.00    +0.000 C 
ATOM     79  F12 UNL A   1       3.647  11.089  49.811  1.00  0.00    +0.000 F 
ATOM     80  C55 UNL A   1       5.669  12.290  49.672  1.00  0.00    +0.000 C 
ATOM     81  F13 UNL A   1       6.046  11.831  50.875  1.00  0.00    +0.000 F 
ATOM     82  C56 UNL A   1       6.511  13.110  48.946  1.00  0.00    +0.000 C 
ATOM     83  F14 UNL A   1       7.706  13.457  49.448  1.00  0.00    +0.000 F 
ATOM     84  C57 UNL A   1       6.156  13.524  47.662  1.00  0.00    +0.000 C 
ATOM     85  F15 UNL A   1       7.068  14.233  46.983  1.00  0.00    +0.000 F 
ENDBRANCH   74   75
TORSDOF 21
ENDMDL
MODEL 3
REMARK VINA RESULT:      -9.5     40.962     46.332
ROOT
ATOM    129  H27 UNL A   1       8.954  28.378  -5.105  1.00  0.00    +0.000 H 
ATOM    130  H28 UNL A   1       9.329  32.405  -4.965  1.00  0.00    +0.000 H 
ATOM    131  H29 UNL A   1      13.292  29.513   1.600  1.00  0.00    +0.000 H 
ATOM    132  H30 UNL A   1      11.041  28.335   1.749  1.00  0.00    +0.000 H 
ATOM    133  H31 UNL A   1      10.784  31.032  -1.393  1.00  0.00    +0.000 H 
ATOM    134  H32 UNL A   1      12.086  33.941  -1.595  1.00  0.00    +0.000 H 
ATOM    135  H33 UNL A   1      10.485  33.089  -3.434  1.00  0.00    +0.000 H 
ATOM    136  H34 UNL A   1       5.722  32.722  -0.789  1.00  0.00    +0.000 H 
ATOM    137  H35 UNL A   1       7.190  31.824   1.133  1.00  0.00    +0.000 H 
ATOM     38  C28 UNL A   1       8.960  29.714   0.257  1.00  0.00    +0.000 C 
ATOM     39  C29 UNL A   1       8.083  30.596  -0.554  1.00  0.00    +0.000 C 
ATOM     40  N5  UNL A   1       7.869  30.519  -1.826  1.00  0.00    +0.000 N 
ATOM     41  C30 UNL A   1       7.032  31.585  -2.140  1.00  0.00    +0.000 C 
ATOM     42  C31 UNL A   1       7.042  32.128  -3.388  1.00  0.00    +0.000 C 
ATOM     54  C38 UNL A   1       7.685  31.241  -4.329  1.00  0.00    +0.000 C 
ATOM     55  C39 UNL A   1       7.454  29.944  -4.744  1.00  0.00    +0.000 C 
ATOM     56  C40 UNL A   1       8.750  29.362  -4.869  1.00  0.00    +0.000 C 
ATOM     57  C41 UNL A   1       9.694  30.357  -4.615  1.00  0.00    +0.000 C 
ATOM     58  N6  UNL A   1       8.979  31.525  -4.695  1.00  0.00    +0.000 N 
ATOM     59  C42 UNL A   1      11.094  30.308  -4.271  1.00  0.00    +0.000 C 
ATOM     71  C49 UNL A   1      11.756  31.289  -3.590  1.00  0.00    +0.000 C 
ATOM     72  N7  UNL A   1      12.938  31.018  -2.915  1.00  0.00    +0.000 N 
ATOM     73  C50 UNL A   1      12.957  31.877  -1.930  1.00  0.00    +0.000 C 
ATOM     74  C51 UNL A   1      13.367  31.510  -0.547  1.00  0.00    +0.000 C 
ATOM     86  C58 UNL A   1      12.423  30.653  -0.083  1.00  0.00    +0.000 C 
ATOM     87  C59 UNL A   1      12.470  29.708   1.008  1.00  0.00    +0.000 C 
ATOM     88  C60 UNL A   1      11.263  29.123   1.120  1.00  0.00    +0.000 C 
ATOM     89  C61 UNL A   1      10.310  29.773   0.215  1.00  0.00    +0.000 C 
ATOM     90  N8  UNL A   1      11.099  30.574  -0.582  1.00  0.00    +0.000 N 
ATOM     91  C62 UNL A   1      12.092  33.036  -2.093  1.00  0.00    +0.000 C 
ATOM     92  C63 UNL A   1      11.310  32.583  -3.077  1.00  0.00    +0.000 C 
ATOM     93  C64 UNL A   1       6.522  32.077  -0.887  1.00  0.00    +0.000 C 
ATOM     94  C65 UNL A   1       7.230  31.580   0.131  1.00  0.00    +0.000 C 
ATOM    128  H26 UNL A   1       6.543  29.493  -4.924  1.00  0.00    +0.000 H 
ENDROOT
BRANCH   38   37
ATOM     34  C24 UNL A   1       6.803  27.742   3.273  1.00  0.00    +0.000 C 
ATOM     35  C25 UNL A   1       6.843  27.152   2.005  1.00  0.00    +0.000 C 
ATOM     36  C26 UNL A   1       7.614  27.749   1.012  1.00  0.00    +0.000 C 
ATOM     37  C27 UNL A   1       8.268  28.957   1.293  1.00  0.00    +0.000 C 
ATOM    138  H36 UNL A   1       8.579  30.483   2.716  1.00  0.00    +0.000 H 
ATOM    139  H37 UNL A   1       7.680  29.178   4.542  1.00  0.00    +0.000 H 
ATOM    127  H25 UNL A   1       7.703  27.309   0.082  1.00  0.00    +0.000 H 
ATOM    126  H24 UNL A   1       6.310  26.290   1.809  1.00  0.00    +0.000 H 
ATOM     95  C66 UNL A   1       8.184  29.543   2.551  1.00  0.00    +0.000 C 
ATOM     96  C67 UNL A   1       7.573  28.863   3.566  1.00  0.00    +0.000 C 
BRANCH   34   32
ATOM     33  O4  UNL A   1       5.044  27.937   4.809  1.00  0.00    +0.000 O 
ATOM     32  C23 UNL A   1       5.920  27.226   4.330  1.00  0.00    +0.000 C 
BRANCH   32   31
ATOM    125  H23 UNL A   1       5.745  25.220   4.174  1.00  0.00    +0.000 H 
ATOM     31  N4  UNL A   1       6.099  25.927   4.761  1.00  0.00    +0.000 N 
BRANCH   31   30
ATOM    123  H21 UNL A   1       6.370  26.047   6.815  1.00  0.00    +0.000 H 
ATOM    124  H22 UNL A   1       6.564  24.441   6.120  1.00  0.00    +0.000 H 
ATOM     30  C22 UNL A   1       6.757  25.485   5.991  1.00  0.00    +0.000 C 
BRANCH   30   29
ATOM    121  H19 UNL A   1       8.466  26.737   5.931  1.00  0.00    +0.000 H 
ATOM    122  H20 UNL A   1       8.693  25.188   6.761  1.00  0.00    +0.000 H 
ATOM     29  C21 UNL A   1       8.262  25.687   5.919  1.00  0.00    +0.000 C 
BRANCH   29   28
ATOM     28  C20 UNL A   1       8.886  25.080   4.654  1.00  0.00    +0.000 C 
ATOM    119  H17 UNL A   1       9.350  24.156   4.927  1.00  0.00    +0.000 H 
ATOM    120  H18 UNL A   1       8.084  24.973   3.955  1.00  0.00    +0.000 H 
BRANCH   28   27
ATOM     27  C19 UNL A   1       9.943  25.949   3.951  1.00  0.00    +0.000 C 
ATOM    117  H15 UNL A   1       9.582  26.956   3.925  1.00  0.00    +0.000 H 
ATOM    118  H16 UNL A   1      10.846  25.837   4.515  1.00  0.00    +0.000 H 
BRANCH   27   26
ATOM     26  C18 UNL A   1      10.277  25.526   2.514  1.00  0.00    +0.000 C 
ATOM    115  H13 UNL A   1      10.164  26.375   1.873  1.00  0.00    +0.000 H 
ATOM    116  H14 UNL A   1      11.282  25.159   2.510  1.00  0.00    +0.000 H 
BRANCH   26   25
ATOM     25  C17 UNL A   1       9.370  24.402   2.007  1.00  0.00    +0.000 C 
ATOM    114  H12 UNL A   1       8.406  24.492   2.462  1.00  0.00    +0.000 H 
ATOM    113  H11 UNL A   1       9.802  23.456   2.260  1.00  0.00    +0.000 H 
BRANCH   25   24
ATOM    112  H10 UNL A   1       8.601  25.196   0.278  1.00  0.00    +0.000 H 
ATOM     24  N3  UNL A   1       9.231  24.497   0.569  1.00  0.00    +0.000 N 
BRANCH   24   22
ATOM     22  C16 UNL A   1       9.803  23.807  -0.468  1.00  0.00    +0.000 C 
ATOM     23  O3  UNL A   1      10.478  22.817  -0.185  1.00  0.00    +0.000 O 
BRANCH   22   21
ATOM     97  C68 UNL A   1      10.241  23.546  -2.977  1.00  0.00    +0.000 C 
ATOM     98  C69 UNL A   1       9.944  23.930  -4.285  1.00  0.00    +0.000 C 
ATOM    140  H38 UNL A   1      10.850  22.729  -2.811  1.00  0.00    +0.000 H 
ATOM    141  H39 UNL A   1      10.234  23.339  -5.080  1.00  0.00    +0.000 H 
ATOM    110  H8  UNL A   1       8.434  26.846  -3.600  1.00  0.00    +0.000 H 
ATOM    111  H9  UNL A   1       8.736  26.037  -1.333  1.00  0.00    +0.000 H 
ATOM     18  C12 UNL A   1       9.252  25.119  -4.508  1.00  0.00    +0.000 C 
ATOM     19  C13 UNL A   1       8.866  25.924  -3.432  1.00  0.00    +0.000 C 
ATOM     20  C14 UNL A   1       9.070  25.471  -2.128  1.00  0.00    +0.000 C 
ATOM     21  C15 UNL A   1       9.725  24.254  -1.886  1.00  0.00    +0.000 C 
BRANCH   18   17
ATOM     99  N9  UNL A   1       9.832  25.310  -6.831  1.00  0.00    +0.000 N 
ATOM    100  N10 UNL A   1       9.276  25.741  -7.948  1.00  0.00    +0.000 N 
ATOM    109  H7  UNL A   1       7.071  26.580  -5.739  1.00  0.00    +0.000 H 
ATOM     15  C10 UNL A   1       8.066  26.312  -7.649  1.00  0.00    +0.000 C 
ATOM     16  C11 UNL A   1       7.867  26.219  -6.288  1.00  0.00    +0.000 C 
ATOM     17  N2  UNL A   1       8.969  25.535  -5.823  1.00  0.00    +0.000 N 
BRANCH   15   14
ATOM    107  H5  UNL A   1       7.935  27.244  -9.513  1.00  0.00    +0.000 H 
ATOM    108  H6  UNL A   1       6.498  26.306  -8.987  1.00  0.00    +0.000 H 
ATOM     14  C9  UNL A   1       7.270  26.995  -8.712  1.00  0.00    +0.000 C 
BRANCH   14   13
ATOM     13  O2  UNL A   1       6.594  28.200  -8.309  1.00  0.00    +0.000 O 
BRANCH   13   12
ATOM    101  C70 UNL A   1       6.733  30.650  -8.165  1.00  0.00    +0.000 C 
ATOM    102  C71 UNL A   1       7.565  31.764  -8.037  1.00  0.00    +0.000 C 
ATOM      9  C5  UNL A   1       8.947  31.636  -8.183  1.00  0.00    +0.000 C 
ATOM     10  C6  UNL A   1       9.481  30.393  -8.529  1.00  0.00    +0.000 C 
ATOM    105  H3  UNL A   1      10.491  30.300  -8.722  1.00  0.00    +0.000 H 
ATOM     11  C7  UNL A   1       8.647  29.271  -8.614  1.00  0.00    +0.000 C 
ATOM    106  H4  UNL A   1       9.048  28.354  -8.860  1.00  0.00    +0.000 H 
ATOM     12  C8  UNL A   1       7.276  29.384  -8.368  1.00  0.00    +0.000 C 
ATOM    143  H41 UNL A   1       7.155  32.688  -7.833  1.00  0.00    +0.000 H 
ATOM    142  H40 UNL A   1       5.709  30.766  -8.109  1.00  0.00    +0.000 H 
BRANCH    9    8
ATOM    104  H2  UNL A   1      10.257  32.892  -7.035  1.00  0.00    +0.000 H 
ATOM      8  C4  UNL A   1       9.811  32.797  -7.960  1.00  0.00    +0.000 C 
BRANCH    8    7
ATOM      1  O1  UNL A   1       8.731  35.495  -7.903  1.00  0.00    +0.000 O 
ATOM      2  C1  UNL A   1       9.479  35.110  -8.773  1.00  0.00    +0.000 C 
ATOM      3  N1  UNL A   1       9.931  35.877  -9.817  1.00  0.00    +0.000 N 
ATOM      4  C2  UNL A   1      10.774  35.304 -10.718  1.00  0.00    +0.000 C 
ATOM      5  S1  UNL A   1      11.395  36.107 -12.027  1.00  0.00    +0.000 S 
ATOM      6  S2  UNL A   1      11.073  33.641 -10.276  1.00  0.00    +0.000 S 
ATOM      7  C3  UNL A   1      10.065  33.744  -8.874  1.00  0.00    +0.000 C 
ATOM    103  H1  UNL A   1       9.653  36.816  -9.910  1.00  0.00    +0.000 H 
ENDBRANCH    8    7
ENDBRANCH    9    8
ENDBRANCH   13   12
ENDBRANCH   14   13
ENDBRANCH   15   14
ENDBRANCH   18   17
ENDBRANCH   22   21
ENDBRANCH   24   22
ENDBRANCH   25   24
ENDBRANCH   26   25
ENDBRANCH   27   26
ENDBRANCH   28   27
ENDBRANCH   29   28
ENDBRANCH   30   29
ENDBRANCH   31   30
ENDBRANCH   32   31
ENDBRANCH   34   32
ENDBRANCH   38   37
BRANCH   42   43
ATOM     43  C32 UNL A   1       6.841  33.593  -3.692  1.00  0.00    +0.000 C 
ATOM     44  C33 UNL A   1       5.786  33.969  -4.549  1.00  0.00    +0.000 C 
ATOM     45  F1  UNL A   1       4.812  33.099  -4.857  1.00  0.00    +0.000 F 
ATOM     46  C34 UNL A   1       5.762  35.210  -5.191  1.00  0.00    +0.000 C 
ATOM     47  F2  UNL A   1       4.815  35.467  -6.104  1.00  0.00    +0.000 F 
ATOM     48  C35 UNL A   1       6.751  36.145  -4.948  1.00  0.00    +0.000 C 
ATOM     49  F3  UNL A   1       6.769  37.306  -5.612  1.00  0.00    +0.000 F 
ATOM     50  C36 UNL A   1       7.751  35.848  -4.046  1.00  0.00    +0.000 C 
ATOM     51  F4  UNL A   1       8.727  36.735  -3.808  1.00  0.00    +0.000 F 
ATOM     52  C37 UNL A   1       7.808  34.592  -3.447  1.00  0.00    +0.000 C 
ATOM     53  F5  UNL A   1       8.903  34.365  -2.713  1.00  0.00    +0.000 F 
ENDBRANCH   42   43
BRANCH   59   60
ATOM     65  C46 UNL A   1      12.864  26.451  -5.064  1.00  0.00    +0.000 C 
ATOM     66  F8  UNL A   1      13.355  25.237  -5.353  1.00  0.00    +0.000 F 
ATOM     67  C47 UNL A   1      12.761  27.413  -6.056  1.00  0.00    +0.000 C 
ATOM     68  F9  UNL A   1      13.131  27.123  -7.311  1.00  0.00    +0.000 F 
ATOM     69  C48 UNL A   1      12.245  28.672  -5.762  1.00  0.00    +0.000 C 
ATOM     70  F10 UNL A   1      12.136  29.570  -6.753  1.00  0.00    +0.000 F 
ATOM     60  C43 UNL A   1      11.791  28.990  -4.476  1.00  0.00    +0.000 C 
ATOM     61  C44 UNL A   1      11.874  27.985  -3.497  1.00  0.00    +0.000 C 
ATOM     62  F6  UNL A   1      11.362  28.172  -2.274  1.00  0.00    +0.000 F 
ATOM     63  C45 UNL A   1      12.428  26.738  -3.782  1.00  0.00    +0.000 C 
ATOM     64  F7  UNL A   1      12.504  25.801  -2.826  1.00  0.00    +0.000 F 
ENDBRANCH   59   60
BRANCH   74   75
ATOM     75  C52 UNL A   1      14.419  32.232   0.209  1.00  0.00    +0.000 C 
ATOM     76  C53 UNL A   1      14.098  33.316   1.043  1.00  0.00    +0.000 C 
ATOM     77  F11 UNL A   1      12.872  33.858   1.004  1.00  0.00    +0.000 F 
ATOM     78  C54 UNL A   1      15.005  33.815   1.985  1.00  0.00    +0.000 C 
ATOM     79  F12 UNL A   1      14.637  34.805   2.809  1.00  0.00    +0.000 F 
ATOM     80  C55 UNL A   1      16.264  33.251   2.113  1.00  0.00    +0.000 C 
ATOM     81  F13 UNL A   1      17.109  33.683   3.061  1.00  0.00    +0.000 F 
ATOM     82  C56 UNL A   1      16.625  32.208   1.283  1.00  0.00    +0.000 C 
ATOM     83  F14 UNL A   1      17.828  31.630   1.418  1.00  0.00    +0.000 F 
ATOM     84  C57 UNL A   1      15.719  31.705   0.349  1.00  0.00    +0.000 C 
ATOM     85  F15 UNL A   1      16.107  30.628  -0.348  1.00  0.00    +0.000 F 
ENDBRANCH   74   75
TORSDOF 21
ENDMDL
MODEL 4
REMARK VINA RESULT:      -9.4     39.980     45.647
ROOT
ATOM    129  H27 UNL A   1       9.862  33.567  -6.342  1.00  0.00    +0.000 H 
ATOM    130  H28 UNL A   1       8.512  29.754  -6.443  1.00  0.00    +0.000 H 
ATOM    131  H29 UNL A   1       7.361  32.383   1.235  1.00  0.00    +0.000 H 
ATOM    132  H30 UNL A   1       9.793  32.993   0.799  1.00  0.00    +0.000 H 
ATOM    133  H31 UNL A   1       8.485  30.836  -2.494  1.00  0.00    +0.000 H 
ATOM    134  H32 UNL A   1       6.472  28.358  -2.544  1.00  0.00    +0.000 H 
ATOM    135  H33 UNL A   1       7.679  29.111  -4.699  1.00  0.00    +0.000 H 
ATOM    136  H34 UNL A   1      12.907  27.992  -3.590  1.00  0.00    +0.000 H 
ATOM    137  H35 UNL A   1      12.298  28.879  -1.245  1.00  0.00    +0.000 H 
ATOM     38  C28 UNL A   1      10.963  31.439  -1.362  1.00  0.00    +0.000 C 
ATOM     39  C29 UNL A   1      11.329  30.525  -2.473  1.00  0.00    +0.000 C 
ATOM     40  N5  UNL A   1      11.204  30.751  -3.739  1.00  0.00    +0.000 N 
ATOM     41  C30 UNL A   1      11.620  29.589  -4.380  1.00  0.00    +0.000 C 
ATOM     42  C31 UNL A   1      11.132  29.265  -5.610  1.00  0.00    +0.000 C 
ATOM     54  C38 UNL A   1      10.509  30.409  -6.233  1.00  0.00    +0.000 C 
ATOM     55  C39 UNL A   1      10.947  31.672  -6.585  1.00  0.00    +0.000 C 
ATOM     56  C40 UNL A   1       9.861  32.538  -6.264  1.00  0.00    +0.000 C 
ATOM     57  C41 UNL A   1       8.797  31.750  -5.824  1.00  0.00    +0.000 C 
ATOM     58  N6  UNL A   1       9.137  30.481  -6.216  1.00  0.00    +0.000 N 
ATOM     59  C42 UNL A   1       7.605  32.055  -5.072  1.00  0.00    +0.000 C 
ATOM     71  C49 UNL A   1       6.923  31.150  -4.309  1.00  0.00    +0.000 C 
ATOM     72  N7  UNL A   1       6.079  31.567  -3.289  1.00  0.00    +0.000 N 
ATOM     73  C50 UNL A   1       6.106  30.589  -2.422  1.00  0.00    +0.000 C 
ATOM     74  C51 UNL A   1       6.195  30.816  -0.954  1.00  0.00    +0.000 C 
ATOM     86  C58 UNL A   1       7.418  31.358  -0.724  1.00  0.00    +0.000 C 
ATOM     87  C59 UNL A   1       7.913  32.106   0.408  1.00  0.00    +0.000 C 
ATOM     88  C60 UNL A   1       9.214  32.383   0.201  1.00  0.00    +0.000 C 
ATOM     89  C61 UNL A   1       9.684  31.689  -1.001  1.00  0.00    +0.000 C 
ATOM     90  N8  UNL A   1       8.530  31.219  -1.589  1.00  0.00    +0.000 N 
ATOM     91  C62 UNL A   1       6.565  29.307  -2.936  1.00  0.00    +0.000 C 
ATOM     92  C63 UNL A   1       7.141  29.725  -4.067  1.00  0.00    +0.000 C 
ATOM     93  C64 UNL A   1      12.305  28.805  -3.386  1.00  0.00    +0.000 C 
ATOM     94  C65 UNL A   1      12.052  29.280  -2.164  1.00  0.00    +0.000 C 
ATOM    128  H26 UNL A   1      11.859  31.931  -6.992  1.00  0.00    +0.000 H 
ENDROOT
BRANCH   38   37
ATOM     34  C24 UNL A   1      14.054  32.857   1.103  1.00  0.00    +0.000 C 
ATOM     35  C25 UNL A   1      13.415  31.669   1.473  1.00  0.00    +0.000 C 
ATOM     36  C26 UNL A   1      12.440  31.141   0.631  1.00  0.00    +0.000 C 
ATOM     37  C27 UNL A   1      12.082  31.852  -0.523  1.00  0.00    +0.000 C 
ATOM    138  H36 UNL A   1      12.362  33.617  -1.643  1.00  0.00    +0.000 H 
ATOM    139  H37 UNL A   1      14.380  34.232  -0.461  1.00  0.00    +0.000 H 
ATOM    127  H25 UNL A   1      11.988  30.241   0.853  1.00  0.00    +0.000 H 
ATOM    126  H24 UNL A   1      13.661  31.192   2.355  1.00  0.00    +0.000 H 
ATOM     95  C66 UNL A   1      12.706  33.050  -0.852  1.00  0.00    +0.000 C 
ATOM     96  C67 UNL A   1      13.779  33.468  -0.116  1.00  0.00    +0.000 C 
BRANCH   34   32
ATOM     33  O4  UNL A   1      14.690  34.548   2.595  1.00  0.00    +0.000 O 
ATOM     32  C23 UNL A   1      15.009  33.525   2.000  1.00  0.00    +0.000 C 
BRANCH   32   31
ATOM    125  H23 UNL A   1      16.383  32.379   2.936  1.00  0.00    +0.000 H 
ATOM     31  N4  UNL A   1      16.262  32.969   2.158  1.00  0.00    +0.000 N 
BRANCH   31   30
ATOM    123  H21 UNL A   1      17.103  33.272   0.284  1.00  0.00    +0.000 H 
ATOM    124  H22 UNL A   1      17.952  34.035   1.625  1.00  0.00    +0.000 H 
ATOM     30  C22 UNL A   1      17.430  33.160   1.297  1.00  0.00    +0.000 C 
BRANCH   30   29
ATOM    121  H19 UNL A   1      19.384  32.337   1.295  1.00  0.00    +0.000 H 
ATOM    122  H20 UNL A   1      18.209  31.496   2.321  1.00  0.00    +0.000 H 
ATOM     29  C21 UNL A   1      18.380  31.977   1.381  1.00  0.00    +0.000 C 
BRANCH   29   28
ATOM     28  C20 UNL A   1      18.136  30.935   0.279  1.00  0.00    +0.000 C 
ATOM    119  H17 UNL A   1      17.630  30.102   0.721  1.00  0.00    +0.000 H 
ATOM    120  H18 UNL A   1      17.568  31.436  -0.476  1.00  0.00    +0.000 H 
BRANCH   28   27
ATOM     27  C19 UNL A   1      19.396  30.403  -0.424  1.00  0.00    +0.000 C 
ATOM    117  H15 UNL A   1      20.128  30.185   0.325  1.00  0.00    +0.000 H 
ATOM    118  H16 UNL A   1      19.089  29.541  -0.979  1.00  0.00    +0.000 H 
BRANCH   27   26
ATOM     26  C18 UNL A   1      20.025  31.367  -1.439  1.00  0.00    +0.000 C 
ATOM    115  H13 UNL A   1      19.481  31.300  -2.358  1.00  0.00    +0.000 H 
ATOM    116  H14 UNL A   1      19.977  32.352  -1.023  1.00  0.00    +0.000 H 
BRANCH   26   25
ATOM     25  C17 UNL A   1      21.497  31.052  -1.716  1.00  0.00    +0.000 C 
ATOM    114  H12 UNL A   1      21.967  30.731  -0.810  1.00  0.00    +0.000 H 
ATOM    113  H11 UNL A   1      21.985  31.931  -2.083  1.00  0.00    +0.000 H 
BRANCH   25   24
ATOM    112  H10 UNL A   1      21.483  30.314  -3.631  1.00  0.00    +0.000 H 
ATOM     24  N3  UNL A   1      21.594  29.999  -2.704  1.00  0.00    +0.000 N 
BRANCH   24   22
ATOM     22  C16 UNL A   1      21.812  28.649  -2.605  1.00  0.00    +0.000 C 
ATOM     23  O3  UNL A   1      22.978  28.259  -2.649  1.00  0.00    +0.000 O 
BRANCH   22   21
ATOM     97  C68 UNL A   1      20.830  26.358  -2.023  1.00  0.00    +0.000 C 
ATOM     98  C69 UNL A   1      19.703  25.560  -1.817  1.00  0.00    +0.000 C 
ATOM    140  H38 UNL A   1      21.765  25.990  -1.783  1.00  0.00    +0.000 H 
ATOM    141  H39 UNL A   1      19.786  24.657  -1.326  1.00  0.00    +0.000 H 
ATOM    110  H8  UNL A   1      17.453  27.498  -3.379  1.00  0.00    +0.000 H 
ATOM    111  H9  UNL A   1      19.372  28.978  -3.499  1.00  0.00    +0.000 H 
ATOM     18  C12 UNL A   1      18.464  25.996  -2.284  1.00  0.00    +0.000 C 
ATOM     19  C13 UNL A   1      18.352  27.217  -2.956  1.00  0.00    +0.000 C 
ATOM     20  C14 UNL A   1      19.465  28.052  -3.053  1.00  0.00    +0.000 C 
ATOM     21  C15 UNL A   1      20.710  27.648  -2.548  1.00  0.00    +0.000 C 
BRANCH   18   17
ATOM     99  N9  UNL A   1      17.354  24.083  -1.348  1.00  0.00    +0.000 N 
ATOM    100  N10 UNL A   1      16.135  23.577  -1.312  1.00  0.00    +0.000 N 
ATOM    109  H7  UNL A   1      15.762  26.070  -3.334  1.00  0.00    +0.000 H 
ATOM     15  C10 UNL A   1      15.319  24.330  -2.116  1.00  0.00    +0.000 C 
ATOM     16  C11 UNL A   1      16.069  25.350  -2.662  1.00  0.00    +0.000 C 
ATOM     17  N2  UNL A   1      17.322  25.192  -2.111  1.00  0.00    +0.000 N 
BRANCH   15   14
ATOM    107  H5  UNL A   1      13.893  23.291  -3.234  1.00  0.00    +0.000 H 
ATOM    108  H6  UNL A   1      13.591  23.412  -1.469  1.00  0.00    +0.000 H 
ATOM     14  C9  UNL A   1      13.906  23.912  -2.361  1.00  0.00    +0.000 C 
BRANCH   14   13
ATOM     13  O2  UNL A   1      12.965  24.981  -2.566  1.00  0.00    +0.000 O 
BRANCH   13   12
ATOM    101  C70 UNL A   1      13.141  26.198  -0.437  1.00  0.00    +0.000 C 
ATOM    102  C71 UNL A   1      12.486  26.980   0.516  1.00  0.00    +0.000 C 
ATOM      9  C5  UNL A   1      11.097  27.111   0.489  1.00  0.00    +0.000 C 
ATOM     10  C6  UNL A   1      10.365  26.393  -0.459  1.00  0.00    +0.000 C 
ATOM    105  H3  UNL A   1       9.333  26.413  -0.438  1.00  0.00    +0.000 H 
ATOM     11  C7  UNL A   1      11.030  25.645  -1.437  1.00  0.00    +0.000 C 
ATOM    106  H4  UNL A   1      10.485  25.124  -2.141  1.00  0.00    +0.000 H 
ATOM     12  C8  UNL A   1      12.426  25.597  -1.469  1.00  0.00    +0.000 C 
ATOM    143  H41 UNL A   1      13.033  27.465   1.244  1.00  0.00    +0.000 H 
ATOM    142  H40 UNL A   1      14.164  26.065  -0.375  1.00  0.00    +0.000 H 
BRANCH    9    8
ATOM    104  H2  UNL A   1      10.272  28.980   1.151  1.00  0.00    +0.000 H 
ATOM      8  C4  UNL A   1      10.434  28.003   1.442  1.00  0.00    +0.000 C 
BRANCH    8    7
ATOM      1  O1  UNL A   1       8.406  29.395   2.992  1.00  0.00    +0.000 O 
ATOM      2  C1  UNL A   1       8.969  28.403   3.396  1.00  0.00    +0.000 C 
ATOM      3  N1  UNL A   1       8.722  27.794   4.600  1.00  0.00    +0.000 N 
ATOM      4  C2  UNL A   1       9.433  26.679   4.915  1.00  0.00    +0.000 C 
ATOM      5  S1  UNL A   1       9.243  25.844   6.333  1.00  0.00    +0.000 S 
ATOM      6  S2  UNL A   1      10.541  26.297   3.619  1.00  0.00    +0.000 S 
ATOM      7  C3  UNL A   1      10.021  27.642   2.664  1.00  0.00    +0.000 C 
ATOM    103  H1  UNL A   1       8.047  28.155   5.218  1.00  0.00    +0.000 H 
ENDBRANCH    8    7
ENDBRANCH    9    8
ENDBRANCH   13   12
ENDBRANCH   14   13
ENDBRANCH   15   14
ENDBRANCH   18   17
ENDBRANCH   22   21
ENDBRANCH   24   22
ENDBRANCH   25   24
ENDBRANCH   26   25
ENDBRANCH   27   26
ENDBRANCH   28   27
ENDBRANCH   29   28
ENDBRANCH   30   29
ENDBRANCH   31   30
ENDBRANCH   32   31
ENDBRANCH   34   32
ENDBRANCH   38   37
BRANCH   42   43
ATOM     43  C32 UNL A   1      10.858  27.858  -6.084  1.00  0.00    +0.000 C 
ATOM     44  C33 UNL A   1      11.323  27.470  -7.358  1.00  0.00    +0.000 C 
ATOM     45  F1  UNL A   1      12.227  28.216  -8.012  1.00  0.00    +0.000 F 
ATOM     46  C34 UNL A   1      10.795  26.366  -8.033  1.00  0.00    +0.000 C 
ATOM     47  F2  UNL A   1      11.168  26.120  -9.296  1.00  0.00    +0.000 F 
ATOM     48  C35 UNL A   1       9.836  25.571  -7.434  1.00  0.00    +0.000 C 
ATOM     49  F3  UNL A   1       9.279  24.555  -8.103  1.00  0.00    +0.000 F 
ATOM     50  C36 UNL A   1       9.421  25.866  -6.153  1.00  0.00    +0.000 C 
ATOM     51  F4  UNL A   1       8.481  25.117  -5.561  1.00  0.00    +0.000 F 
ATOM     52  C37 UNL A   1       9.905  26.997  -5.499  1.00  0.00    +0.000 C 
ATOM     53  F5  UNL A   1       9.318  27.268  -4.328  1.00  0.00    +0.000 F 
ENDBRANCH   42   43
BRANCH   59   60
ATOM     65  C46 UNL A   1       6.653  36.265  -5.006  1.00  0.00    +0.000 C 
ATOM     66  F8  UNL A   1       6.383  37.578  -5.055  1.00  0.00    +0.000 F 
ATOM     67  C47 UNL A   1       5.954  35.382  -5.815  1.00  0.00    +0.000 C 
ATOM     68  F9  UNL A   1       5.026  35.842  -6.664  1.00  0.00    +0.000 F 
ATOM     69  C48 UNL A   1       6.237  34.019  -5.772  1.00  0.00    +0.000 C 
ATOM     70  F10 UNL A   1       5.560  33.196  -6.589  1.00  0.00    +0.000 F 
ATOM     60  C43 UNL A   1       7.243  33.509  -4.942  1.00  0.00    +0.000 C 
ATOM     61  C44 UNL A   1       7.960  34.431  -4.159  1.00  0.00    +0.000 C 
ATOM     62  F6  UNL A   1       9.007  34.039  -3.423  1.00  0.00    +0.000 F 
ATOM     63  C45 UNL A   1       7.650  35.790  -4.171  1.00  0.00    +0.000 C 
ATOM     64  F7  UNL A   1       8.342  36.645  -3.406  1.00  0.00    +0.000 F 
ENDBRANCH   59   60
BRANCH   74   75
ATOM     75  C52 UNL A   1       5.238  30.236   0.019  1.00  0.00    +0.000 C 
ATOM     76  C53 UNL A   1       3.923  30.720   0.119  1.00  0.00    +0.000 C 
ATOM     77  F11 UNL A   1       3.572  31.855  -0.503  1.00  0.00    +0.000 F 
ATOM     78  C54 UNL A   1       2.925  30.010   0.798  1.00  0.00    +0.000 C 
ATOM     79  F12 UNL A   1       1.667  30.472   0.812  1.00  0.00    +0.000 F 
ATOM     80  C55 UNL A   1       3.216  28.799   1.404  1.00  0.00    +0.000 C 
ATOM     81  F13 UNL A   1       2.247  28.085   1.995  1.00  0.00    +0.000 F 
ATOM     82  C56 UNL A   1       4.507  28.312   1.357  1.00  0.00    +0.000 C 
ATOM     83  F14 UNL A   1       4.797  27.125   1.910  1.00  0.00    +0.000 F 
ATOM     84  C57 UNL A   1       5.501  29.015   0.674  1.00  0.00    +0.000 C 
ATOM     85  F15 UNL A   1       6.703  28.429   0.587  1.00  0.00    +0.000 F 
ENDBRANCH   74   75
TORSDOF 21
ENDMDL
MODEL 5
REMARK VINA RESULT:      -9.4     30.357     35.749
ROOT
ATOM    129  H27 UNL A   1      26.686  19.517   7.634  1.00  0.00    +0.000 H 
ATOM    130  H28 UNL A   1      25.371  16.557  10.059  1.00  0.00    +0.000 H 
ATOM    131  H29 UNL A   1      22.363  14.917   2.613  1.00  0.00    +0.000 H 
ATOM    132  H30 UNL A   1      21.718  17.356   2.946  1.00  0.00    +0.000 H 
ATOM    133  H31 UNL A   1      23.383  16.053   6.515  1.00  0.00    +0.000 H 
ATOM    134  H32 UNL A   1      23.108  13.176   7.874  1.00  0.00    +0.000 H 
ATOM    135  H33 UNL A   1      24.308  15.102   9.109  1.00  0.00    +0.000 H 
ATOM    136  H34 UNL A   1      20.250  18.637  10.029  1.00  0.00    +0.000 H 
ATOM    137  H35 UNL A   1      19.511  17.963   7.652  1.00  0.00    +0.000 H 
ATOM     38  C28 UNL A   1      21.681  18.128   5.750  1.00  0.00    +0.000 C 
ATOM     39  C29 UNL A   1      21.720  18.271   7.227  1.00  0.00    +0.000 C 
ATOM     40  N5  UNL A   1      22.740  18.599   7.948  1.00  0.00    +0.000 N 
ATOM     41  C30 UNL A   1      22.311  18.544   9.270  1.00  0.00    +0.000 C 
ATOM     42  C31 UNL A   1      23.195  18.292  10.275  1.00  0.00    +0.000 C 
ATOM     54  C38 UNL A   1      24.553  18.490   9.825  1.00  0.00    +0.000 C 
ATOM     55  C39 UNL A   1      25.246  19.561   9.294  1.00  0.00    +0.000 C 
ATOM     56  C40 UNL A   1      26.073  18.995   8.279  1.00  0.00    +0.000 C 
ATOM     57  C41 UNL A   1      25.907  17.610   8.312  1.00  0.00    +0.000 C 
ATOM     58  N6  UNL A   1      25.294  17.375   9.516  1.00  0.00    +0.000 N 
ATOM     59  C42 UNL A   1      26.199  16.571   7.355  1.00  0.00    +0.000 C 
ATOM     71  C49 UNL A   1      25.559  15.365   7.307  1.00  0.00    +0.000 C 
ATOM     72  N7  UNL A   1      25.555  14.604   6.147  1.00  0.00    +0.000 N 
ATOM     73  C50 UNL A   1      24.437  13.929   6.202  1.00  0.00    +0.000 C 
ATOM     74  C51 UNL A   1      23.551  13.738   5.022  1.00  0.00    +0.000 C 
ATOM     86  C58 UNL A   1      23.060  14.965   4.711  1.00  0.00    +0.000 C 
ATOM     87  C59 UNL A   1      22.468  15.454   3.488  1.00  0.00    +0.000 C 
ATOM     88  C60 UNL A   1      22.079  16.728   3.681  1.00  0.00    +0.000 C 
ATOM     89  C61 UNL A   1      22.245  17.089   5.092  1.00  0.00    +0.000 C 
ATOM     90  N8  UNL A   1      22.974  16.047   5.620  1.00  0.00    +0.000 N 
ATOM     91  C62 UNL A   1      23.836  13.818   7.523  1.00  0.00    +0.000 C 
ATOM     92  C63 UNL A   1      24.508  14.792   8.145  1.00  0.00    +0.000 C 
ATOM     93  C64 UNL A   1      20.873  18.479   9.222  1.00  0.00    +0.000 C 
ATOM     94  C65 UNL A   1      20.461  18.188   7.986  1.00  0.00    +0.000 C 
ATOM    128  H26 UNL A   1      25.181  20.553   9.571  1.00  0.00    +0.000 H 
ENDROOT
BRANCH   38   37
ATOM     34  C24 UNL A   1      18.937  20.806   4.038  1.00  0.00    +0.000 C 
ATOM     35  C25 UNL A   1      20.291  21.154   4.014  1.00  0.00    +0.000 C 
ATOM     36  C26 UNL A   1      21.225  20.247   4.507  1.00  0.00    +0.000 C 
ATOM     37  C27 UNL A   1      20.773  19.048   5.075  1.00  0.00    +0.000 C 
ATOM    138  H36 UNL A   1      19.089  17.907   5.634  1.00  0.00    +0.000 H 
ATOM    139  H37 UNL A   1      17.556  19.239   4.321  1.00  0.00    +0.000 H 
ATOM    127  H25 UNL A   1      22.235  20.454   4.456  1.00  0.00    +0.000 H 
ATOM    126  H24 UNL A   1      20.594  22.066   3.637  1.00  0.00    +0.000 H 
ATOM     95  C66 UNL A   1      19.418  18.740   5.121  1.00  0.00    +0.000 C 
ATOM     96  C67 UNL A   1      18.526  19.552   4.478  1.00  0.00    +0.000 C 
BRANCH   34   32
ATOM     33  O4  UNL A   1      17.028  21.438   2.833  1.00  0.00    +0.000 O 
ATOM     32  C23 UNL A   1      17.893  21.763   3.638  1.00  0.00    +0.000 C 
BRANCH   32   31
ATOM    125  H23 UNL A   1      18.303  23.741   3.645  1.00  0.00    +0.000 H 
ATOM     31  N4  UNL A   1      17.910  23.025   4.196  1.00  0.00    +0.000 N 
BRANCH   31   30
ATOM    123  H21 UNL A   1      17.999  22.938   6.268  1.00  0.00    +0.000 H 
ATOM    124  H22 UNL A   1      17.481  24.482   5.599  1.00  0.00    +0.000 H 
ATOM     30  C22 UNL A   1      17.410  23.418   5.515  1.00  0.00    +0.000 C 
BRANCH   30   29
ATOM    121  H19 UNL A   1      15.424  23.847   6.120  1.00  0.00    +0.000 H 
ATOM    122  H20 UNL A   1      15.573  22.752   4.734  1.00  0.00    +0.000 H 
ATOM     29  C21 UNL A   1      15.955  23.019   5.697  1.00  0.00    +0.000 C 
BRANCH   29   28
ATOM     28  C20 UNL A   1      15.779  21.802   6.617  1.00  0.00    +0.000 C 
ATOM    119  H17 UNL A   1      14.733  21.683   6.808  1.00  0.00    +0.000 H 
ATOM    120  H18 UNL A   1      16.221  20.977   6.097  1.00  0.00    +0.000 H 
BRANCH   28   27
ATOM     27  C19 UNL A   1      16.502  21.881   7.972  1.00  0.00    +0.000 C 
ATOM    117  H15 UNL A   1      17.142  21.028   8.058  1.00  0.00    +0.000 H 
ATOM    118  H16 UNL A   1      17.032  22.811   7.974  1.00  0.00    +0.000 H 
BRANCH   27   26
ATOM     26  C18 UNL A   1      15.578  21.909   9.196  1.00  0.00    +0.000 C 
ATOM    115  H13 UNL A   1      15.497  22.919   9.541  1.00  0.00    +0.000 H 
ATOM    116  H14 UNL A   1      14.629  21.517   8.895  1.00  0.00    +0.000 H 
BRANCH   26   25
ATOM     25  C17 UNL A   1      16.096  21.038  10.344  1.00  0.00    +0.000 C 
ATOM    114  H12 UNL A   1      16.100  21.610  11.249  1.00  0.00    +0.000 H 
ATOM    113  H11 UNL A   1      17.090  20.711  10.121  1.00  0.00    +0.000 H 
BRANCH   25   24
ATOM    112  H10 UNL A   1      14.281  20.112  10.584  1.00  0.00    +0.000 H 
ATOM     24  N3  UNL A   1      15.236  19.885  10.511  1.00  0.00    +0.000 N 
BRANCH   24   22
ATOM     22  C16 UNL A   1      15.490  18.541  10.585  1.00  0.00    +0.000 C 
ATOM     23  O3  UNL A   1      15.327  17.993  11.676  1.00  0.00    +0.000 O 
BRANCH   22   21
ATOM     97  C68 UNL A   1      16.129  18.204   8.129  1.00  0.00    +0.000 C 
ATOM     98  C69 UNL A   1      16.843  17.484   7.170  1.00  0.00    +0.000 C 
ATOM    140  H38 UNL A   1      15.661  19.085   7.861  1.00  0.00    +0.000 H 
ATOM    141  H39 UNL A   1      17.000  17.880   6.231  1.00  0.00    +0.000 H 
ATOM    110  H8  UNL A   1      17.411  14.714   8.977  1.00  0.00    +0.000 H 
ATOM    111  H9  UNL A   1      16.391  16.085  10.700  1.00  0.00    +0.000 H 
ATOM     18  C12 UNL A   1      17.340  16.222   7.495  1.00  0.00    +0.000 C 
ATOM     19  C13 UNL A   1      17.121  15.682   8.765  1.00  0.00    +0.000 C 
ATOM     20  C14 UNL A   1      16.505  16.461   9.746  1.00  0.00    +0.000 C 
ATOM     21  C15 UNL A   1      16.038  17.750   9.448  1.00  0.00    +0.000 C 
BRANCH   18   17
ATOM     99  N9  UNL A   1      19.340  15.165   6.688  1.00  0.00    +0.000 N 
ATOM    100  N10 UNL A   1      19.705  14.401   5.674  1.00  0.00    +0.000 N 
ATOM    109  H7  UNL A   1      16.641  15.096   4.916  1.00  0.00    +0.000 H 
ATOM     15  C10 UNL A   1      18.643  14.265   4.818  1.00  0.00    +0.000 C 
ATOM     16  C11 UNL A   1      17.576  14.971   5.333  1.00  0.00    +0.000 C 
ATOM     17  N2  UNL A   1      18.038  15.470   6.531  1.00  0.00    +0.000 N 
BRANCH   15   14
ATOM    107  H5  UNL A   1      17.969  13.789   2.899  1.00  0.00    +0.000 H 
ATOM    108  H6  UNL A   1      19.747  13.877   3.121  1.00  0.00    +0.000 H 
ATOM     14  C9  UNL A   1      18.809  13.549   3.517  1.00  0.00    +0.000 C 
BRANCH   14   13
ATOM     13  O2  UNL A   1      18.899  12.115   3.602  1.00  0.00    +0.000 O 
BRANCH   13   12
ATOM    101  C70 UNL A   1      19.550  10.076   2.395  1.00  0.00    +0.000 C 
ATOM    102  C71 UNL A   1      20.138   9.537   1.248  1.00  0.00    +0.000 C 
ATOM      9  C5  UNL A   1      20.844  10.355   0.365  1.00  0.00    +0.000 C 
ATOM     10  C6  UNL A   1      21.016  11.705   0.678  1.00  0.00    +0.000 C 
ATOM    105  H3  UNL A   1      21.606  12.303   0.079  1.00  0.00    +0.000 H 
ATOM     11  C7  UNL A   1      20.389  12.247   1.807  1.00  0.00    +0.000 C 
ATOM    106  H4  UNL A   1      20.511  13.246   2.029  1.00  0.00    +0.000 H 
ATOM     12  C8  UNL A   1      19.598  11.445   2.635  1.00  0.00    +0.000 C 
ATOM    143  H41 UNL A   1      20.049   8.528   1.053  1.00  0.00    +0.000 H 
ATOM    142  H40 UNL A   1      19.077   9.452   3.068  1.00  0.00    +0.000 H 
BRANCH    9    8
ATOM    104  H2  UNL A   1      21.561  10.439  -1.657  1.00  0.00    +0.000 H 
ATOM      8  C4  UNL A   1      21.380   9.791  -0.875  1.00  0.00    +0.000 C 
BRANCH    8    7
ATOM      1  O1  UNL A   1      19.691   7.934  -2.343  1.00  0.00    +0.000 O 
ATOM      2  C1  UNL A   1      20.740   7.603  -1.838  1.00  0.00    +0.000 C 
ATOM      3  N1  UNL A   1      21.280   6.344  -1.903  1.00  0.00    +0.000 N 
ATOM      4  C2  UNL A   1      22.473   6.123  -1.288  1.00  0.00    +0.000 C 
ATOM      5  S1  UNL A   1      23.240   4.655  -1.281  1.00  0.00    +0.000 S 
ATOM      6  S2  UNL A   1      23.032   7.596  -0.532  1.00  0.00    +0.000 S 
ATOM      7  C3  UNL A   1      21.653   8.493  -1.067  1.00  0.00    +0.000 C 
ATOM    103  H1  UNL A   1      20.817   5.620  -2.383  1.00  0.00    +0.000 H 
ENDBRANCH    8    7
ENDBRANCH    9    8
ENDBRANCH   13   12
ENDBRANCH   14   13
ENDBRANCH   15   14
ENDBRANCH   18   17
ENDBRANCH   22   21
ENDBRANCH   24   22
ENDBRANCH   25   24
ENDBRANCH   26   25
ENDBRANCH   27   26
ENDBRANCH   28   27
ENDBRANCH   29   28
ENDBRANCH   30   29
ENDBRANCH   31   30
ENDBRANCH   32   31
ENDBRANCH   34   32
ENDBRANCH   38   37
BRANCH   42   43
ATOM     43  C32 UNL A   1      22.880  17.499  11.520  1.00  0.00    +0.000 C 
ATOM     44  C33 UNL A   1      22.440  18.188  12.669  1.00  0.00    +0.000 C 
ATOM     45  F1  UNL A   1      22.031  19.464  12.587  1.00  0.00    +0.000 F 
ATOM     46  C34 UNL A   1      22.507  17.618  13.943  1.00  0.00    +0.000 C 
ATOM     47  F2  UNL A   1      22.210  18.360  15.019  1.00  0.00    +0.000 F 
ATOM     48  C35 UNL A   1      22.950  16.319  14.108  1.00  0.00    +0.000 C 
ATOM     49  F3  UNL A   1      23.081  15.794  15.332  1.00  0.00    +0.000 F 
ATOM     50  C36 UNL A   1      23.304  15.583  12.998  1.00  0.00    +0.000 C 
ATOM     51  F4  UNL A   1      23.750  14.327  13.138  1.00  0.00    +0.000 F 
ATOM     52  C37 UNL A   1      23.291  16.165  11.733  1.00  0.00    +0.000 C 
ATOM     53  F5  UNL A   1      23.800  15.407  10.756  1.00  0.00    +0.000 F 
ENDBRANCH   42   43
BRANCH   59   60
ATOM     65  C46 UNL A   1      28.581  17.477   3.871  1.00  0.00    +0.000 C 
ATOM     66  F8  UNL A   1      29.277  17.714   2.750  1.00  0.00    +0.000 F 
ATOM     67  C47 UNL A   1      27.276  17.928   3.987  1.00  0.00    +0.000 C 
ATOM     68  F9  UNL A   1      26.700  18.580   2.969  1.00  0.00    +0.000 F 
ATOM     69  C48 UNL A   1      26.548  17.678   5.147  1.00  0.00    +0.000 C 
ATOM     70  F10 UNL A   1      25.278  18.106   5.214  1.00  0.00    +0.000 F 
ATOM     60  C43 UNL A   1      27.097  16.945   6.207  1.00  0.00    +0.000 C 
ATOM     61  C44 UNL A   1      28.410  16.469   6.050  1.00  0.00    +0.000 C 
ATOM     62  F6  UNL A   1      28.967  15.671   6.969  1.00  0.00    +0.000 F 
ATOM     63  C45 UNL A   1      29.153  16.755   4.905  1.00  0.00    +0.000 C 
ATOM     64  F7  UNL A   1      30.407  16.297   4.786  1.00  0.00    +0.000 F 
ENDBRANCH   59   60
BRANCH   74   75
ATOM     75  C52 UNL A   1      23.092  12.407   4.554  1.00  0.00    +0.000 C 
ATOM     76  C53 UNL A   1      23.667  11.799   3.426  1.00  0.00    +0.000 C 
ATOM     77  F11 UNL A   1      24.483  12.498   2.623  1.00  0.00    +0.000 F 
ATOM     78  C54 UNL A   1      23.474  10.441   3.142  1.00  0.00    +0.000 C 
ATOM     79  F12 UNL A   1      24.095   9.882   2.095  1.00  0.00    +0.000 F 
ATOM     80  C55 UNL A   1      22.693   9.656   3.973  1.00  0.00    +0.000 C 
ATOM     81  F13 UNL A   1      22.563   8.341   3.742  1.00  0.00    +0.000 F 
ATOM     82  C56 UNL A   1      22.083  10.231   5.071  1.00  0.00    +0.000 C 
ATOM     83  F14 UNL A   1      21.351   9.476   5.904  1.00  0.00    +0.000 F 
ATOM     84  C57 UNL A   1      22.281  11.582   5.359  1.00  0.00    +0.000 C 
ATOM     85  F15 UNL A   1      21.739  12.042   6.495  1.00  0.00    +0.000 F 
ENDBRANCH   74   75
TORSDOF 21
ENDMDL
MODEL 6
REMARK VINA RESULT:      -9.3     37.855     44.331
ROOT
ATOM    129  H27 UNL A   1      11.199  49.851   3.110  1.00  0.00    +0.000 H 
ATOM    130  H28 UNL A   1      13.497  51.444   6.033  1.00  0.00    +0.000 H 
ATOM    131  H29 UNL A   1      16.765  53.939  -1.057  1.00  0.00    +0.000 H 
ATOM    132  H30 UNL A   1      16.530  51.430  -1.408  1.00  0.00    +0.000 H 
ATOM    133  H31 UNL A   1      15.479  52.197   2.530  1.00  0.00    +0.000 H 
ATOM    134  H32 UNL A   1      16.755  54.345   4.520  1.00  0.00    +0.000 H 
ATOM    135  H33 UNL A   1      14.983  52.665   5.363  1.00  0.00    +0.000 H 
ATOM    136  H34 UNL A   1      17.579  47.880   4.938  1.00  0.00    +0.000 H 
ATOM    137  H35 UNL A   1      18.466  48.887   2.735  1.00  0.00    +0.000 H 
ATOM     38  C28 UNL A   1      16.344  49.965   1.097  1.00  0.00    +0.000 C 
ATOM     39  C29 UNL A   1      16.281  49.451   2.489  1.00  0.00    +0.000 C 
ATOM     40  N5  UNL A   1      15.222  49.296   3.212  1.00  0.00    +0.000 N 
ATOM     41  C30 UNL A   1      15.666  48.849   4.452  1.00  0.00    +0.000 C 
ATOM     42  C31 UNL A   1      14.941  49.098   5.577  1.00  0.00    +0.000 C 
ATOM     54  C38 UNL A   1      13.591  49.488   5.243  1.00  0.00    +0.000 C 
ATOM     55  C39 UNL A   1      12.561  48.890   4.542  1.00  0.00    +0.000 C 
ATOM     56  C40 UNL A   1      11.965  49.948   3.794  1.00  0.00    +0.000 C 
ATOM     57  C41 UNL A   1      12.602  51.138   4.149  1.00  0.00    +0.000 C 
ATOM     58  N6  UNL A   1      13.277  50.824   5.301  1.00  0.00    +0.000 N 
ATOM     59  C42 UNL A   1      12.672  52.431   3.516  1.00  0.00    +0.000 C 
ATOM     71  C49 UNL A   1      13.689  53.324   3.698  1.00  0.00    +0.000 C 
ATOM     72  N7  UNL A   1      13.937  54.324   2.768  1.00  0.00    +0.000 N 
ATOM     73  C50 UNL A   1      15.221  54.552   2.868  1.00  0.00    +0.000 C 
ATOM     74  C51 UNL A   1      16.099  54.749   1.683  1.00  0.00    +0.000 C 
ATOM     86  C58 UNL A   1      16.129  53.562   1.027  1.00  0.00    +0.000 C 
ATOM     87  C59 UNL A   1      16.495  53.253  -0.336  1.00  0.00    +0.000 C 
ATOM     88  C60 UNL A   1      16.421  51.919  -0.506  1.00  0.00    +0.000 C 
ATOM     89  C61 UNL A   1      16.164  51.268   0.782  1.00  0.00    +0.000 C 
ATOM     90  N8  UNL A   1      15.850  52.309   1.626  1.00  0.00    +0.000 N 
ATOM     91  C62 UNL A   1      15.844  54.099   4.102  1.00  0.00    +0.000 C 
ATOM     92  C63 UNL A   1      14.887  53.272   4.534  1.00  0.00    +0.000 C 
ATOM     93  C64 UNL A   1      17.036  48.446   4.267  1.00  0.00    +0.000 C 
ATOM     94  C65 UNL A   1      17.503  48.906   3.104  1.00  0.00    +0.000 C 
ATOM    128  H26 UNL A   1      12.283  47.896   4.557  1.00  0.00    +0.000 H 
ENDROOT
BRANCH   38   37
ATOM     34  C24 UNL A   1      18.007  47.134  -1.520  1.00  0.00    +0.000 C 
ATOM     35  C25 UNL A   1      16.630  47.074  -1.282  1.00  0.00    +0.000 C 
ATOM     36  C26 UNL A   1      16.046  48.048  -0.477  1.00  0.00    +0.000 C 
ATOM     37  C27 UNL A   1      16.865  49.015   0.122  1.00  0.00    +0.000 C 
ATOM    138  H36 UNL A   1      18.843  49.681   0.427  1.00  0.00    +0.000 H 
ATOM    139  H37 UNL A   1      19.742  48.321  -1.359  1.00  0.00    +0.000 H 
ATOM    127  H25 UNL A   1      15.026  48.058  -0.325  1.00  0.00    +0.000 H 
ATOM    126  H24 UNL A   1      16.057  46.320  -1.693  1.00  0.00    +0.000 H 
ATOM     95  C66 UNL A   1      18.237  49.033  -0.101  1.00  0.00    +0.000 C 
ATOM     96  C67 UNL A   1      18.774  48.184  -1.028  1.00  0.00    +0.000 C 
BRANCH   34   32
ATOM     33  O4  UNL A   1      19.653  45.483  -1.765  1.00  0.00    +0.000 O 
ATOM     32  C23 UNL A   1      18.703  46.073  -2.266  1.00  0.00    +0.000 C 
BRANCH   32   31
ATOM    125  H23 UNL A   1      18.614  44.932  -3.930  1.00  0.00    +0.000 H 
ATOM     31  N4  UNL A   1      18.256  45.759  -3.533  1.00  0.00    +0.000 N 
BRANCH   31   30
ATOM    123  H21 UNL A   1      16.317  46.169  -4.150  1.00  0.00    +0.000 H 
ATOM    124  H22 UNL A   1      17.403  47.554  -4.104  1.00  0.00    +0.000 H 
ATOM     30  C22 UNL A   1      17.308  46.517  -4.351  1.00  0.00    +0.000 C 
BRANCH   30   29
ATOM    121  H19 UNL A   1      18.579  45.933  -5.945  1.00  0.00    +0.000 H 
ATOM    122  H20 UNL A   1      16.845  45.710  -6.239  1.00  0.00    +0.000 H 
ATOM     29  C21 UNL A   1      17.600  46.351  -5.833  1.00  0.00    +0.000 C 
BRANCH   29   28
ATOM     28  C20 UNL A   1      17.542  47.677  -6.607  1.00  0.00    +0.000 C 
ATOM    119  H17 UNL A   1      17.275  48.449  -5.915  1.00  0.00    +0.000 H 
ATOM    120  H18 UNL A   1      18.510  47.802  -7.044  1.00  0.00    +0.000 H 
BRANCH   28   27
ATOM     27  C19 UNL A   1      16.543  47.723  -7.775  1.00  0.00    +0.000 C 
ATOM    117  H15 UNL A   1      17.051  48.116  -8.631  1.00  0.00    +0.000 H 
ATOM    118  H16 UNL A   1      16.195  46.720  -7.912  1.00  0.00    +0.000 H 
BRANCH   27   26
ATOM     26  C18 UNL A   1      15.296  48.582  -7.526  1.00  0.00    +0.000 C 
ATOM    115  H13 UNL A   1      15.600  49.502  -7.071  1.00  0.00    +0.000 H 
ATOM    116  H14 UNL A   1      14.822  48.747  -8.470  1.00  0.00    +0.000 H 
BRANCH   26   25
ATOM     25  C17 UNL A   1      14.281  47.894  -6.610  1.00  0.00    +0.000 C 
ATOM    114  H12 UNL A   1      14.713  47.000  -6.210  1.00  0.00    +0.000 H 
ATOM    113  H11 UNL A   1      13.404  47.650  -7.172  1.00  0.00    +0.000 H 
BRANCH   25   24
ATOM    112  H10 UNL A   1      13.092  49.283  -5.678  1.00  0.00    +0.000 H 
ATOM     24  N3  UNL A   1      13.924  48.780  -5.522  1.00  0.00    +0.000 N 
BRANCH   24   22
ATOM     22  C16 UNL A   1      14.515  49.056  -4.317  1.00  0.00    +0.000 C 
ATOM     23  O3  UNL A   1      14.098  48.449  -3.329  1.00  0.00    +0.000 O 
BRANCH   22   21
ATOM     97  C68 UNL A   1      16.842  49.887  -3.649  1.00  0.00    +0.000 C 
ATOM     98  C69 UNL A   1      17.815  50.887  -3.710  1.00  0.00    +0.000 C 
ATOM    140  H38 UNL A   1      17.078  48.971  -3.235  1.00  0.00    +0.000 H 
ATOM    141  H39 UNL A   1      18.792  50.680  -3.451  1.00  0.00    +0.000 H 
ATOM    110  H8  UNL A   1      15.841  53.417  -4.688  1.00  0.00    +0.000 H 
ATOM    111  H9  UNL A   1      14.227  51.610  -4.817  1.00  0.00    +0.000 H 
ATOM     18  C12 UNL A   1      17.452  52.168  -4.124  1.00  0.00    +0.000 C 
ATOM     19  C13 UNL A   1      16.127  52.450  -4.468  1.00  0.00    +0.000 C 
ATOM     20  C14 UNL A   1      15.193  51.415  -4.510  1.00  0.00    +0.000 C 
ATOM     21  C15 UNL A   1      15.552  50.110  -4.139  1.00  0.00    +0.000 C 
BRANCH   18   17
ATOM     99  N9  UNL A   1      18.363  54.238  -3.315  1.00  0.00    +0.000 N 
ATOM    100  N10 UNL A   1      19.421  54.996  -3.537  1.00  0.00    +0.000 N 
ATOM    109  H7  UNL A   1      19.739  52.727  -5.816  1.00  0.00    +0.000 H 
ATOM     15  C10 UNL A   1      20.130  54.472  -4.587  1.00  0.00    +0.000 C 
ATOM     16  C11 UNL A   1      19.482  53.336  -5.024  1.00  0.00    +0.000 C 
ATOM     17  N2  UNL A   1      18.414  53.194  -4.165  1.00  0.00    +0.000 N 
BRANCH   15   14
ATOM    107  H5  UNL A   1      21.652  54.669  -6.003  1.00  0.00    +0.000 H 
ATOM    108  H6  UNL A   1      20.979  56.193  -5.338  1.00  0.00    +0.000 H 
ATOM     14  C9  UNL A   1      21.315  55.198  -5.136  1.00  0.00    +0.000 C 
BRANCH   14   13
ATOM     13  O2  UNL A   1      22.432  55.335  -4.240  1.00  0.00    +0.000 O 
BRANCH   13   12
ATOM    101  C70 UNL A   1      22.492  57.768  -4.584  1.00  0.00    +0.000 C 
ATOM    102  C71 UNL A   1      22.875  59.009  -4.071  1.00  0.00    +0.000 C 
ATOM      9  C5  UNL A   1      23.727  59.085  -2.968  1.00  0.00    +0.000 C 
ATOM     10  C6  UNL A   1      24.249  57.907  -2.429  1.00  0.00    +0.000 C 
ATOM    105  H3  UNL A   1      24.945  57.951  -1.669  1.00  0.00    +0.000 H 
ATOM     11  C7  UNL A   1      23.828  56.666  -2.922  1.00  0.00    +0.000 C 
ATOM    106  H4  UNL A   1      24.209  55.799  -2.514  1.00  0.00    +0.000 H 
ATOM     12  C8  UNL A   1      22.897  56.592  -3.960  1.00  0.00    +0.000 C 
ATOM    143  H41 UNL A   1      22.525  59.874  -4.509  1.00  0.00    +0.000 H 
ATOM    142  H40 UNL A   1      21.905  57.724  -5.433  1.00  0.00    +0.000 H 
BRANCH    9    8
ATOM    104  H2  UNL A   1      24.456  61.105  -3.013  1.00  0.00    +0.000 H 
ATOM      8  C4  UNL A   1      24.049  60.391  -2.389  1.00  0.00    +0.000 C 
BRANCH    8    7
ATOM      1  O1  UNL A   1      26.080  60.290  -0.312  1.00  0.00    +0.000 O 
ATOM      2  C1  UNL A   1      24.946  60.654  -0.098  1.00  0.00    +0.000 C 
ATOM      3  N1  UNL A   1      24.475  61.082   1.116  1.00  0.00    +0.000 N 
ATOM      4  C2  UNL A   1      23.173  61.467   1.202  1.00  0.00    +0.000 C 
ATOM      5  S1  UNL A   1      22.468  62.001   2.602  1.00  0.00    +0.000 S 
ATOM      6  S2  UNL A   1      22.402  61.301  -0.358  1.00  0.00    +0.000 S 
ATOM      7  C3  UNL A   1      23.851  60.725  -1.107  1.00  0.00    +0.000 C 
ATOM    103  H1  UNL A   1      25.063  61.111   1.904  1.00  0.00    +0.000 H 
ENDBRANCH    8    7
ENDBRANCH    9    8
ENDBRANCH   13   12
ENDBRANCH   14   13
ENDBRANCH   15   14
ENDBRANCH   18   17
ENDBRANCH   22   21
ENDBRANCH   24   22
ENDBRANCH   25   24
ENDBRANCH   26   25
ENDBRANCH   27   26
ENDBRANCH   28   27
ENDBRANCH   29   28
ENDBRANCH   30   29
ENDBRANCH   31   30
ENDBRANCH   32   31
ENDBRANCH   34   32
ENDBRANCH   38   37
BRANCH   42   43
ATOM     43  C32 UNL A   1      15.531  49.377   6.939  1.00  0.00    +0.000 C 
ATOM     44  C33 UNL A   1      16.508  50.386   7.060  1.00  0.00    +0.000 C 
ATOM     45  F1  UNL A   1      16.703  51.271   6.070  1.00  0.00    +0.000 F 
ATOM     46  C34 UNL A   1      17.375  50.448   8.153  1.00  0.00    +0.000 C 
ATOM     47  F2  UNL A   1      18.377  51.338   8.157  1.00  0.00    +0.000 F 
ATOM     48  C35 UNL A   1      17.254  49.548   9.196  1.00  0.00    +0.000 C 
ATOM     49  F3  UNL A   1      18.126  49.561  10.211  1.00  0.00    +0.000 F 
ATOM     50  C36 UNL A   1      16.253  48.602   9.156  1.00  0.00    +0.000 C 
ATOM     51  F4  UNL A   1      16.129  47.711  10.150  1.00  0.00    +0.000 F 
ATOM     52  C37 UNL A   1      15.422  48.503   8.042  1.00  0.00    +0.000 C 
ATOM     53  F5  UNL A   1      14.592  47.454   8.047  1.00  0.00    +0.000 F 
ENDBRANCH   42   43
BRANCH   59   60
ATOM     65  C46 UNL A   1       9.629  52.996   0.506  1.00  0.00    +0.000 C 
ATOM     66  F8  UNL A   1       8.643  53.121  -0.394  1.00  0.00    +0.000 F 
ATOM     67  C47 UNL A   1       9.428  53.400   1.817  1.00  0.00    +0.000 C 
ATOM     68  F9  UNL A   1       8.240  53.892   2.191  1.00  0.00    +0.000 F 
ATOM     69  C48 UNL A   1      10.447  53.265   2.756  1.00  0.00    +0.000 C 
ATOM     70  F10 UNL A   1      10.209  53.641   4.022  1.00  0.00    +0.000 F 
ATOM     60  C43 UNL A   1      11.681  52.698   2.415  1.00  0.00    +0.000 C 
ATOM     61  C44 UNL A   1      11.846  52.265   1.088  1.00  0.00    +0.000 C 
ATOM     62  F6  UNL A   1      12.953  51.615   0.710  1.00  0.00    +0.000 F 
ATOM     63  C45 UNL A   1      10.841  52.437   0.138  1.00  0.00    +0.000 C 
ATOM     64  F7  UNL A   1      11.029  52.024  -1.123  1.00  0.00    +0.000 F 
ENDBRANCH   59   60
BRANCH   74   75
ATOM     75  C52 UNL A   1      16.983  55.929   1.511  1.00  0.00    +0.000 C 
ATOM     76  C53 UNL A   1      18.375  55.818   1.658  1.00  0.00    +0.000 C 
ATOM     77  F11 UNL A   1      18.914  54.703   2.170  1.00  0.00    +0.000 F 
ATOM     78  C54 UNL A   1      19.245  56.822   1.215  1.00  0.00    +0.000 C 
ATOM     79  F12 UNL A   1      20.570  56.649   1.311  1.00  0.00    +0.000 F 
ATOM     80  C55 UNL A   1      18.746  57.969   0.620  1.00  0.00    +0.000 C 
ATOM     81  F13 UNL A   1      19.580  58.899   0.132  1.00  0.00    +0.000 F 
ATOM     82  C56 UNL A   1      17.380  58.126   0.492  1.00  0.00    +0.000 C 
ATOM     83  F14 UNL A   1      16.883  59.215  -0.112  1.00  0.00    +0.000 F 
ATOM     84  C57 UNL A   1      16.513  57.123   0.927  1.00  0.00    +0.000 C 
ATOM     85  F15 UNL A   1      15.208  57.304   0.678  1.00  0.00    +0.000 F 
ENDBRANCH   74   75
TORSDOF 21
ENDMDL
MODEL 7
REMARK VINA RESULT:      -9.3     10.308     18.591
ROOT
ATOM    129  H27 UNL A   1      38.695  25.395  30.009  1.00  0.00    +0.000 H 
ATOM    130  H28 UNL A   1      39.530  28.925  28.218  1.00  0.00    +0.000 H 
ATOM    131  H29 UNL A   1      46.646  24.891  28.748  1.00  0.00    +0.000 H 
ATOM    132  H30 UNL A   1      45.741  24.734  31.121  1.00  0.00    +0.000 H 
ATOM    133  H31 UNL A   1      43.157  27.198  29.010  1.00  0.00    +0.000 H 
ATOM    134  H32 UNL A   1      43.886  29.320  26.738  1.00  0.00    +0.000 H 
ATOM    135  H33 UNL A   1      41.470  29.132  27.631  1.00  0.00    +0.000 H 
ATOM    136  H34 UNL A   1      41.976  30.815  32.800  1.00  0.00    +0.000 H 
ATOM    137  H35 UNL A   1      44.172  29.462  32.721  1.00  0.00    +0.000 H 
ATOM     38  C28 UNL A   1      43.767  26.789  31.702  1.00  0.00    +0.000 C 
ATOM     39  C29 UNL A   1      42.811  27.922  31.756  1.00  0.00    +0.000 C 
ATOM     40  N5  UNL A   1      41.558  27.898  31.439  1.00  0.00    +0.000 N 
ATOM     41  C30 UNL A   1      41.096  29.200  31.595  1.00  0.00    +0.000 C 
ATOM     42  C31 UNL A   1      40.039  29.652  30.865  1.00  0.00    +0.000 C 
ATOM     54  C38 UNL A   1      39.309  28.550  30.284  1.00  0.00    +0.000 C 
ATOM     55  C39 UNL A   1      38.659  27.445  30.801  1.00  0.00    +0.000 C 
ATOM     56  C40 UNL A   1      38.968  26.384  29.899  1.00  0.00    +0.000 C 
ATOM     57  C41 UNL A   1      39.706  26.918  28.842  1.00  0.00    +0.000 C 
ATOM     58  N6  UNL A   1      39.517  28.272  28.955  1.00  0.00    +0.000 N 
ATOM     59  C42 UNL A   1      40.555  26.316  27.845  1.00  0.00    +0.000 C 
ATOM     71  C49 UNL A   1      41.570  26.966  27.203  1.00  0.00    +0.000 C 
ATOM     72  N7  UNL A   1      42.606  26.261  26.607  1.00  0.00    +0.000 N 
ATOM     73  C50 UNL A   1      43.631  27.071  26.668  1.00  0.00    +0.000 C 
ATOM     74  C51 UNL A   1      44.999  26.615  27.038  1.00  0.00    +0.000 C 
ATOM     86  C58 UNL A   1      44.934  26.230  28.338  1.00  0.00    +0.000 C 
ATOM     87  C59 UNL A   1      45.814  25.384  29.109  1.00  0.00    +0.000 C 
ATOM     88  C60 UNL A   1      45.365  25.343  30.378  1.00  0.00    +0.000 C 
ATOM     89  C61 UNL A   1      44.261  26.293  30.545  1.00  0.00    +0.000 C 
ATOM     90  N8  UNL A   1      43.955  26.678  29.258  1.00  0.00    +0.000 N 
ATOM     91  C62 UNL A   1      43.309  28.476  26.873  1.00  0.00    +0.000 C 
ATOM     92  C63 UNL A   1      42.045  28.346  27.289  1.00  0.00    +0.000 C 
ATOM     93  C64 UNL A   1      42.108  29.898  32.344  1.00  0.00    +0.000 C 
ATOM     94  C65 UNL A   1      43.240  29.191  32.368  1.00  0.00    +0.000 C 
ATOM    128  H26 UNL A   1      38.078  27.397  31.652  1.00  0.00    +0.000 H 
ENDROOT
BRANCH   38   37
ATOM     34  C24 UNL A   1      45.352  25.447  35.352  1.00  0.00    +0.000 C 
ATOM     35  C25 UNL A   1      46.197  26.160  34.495  1.00  0.00    +0.000 C 
ATOM     36  C26 UNL A   1      45.672  26.679  33.315  1.00  0.00    +0.000 C 
ATOM     37  C27 UNL A   1      44.335  26.411  32.991  1.00  0.00    +0.000 C 
ATOM    138  H36 UNL A   1      42.576  25.388  33.545  1.00  0.00    +0.000 H 
ATOM    139  H37 UNL A   1      43.351  24.952  35.793  1.00  0.00    +0.000 H 
ATOM    127  H25 UNL A   1      46.258  27.252  32.689  1.00  0.00    +0.000 H 
ATOM    126  H24 UNL A   1      47.192  26.299  34.733  1.00  0.00    +0.000 H 
ATOM     95  C66 UNL A   1      43.523  25.669  33.841  1.00  0.00    +0.000 C 
ATOM     96  C67 UNL A   1      43.995  25.315  35.074  1.00  0.00    +0.000 C 
BRANCH   34   32
ATOM     33  O4  UNL A   1      46.832  25.237  37.157  1.00  0.00    +0.000 O 
ATOM     32  C23 UNL A   1      45.869  24.777  36.555  1.00  0.00    +0.000 C 
BRANCH   32   31
ATOM    125  H23 UNL A   1      44.258  23.661  37.043  1.00  0.00    +0.000 H 
ATOM     31  N4  UNL A   1      45.240  23.627  36.989  1.00  0.00    +0.000 N 
BRANCH   31   30
ATOM    123  H21 UNL A   1      45.273  21.552  37.020  1.00  0.00    +0.000 H 
ATOM    124  H22 UNL A   1      46.851  22.331  36.948  1.00  0.00    +0.000 H 
ATOM     30  C22 UNL A   1      45.871  22.365  37.376  1.00  0.00    +0.000 C 
BRANCH   30   29
ATOM    121  H19 UNL A   1      45.370  22.984  39.341  1.00  0.00    +0.000 H 
ATOM    122  H20 UNL A   1      45.726  21.258  39.160  1.00  0.00    +0.000 H 
ATOM     29  C21 UNL A   1      46.005  22.253  38.886  1.00  0.00    +0.000 C 
BRANCH   29   28
ATOM     28  C20 UNL A   1      47.443  22.480  39.377  1.00  0.00    +0.000 C 
ATOM    119  H17 UNL A   1      47.482  23.440  39.847  1.00  0.00    +0.000 H 
ATOM    120  H18 UNL A   1      47.659  21.665  40.036  1.00  0.00    +0.000 H 
BRANCH   28   27
ATOM     27  C19 UNL A   1      48.531  22.442  38.290  1.00  0.00    +0.000 C 
ATOM    117  H15 UNL A   1      48.407  21.540  37.728  1.00  0.00    +0.000 H 
ATOM    118  H16 UNL A   1      48.400  23.328  37.704  1.00  0.00    +0.000 H 
BRANCH   27   26
ATOM     26  C18 UNL A   1      49.972  22.481  38.816  1.00  0.00    +0.000 C 
ATOM    115  H13 UNL A   1      50.518  23.216  38.261  1.00  0.00    +0.000 H 
ATOM    116  H14 UNL A   1      49.930  22.724  39.857  1.00  0.00    +0.000 H 
BRANCH   26   25
ATOM     25  C17 UNL A   1      50.684  21.134  38.682  1.00  0.00    +0.000 C 
ATOM    114  H12 UNL A   1      51.742  21.294  38.643  1.00  0.00    +0.000 H 
ATOM    113  H11 UNL A   1      50.360  20.648  37.785  1.00  0.00    +0.000 H 
BRANCH   25   24
ATOM    112  H10 UNL A   1      50.406  20.774  40.683  1.00  0.00    +0.000 H 
ATOM     24  N3  UNL A   1      50.370  20.298  39.822  1.00  0.00    +0.000 N 
BRANCH   24   22
ATOM     22  C16 UNL A   1      50.030  18.976  39.939  1.00  0.00    +0.000 C 
ATOM     23  O3  UNL A   1      50.947  18.155  39.955  1.00  0.00    +0.000 O 
BRANCH   22   21
ATOM     97  C68 UNL A   1      47.626  18.919  39.060  1.00  0.00    +0.000 C 
ATOM     98  C69 UNL A   1      46.393  18.267  38.999  1.00  0.00    +0.000 C 
ATOM    140  H38 UNL A   1      47.806  19.727  38.443  1.00  0.00    +0.000 H 
ATOM    141  H39 UNL A   1      45.709  18.514  38.268  1.00  0.00    +0.000 H 
ATOM    110  H8  UNL A   1      46.767  16.285  41.680  1.00  0.00    +0.000 H 
ATOM    111  H9  UNL A   1      48.993  17.247  41.611  1.00  0.00    +0.000 H 
ATOM     18  C12 UNL A   1      46.096  17.280  39.938  1.00  0.00    +0.000 C 
ATOM     19  C13 UNL A   1      47.021  16.951  40.933  1.00  0.00    +0.000 C 
ATOM     20  C14 UNL A   1      48.290  17.530  40.910  1.00  0.00    +0.000 C 
ATOM     21  C15 UNL A   1      48.621  18.493  39.945  1.00  0.00    +0.000 C 
BRANCH   18   17
ATOM     99  N9  UNL A   1      44.312  16.192  38.754  1.00  0.00    +0.000 N 
ATOM    100  N10 UNL A   1      43.182  15.570  39.039  1.00  0.00    +0.000 N 
ATOM    109  H7  UNL A   1      44.101  16.647  41.944  1.00  0.00    +0.000 H 
ATOM     15  C10 UNL A   1      42.951  15.668  40.387  1.00  0.00    +0.000 C 
ATOM     16  C11 UNL A   1      43.990  16.374  40.956  1.00  0.00    +0.000 C 
ATOM     17  N2  UNL A   1      44.847  16.633  39.908  1.00  0.00    +0.000 N 
BRANCH   15   14
ATOM    107  H5  UNL A   1      41.544  15.617  41.931  1.00  0.00    +0.000 H 
ATOM    108  H6  UNL A   1      40.910  15.401  40.266  1.00  0.00    +0.000 H 
ATOM     14  C9  UNL A   1      41.675  15.157  40.973  1.00  0.00    +0.000 C 
BRANCH   14   13
ATOM     13  O2  UNL A   1      41.600  13.731  41.155  1.00  0.00    +0.000 O 
BRANCH   13   12
ATOM    101  C70 UNL A   1      42.981  13.862  43.184  1.00  0.00    +0.000 C 
ATOM    102  C71 UNL A   1      43.413  13.215  44.343  1.00  0.00    +0.000 C 
ATOM      9  C5  UNL A   1      43.177  11.851  44.522  1.00  0.00    +0.000 C 
ATOM     10  C6  UNL A   1      42.566  11.127  43.495  1.00  0.00    +0.000 C 
ATOM    105  H3  UNL A   1      42.461  10.103  43.577  1.00  0.00    +0.000 H 
ATOM     11  C7  UNL A   1      42.098  11.789  42.355  1.00  0.00    +0.000 C 
ATOM    106  H4  UNL A   1      41.639  11.252  41.604  1.00  0.00    +0.000 H 
ATOM     12  C8  UNL A   1      42.246  13.173  42.224  1.00  0.00    +0.000 C 
ATOM    143  H41 UNL A   1      43.910  13.749  45.073  1.00  0.00    +0.000 H 
ATOM    142  H40 UNL A   1      43.209  14.859  43.039  1.00  0.00    +0.000 H 
BRANCH    9    8
ATOM    104  H2  UNL A   1      43.019  10.380  46.078  1.00  0.00    +0.000 H 
ATOM      8  C4  UNL A   1      43.559  11.207  45.780  1.00  0.00    +0.000 C 
BRANCH    8    7
ATOM      1  O1  UNL A   1      43.246  12.872  48.142  1.00  0.00    +0.000 O 
ATOM      2  C1  UNL A   1      44.322  12.462  47.771  1.00  0.00    +0.000 C 
ATOM      3  N1  UNL A   1      45.514  12.698  48.407  1.00  0.00    +0.000 N 
ATOM      4  C2  UNL A   1      46.646  12.166  47.871  1.00  0.00    +0.000 C 
ATOM      5  S1  UNL A   1      48.152  12.371  48.528  1.00  0.00    +0.000 S 
ATOM      6  S2  UNL A   1      46.251  11.267  46.425  1.00  0.00    +0.000 S 
ATOM      7  C3  UNL A   1      44.563  11.613  46.570  1.00  0.00    +0.000 C 
ATOM    103  H1  UNL A   1      45.550  13.238  49.228  1.00  0.00    +0.000 H 
ENDBRANCH    8    7
ENDBRANCH    9    8
ENDBRANCH   13   12
ENDBRANCH   14   13
ENDBRANCH   15   14
ENDBRANCH   18   17
ENDBRANCH   22   21
ENDBRANCH   24   22
ENDBRANCH   25   24
ENDBRANCH   26   25
ENDBRANCH   27   26
ENDBRANCH   28   27
ENDBRANCH   29   28
ENDBRANCH   30   29
ENDBRANCH   31   30
ENDBRANCH   32   31
ENDBRANCH   34   32
ENDBRANCH   38   37
BRANCH   42   43
ATOM     43  C32 UNL A   1      39.890  31.062  30.346  1.00  0.00    +0.000 C 
ATOM     44  C33 UNL A   1      41.022  31.712  29.814  1.00  0.00    +0.000 C 
ATOM     45  F1  UNL A   1      42.128  31.016  29.505  1.00  0.00    +0.000 F 
ATOM     46  C34 UNL A   1      41.083  33.102  29.685  1.00  0.00    +0.000 C 
ATOM     47  F2  UNL A   1      42.230  33.684  29.307  1.00  0.00    +0.000 F 
ATOM     48  C35 UNL A   1      39.994  33.886  30.016  1.00  0.00    +0.000 C 
ATOM     49  F3  UNL A   1      40.072  35.220  29.959  1.00  0.00    +0.000 F 
ATOM     50  C36 UNL A   1      38.836  33.279  30.455  1.00  0.00    +0.000 C 
ATOM     51  F4  UNL A   1      37.774  34.022  30.795  1.00  0.00    +0.000 F 
ATOM     52  C37 UNL A   1      38.790  31.899  30.637  1.00  0.00    +0.000 C 
ATOM     53  F5  UNL A   1      37.673  31.441  31.212  1.00  0.00    +0.000 F 
ENDBRANCH   42   43
BRANCH   59   60
ATOM     65  C46 UNL A   1      40.565  22.038  27.269  1.00  0.00    +0.000 C 
ATOM     66  F8  UNL A   1      40.633  20.715  27.057  1.00  0.00    +0.000 F 
ATOM     67  C47 UNL A   1      41.450  22.648  28.143  1.00  0.00    +0.000 C 
ATOM     68  F9  UNL A   1      42.391  21.920  28.759  1.00  0.00    +0.000 F 
ATOM     69  C48 UNL A   1      41.387  24.022  28.361  1.00  0.00    +0.000 C 
ATOM     70  F10 UNL A   1      42.277  24.583  29.194  1.00  0.00    +0.000 F 
ATOM     60  C43 UNL A   1      40.456  24.823  27.687  1.00  0.00    +0.000 C 
ATOM     61  C44 UNL A   1      39.593  24.184  26.780  1.00  0.00    +0.000 C 
ATOM     62  F6  UNL A   1      38.751  24.893  26.018  1.00  0.00    +0.000 F 
ATOM     63  C45 UNL A   1      39.630  22.803  26.593  1.00  0.00    +0.000 C 
ATOM     64  F7  UNL A   1      38.788  22.219  25.729  1.00  0.00    +0.000 F 
ENDBRANCH   59   60
BRANCH   74   75
ATOM     75  C52 UNL A   1      46.197  26.872  26.203  1.00  0.00    +0.000 C 
ATOM     76  C53 UNL A   1      47.146  27.839  26.576  1.00  0.00    +0.000 C 
ATOM     77  F11 UNL A   1      46.881  28.697  27.571  1.00  0.00    +0.000 F 
ATOM     78  C54 UNL A   1      48.414  27.893  25.984  1.00  0.00    +0.000 C 
ATOM     79  F12 UNL A   1      49.316  28.786  26.416  1.00  0.00    +0.000 F 
ATOM     80  C55 UNL A   1      48.765  26.989  24.995  1.00  0.00    +0.000 C 
ATOM     81  F13 UNL A   1      50.002  26.997  24.477  1.00  0.00    +0.000 F 
ATOM     82  C56 UNL A   1      47.843  26.050  24.579  1.00  0.00    +0.000 C 
ATOM     83  F14 UNL A   1      48.179  25.146  23.647  1.00  0.00    +0.000 F 
ATOM     84  C57 UNL A   1      46.582  25.989  25.174  1.00  0.00    +0.000 C 
ATOM     85  F15 UNL A   1      45.780  24.988  24.787  1.00  0.00    +0.000 F 
ENDBRANCH   74   75
TORSDOF 21
ENDMDL
MODEL 8
REMARK VINA RESULT:      -9.2     39.140     44.833
ROOT
ATOM    129  H27 UNL A   1       9.945  -3.113  25.984  1.00  0.00    +0.000 H 
ATOM    130  H28 UNL A   1      11.775   0.108  27.611  1.00  0.00    +0.000 H 
ATOM    131  H29 UNL A   1       6.218   3.052  22.355  1.00  0.00    +0.000 H 
ATOM    132  H30 UNL A   1       7.457   1.332  20.946  1.00  0.00    +0.000 H 
ATOM    133  H31 UNL A   1       9.447   1.571  24.578  1.00  0.00    +0.000 H 
ATOM    134  H32 UNL A   1       9.937   4.161  26.381  1.00  0.00    +0.000 H 
ATOM    135  H33 UNL A   1      11.014   1.900  27.012  1.00  0.00    +0.000 H 
ATOM    136  H34 UNL A   1      14.529   1.071  22.916  1.00  0.00    +0.000 H 
ATOM    137  H35 UNL A   1      12.617   2.021  21.468  1.00  0.00    +0.000 H 
ATOM     38  C28 UNL A   1      10.095   0.716  22.002  1.00  0.00    +0.000 C 
ATOM     39  C29 UNL A   1      11.387   0.583  22.722  1.00  0.00    +0.000 C 
ATOM     40  N5  UNL A   1      11.659  -0.234  23.685  1.00  0.00    +0.000 N 
ATOM     41  C30 UNL A   1      12.964   0.050  24.073  1.00  0.00    +0.000 C 
ATOM     42  C31 UNL A   1      13.377  -0.202  25.346  1.00  0.00    +0.000 C 
ATOM     54  C38 UNL A   1      12.461  -1.095  26.016  1.00  0.00    +0.000 C 
ATOM     55  C39 UNL A   1      12.003  -2.374  25.764  1.00  0.00    +0.000 C 
ATOM     56  C40 UNL A   1      10.619  -2.340  26.105  1.00  0.00    +0.000 C 
ATOM     57  C41 UNL A   1      10.335  -1.079  26.629  1.00  0.00    +0.000 C 
ATOM     58  N6  UNL A   1      11.568  -0.547  26.906  1.00  0.00    +0.000 N 
ATOM     59  C42 UNL A   1       9.100  -0.361  26.826  1.00  0.00    +0.000 C 
ATOM     71  C49 UNL A   1       9.000   1.000  26.882  1.00  0.00    +0.000 C 
ATOM     72  N7  UNL A   1       7.794   1.639  26.632  1.00  0.00    +0.000 N 
ATOM     73  C50 UNL A   1       8.136   2.806  26.153  1.00  0.00    +0.000 C 
ATOM     74  C51 UNL A   1       7.451   3.432  24.989  1.00  0.00    +0.000 C 
ATOM     86  C58 UNL A   1       7.734   2.653  23.915  1.00  0.00    +0.000 C 
ATOM     87  C59 UNL A   1       7.073   2.546  22.635  1.00  0.00    +0.000 C 
ATOM     88  C60 UNL A   1       7.759   1.676  21.871  1.00  0.00    +0.000 C 
ATOM     89  C61 UNL A   1       9.000   1.291  22.549  1.00  0.00    +0.000 C 
ATOM     90  N8  UNL A   1       8.852   1.789  23.825  1.00  0.00    +0.000 N 
ATOM     91  C62 UNL A   1       9.499   3.228  26.441  1.00  0.00    +0.000 C 
ATOM     92  C63 UNL A   1      10.014   2.050  26.806  1.00  0.00    +0.000 C 
ATOM     93  C64 UNL A   1      13.523   0.869  23.030  1.00  0.00    +0.000 C 
ATOM     94  C65 UNL A   1      12.558   1.327  22.230  1.00  0.00    +0.000 C 
ATOM    128  H26 UNL A   1      12.543  -3.177  25.407  1.00  0.00    +0.000 H 
ENDROOT
BRANCH   38   37
ATOM     34  C24 UNL A   1      10.065  -0.300  17.928  1.00  0.00    +0.000 C 
ATOM     35  C25 UNL A   1       9.961   1.054  18.265  1.00  0.00    +0.000 C 
ATOM     36  C26 UNL A   1      10.045   1.419  19.605  1.00  0.00    +0.000 C 
ATOM     37  C27 UNL A   1      10.160   0.416  20.577  1.00  0.00    +0.000 C 
ATOM    138  H36 UNL A   1      10.202  -1.661  20.945  1.00  0.00    +0.000 H 
ATOM    139  H37 UNL A   1      10.576  -2.223  18.623  1.00  0.00    +0.000 H 
ATOM    127  H25 UNL A   1      10.023   2.414  19.879  1.00  0.00    +0.000 H 
ATOM    126  H24 UNL A   1       9.825   1.769  17.533  1.00  0.00    +0.000 H 
ATOM     95  C66 UNL A   1      10.225  -0.926  20.220  1.00  0.00    +0.000 C 
ATOM     96  C67 UNL A   1      10.319  -1.263  18.899  1.00  0.00    +0.000 C 
BRANCH   34   32
ATOM     33  O4  UNL A   1      10.514  -0.266  15.628  1.00  0.00    +0.000 O 
ATOM     32  C23 UNL A   1       9.870  -0.763  16.545  1.00  0.00    +0.000 C 
BRANCH   32   31
ATOM    125  H23 UNL A   1       9.323  -2.641  16.045  1.00  0.00    +0.000 H 
ATOM     31  N4  UNL A   1       8.955  -1.768  16.311  1.00  0.00    +0.000 N 
BRANCH   31   30
ATOM    123  H21 UNL A   1       7.211  -0.649  16.437  1.00  0.00    +0.000 H 
ATOM    124  H22 UNL A   1       7.069  -2.174  15.567  1.00  0.00    +0.000 H 
ATOM     30  C22 UNL A   1       7.497  -1.680  16.413  1.00  0.00    +0.000 C 
BRANCH   30   29
ATOM    121  H19 UNL A   1       6.115  -2.929  17.425  1.00  0.00    +0.000 H 
ATOM    122  H20 UNL A   1       7.776  -2.986  18.040  1.00  0.00    +0.000 H 
ATOM     29  C21 UNL A   1       6.988  -2.363  17.673  1.00  0.00    +0.000 C 
BRANCH   29   28
ATOM     28  C20 UNL A   1       6.629  -1.369  18.787  1.00  0.00    +0.000 C 
ATOM    119  H17 UNL A   1       5.746  -1.727  19.274  1.00  0.00    +0.000 H 
ATOM    120  H18 UNL A   1       7.486  -1.322  19.425  1.00  0.00    +0.000 H 
BRANCH   28   27
ATOM     27  C19 UNL A   1       6.363   0.076  18.331  1.00  0.00    +0.000 C 
ATOM    117  H15 UNL A   1       7.302   0.586  18.282  1.00  0.00    +0.000 H 
ATOM    118  H16 UNL A   1       5.869   0.005  17.384  1.00  0.00    +0.000 H 
BRANCH   27   26
ATOM     26  C18 UNL A   1       5.430   0.881  19.245  1.00  0.00    +0.000 C 
ATOM    115  H13 UNL A   1       4.914   0.201  19.891  1.00  0.00    +0.000 H 
ATOM    116  H14 UNL A   1       6.034   1.569  19.799  1.00  0.00    +0.000 H 
BRANCH   26   25
ATOM     25  C17 UNL A   1       4.398   1.695  18.462  1.00  0.00    +0.000 C 
ATOM    114  H12 UNL A   1       3.446   1.618  18.944  1.00  0.00    +0.000 H 
ATOM    113  H11 UNL A   1       4.328   1.314  17.464  1.00  0.00    +0.000 H 
BRANCH   25   24
ATOM    112  H10 UNL A   1       4.223   3.647  17.855  1.00  0.00    +0.000 H 
ATOM     24  N3  UNL A   1       4.801   3.085  18.420  1.00  0.00    +0.000 N 
BRANCH   24   22
ATOM     22  C16 UNL A   1       5.827   3.773  19.012  1.00  0.00    +0.000 C 
ATOM     23  O3  UNL A   1       5.595   4.321  20.089  1.00  0.00    +0.000 O 
BRANCH   22   21
ATOM     97  C68 UNL A   1       7.485   3.559  17.072  1.00  0.00    +0.000 C 
ATOM     98  C69 UNL A   1       8.681   3.960  16.476  1.00  0.00    +0.000 C 
ATOM    140  H38 UNL A   1       6.832   2.954  16.549  1.00  0.00    +0.000 H 
ATOM    141  H39 UNL A   1       8.864   3.752  15.482  1.00  0.00    +0.000 H 
ATOM    110  H8  UNL A   1      10.119   5.347  19.171  1.00  0.00    +0.000 H 
ATOM    111  H9  UNL A   1       7.936   4.866  20.115  1.00  0.00    +0.000 H 
ATOM     18  C12 UNL A   1       9.627   4.645  17.237  1.00  0.00    +0.000 C 
ATOM     19  C13 UNL A   1       9.384   4.921  18.586  1.00  0.00    +0.000 C 
ATOM     20  C14 UNL A   1       8.139   4.614  19.135  1.00  0.00    +0.000 C 
ATOM     21  C15 UNL A   1       7.158   3.964  18.370  1.00  0.00    +0.000 C 
BRANCH   18   17
ATOM     99  N9  UNL A   1      10.924   6.065  15.799  1.00  0.00    +0.000 N 
ATOM    100  N10 UNL A   1      12.194   6.240  15.479  1.00  0.00    +0.000 N 
ATOM    109  H7  UNL A   1      12.338   3.623  17.369  1.00  0.00    +0.000 H 
ATOM     15  C10 UNL A   1      12.942   5.265  16.087  1.00  0.00    +0.000 C 
ATOM     16  C11 UNL A   1      12.095   4.463  16.821  1.00  0.00    +0.000 C 
ATOM     17  N2  UNL A   1      10.851   5.032  16.659  1.00  0.00    +0.000 N 
BRANCH   15   14
ATOM    107  H5  UNL A   1      14.921   5.114  16.738  1.00  0.00    +0.000 H 
ATOM    108  H6  UNL A   1      14.515   4.260  15.213  1.00  0.00    +0.000 H 
ATOM     14  C9  UNL A   1      14.404   5.147  15.801  1.00  0.00    +0.000 C 
BRANCH   14   13
ATOM     13  O2  UNL A   1      14.974   6.211  15.018  1.00  0.00    +0.000 O 
BRANCH   13   12
ATOM    101  C70 UNL A   1      16.925   6.927  13.705  1.00  0.00    +0.000 C 
ATOM    102  C71 UNL A   1      18.192   6.592  13.223  1.00  0.00    +0.000 C 
ATOM      9  C5  UNL A   1      18.652   5.277  13.297  1.00  0.00    +0.000 C 
ATOM     10  C6  UNL A   1      17.802   4.286  13.795  1.00  0.00    +0.000 C 
ATOM    105  H3  UNL A   1      18.096   3.297  13.778  1.00  0.00    +0.000 H 
ATOM     11  C7  UNL A   1      16.550   4.636  14.315  1.00  0.00    +0.000 C 
ATOM    106  H4  UNL A   1      15.930   3.902  14.691  1.00  0.00    +0.000 H 
ATOM     12  C8  UNL A   1      16.133   5.969  14.332  1.00  0.00    +0.000 C 
ATOM    143  H41 UNL A   1      18.792   7.323  12.809  1.00  0.00    +0.000 H 
ATOM    142  H40 UNL A   1      16.574   7.892  13.596  1.00  0.00    +0.000 H 
BRANCH    9    8
ATOM    104  H2  UNL A   1      20.704   4.719  13.595  1.00  0.00    +0.000 H 
ATOM      8  C4  UNL A   1      20.015   4.959  12.866  1.00  0.00    +0.000 C 
BRANCH    8    7
ATOM      1  O1  UNL A   1      22.673   4.178  11.985  1.00  0.00    +0.000 O 
ATOM      2  C1  UNL A   1      21.809   4.536  11.216  1.00  0.00    +0.000 C 
ATOM      3  N1  UNL A   1      21.948   4.599   9.853  1.00  0.00    +0.000 N 
ATOM      4  C2  UNL A   1      20.883   5.017   9.116  1.00  0.00    +0.000 C 
ATOM      5  S1  UNL A   1      20.908   5.147   7.465  1.00  0.00    +0.000 S 
ATOM      6  S2  UNL A   1      19.540   5.384  10.172  1.00  0.00    +0.000 S 
ATOM      7  C3  UNL A   1      20.430   4.957  11.592  1.00  0.00    +0.000 C 
ATOM    103  H1  UNL A   1      22.795   4.349   9.420  1.00  0.00    +0.000 H 
ENDBRANCH    8    7
ENDBRANCH    9    8
ENDBRANCH   13   12
ENDBRANCH   14   13
ENDBRANCH   15   14
ENDBRANCH   18   17
ENDBRANCH   22   21
ENDBRANCH   24   22
ENDBRANCH   25   24
ENDBRANCH   26   25
ENDBRANCH   27   26
ENDBRANCH   28   27
ENDBRANCH   29   28
ENDBRANCH   30   29
ENDBRANCH   31   30
ENDBRANCH   32   31
ENDBRANCH   34   32
ENDBRANCH   38   37
BRANCH   42   43
ATOM     43  C32 UNL A   1      14.363   0.644  26.114  1.00  0.00    +0.000 C 
ATOM     44  C33 UNL A   1      15.686   0.178  26.263  1.00  0.00    +0.000 C 
ATOM     45  F1  UNL A   1      16.143  -0.834  25.508  1.00  0.00    +0.000 F 
ATOM     46  C34 UNL A   1      16.535   0.669  27.257  1.00  0.00    +0.000 C 
ATOM     47  F2  UNL A   1      17.733   0.098  27.450  1.00  0.00    +0.000 F 
ATOM     48  C35 UNL A   1      16.121   1.689  28.093  1.00  0.00    +0.000 C 
ATOM     49  F3  UNL A   1      16.905   2.113  29.091  1.00  0.00    +0.000 F 
ATOM     50  C36 UNL A   1      14.866   2.232  27.921  1.00  0.00    +0.000 C 
ATOM     51  F4  UNL A   1      14.439   3.211  28.731  1.00  0.00    +0.000 F 
ATOM     52  C37 UNL A   1      13.996   1.708  26.967  1.00  0.00    +0.000 C 
ATOM     53  F5  UNL A   1      12.757   2.210  26.995  1.00  0.00    +0.000 F 
ENDBRANCH   42   43
BRANCH   59   60
ATOM     65  C46 UNL A   1       5.616  -2.905  26.663  1.00  0.00    +0.000 C 
ATOM     66  F8  UNL A   1       4.576  -3.751  26.638  1.00  0.00    +0.000 F 
ATOM     67  C47 UNL A   1       6.174  -2.525  27.874  1.00  0.00    +0.000 C 
ATOM     68  F9  UNL A   1       5.688  -3.022  29.020  1.00  0.00    +0.000 F 
ATOM     69  C48 UNL A   1       7.258  -1.653  27.903  1.00  0.00    +0.000 C 
ATOM     70  F10 UNL A   1       7.790  -1.328  29.092  1.00  0.00    +0.000 F 
ATOM     60  C43 UNL A   1       7.831  -1.163  26.723  1.00  0.00    +0.000 C 
ATOM     61  C44 UNL A   1       7.268  -1.592  25.508  1.00  0.00    +0.000 C 
ATOM     62  F6  UNL A   1       7.824  -1.256  24.338  1.00  0.00    +0.000 F 
ATOM     63  C45 UNL A   1       6.157  -2.433  25.480  1.00  0.00    +0.000 C 
ATOM     64  F7  UNL A   1       5.635  -2.818  24.307  1.00  0.00    +0.000 F 
ENDBRANCH   59   60
BRANCH   74   75
ATOM     75  C52 UNL A   1       6.878   4.800  25.021  1.00  0.00    +0.000 C 
ATOM     76  C53 UNL A   1       5.830   5.126  25.898  1.00  0.00    +0.000 C 
ATOM     77  F11 UNL A   1       5.181   4.160  26.564  1.00  0.00    +0.000 F 
ATOM     78  C54 UNL A   1       5.478   6.455  26.163  1.00  0.00    +0.000 C 
ATOM     79  F12 UNL A   1       4.518   6.727  27.058  1.00  0.00    +0.000 F 
ATOM     80  C55 UNL A   1       6.157   7.496  25.551  1.00  0.00    +0.000 C 
ATOM     81  F13 UNL A   1       5.867   8.769  25.857  1.00  0.00    +0.000 F 
ATOM     82  C56 UNL A   1       7.169   7.209  24.656  1.00  0.00    +0.000 C 
ATOM     83  F14 UNL A   1       7.858   8.206  24.081  1.00  0.00    +0.000 F 
ATOM     84  C57 UNL A   1       7.526   5.885  24.396  1.00  0.00    +0.000 C 
ATOM     85  F15 UNL A   1       8.581   5.692  23.594  1.00  0.00    +0.000 F 
ENDBRANCH   74   75
TORSDOF 21
ENDMDL
MODEL 9
REMARK VINA RESULT:      -9.2      7.282     12.062
ROOT
ATOM    129  H27 UNL A   1      44.115  31.878  30.869  1.00  0.00    +0.000 H 
ATOM    130  H28 UNL A   1      44.711  28.231  32.516  1.00  0.00    +0.000 H 
ATOM    131  H29 UNL A   1      41.191  26.901  25.234  1.00  0.00    +0.000 H 
ATOM    132  H30 UNL A   1      39.663  28.648  26.278  1.00  0.00    +0.000 H 
ATOM    133  H31 UNL A   1      42.428  27.581  29.180  1.00  0.00    +0.000 H 
ATOM    134  H32 UNL A   1      43.684  24.696  29.728  1.00  0.00    +0.000 H 
ATOM    135  H33 UNL A   1      44.188  26.670  31.316  1.00  0.00    +0.000 H 
ATOM    136  H34 UNL A   1      39.310  27.677  33.551  1.00  0.00    +0.000 H 
ATOM    137  H35 UNL A   1      38.445  27.224  31.164  1.00  0.00    +0.000 H 
ATOM     38  C28 UNL A   1      39.891  28.743  29.175  1.00  0.00    +0.000 C 
ATOM     39  C29 UNL A   1      40.175  28.592  30.625  1.00  0.00    +0.000 C 
ATOM     40  N5  UNL A   1      41.087  29.204  31.305  1.00  0.00    +0.000 N 
ATOM     41  C30 UNL A   1      41.008  28.696  32.597  1.00  0.00    +0.000 C 
ATOM     42  C31 UNL A   1      42.104  28.687  33.405  1.00  0.00    +0.000 C 
ATOM     54  C38 UNL A   1      43.125  29.573  32.896  1.00  0.00    +0.000 C 
ATOM     55  C39 UNL A   1      43.174  30.924  32.610  1.00  0.00    +0.000 C 
ATOM     56  C40 UNL A   1      43.930  31.016  31.404  1.00  0.00    +0.000 C 
ATOM     57  C41 UNL A   1      44.374  29.735  31.076  1.00  0.00    +0.000 C 
ATOM     58  N6  UNL A   1      44.185  29.011  32.226  1.00  0.00    +0.000 N 
ATOM     59  C42 UNL A   1      44.870  29.160  29.850  1.00  0.00    +0.000 C 
ATOM     71  C49 UNL A   1      44.804  27.832  29.540  1.00  0.00    +0.000 C 
ATOM     72  N7  UNL A   1      44.879  27.401  28.223  1.00  0.00    +0.000 N 
ATOM     73  C50 UNL A   1      44.190  26.291  28.202  1.00  0.00    +0.000 C 
ATOM     74  C51 UNL A   1      43.241  25.951  27.106  1.00  0.00    +0.000 C 
ATOM     86  C58 UNL A   1      42.225  26.848  27.188  1.00  0.00    +0.000 C 
ATOM     87  C59 UNL A   1      41.241  27.240  26.208  1.00  0.00    +0.000 C 
ATOM     88  C60 UNL A   1      40.400  28.125  26.776  1.00  0.00    +0.000 C 
ATOM     89  C61 UNL A   1      40.690  28.235  28.209  1.00  0.00    +0.000 C 
ATOM     90  N8  UNL A   1      41.883  27.564  28.361  1.00  0.00    +0.000 N 
ATOM     91  C62 UNL A   1      43.983  25.656  29.495  1.00  0.00    +0.000 C 
ATOM     92  C63 UNL A   1      44.294  26.685  30.289  1.00  0.00    +0.000 C 
ATOM     93  C64 UNL A   1      39.758  27.988  32.675  1.00  0.00    +0.000 C 
ATOM     94  C65 UNL A   1      39.258  27.791  31.452  1.00  0.00    +0.000 C 
ATOM    128  H26 UNL A   1      42.756  31.697  33.151  1.00  0.00    +0.000 H 
ENDROOT
BRANCH   38   37
ATOM     34  C24 UNL A   1      36.101  30.408  28.470  1.00  0.00    +0.000 C 
ATOM     35  C25 UNL A   1      36.996  30.342  27.397  1.00  0.00    +0.000 C 
ATOM     36  C26 UNL A   1      38.229  29.725  27.590  1.00  0.00    +0.000 C 
ATOM     37  C27 UNL A   1      38.561  29.254  28.867  1.00  0.00    +0.000 C 
ATOM    138  H36 UNL A   1      37.963  29.111  30.885  1.00  0.00    +0.000 H 
ATOM    139  H37 UNL A   1      35.667  29.701  30.408  1.00  0.00    +0.000 H 
ATOM    127  H25 UNL A   1      38.889  29.617  26.803  1.00  0.00    +0.000 H 
ATOM    126  H24 UNL A   1      36.748  30.743  26.479  1.00  0.00    +0.000 H 
ATOM     95  C66 UNL A   1      37.669  29.363  29.928  1.00  0.00    +0.000 C 
ATOM     96  C67 UNL A   1      36.399  29.808  29.689  1.00  0.00    +0.000 C 
BRANCH   34   32
ATOM     33  O4  UNL A   1      34.107  30.996  27.389  1.00  0.00    +0.000 O 
ATOM     32  C23 UNL A   1      34.832  31.144  28.365  1.00  0.00    +0.000 C 
BRANCH   32   31
ATOM    125  H23 UNL A   1      33.801  31.661  30.023  1.00  0.00    +0.000 H 
ATOM     31  N4  UNL A   1      34.479  31.995  29.392  1.00  0.00    +0.000 N 
BRANCH   31   30
ATOM    123  H21 UNL A   1      34.186  34.031  29.671  1.00  0.00    +0.000 H 
ATOM    124  H22 UNL A   1      35.517  33.328  30.585  1.00  0.00    +0.000 H 
ATOM     30  C22 UNL A   1      35.001  33.339  29.648  1.00  0.00    +0.000 C 
BRANCH   30   29
ATOM    121  H19 UNL A   1      35.853  33.131  27.717  1.00  0.00    +0.000 H 
ATOM    122  H20 UNL A   1      35.775  34.790  28.336  1.00  0.00    +0.000 H 
ATOM     29  C21 UNL A   1      35.982  33.767  28.568  1.00  0.00    +0.000 C 
BRANCH   29   28
ATOM     28  C20 UNL A   1      37.447  33.685  29.024  1.00  0.00    +0.000 C 
ATOM    119  H17 UNL A   1      37.917  32.896  28.475  1.00  0.00    +0.000 H 
ATOM    120  H18 UNL A   1      37.865  34.652  28.839  1.00  0.00    +0.000 H 
BRANCH   28   27
ATOM     27  C19 UNL A   1      37.663  33.412  30.522  1.00  0.00    +0.000 C 
ATOM    117  H15 UNL A   1      37.690  34.353  31.031  1.00  0.00    +0.000 H 
ATOM    118  H16 UNL A   1      36.853  32.786  30.833  1.00  0.00    +0.000 H 
BRANCH   27   26
ATOM     26  C18 UNL A   1      38.951  32.650  30.861  1.00  0.00    +0.000 C 
ATOM    115  H13 UNL A   1      39.140  31.936  30.086  1.00  0.00    +0.000 H 
ATOM    116  H14 UNL A   1      39.741  33.367  30.937  1.00  0.00    +0.000 H 
BRANCH   26   25
ATOM     25  C17 UNL A   1      38.864  31.912  32.199  1.00  0.00    +0.000 C 
ATOM    114  H12 UNL A   1      38.861  30.856  32.022  1.00  0.00    +0.000 H 
ATOM    113  H11 UNL A   1      37.963  32.195  32.703  1.00  0.00    +0.000 H 
BRANCH   25   24
ATOM    112  H10 UNL A   1      40.808  31.720  32.828  1.00  0.00    +0.000 H 
ATOM     24  N3  UNL A   1      40.004  32.255  33.022  1.00  0.00    +0.000 N 
BRANCH   24   22
ATOM     22  C16 UNL A   1      40.186  33.178  34.019  1.00  0.00    +0.000 C 
ATOM     23  O3  UNL A   1      40.843  34.183  33.747  1.00  0.00    +0.000 O 
BRANCH   22   21
ATOM     97  C68 UNL A   1      40.540  32.982  36.547  1.00  0.00    +0.000 C 
ATOM     98  C69 UNL A   1      39.995  32.990  37.832  1.00  0.00    +0.000 C 
ATOM    140  H38 UNL A   1      41.566  32.984  36.428  1.00  0.00    +0.000 H 
ATOM    141  H39 UNL A   1      40.604  33.111  38.656  1.00  0.00    +0.000 H 
ATOM    110  H8  UNL A   1      36.790  32.453  36.996  1.00  0.00    +0.000 H 
ATOM    111  H9  UNL A   1      37.724  32.696  34.770  1.00  0.00    +0.000 H 
ATOM     18  C12 UNL A   1      38.619  32.831  37.990  1.00  0.00    +0.000 C 
ATOM     19  C13 UNL A   1      37.794  32.659  36.875  1.00  0.00    +0.000 C 
ATOM     20  C14 UNL A   1      38.339  32.767  35.595  1.00  0.00    +0.000 C 
ATOM     21  C15 UNL A   1      39.716  32.972  35.417  1.00  0.00    +0.000 C 
BRANCH   18   17
ATOM     99  N9  UNL A   1      38.578  33.534  40.286  1.00  0.00    +0.000 N 
ATOM    100  N10 UNL A   1      37.810  33.372  41.348  1.00  0.00    +0.000 N 
ATOM    109  H7  UNL A   1      36.416  31.392  39.208  1.00  0.00    +0.000 H 
ATOM     15  C10 UNL A   1      36.816  32.478  41.043  1.00  0.00    +0.000 C 
ATOM     16  C11 UNL A   1      36.977  32.080  39.733  1.00  0.00    +0.000 C 
ATOM     17  N2  UNL A   1      38.056  32.808  39.280  1.00  0.00    +0.000 N 
BRANCH   15   14
ATOM    107  H5  UNL A   1      35.057  32.709  42.145  1.00  0.00    +0.000 H 
ATOM    108  H6  UNL A   1      35.576  31.023  41.815  1.00  0.00    +0.000 H 
ATOM     14  C9  UNL A   1      35.869  32.012  42.100  1.00  0.00    +0.000 C 
BRANCH   14   13
ATOM     13  O2  UNL A   1      36.421  31.891  43.423  1.00  0.00    +0.000 O 
BRANCH   13   12
ATOM    101  C70 UNL A   1      36.590  30.143  45.143  1.00  0.00    +0.000 C 
ATOM    102  C71 UNL A   1      35.923  29.398  46.117  1.00  0.00    +0.000 C 
ATOM      9  C5  UNL A   1      34.529  29.415  46.189  1.00  0.00    +0.000 C 
ATOM     10  C6  UNL A   1      33.808  30.130  45.230  1.00  0.00    +0.000 C 
ATOM    105  H3  UNL A   1      32.777  30.084  45.219  1.00  0.00    +0.000 H 
ATOM     11  C7  UNL A   1      34.483  30.908  44.283  1.00  0.00    +0.000 C 
ATOM    106  H4  UNL A   1      33.946  31.442  43.583  1.00  0.00    +0.000 H 
ATOM     12  C8  UNL A   1      35.879  30.969  44.277  1.00  0.00    +0.000 C 
ATOM    143  H41 UNL A   1      36.464  28.832  46.788  1.00  0.00    +0.000 H 
ATOM    142  H40 UNL A   1      37.618  30.080  45.065  1.00  0.00    +0.000 H 
BRANCH    9    8
ATOM    104  H2  UNL A   1      34.290  28.706  48.201  1.00  0.00    +0.000 H 
ATOM      8  C4  UNL A   1      33.849  28.698  47.269  1.00  0.00    +0.000 C 
BRANCH    8    7
ATOM      1  O1  UNL A   1      33.592  26.020  46.165  1.00  0.00    +0.000 O 
ATOM      2  C1  UNL A   1      32.642  26.656  46.563  1.00  0.00    +0.000 C 
ATOM      3  N1  UNL A   1      31.345  26.209  46.572  1.00  0.00    +0.000 N 
ATOM      4  C2  UNL A   1      30.382  27.039  47.056  1.00  0.00    +0.000 C 
ATOM      5  S1  UNL A   1      28.777  26.634  47.124  1.00  0.00    +0.000 S 
ATOM      6  S2  UNL A   1      31.101  28.547  47.568  1.00  0.00    +0.000 S 
ATOM      7  C3  UNL A   1      32.694  28.032  47.133  1.00  0.00    +0.000 C 
ATOM    103  H1  UNL A   1      31.119  25.312  46.238  1.00  0.00    +0.000 H 
ENDBRANCH    8    7
ENDBRANCH    9    8
ENDBRANCH   13   12
ENDBRANCH   14   13
ENDBRANCH   15   14
ENDBRANCH   18   17
ENDBRANCH   22   21
ENDBRANCH   24   22
ENDBRANCH   25   24
ENDBRANCH   26   25
ENDBRANCH   27   26
ENDBRANCH   28   27
ENDBRANCH   29   28
ENDBRANCH   30   29
ENDBRANCH   31   30
ENDBRANCH   32   31
ENDBRANCH   34   32
ENDBRANCH   38   37
BRANCH   42   43
ATOM     43  C32 UNL A   1      42.422  27.609  34.414  1.00  0.00    +0.000 C 
ATOM     44  C33 UNL A   1      43.003  26.407  33.960  1.00  0.00    +0.000 C 
ATOM     45  F1  UNL A   1      43.527  26.323  32.727  1.00  0.00    +0.000 F 
ATOM     46  C34 UNL A   1      42.966  25.235  34.720  1.00  0.00    +0.000 C 
ATOM     47  F2  UNL A   1      43.404  24.085  34.191  1.00  0.00    +0.000 F 
ATOM     48  C35 UNL A   1      42.411  25.239  35.987  1.00  0.00    +0.000 C 
ATOM     49  F3  UNL A   1      42.312  24.104  36.690  1.00  0.00    +0.000 F 
ATOM     50  C36 UNL A   1      41.914  26.417  36.501  1.00  0.00    +0.000 C 
ATOM     51  F4  UNL A   1      41.359  26.438  37.721  1.00  0.00    +0.000 F 
ATOM     52  C37 UNL A   1      41.900  27.573  35.724  1.00  0.00    +0.000 C 
ATOM     53  F5  UNL A   1      41.255  28.612  36.268  1.00  0.00    +0.000 F 
ENDBRANCH   42   43
BRANCH   59   60
ATOM     65  C46 UNL A   1      46.075  32.137  26.966  1.00  0.00    +0.000 C 
ATOM     66  F8  UNL A   1      46.461  33.109  26.126  1.00  0.00    +0.000 F 
ATOM     67  C47 UNL A   1      46.987  31.581  27.850  1.00  0.00    +0.000 C 
ATOM     68  F9  UNL A   1      48.248  32.031  27.882  1.00  0.00    +0.000 F 
ATOM     69  C48 UNL A   1      46.589  30.577  28.728  1.00  0.00    +0.000 C 
ATOM     70  F10 UNL A   1      47.492  30.080  29.588  1.00  0.00    +0.000 F 
ATOM     60  C43 UNL A   1      45.264  30.125  28.765  1.00  0.00    +0.000 C 
ATOM     61  C44 UNL A   1      44.352  30.730  27.883  1.00  0.00    +0.000 C 
ATOM     62  F6  UNL A   1      43.048  30.432  27.931  1.00  0.00    +0.000 F 
ATOM     63  C45 UNL A   1      44.760  31.707  26.975  1.00  0.00    +0.000 C 
ATOM     64  F7  UNL A   1      43.871  32.259  26.138  1.00  0.00    +0.000 F 
ENDBRANCH   59   60
BRANCH   74   75
ATOM     75  C52 UNL A   1      43.300  24.681  26.342  1.00  0.00    +0.000 C 
ATOM     76  C53 UNL A   1      44.198  24.520  25.273  1.00  0.00    +0.000 C 
ATOM     77  F11 UNL A   1      44.860  25.578  24.782  1.00  0.00    +0.000 F 
ATOM     78  C54 UNL A   1      44.486  23.259  24.737  1.00  0.00    +0.000 C 
ATOM     79  F12 UNL A   1      45.400  23.140  23.764  1.00  0.00    +0.000 F 
ATOM     80  C55 UNL A   1      43.879  22.125  25.248  1.00  0.00    +0.000 C 
ATOM     81  F13 UNL A   1      44.206  20.910  24.783  1.00  0.00    +0.000 F 
ATOM     82  C56 UNL A   1      42.964  22.251  26.275  1.00  0.00    +0.000 C 
ATOM     83  F14 UNL A   1      42.393  21.158  26.803  1.00  0.00    +0.000 F 
ATOM     84  C57 UNL A   1      42.681  23.506  26.815  1.00  0.00    +0.000 C 
ATOM     85  F15 UNL A   1      41.860  23.536  27.874  1.00  0.00    +0.000 F 
ENDBRANCH   74   75
TORSDOF 21
ENDMDL
MODEL 10
REMARK VINA RESULT:      -9.2     35.791     40.377
ROOT
ATOM    129  H27 UNL A   1      23.477  25.268   1.874  1.00  0.00    +0.000 H 
ATOM    130  H28 UNL A   1      19.865  27.034   1.429  1.00  0.00    +0.000 H 
ATOM    131  H29 UNL A   1      19.904  20.602  -3.652  1.00  0.00    +0.000 H 
ATOM    132  H30 UNL A   1      22.089  21.775  -4.225  1.00  0.00    +0.000 H 
ATOM    133  H31 UNL A   1      20.089  24.209  -1.526  1.00  0.00    +0.000 H 
ATOM    134  H32 UNL A   1      16.946  24.727  -1.305  1.00  0.00    +0.000 H 
ATOM    135  H33 UNL A   1      18.601  26.058   0.164  1.00  0.00    +0.000 H 
ATOM    136  H34 UNL A   1      21.318  29.046  -3.510  1.00  0.00    +0.000 H 
ATOM    137  H35 UNL A   1      21.210  26.887  -4.918  1.00  0.00    +0.000 H 
ATOM     38  C28 UNL A   1      22.096  24.573  -3.431  1.00  0.00    +0.000 C 
ATOM     39  C29 UNL A   1      21.853  25.956  -2.949  1.00  0.00    +0.000 C 
ATOM     40  N5  UNL A   1      22.090  26.420  -1.767  1.00  0.00    +0.000 N 
ATOM     41  C30 UNL A   1      21.647  27.738  -1.775  1.00  0.00    +0.000 C 
ATOM     42  C31 UNL A   1      21.240  28.337  -0.622  1.00  0.00    +0.000 C 
ATOM     54  C38 UNL A   1      21.692  27.595   0.531  1.00  0.00    +0.000 C 
ATOM     55  C39 UNL A   1      22.932  27.211   1.004  1.00  0.00    +0.000 C 
ATOM     56  C40 UNL A   1      22.742  25.887   1.499  1.00  0.00    +0.000 C 
ATOM     57  C41 UNL A   1      21.387  25.576   1.384  1.00  0.00    +0.000 C 
ATOM     58  N6  UNL A   1      20.782  26.788   1.171  1.00  0.00    +0.000 N 
ATOM     59  C42 UNL A   1      20.670  24.324   1.398  1.00  0.00    +0.000 C 
ATOM     71  C49 UNL A   1      19.457  24.124   0.804  1.00  0.00    +0.000 C 
ATOM     72  N7  UNL A   1      19.028  22.848   0.468  1.00  0.00    +0.000 N 
ATOM     73  C50 UNL A   1      18.245  23.027  -0.564  1.00  0.00    +0.000 C 
ATOM     74  C51 UNL A   1      18.274  22.144  -1.761  1.00  0.00    +0.000 C 
ATOM     86  C58 UNL A   1      19.479  22.341  -2.353  1.00  0.00    +0.000 C 
ATOM     87  C59 UNL A   1      20.203  21.525  -3.299  1.00  0.00    +0.000 C 
ATOM     88  C60 UNL A   1      21.334  22.171  -3.643  1.00  0.00    +0.000 C 
ATOM     89  C61 UNL A   1      21.331  23.519  -3.067  1.00  0.00    +0.000 C 
ATOM     90  N8  UNL A   1      20.272  23.503  -2.187  1.00  0.00    +0.000 N 
ATOM     91  C62 UNL A   1      17.731  24.378  -0.734  1.00  0.00    +0.000 C 
ATOM     92  C63 UNL A   1      18.575  25.030   0.071  1.00  0.00    +0.000 C 
ATOM     93  C64 UNL A   1      21.443  28.084  -3.157  1.00  0.00    +0.000 C 
ATOM     94  C65 UNL A   1      21.441  26.987  -3.917  1.00  0.00    +0.000 C 
ATOM    128  H26 UNL A   1      23.805  27.762   1.002  1.00  0.00    +0.000 H 
ENDROOT
BRANCH   38   37
ATOM     34  C24 UNL A   1      24.806  24.530  -6.638  1.00  0.00    +0.000 C 
ATOM     35  C25 UNL A   1      25.307  24.285  -5.356  1.00  0.00    +0.000 C 
ATOM     36  C26 UNL A   1      24.416  24.220  -4.289  1.00  0.00    +0.000 C 
ATOM     37  C27 UNL A   1      23.057  24.470  -4.523  1.00  0.00    +0.000 C 
ATOM    138  H36 UNL A   1      21.605  25.033  -5.946  1.00  0.00    +0.000 H 
ATOM    139  H37 UNL A   1      23.069  24.630  -7.828  1.00  0.00    +0.000 H 
ATOM    127  H25 UNL A   1      24.751  23.991  -3.340  1.00  0.00    +0.000 H 
ATOM    126  H24 UNL A   1      26.320  24.156  -5.203  1.00  0.00    +0.000 H 
ATOM     95  C66 UNL A   1      22.586  24.746  -5.801  1.00  0.00    +0.000 C 
ATOM     96  C67 UNL A   1      23.438  24.635  -6.865  1.00  0.00    +0.000 C 
BRANCH   34   32
ATOM     33  O4  UNL A   1      25.687  23.939  -8.728  1.00  0.00    +0.000 O 
ATOM     32  C23 UNL A   1      25.703  24.724  -7.788  1.00  0.00    +0.000 C 
BRANCH   32   31
ATOM    125  H23 UNL A   1      26.243  26.605  -7.289  1.00  0.00    +0.000 H 
ATOM     31  N4  UNL A   1      26.553  25.812  -7.782  1.00  0.00    +0.000 N 
BRANCH   31   30
ATOM    123  H21 UNL A   1      27.796  25.520  -9.418  1.00  0.00    +0.000 H 
ATOM    124  H22 UNL A   1      28.148  26.947  -8.448  1.00  0.00    +0.000 H 
ATOM     30  C22 UNL A   1      27.863  25.916  -8.426  1.00  0.00    +0.000 C 
BRANCH   30   29
ATOM    121  H19 UNL A   1      29.790  25.762  -7.556  1.00  0.00    +0.000 H 
ATOM    122  H20 UNL A   1      28.504  24.887  -6.706  1.00  0.00    +0.000 H 
ATOM     29  C21 UNL A   1      28.922  25.144  -7.657  1.00  0.00    +0.000 C 
BRANCH   29   28
ATOM     28  C20 UNL A   1      29.330  23.835  -8.350  1.00  0.00    +0.000 C 
ATOM    119  H17 UNL A   1      28.679  23.690  -9.187  1.00  0.00    +0.000 H 
ATOM    120  H18 UNL A   1      30.359  23.954  -8.616  1.00  0.00    +0.000 H 
BRANCH   28   27
ATOM     27  C19 UNL A   1      29.264  22.571  -7.476  1.00  0.00    +0.000 C 
ATOM    117  H15 UNL A   1      30.252  22.168  -7.400  1.00  0.00    +0.000 H 
ATOM    118  H16 UNL A   1      28.858  22.878  -6.534  1.00  0.00    +0.000 H 
BRANCH   27   26
ATOM     26  C18 UNL A   1      28.339  21.467  -8.005  1.00  0.00    +0.000 C 
ATOM    115  H13 UNL A   1      27.766  21.081  -7.187  1.00  0.00    +0.000 H 
ATOM    116  H14 UNL A   1      27.712  21.902  -8.755  1.00  0.00    +0.000 H 
BRANCH   26   25
ATOM     25  C17 UNL A   1      29.109  20.314  -8.654  1.00  0.00    +0.000 C 
ATOM    114  H12 UNL A   1      29.014  20.380  -9.718  1.00  0.00    +0.000 H 
ATOM    113  H11 UNL A   1      28.707  19.383  -8.313  1.00  0.00    +0.000 H 
BRANCH   25   24
ATOM    112  H10 UNL A   1      30.663  20.750  -7.386  1.00  0.00    +0.000 H 
ATOM     24  N3  UNL A   1      30.508  20.396  -8.292  1.00  0.00    +0.000 N 
BRANCH   24   22
ATOM     22  C16 UNL A   1      31.661  20.077  -8.961  1.00  0.00    +0.000 C 
ATOM     23  O3  UNL A   1      32.052  18.912  -8.893  1.00  0.00    +0.000 O 
BRANCH   22   21
ATOM     97  C68 UNL A   1      33.226  20.838 -10.839  1.00  0.00    +0.000 C 
ATOM     98  C69 UNL A   1      33.811  21.884 -11.554  1.00  0.00    +0.000 C 
ATOM    140  H38 UNL A   1      33.333  19.868 -11.176  1.00  0.00    +0.000 H 
ATOM    141  H39 UNL A   1      34.250  21.708 -12.471  1.00  0.00    +0.000 H 
ATOM    110  H8  UNL A   1      33.277  24.340  -9.331  1.00  0.00    +0.000 H 
ATOM    111  H9  UNL A   1      32.048  22.562  -8.230  1.00  0.00    +0.000 H 
ATOM     18  C12 UNL A   1      33.797  23.170 -11.015  1.00  0.00    +0.000 C 
ATOM     19  C13 UNL A   1      33.209  23.408  -9.770  1.00  0.00    +0.000 C 
ATOM     20  C14 UNL A   1      32.530  22.375  -9.123  1.00  0.00    +0.000 C 
ATOM     21  C15 UNL A   1      32.496  21.085  -9.672  1.00  0.00    +0.000 C 
BRANCH   18   17
ATOM     99  N9  UNL A   1      33.766  24.885 -12.696  1.00  0.00    +0.000 N 
ATOM    100  N10 UNL A   1      34.547  25.866 -13.111  1.00  0.00    +0.000 N 
ATOM    109  H7  UNL A   1      36.418  24.408 -10.915  1.00  0.00    +0.000 H 
ATOM     15  C10 UNL A   1      35.735  25.804 -12.429  1.00  0.00    +0.000 C 
ATOM     16  C11 UNL A   1      35.677  24.744 -11.550  1.00  0.00    +0.000 C 
ATOM     17  N2  UNL A   1      34.408  24.231 -11.709  1.00  0.00    +0.000 N 
BRANCH   15   14
ATOM    107  H5  UNL A   1      36.472  27.722 -12.805  1.00  0.00    +0.000 H 
ATOM    108  H6  UNL A   1      37.612  26.565 -12.041  1.00  0.00    +0.000 H 
ATOM     14  C9  UNL A   1      36.858  26.724 -12.784  1.00  0.00    +0.000 C 
BRANCH   14   13
ATOM     13  O2  UNL A   1      37.495  26.470 -14.049  1.00  0.00    +0.000 O 
BRANCH   13   12
ATOM    101  C70 UNL A   1      39.815  26.892 -14.743  1.00  0.00    +0.000 C 
ATOM    102  C71 UNL A   1      40.709  27.783 -15.341  1.00  0.00    +0.000 C 
ATOM      9  C5  UNL A   1      40.336  29.106 -15.579  1.00  0.00    +0.000 C 
ATOM     10  C6  UNL A   1      39.083  29.548 -15.148  1.00  0.00    +0.000 C 
ATOM    105  H3  UNL A   1      38.826  30.543 -15.241  1.00  0.00    +0.000 H 
ATOM     11  C7  UNL A   1      38.176  28.639 -14.589  1.00  0.00    +0.000 C 
ATOM    106  H4  UNL A   1      37.248  28.968 -14.281  1.00  0.00    +0.000 H 
ATOM     12  C8  UNL A   1      38.516  27.292 -14.444  1.00  0.00    +0.000 C 
ATOM    143  H41 UNL A   1      41.652  27.460 -15.608  1.00  0.00    +0.000 H 
ATOM    142  H40 UNL A   1      40.121  25.931 -14.523  1.00  0.00    +0.000 H 
BRANCH    9    8
ATOM    104  H2  UNL A   1      42.265  29.881 -16.119  1.00  0.00    +0.000 H 
ATOM      8  C4  UNL A   1      41.254  30.004 -16.283  1.00  0.00    +0.000 C 
BRANCH    8    7
ATOM      1  O1  UNL A   1      41.710  32.845 -15.869  1.00  0.00    +0.000 O 
ATOM      2  C1  UNL A   1      41.150  32.410 -16.850  1.00  0.00    +0.000 C 
ATOM      3  N1  UNL A   1      40.683  33.172 -17.890  1.00  0.00    +0.000 N 
ATOM      4  C2  UNL A   1      40.077  32.540 -18.930  1.00  0.00    +0.000 C 
ATOM      5  S1  UNL A   1      39.464  33.331 -20.249  1.00  0.00    +0.000 S 
ATOM      6  S2  UNL A   1      40.055  30.816 -18.643  1.00  0.00    +0.000 S 
ATOM      7  C3  UNL A   1      40.874  30.973 -17.128  1.00  0.00    +0.000 C 
ATOM    103  H1  UNL A   1      40.785  34.151 -17.884  1.00  0.00    +0.000 H 
ENDBRANCH    8    7
ENDBRANCH    9    8
ENDBRANCH   13   12
ENDBRANCH   14   13
ENDBRANCH   15   14
ENDBRANCH   18   17
ENDBRANCH   22   21
ENDBRANCH   24   22
ENDBRANCH   25   24
ENDBRANCH   26   25
ENDBRANCH   27   26
ENDBRANCH   28   27
ENDBRANCH   29   28
ENDBRANCH   30   29
ENDBRANCH   31   30
ENDBRANCH   32   31
ENDBRANCH   34   32
ENDBRANCH   38   37
BRANCH   42   43
ATOM     43  C32 UNL A   1      20.121  29.346  -0.525  1.00  0.00    +0.000 C 
ATOM     44  C33 UNL A   1      20.208  30.364   0.447  1.00  0.00    +0.000 C 
ATOM     45  F1  UNL A   1      21.370  30.615   1.071  1.00  0.00    +0.000 F 
ATOM     46  C34 UNL A   1      19.086  31.077   0.874  1.00  0.00    +0.000 C 
ATOM     47  F2  UNL A   1      19.193  31.936   1.898  1.00  0.00    +0.000 F 
ATOM     48  C35 UNL A   1      17.850  30.849   0.299  1.00  0.00    +0.000 C 
ATOM     49  F3  UNL A   1      16.760  31.480   0.753  1.00  0.00    +0.000 F 
ATOM     50  C36 UNL A   1      17.740  29.924  -0.717  1.00  0.00    +0.000 C 
ATOM     51  F4  UNL A   1      16.548  29.678  -1.278  1.00  0.00    +0.000 F 
ATOM     52  C37 UNL A   1      18.847  29.173  -1.108  1.00  0.00    +0.000 C 
ATOM     53  F5  UNL A   1      18.588  28.202  -1.991  1.00  0.00    +0.000 F 
ENDBRANCH   42   43
BRANCH   59   60
ATOM     65  C46 UNL A   1      22.661  20.696   2.627  1.00  0.00    +0.000 C 
ATOM     66  F8  UNL A   1      23.234  19.532   2.966  1.00  0.00    +0.000 F 
ATOM     67  C47 UNL A   1      22.778  21.178   1.333  1.00  0.00    +0.000 C 
ATOM     68  F9  UNL A   1      23.443  20.468   0.412  1.00  0.00    +0.000 F 
ATOM     69  C48 UNL A   1      22.179  22.383   0.977  1.00  0.00    +0.000 C 
ATOM     70  F10 UNL A   1      22.291  22.806  -0.292  1.00  0.00    +0.000 F 
ATOM     60  C43 UNL A   1      21.424  23.122   1.897  1.00  0.00    +0.000 C 
ATOM     61  C44 UNL A   1      21.292  22.593   3.193  1.00  0.00    +0.000 C 
ATOM     62  F6  UNL A   1      20.500  23.181   4.097  1.00  0.00    +0.000 F 
ATOM     63  C45 UNL A   1      21.926  21.407   3.561  1.00  0.00    +0.000 C 
ATOM     64  F7  UNL A   1      21.791  20.931   4.807  1.00  0.00    +0.000 F 
ENDBRANCH   59   60
BRANCH   74   75
ATOM     75  C52 UNL A   1      17.070  21.471  -2.307  1.00  0.00    +0.000 C 
ATOM     76  C53 UNL A   1      16.436  20.435  -1.601  1.00  0.00    +0.000 C 
ATOM     77  F11 UNL A   1      17.029  19.885  -0.531  1.00  0.00    +0.000 F 
ATOM     78  C54 UNL A   1      15.149  19.995  -1.935  1.00  0.00    +0.000 C 
ATOM     79  F12 UNL A   1      14.552  19.052  -1.195  1.00  0.00    +0.000 F 
ATOM     80  C55 UNL A   1      14.464  20.572  -2.992  1.00  0.00    +0.000 C 
ATOM     81  F13 UNL A   1      13.206  20.199  -3.270  1.00  0.00    +0.000 F 
ATOM     82  C56 UNL A   1      15.072  21.568  -3.730  1.00  0.00    +0.000 C 
ATOM     83  F14 UNL A   1      14.409  22.159  -4.734  1.00  0.00    +0.000 F 
ATOM     84  C57 UNL A   1      16.352  22.013  -3.393  1.00  0.00    +0.000 C 
ATOM     85  F15 UNL A   1      16.833  23.049  -4.092  1.00  0.00    +0.000 F 
ENDBRANCH   74   75
TORSDOF 21
ENDMDL
