MODEL 1
REMARK VINA RESULT:     -12.4      0.000      0.000
ROOT
ATOM     19  C15 UNL A   1      25.842  36.321  45.349  1.00  0.00    +0.000 C 
ATOM     20  C16 UNL A   1      25.752  37.504  46.270  1.00  0.00    +0.000 C 
ATOM     21  N3  UNL A   1      26.688  38.350  46.623  1.00  0.00    +0.000 N 
ATOM     22  C17 UNL A   1      26.074  39.262  47.471  1.00  0.00    +0.000 C 
ATOM     23  C18 UNL A   1      26.633  40.290  48.153  1.00  0.00    +0.000 C 
ATOM     35  C25 UNL A   1      28.028  40.641  48.099  1.00  0.00    +0.000 C 
ATOM     36  C26 UNL A   1      28.695  41.646  48.777  1.00  0.00    +0.000 C 
ATOM     37  C27 UNL A   1      30.039  41.622  48.388  1.00  0.00    +0.000 C 
ATOM     38  C28 UNL A   1      30.217  40.578  47.495  1.00  0.00    +0.000 C 
ATOM     39  N4  UNL A   1      28.973  39.990  47.319  1.00  0.00    +0.000 N 
ATOM     40  C29 UNL A   1      31.429  40.143  46.852  1.00  0.00    +0.000 C 
ATOM     52  C36 UNL A   1      31.519  39.110  45.979  1.00  0.00    +0.000 C 
ATOM     53  N5  UNL A   1      30.518  38.270  45.513  1.00  0.00    +0.000 N 
ATOM     54  C37 UNL A   1      31.096  37.454  44.667  1.00  0.00    +0.000 C 
ATOM     55  C38 UNL A   1      30.497  36.323  43.879  1.00  0.00    +0.000 C 
ATOM     67  C45 UNL A   1      29.194  36.026  44.040  1.00  0.00    +0.000 C 
ATOM     68  C46 UNL A   1      28.486  34.935  43.378  1.00  0.00    +0.000 C 
ATOM     69  C47 UNL A   1      27.202  34.944  43.774  1.00  0.00    +0.000 C 
ATOM     70  C48 UNL A   1      27.004  36.030  44.734  1.00  0.00    +0.000 C 
ATOM     71  N6  UNL A   1      28.238  36.625  44.823  1.00  0.00    +0.000 N 
ATOM     72  C49 UNL A   1      32.534  37.696  44.489  1.00  0.00    +0.000 C 
ATOM     73  C50 UNL A   1      32.749  38.686  45.343  1.00  0.00    +0.000 C 
ATOM     74  C51 UNL A   1      24.673  38.901  47.537  1.00  0.00    +0.000 C 
ATOM     75  C52 UNL A   1      24.434  37.790  46.857  1.00  0.00    +0.000 C 
ATOM    119  H21 UNL A   1      28.274  42.301  49.455  1.00  0.00    +0.000 H 
ATOM    120  H22 UNL A   1      30.772  42.272  48.710  1.00  0.00    +0.000 H 
ATOM    121  H23 UNL A   1      28.789  39.224  46.728  1.00  0.00    +0.000 H 
ATOM    122  H24 UNL A   1      28.904  34.266  42.714  1.00  0.00    +0.000 H 
ATOM    123  H25 UNL A   1      26.472  34.289  43.451  1.00  0.00    +0.000 H 
ATOM    124  H26 UNL A   1      28.419  37.407  45.393  1.00  0.00    +0.000 H 
ATOM    125  H27 UNL A   1      33.203  37.219  43.863  1.00  0.00    +0.000 H 
ATOM    126  H28 UNL A   1      33.674  39.103  45.530  1.00  0.00    +0.000 H 
ATOM    127  H29 UNL A   1      23.956  39.440  48.047  1.00  0.00    +0.000 H 
ATOM    128  H30 UNL A   1      23.551  37.262  46.764  1.00  0.00    +0.000 H 
ENDROOT
BRANCH   19   18
ATOM    129  H31 UNL A   1      25.148  33.980  46.487  1.00  0.00    +0.000 H 
ATOM    130  H32 UNL A   1      23.237  32.571  45.992  1.00  0.00    +0.000 H 
ATOM     76  C53 UNL A   1      24.458  34.278  45.780  1.00  0.00    +0.000 C 
ATOM     77  C54 UNL A   1      23.340  33.485  45.524  1.00  0.00    +0.000 C 
ATOM     15  C11 UNL A   1      22.358  33.930  44.632  1.00  0.00    +0.000 C 
ATOM     16  C12 UNL A   1      22.547  35.116  43.918  1.00  0.00    +0.000 C 
ATOM     17  C13 UNL A   1      23.696  35.879  44.131  1.00  0.00    +0.000 C 
ATOM     18  C14 UNL A   1      24.649  35.479  45.082  1.00  0.00    +0.000 C 
ATOM    117  H19 UNL A   1      21.839  35.428  43.235  1.00  0.00    +0.000 H 
ATOM    118  H20 UNL A   1      23.846  36.742  43.586  1.00  0.00    +0.000 H 
BRANCH   15   13
ATOM     13  C10 UNL A   1      21.124  33.147  44.386  1.00  0.00    +0.000 C 
ATOM     14  O2  UNL A   1      21.212  31.974  44.038  1.00  0.00    +0.000 O 
BRANCH   13   12
ATOM    116  H18 UNL A   1      19.904  34.691  44.723  1.00  0.00    +0.000 H 
ATOM     12  N2  UNL A   1      19.894  33.725  44.533  1.00  0.00    +0.000 N 
BRANCH   12   11
ATOM    114  H16 UNL A   1      18.568  32.404  43.658  1.00  0.00    +0.000 H 
ATOM     11  C9  UNL A   1      18.572  33.122  44.452  1.00  0.00    +0.000 C 
ATOM    115  H17 UNL A   1      18.361  32.659  45.394  1.00  0.00    +0.000 H 
BRANCH   11   10
ATOM    113  H15 UNL A   1      17.990  35.058  43.906  1.00  0.00    +0.000 H 
ATOM     10  C8  UNL A   1      17.483  34.157  44.183  1.00  0.00    +0.000 C 
ATOM    112  H14 UNL A   1      16.894  34.257  45.071  1.00  0.00    +0.000 H 
BRANCH   10    9
ATOM      9  C7  UNL A   1      16.542  33.820  43.024  1.00  0.00    +0.000 C 
ATOM    110  H12 UNL A   1      15.536  33.906  43.377  1.00  0.00    +0.000 H 
ATOM    111  H13 UNL A   1      16.778  34.507  42.238  1.00  0.00    +0.000 H 
BRANCH    9    8
ATOM    108  H10 UNL A   1      16.669  32.499  41.369  1.00  0.00    +0.000 H 
ATOM    109  H11 UNL A   1      17.666  32.064  42.789  1.00  0.00    +0.000 H 
ATOM      8  C6  UNL A   1      16.720  32.419  42.435  1.00  0.00    +0.000 C 
BRANCH    8    7
ATOM    106  H8  UNL A   1      14.829  31.915  43.268  1.00  0.00    +0.000 H 
ATOM    107  H9  UNL A   1      15.449  30.792  42.028  1.00  0.00    +0.000 H 
ATOM      7  C5  UNL A   1      15.679  31.388  42.885  1.00  0.00    +0.000 C 
BRANCH    7    6
ATOM    105  H7  UNL A   1      15.326  30.058  44.516  1.00  0.00    +0.000 H 
ATOM      6  C4  UNL A   1      16.171  30.422  43.970  1.00  0.00    +0.000 C 
ATOM    104  H6  UNL A   1      16.841  30.941  44.624  1.00  0.00    +0.000 H 
BRANCH    6    5
ATOM      5  N1  UNL A   1      16.863  29.295  43.377  1.00  0.00    +0.000 N 
ATOM    103  H5  UNL A   1      17.626  29.506  42.791  1.00  0.00    +0.000 H 
BRANCH    5    3
ATOM      3  C3  UNL A   1      16.568  27.969  43.547  1.00  0.00    +0.000 C 
ATOM      4  O1  UNL A   1      17.480  27.238  43.936  1.00  0.00    +0.000 O 
BRANCH    3    2
ATOM      2  C2  UNL A   1      15.148  27.471  43.221  1.00  0.00    +0.000 C 
ATOM    102  H4  UNL A   1      14.496  28.318  43.183  1.00  0.00    +0.000 H 
BRANCH    2    1
ATOM      1  C1  UNL A   1      14.703  26.515  44.341  1.00  0.00    +0.000 C 
ATOM     99  H1  UNL A   1      14.322  27.084  45.164  1.00  0.00    +0.000 H 
ATOM    100  H2  UNL A   1      15.541  25.934  44.667  1.00  0.00    +0.000 H 
ATOM    101  H3  UNL A   1      13.939  25.864  43.973  1.00  0.00    +0.000 H 
ENDBRANCH    2    1
BRANCH    2   78
ATOM    131  H33 UNL A   1      15.205  28.635  40.738  1.00  0.00    +0.000 H 
ATOM    132  H34 UNL A   1      15.219  27.601  38.545  1.00  0.00    +0.000 H 
ATOM    133  H35 UNL A   1      15.458  25.843  36.430  1.00  0.00    +0.000 H 
ATOM    134  H36 UNL A   1      14.663  21.782  35.736  1.00  0.00    +0.000 H 
ATOM    135  H37 UNL A   1      14.181  21.440  38.098  1.00  0.00    +0.000 H 
ATOM    138  H40 UNL A   1      14.546  24.899  42.529  1.00  0.00    +0.000 H 
ATOM     78  C55 UNL A   1      15.009  26.842  41.825  1.00  0.00    +0.000 C 
ATOM     79  C56 UNL A   1      15.115  27.609  40.660  1.00  0.00    +0.000 C 
ATOM     80  C57 UNL A   1      15.100  27.019  39.388  1.00  0.00    +0.000 C 
ATOM     81  C58 UNL A   1      14.925  25.626  39.266  1.00  0.00    +0.000 C 
ATOM     82  C59 UNL A   1      14.951  24.725  38.168  1.00  0.00    +0.000 C 
ATOM     83  C60 UNL A   1      15.206  24.909  36.792  1.00  0.00    +0.000 C 
ATOM     84  C61 UNL A   1      15.115  23.824  35.926  1.00  0.00    +0.000 C 
ATOM     85 Cl1  UNL A   1      15.442  24.047  34.250  1.00  0.00    +0.000 Cl
ATOM     86  C62 UNL A   1      14.746  22.572  36.396  1.00  0.00    +0.000 C 
ATOM     87  C63 UNL A   1      14.482  22.366  37.756  1.00  0.00    +0.000 C 
ATOM     88  C64 UNL A   1      14.636  23.446  38.651  1.00  0.00    +0.000 C 
ATOM     89  N7  UNL A   1      14.460  23.550  40.034  1.00  0.00    +0.000 N 
ATOM     97  C69 UNL A   1      14.679  24.881  40.412  1.00  0.00    +0.000 C 
ATOM     98  C70 UNL A   1      14.723  25.473  41.690  1.00  0.00    +0.000 C 
BRANCH   89   90
ATOM     90  C65 UNL A   1      14.105  22.526  40.951  1.00  0.00    +0.000 C 
ATOM     91  O3  UNL A   1      14.735  22.520  42.018  1.00  0.00    +0.000 O 
BRANCH   90   92
ATOM    136  H38 UNL A   1      11.752  22.303  39.248  1.00  0.00    +0.000 H 
ATOM    137  H39 UNL A   1      12.038  18.557  40.920  1.00  0.00    +0.000 H 
ATOM     92  C66 UNL A   1      13.119  21.484  40.699  1.00  0.00    +0.000 C 
ATOM     93  C67 UNL A   1      12.054  21.498  39.819  1.00  0.00    +0.000 C 
ATOM     94  O4  UNL A   1      11.468  20.265  39.834  1.00  0.00    +0.000 O 
ATOM     95  C68 UNL A   1      12.225  19.549  40.706  1.00  0.00    +0.000 C 
ATOM     96  N8  UNL A   1      13.210  20.215  41.254  1.00  0.00    +0.000 N 
ENDBRANCH   90   92
ENDBRANCH   89   90
ENDBRANCH    2   78
ENDBRANCH    3    2
ENDBRANCH    5    3
ENDBRANCH    6    5
ENDBRANCH    7    6
ENDBRANCH    8    7
ENDBRANCH    9    8
ENDBRANCH   10    9
ENDBRANCH   11   10
ENDBRANCH   12   11
ENDBRANCH   13   12
ENDBRANCH   15   13
ENDBRANCH   19   18
BRANCH   23   24
ATOM     33  C24 UNL A   1      25.105  42.260  48.553  1.00  0.00    +0.000 C 
ATOM     34  F5  UNL A   1      25.266  42.633  47.275  1.00  0.00    +0.000 F 
ATOM     24  C19 UNL A   1      25.734  41.104  49.038  1.00  0.00    +0.000 C 
ATOM     25  C20 UNL A   1      25.535  40.763  50.384  1.00  0.00    +0.000 C 
ATOM     26  F1  UNL A   1      26.106  39.660  50.893  1.00  0.00    +0.000 F 
ATOM     27  C21 UNL A   1      24.724  41.538  51.207  1.00  0.00    +0.000 C 
ATOM     28  F2  UNL A   1      24.519  41.173  52.481  1.00  0.00    +0.000 F 
ATOM     29  C22 UNL A   1      24.121  42.683  50.711  1.00  0.00    +0.000 C 
ATOM     30  F3  UNL A   1      23.347  43.435  51.508  1.00  0.00    +0.000 F 
ATOM     31  C23 UNL A   1      24.315  43.048  49.386  1.00  0.00    +0.000 C 
ATOM     32  F4  UNL A   1      23.741  44.160  48.908  1.00  0.00    +0.000 F 
ENDBRANCH   23   24
BRANCH   40   41
ATOM     41  C30 UNL A   1      32.699  40.872  47.178  1.00  0.00    +0.000 C 
ATOM     42  C31 UNL A   1      33.572  40.411  48.174  1.00  0.00    +0.000 C 
ATOM     43  F6  UNL A   1      33.266  39.316  48.886  1.00  0.00    +0.000 F 
ATOM     44  C32 UNL A   1      34.741  41.103  48.475  1.00  0.00    +0.000 C 
ATOM     45  F7  UNL A   1      35.535  40.674  49.467  1.00  0.00    +0.000 F 
ATOM     46  C33 UNL A   1      35.076  42.245  47.765  1.00  0.00    +0.000 C 
ATOM     47  F8  UNL A   1      36.202  42.912  48.057  1.00  0.00    +0.000 F 
ATOM     48  C34 UNL A   1      34.239  42.705  46.758  1.00  0.00    +0.000 C 
ATOM     49  F9  UNL A   1      34.567  43.804  46.066  1.00  0.00    +0.000 F 
ATOM     50  C35 UNL A   1      33.056  42.030  46.473  1.00  0.00    +0.000 C 
ATOM     51  F10 UNL A   1      32.257  42.507  45.506  1.00  0.00    +0.000 F 
ENDBRANCH   40   41
BRANCH   55   56
ATOM     65  C44 UNL A   1      31.464  35.870  41.602  1.00  0.00    +0.000 C 
ATOM     66  F15 UNL A   1      30.822  36.944  41.122  1.00  0.00    +0.000 F 
ATOM     56  C39 UNL A   1      31.330  35.516  42.952  1.00  0.00    +0.000 C 
ATOM     57  C40 UNL A   1      32.018  34.380  43.401  1.00  0.00    +0.000 C 
ATOM     58  F11 UNL A   1      31.936  34.014  44.689  1.00  0.00    +0.000 F 
ATOM     59  C41 UNL A   1      32.827  33.641  42.541  1.00  0.00    +0.000 C 
ATOM     60  F12 UNL A   1      33.511  32.588  43.007  1.00  0.00    +0.000 F 
ATOM     61  C42 UNL A   1      32.941  34.007  41.208  1.00  0.00    +0.000 C 
ATOM     62  F13 UNL A   1      33.718  33.297  40.381  1.00  0.00    +0.000 F 
ATOM     63  C43 UNL A   1      32.252  35.115  40.736  1.00  0.00    +0.000 C 
ATOM     64  F14 UNL A   1      32.348  35.464  39.445  1.00  0.00    +0.000 F 
ENDBRANCH   55   56
TORSDOF 19
ENDMDL
MODEL 2
REMARK VINA RESULT:     -12.3     40.171     46.192
ROOT
ATOM     19  C15 UNL A   1      52.864  20.501  11.304  1.00  0.00    +0.000 C 
ATOM     20  C16 UNL A   1      52.703  21.100  12.673  1.00  0.00    +0.000 C 
ATOM     21  N3  UNL A   1      53.568  21.163  13.654  1.00  0.00    +0.000 N 
ATOM     22  C17 UNL A   1      52.923  21.834  14.685  1.00  0.00    +0.000 C 
ATOM     23  C18 UNL A   1      53.372  22.090  15.937  1.00  0.00    +0.000 C 
ATOM     35  C25 UNL A   1      54.669  21.707  16.432  1.00  0.00    +0.000 C 
ATOM     36  C26 UNL A   1      55.203  21.895  17.695  1.00  0.00    +0.000 C 
ATOM     37  C27 UNL A   1      56.503  21.377  17.702  1.00  0.00    +0.000 C 
ATOM     38  C28 UNL A   1      56.765  20.833  16.456  1.00  0.00    +0.000 C 
ATOM     39  N4  UNL A   1      55.635  21.051  15.683  1.00  0.00    +0.000 N 
ATOM     40  C29 UNL A   1      57.953  20.161  16.001  1.00  0.00    +0.000 C 
ATOM     52  C36 UNL A   1      58.136  19.661  14.755  1.00  0.00    +0.000 C 
ATOM     53  N5  UNL A   1      57.270  19.680  13.670  1.00  0.00    +0.000 N 
ATOM     54  C37 UNL A   1      57.912  19.100  12.686  1.00  0.00    +0.000 C 
ATOM     55  C38 UNL A   1      57.448  18.824  11.283  1.00  0.00    +0.000 C 
ATOM     67  C45 UNL A   1      56.196  19.163  10.925  1.00  0.00    +0.000 C 
ATOM     68  C46 UNL A   1      55.594  18.922   9.618  1.00  0.00    +0.000 C 
ATOM     69  C47 UNL A   1      54.337  19.395   9.621  1.00  0.00    +0.000 C 
ATOM     70  C48 UNL A   1      54.040  19.955  10.940  1.00  0.00    +0.000 C 
ATOM     71  N6  UNL A   1      55.204  19.783  11.645  1.00  0.00    +0.000 N 
ATOM     72  C49 UNL A   1      59.270  18.659  13.033  1.00  0.00    +0.000 C 
ATOM     73  C50 UNL A   1      59.340  18.986  14.315  1.00  0.00    +0.000 C 
ATOM     74  C51 UNL A   1      51.614  22.207  14.192  1.00  0.00    +0.000 C 
ATOM     75  C52 UNL A   1      51.408  21.730  12.974  1.00  0.00    +0.000 C 
ATOM    119  H21 UNL A   1      54.725  22.340  18.493  1.00  0.00    +0.000 H 
ATOM    120  H22 UNL A   1      57.157  21.398  18.500  1.00  0.00    +0.000 H 
ATOM    121  H23 UNL A   1      55.533  20.780  14.742  1.00  0.00    +0.000 H 
ATOM    122  H24 UNL A   1      56.059  18.462   8.820  1.00  0.00    +0.000 H 
ATOM    123  H25 UNL A   1      53.686  19.369   8.820  1.00  0.00    +0.000 H 
ATOM    124  H26 UNL A   1      55.317  20.076  12.578  1.00  0.00    +0.000 H 
ATOM    125  H27 UNL A   1      59.983  18.212  12.435  1.00  0.00    +0.000 H 
ATOM    126  H28 UNL A   1      60.149  18.786  14.924  1.00  0.00    +0.000 H 
ATOM    127  H29 UNL A   1      50.932  22.773  14.721  1.00  0.00    +0.000 H 
ATOM    128  H30 UNL A   1      50.559  21.785  12.389  1.00  0.00    +0.000 H 
ENDROOT
BRANCH   19   18
ATOM    129  H31 UNL A   1      52.064  22.536   9.731  1.00  0.00    +0.000 H 
ATOM    130  H32 UNL A   1      50.188  22.606   8.196  1.00  0.00    +0.000 H 
ATOM     76  C53 UNL A   1      51.478  21.698   9.596  1.00  0.00    +0.000 C 
ATOM     77  C54 UNL A   1      50.422  21.729   8.684  1.00  0.00    +0.000 C 
ATOM     15  C11 UNL A   1      49.682  20.568   8.434  1.00  0.00    +0.000 C 
ATOM     16  C12 UNL A   1      49.929  19.407   9.173  1.00  0.00    +0.000 C 
ATOM     17  C13 UNL A   1      50.946  19.396  10.127  1.00  0.00    +0.000 C 
ATOM     18  C14 UNL A   1      51.745  20.533  10.329  1.00  0.00    +0.000 C 
ATOM    117  H19 UNL A   1      49.361  18.561   9.012  1.00  0.00    +0.000 H 
ATOM    118  H20 UNL A   1      51.112  18.546  10.689  1.00  0.00    +0.000 H 
BRANCH   15   13
ATOM     13  C10 UNL A   1      48.598  20.544   7.424  1.00  0.00    +0.000 C 
ATOM     14  O2  UNL A   1      48.169  21.602   6.972  1.00  0.00    +0.000 O 
BRANCH   13   12
ATOM    116  H18 UNL A   1      47.455  18.921   7.637  1.00  0.00    +0.000 H 
ATOM     12  N2  UNL A   1      48.068  19.358   7.001  1.00  0.00    +0.000 N 
BRANCH   12   11
ATOM    114  H16 UNL A   1      48.524  19.350   4.986  1.00  0.00    +0.000 H 
ATOM     11  C9  UNL A   1      48.277  18.643   5.750  1.00  0.00    +0.000 C 
ATOM    115  H17 UNL A   1      49.070  17.940   5.900  1.00  0.00    +0.000 H 
BRANCH   11   10
ATOM    113  H15 UNL A   1      46.198  18.393   5.722  1.00  0.00    +0.000 H 
ATOM     10  C8  UNL A   1      47.036  17.866   5.318  1.00  0.00    +0.000 C 
ATOM    112  H14 UNL A   1      47.126  16.865   5.688  1.00  0.00    +0.000 H 
BRANCH   10    9
ATOM      9  C7  UNL A   1      46.812  17.795   3.806  1.00  0.00    +0.000 C 
ATOM    110  H12 UNL A   1      47.667  18.220   3.323  1.00  0.00    +0.000 H 
ATOM    111  H13 UNL A   1      46.662  16.761   3.574  1.00  0.00    +0.000 H 
BRANCH    9    8
ATOM    108  H10 UNL A   1      45.597  18.540   2.234  1.00  0.00    +0.000 H 
ATOM    109  H11 UNL A   1      44.727  18.001   3.701  1.00  0.00    +0.000 H 
ATOM      8  C6  UNL A   1      45.568  18.531   3.303  1.00  0.00    +0.000 C 
BRANCH    8    7
ATOM    106  H8  UNL A   1      44.939  19.969   4.739  1.00  0.00    +0.000 H 
ATOM    107  H9  UNL A   1      46.420  20.381   3.834  1.00  0.00    +0.000 H 
ATOM      7  C5  UNL A   1      45.430  19.979   3.788  1.00  0.00    +0.000 C 
BRANCH    7    6
ATOM    105  H7  UNL A   1      45.202  21.776   2.661  1.00  0.00    +0.000 H 
ATOM      6  C4  UNL A   1      44.633  20.890   2.846  1.00  0.00    +0.000 C 
ATOM    104  H6  UNL A   1      43.698  21.136   3.305  1.00  0.00    +0.000 H 
BRANCH    6    5
ATOM      5  N1  UNL A   1      44.381  20.226   1.582  1.00  0.00    +0.000 N 
ATOM    103  H5  UNL A   1      45.162  20.076   1.001  1.00  0.00    +0.000 H 
BRANCH    5    3
ATOM      3  C3  UNL A   1      43.173  19.788   1.112  1.00  0.00    +0.000 C 
ATOM      4  O1  UNL A   1      43.160  19.281  -0.011  1.00  0.00    +0.000 O 
BRANCH    3    2
ATOM      2  C2  UNL A   1      41.918  19.973   1.984  1.00  0.00    +0.000 C 
ATOM    102  H4  UNL A   1      42.131  20.715   2.725  1.00  0.00    +0.000 H 
BRANCH    2    1
ATOM      1  C1  UNL A   1      41.598  18.630   2.661  1.00  0.00    +0.000 C 
ATOM     99  H1  UNL A   1      41.177  17.960   1.941  1.00  0.00    +0.000 H 
ATOM    100  H2  UNL A   1      40.896  18.789   3.454  1.00  0.00    +0.000 H 
ATOM    101  H3  UNL A   1      42.496  18.208   3.060  1.00  0.00    +0.000 H 
ENDBRANCH    2    1
BRANCH    2   78
ATOM    131  H33 UNL A   1      41.689  20.818  -0.616  1.00  0.00    +0.000 H 
ATOM    132  H34 UNL A   1      39.721  21.506  -1.852  1.00  0.00    +0.000 H 
ATOM    133  H35 UNL A   1      37.136  21.924  -2.728  1.00  0.00    +0.000 H 
ATOM    134  H36 UNL A   1      33.412  22.727  -0.969  1.00  0.00    +0.000 H 
ATOM    135  H37 UNL A   1      34.346  22.360   1.250  1.00  0.00    +0.000 H 
ATOM    138  H40 UNL A   1      39.448  20.660   2.927  1.00  0.00    +0.000 H 
ATOM     78  C55 UNL A   1      40.709  20.552   1.228  1.00  0.00    +0.000 C 
ATOM     79  C56 UNL A   1      40.781  20.884  -0.129  1.00  0.00    +0.000 C 
ATOM     80  C57 UNL A   1      39.651  21.304  -0.843  1.00  0.00    +0.000 C 
ATOM     81  C58 UNL A   1      38.417  21.449  -0.177  1.00  0.00    +0.000 C 
ATOM     82  C59 UNL A   1      37.099  21.759  -0.607  1.00  0.00    +0.000 C 
ATOM     83  C60 UNL A   1      36.546  21.996  -1.883  1.00  0.00    +0.000 C 
ATOM     84  C61 UNL A   1      35.200  22.329  -1.997  1.00  0.00    +0.000 C 
ATOM     85 Cl1  UNL A   1      34.522  22.603  -3.556  1.00  0.00    +0.000 Cl
ATOM     86  C62 UNL A   1      34.404  22.460  -0.867  1.00  0.00    +0.000 C 
ATOM     87  C63 UNL A   1      34.933  22.235   0.411  1.00  0.00    +0.000 C 
ATOM     88  C64 UNL A   1      36.280  21.833   0.530  1.00  0.00    +0.000 C 
ATOM     89  N7  UNL A   1      37.074  21.531   1.641  1.00  0.00    +0.000 N 
ATOM     97  C69 UNL A   1      38.374  21.256   1.197  1.00  0.00    +0.000 C 
ATOM     98  C70 UNL A   1      39.505  20.805   1.906  1.00  0.00    +0.000 C 
BRANCH   89   90
ATOM     90  C65 UNL A   1      36.693  21.506   3.008  1.00  0.00    +0.000 C 
ATOM     91  O3  UNL A   1      36.808  22.580   3.615  1.00  0.00    +0.000 O 
BRANCH   90   92
ATOM    136  H38 UNL A   1      37.290  18.659   2.845  1.00  0.00    +0.000 H 
ATOM    137  H39 UNL A   1      34.762  18.887   6.081  1.00  0.00    +0.000 H 
ATOM     92  C66 UNL A   1      36.243  20.323   3.729  1.00  0.00    +0.000 C 
ATOM     93  C67 UNL A   1      36.645  19.011   3.570  1.00  0.00    +0.000 C 
ATOM     94  O4  UNL A   1      36.044  18.257   4.537  1.00  0.00    +0.000 O 
ATOM     95  C68 UNL A   1      35.323  19.156   5.257  1.00  0.00    +0.000 C 
ATOM     96  N8  UNL A   1      35.395  20.391   4.825  1.00  0.00    +0.000 N 
ENDBRANCH   90   92
ENDBRANCH   89   90
ENDBRANCH    2   78
ENDBRANCH    3    2
ENDBRANCH    5    3
ENDBRANCH    6    5
ENDBRANCH    7    6
ENDBRANCH    8    7
ENDBRANCH    9    8
ENDBRANCH   10    9
ENDBRANCH   11   10
ENDBRANCH   12   11
ENDBRANCH   13   12
ENDBRANCH   15   13
ENDBRANCH   19   18
BRANCH   23   24
ATOM     33  C24 UNL A   1      52.350  24.209  16.855  1.00  0.00    +0.000 C 
ATOM     34  F5  UNL A   1      53.061  24.924  15.972  1.00  0.00    +0.000 F 
ATOM     24  C19 UNL A   1      52.443  22.809  16.871  1.00  0.00    +0.000 C 
ATOM     25  C20 UNL A   1      51.681  22.110  17.819  1.00  0.00    +0.000 C 
ATOM     26  F1  UNL A   1      51.727  20.770  17.868  1.00  0.00    +0.000 F 
ATOM     27  C21 UNL A   1      50.844  22.785  18.704  1.00  0.00    +0.000 C 
ATOM     28  F2  UNL A   1      50.096  22.093  19.576  1.00  0.00    +0.000 F 
ATOM     29  C22 UNL A   1      50.774  24.169  18.678  1.00  0.00    +0.000 C 
ATOM     30  F3  UNL A   1      49.975  24.818  19.537  1.00  0.00    +0.000 F 
ATOM     31  C23 UNL A   1      51.531  24.881  17.758  1.00  0.00    +0.000 C 
ATOM     32  F4  UNL A   1      51.472  26.220  17.740  1.00  0.00    +0.000 F 
ENDBRANCH   23   24
BRANCH   40   41
ATOM     41  C30 UNL A   1      59.078  19.981  16.978  1.00  0.00    +0.000 C 
ATOM     42  C31 UNL A   1      59.970  21.024  17.266  1.00  0.00    +0.000 C 
ATOM     43  F6  UNL A   1      59.852  22.206  16.641  1.00  0.00    +0.000 F 
ATOM     44  C32 UNL A   1      61.017  20.842  18.164  1.00  0.00    +0.000 C 
ATOM     45  F7  UNL A   1      61.889  21.835  18.386  1.00  0.00    +0.000 F 
ATOM     46  C33 UNL A   1      61.171  19.627  18.815  1.00  0.00    +0.000 C 
ATOM     47  F8  UNL A   1      62.181  19.451  19.678  1.00  0.00    +0.000 F 
ATOM     48  C34 UNL A   1      60.286  18.589  18.562  1.00  0.00    +0.000 C 
ATOM     49  F9  UNL A   1      60.429  17.418  19.198  1.00  0.00    +0.000 F 
ATOM     50  C35 UNL A   1      59.253  18.761  17.645  1.00  0.00    +0.000 C 
ATOM     51  F10 UNL A   1      58.423  17.734  17.408  1.00  0.00    +0.000 F 
ENDBRANCH   40   41
BRANCH   55   56
ATOM     65  C44 UNL A   1      58.355  16.766  10.157  1.00  0.00    +0.000 C 
ATOM     66  F15 UNL A   1      57.560  16.005  10.921  1.00  0.00    +0.000 F 
ATOM     56  C39 UNL A   1      58.344  18.160  10.302  1.00  0.00    +0.000 C 
ATOM     57  C40 UNL A   1      59.200  18.910   9.484  1.00  0.00    +0.000 C 
ATOM     58  F11 UNL A   1      59.210  20.249   9.574  1.00  0.00    +0.000 F 
ATOM     59  C41 UNL A   1      60.017  18.292   8.539  1.00  0.00    +0.000 C 
ATOM     60  F12 UNL A   1      60.790  19.035   7.737  1.00  0.00    +0.000 F 
ATOM     61  C42 UNL A   1      60.015  16.910   8.416  1.00  0.00    +0.000 C 
ATOM     62  F13 UNL A   1      60.800  16.316   7.509  1.00  0.00    +0.000 F 
ATOM     63  C43 UNL A   1      59.192  16.147   9.231  1.00  0.00    +0.000 C 
ATOM     64  F14 UNL A   1      59.197  14.811   9.124  1.00  0.00    +0.000 F 
ENDBRANCH   55   56
TORSDOF 19
ENDMDL
MODEL 3
REMARK VINA RESULT:     -12.3     41.623     45.397
ROOT
ATOM     19  C15 UNL A   1      13.887  53.843   4.946  1.00  0.00    +0.000 C 
ATOM     20  C16 UNL A   1      14.822  54.300   3.862  1.00  0.00    +0.000 C 
ATOM     21  N3  UNL A   1      15.330  53.617   2.866  1.00  0.00    +0.000 N 
ATOM     22  C17 UNL A   1      16.110  54.515   2.150  1.00  0.00    +0.000 C 
ATOM     23  C18 UNL A   1      16.896  54.278   1.072  1.00  0.00    +0.000 C 
ATOM     35  C25 UNL A   1      17.050  52.993   0.443  1.00  0.00    +0.000 C 
ATOM     36  C26 UNL A   1      17.847  52.647  -0.635  1.00  0.00    +0.000 C 
ATOM     37  C27 UNL A   1      17.651  51.288  -0.907  1.00  0.00    +0.000 C 
ATOM     38  C28 UNL A   1      16.761  50.779   0.024  1.00  0.00    +0.000 C 
ATOM     39  N4  UNL A   1      16.392  51.838   0.840  1.00  0.00    +0.000 N 
ATOM     40  C29 UNL A   1      16.283  49.429   0.165  1.00  0.00    +0.000 C 
ATOM     52  C36 UNL A   1      15.400  49.010   1.104  1.00  0.00    +0.000 C 
ATOM     53  N5  UNL A   1      14.771  49.743   2.100  1.00  0.00    +0.000 N 
ATOM     54  C37 UNL A   1      13.990  48.900   2.730  1.00  0.00    +0.000 C 
ATOM     55  C38 UNL A   1      13.092  49.140   3.911  1.00  0.00    +0.000 C 
ATOM     67  C45 UNL A   1      13.057  50.361   4.475  1.00  0.00    +0.000 C 
ATOM     68  C46 UNL A   1      12.269  50.732   5.646  1.00  0.00    +0.000 C 
ATOM     69  C47 UNL A   1      12.479  52.030   5.922  1.00  0.00    +0.000 C 
ATOM     70  C48 UNL A   1      13.434  52.575   4.957  1.00  0.00    +0.000 C 
ATOM     71  N6  UNL A   1      13.715  51.516   4.130  1.00  0.00    +0.000 N 
ATOM     72  C49 UNL A   1      14.026  47.534   2.192  1.00  0.00    +0.000 C 
ATOM     73  C50 UNL A   1      14.931  47.646   1.231  1.00  0.00    +0.000 C 
ATOM     74  C51 UNL A   1      15.967  55.805   2.791  1.00  0.00    +0.000 C 
ATOM     75  C52 UNL A   1      15.226  55.715   3.885  1.00  0.00    +0.000 C 
ATOM    119  H21 UNL A   1      18.477  53.281  -1.149  1.00  0.00    +0.000 H 
ATOM    120  H22 UNL A   1      18.093  50.756  -1.672  1.00  0.00    +0.000 H 
ATOM    121  H23 UNL A   1      15.758  51.778   1.591  1.00  0.00    +0.000 H 
ATOM    122  H24 UNL A   1      11.650  50.099   6.176  1.00  0.00    +0.000 H 
ATOM    123  H25 UNL A   1      12.036  52.557   6.691  1.00  0.00    +0.000 H 
ATOM    124  H26 UNL A   1      14.329  51.580   3.364  1.00  0.00    +0.000 H 
ATOM    125  H27 UNL A   1      13.486  46.703   2.485  1.00  0.00    +0.000 H 
ATOM    126  H28 UNL A   1      15.260  46.861   0.647  1.00  0.00    +0.000 H 
ATOM    127  H29 UNL A   1      16.386  56.680   2.440  1.00  0.00    +0.000 H 
ATOM    128  H30 UNL A   1      14.993  56.447   4.575  1.00  0.00    +0.000 H 
ENDROOT
BRANCH   19   18
ATOM    129  H31 UNL A   1      11.717  55.439   4.936  1.00  0.00    +0.000 H 
ATOM    130  H32 UNL A   1      11.014  57.036   6.620  1.00  0.00    +0.000 H 
ATOM     76  C53 UNL A   1      12.262  55.543   5.806  1.00  0.00    +0.000 C 
ATOM     77  C54 UNL A   1      11.834  56.435   6.790  1.00  0.00    +0.000 C 
ATOM     15  C11 UNL A   1      12.520  56.513   8.007  1.00  0.00    +0.000 C 
ATOM     16  C12 UNL A   1      13.694  55.778   8.198  1.00  0.00    +0.000 C 
ATOM     17  C13 UNL A   1      14.153  54.932   7.189  1.00  0.00    +0.000 C 
ATOM     18  C14 UNL A   1      13.428  54.788   5.995  1.00  0.00    +0.000 C 
ATOM    117  H19 UNL A   1      14.218  55.860   9.082  1.00  0.00    +0.000 H 
ATOM    118  H20 UNL A   1      15.033  54.407   7.321  1.00  0.00    +0.000 H 
BRANCH   15   13
ATOM     13  C10 UNL A   1      12.056  57.398   9.101  1.00  0.00    +0.000 C 
ATOM     14  O2  UNL A   1      12.271  58.605   9.035  1.00  0.00    +0.000 O 
BRANCH   13   12
ATOM    116  H18 UNL A   1      11.289  57.499  10.941  1.00  0.00    +0.000 H 
ATOM     12  N2  UNL A   1      11.402  56.880  10.184  1.00  0.00    +0.000 N 
BRANCH   12   11
ATOM    114  H16 UNL A   1       9.787  55.626  10.478  1.00  0.00    +0.000 H 
ATOM     11  C9  UNL A   1      10.850  55.548  10.383  1.00  0.00    +0.000 C 
ATOM    115  H17 UNL A   1      11.120  54.949   9.538  1.00  0.00    +0.000 H 
BRANCH   11   10
ATOM    113  H15 UNL A   1      10.899  53.937  11.720  1.00  0.00    +0.000 H 
ATOM     10  C8  UNL A   1      11.408  54.875  11.634  1.00  0.00    +0.000 C 
ATOM    112  H14 UNL A   1      11.238  55.527  12.465  1.00  0.00    +0.000 H 
BRANCH   10    9
ATOM      9  C7  UNL A   1      12.902  54.550  11.582  1.00  0.00    +0.000 C 
ATOM    110  H12 UNL A   1      13.372  55.252  10.926  1.00  0.00    +0.000 H 
ATOM    111  H13 UNL A   1      13.256  54.607  12.591  1.00  0.00    +0.000 H 
BRANCH    9    8
ATOM    108  H10 UNL A   1      12.741  52.439  11.725  1.00  0.00    +0.000 H 
ATOM    109  H11 UNL A   1      12.916  53.095  10.070  1.00  0.00    +0.000 H 
ATOM      8  C6  UNL A   1      13.239  53.141  11.089  1.00  0.00    +0.000 C 
BRANCH    8    7
ATOM    106  H8  UNL A   1      14.901  52.054  10.329  1.00  0.00    +0.000 H 
ATOM    107  H9  UNL A   1      15.255  53.710  10.889  1.00  0.00    +0.000 H 
ATOM      7  C5  UNL A   1      14.733  52.797  11.081  1.00  0.00    +0.000 C 
BRANCH    7    6
ATOM    105  H7  UNL A   1      14.473  52.265  13.130  1.00  0.00    +0.000 H 
ATOM      6  C4  UNL A   1      15.268  52.259  12.414  1.00  0.00    +0.000 C 
ATOM    104  H6  UNL A   1      16.072  52.882  12.746  1.00  0.00    +0.000 H 
BRANCH    6    5
ATOM      5  N1  UNL A   1      15.750  50.901  12.264  1.00  0.00    +0.000 N 
ATOM    103  H5  UNL A   1      15.278  50.207  12.780  1.00  0.00    +0.000 H 
BRANCH    5    3
ATOM      3  C3  UNL A   1      16.792  50.482  11.480  1.00  0.00    +0.000 C 
ATOM      4  O1  UNL A   1      17.881  51.027  11.660  1.00  0.00    +0.000 O 
BRANCH    3    2
ATOM      2  C2  UNL A   1      16.541  49.393  10.421  1.00  0.00    +0.000 C 
ATOM    102  H4  UNL A   1      16.764  48.443  10.857  1.00  0.00    +0.000 H 
BRANCH    2    1
ATOM      1  C1  UNL A   1      17.475  49.657   9.228  1.00  0.00    +0.000 C 
ATOM     99  H1  UNL A   1      17.043  50.403   8.595  1.00  0.00    +0.000 H 
ATOM    100  H2  UNL A   1      17.608  48.751   8.673  1.00  0.00    +0.000 H 
ATOM    101  H3  UNL A   1      18.424  49.998   9.586  1.00  0.00    +0.000 H 
ENDBRANCH    2    1
BRANCH    2   78
ATOM    131  H33 UNL A   1      15.014  50.992   8.797  1.00  0.00    +0.000 H 
ATOM    132  H34 UNL A   1      12.768  50.643   7.951  1.00  0.00    +0.000 H 
ATOM    133  H35 UNL A   1      10.361  49.550   7.158  1.00  0.00    +0.000 H 
ATOM    134  H36 UNL A   1       7.754  46.574   8.555  1.00  0.00    +0.000 H 
ATOM    135  H37 UNL A   1       9.376  45.902  10.243  1.00  0.00    +0.000 H 
ATOM    138  H40 UNL A   1      14.645  47.615  11.258  1.00  0.00    +0.000 H 
ATOM     78  C55 UNL A   1      15.069  49.262   9.995  1.00  0.00    +0.000 C 
ATOM     79  C56 UNL A   1      14.476  50.167   9.109  1.00  0.00    +0.000 C 
ATOM     80  C57 UNL A   1      13.170  49.983   8.635  1.00  0.00    +0.000 C 
ATOM     81  C58 UNL A   1      12.408  48.890   9.093  1.00  0.00    +0.000 C 
ATOM     82  C59 UNL A   1      11.126  48.376   8.758  1.00  0.00    +0.000 C 
ATOM     83  C60 UNL A   1      10.166  48.766   7.801  1.00  0.00    +0.000 C 
ATOM     84  C61 UNL A   1       8.953  48.088   7.729  1.00  0.00    +0.000 C 
ATOM     85 Cl1  UNL A   1       7.788  48.554   6.549  1.00  0.00    +0.000 Cl
ATOM     86  C62 UNL A   1       8.667  47.053   8.609  1.00  0.00    +0.000 C 
ATOM     87  C63 UNL A   1       9.603  46.652   9.572  1.00  0.00    +0.000 C 
ATOM     88  C64 UNL A   1      10.860  47.292   9.608  1.00  0.00    +0.000 C 
ATOM     89  N7  UNL A   1      11.980  47.113  10.426  1.00  0.00    +0.000 N 
ATOM     97  C69 UNL A   1      12.941  48.070  10.079  1.00  0.00    +0.000 C 
ATOM     98  C70 UNL A   1      14.265  48.242  10.531  1.00  0.00    +0.000 C 
BRANCH   89   90
ATOM     90  C65 UNL A   1      12.165  46.158  11.460  1.00  0.00    +0.000 C 
ATOM     91  O3  UNL A   1      12.431  45.008  11.084  1.00  0.00    +0.000 O 
BRANCH   90   92
ATOM    136  H38 UNL A   1      10.667  48.104  13.026  1.00  0.00    +0.000 H 
ATOM    137  H39 UNL A   1      12.365  45.712  15.908  1.00  0.00    +0.000 H 
ATOM     92  C66 UNL A   1      12.011  46.426  12.883  1.00  0.00    +0.000 C 
ATOM     93  C67 UNL A   1      11.223  47.377  13.502  1.00  0.00    +0.000 C 
ATOM     94  O4  UNL A   1      11.305  47.190  14.852  1.00  0.00    +0.000 O 
ATOM     95  C68 UNL A   1      12.121  46.113  14.988  1.00  0.00    +0.000 C 
ATOM     96  N8  UNL A   1      12.576  45.621  13.863  1.00  0.00    +0.000 N 
ENDBRANCH   90   92
ENDBRANCH   89   90
ENDBRANCH    2   78
ENDBRANCH    3    2
ENDBRANCH    5    3
ENDBRANCH    6    5
ENDBRANCH    7    6
ENDBRANCH    8    7
ENDBRANCH    9    8
ENDBRANCH   10    9
ENDBRANCH   11   10
ENDBRANCH   12   11
ENDBRANCH   13   12
ENDBRANCH   15   13
ENDBRANCH   19   18
BRANCH   23   24
ATOM     33  C24 UNL A   1      17.162  56.186  -0.560  1.00  0.00    +0.000 C 
ATOM     34  F5  UNL A   1      15.956  55.903  -1.074  1.00  0.00    +0.000 F 
ATOM     24  C19 UNL A   1      17.669  55.436   0.512  1.00  0.00    +0.000 C 
ATOM     25  C20 UNL A   1      18.938  55.772   1.007  1.00  0.00    +0.000 C 
ATOM     26  F1  UNL A   1      19.461  55.092   2.039  1.00  0.00    +0.000 F 
ATOM     27  C21 UNL A   1      19.663  56.829   0.464  1.00  0.00    +0.000 C 
ATOM     28  F2  UNL A   1      20.857  57.155   0.978  1.00  0.00    +0.000 F 
ATOM     29  C22 UNL A   1      19.149  57.550  -0.603  1.00  0.00    +0.000 C 
ATOM     30  F3  UNL A   1      19.852  58.561  -1.132  1.00  0.00    +0.000 F 
ATOM     31  C23 UNL A   1      17.902  57.226  -1.118  1.00  0.00    +0.000 C 
ATOM     32  F4  UNL A   1      17.408  57.916  -2.156  1.00  0.00    +0.000 F 
ENDBRANCH   23   24
BRANCH   40   41
ATOM     41  C30 UNL A   1      16.807  48.394  -0.786  1.00  0.00    +0.000 C 
ATOM     42  C31 UNL A   1      16.072  47.999  -1.914  1.00  0.00    +0.000 C 
ATOM     43  F6  UNL A   1      14.859  48.521  -2.147  1.00  0.00    +0.000 F 
ATOM     44  C32 UNL A   1      16.563  47.028  -2.782  1.00  0.00    +0.000 C 
ATOM     45  F7  UNL A   1      15.823  46.627  -3.824  1.00  0.00    +0.000 F 
ATOM     46  C33 UNL A   1      17.809  46.461  -2.558  1.00  0.00    +0.000 C 
ATOM     47  F8  UNL A   1      18.280  45.525  -3.394  1.00  0.00    +0.000 F 
ATOM     48  C34 UNL A   1      18.562  46.854  -1.462  1.00  0.00    +0.000 C 
ATOM     49  F9  UNL A   1      19.770  46.313  -1.251  1.00  0.00    +0.000 F 
ATOM     50  C35 UNL A   1      18.062  47.806  -0.577  1.00  0.00    +0.000 C 
ATOM     51  F10 UNL A   1      18.806  48.155   0.483  1.00  0.00    +0.000 F 
ENDBRANCH   40   41
BRANCH   55   56
ATOM     65  C44 UNL A   1      11.021  47.711   3.923  1.00  0.00    +0.000 C 
ATOM     66  F15 UNL A   1      10.546  48.402   2.877  1.00  0.00    +0.000 F 
ATOM     56  C39 UNL A   1      12.267  48.041   4.475  1.00  0.00    +0.000 C 
ATOM     57  C40 UNL A   1      12.715  47.292   5.572  1.00  0.00    +0.000 C 
ATOM     58  F11 UNL A   1      13.910  47.558   6.121  1.00  0.00    +0.000 F 
ATOM     59  C41 UNL A   1      11.959  46.239   6.082  1.00  0.00    +0.000 C 
ATOM     60  F12 UNL A   1      12.431  45.509   7.101  1.00  0.00    +0.000 F 
ATOM     61  C42 UNL A   1      10.726  45.934   5.523  1.00  0.00    +0.000 C 
ATOM     62  F13 UNL A   1       9.999  44.922   6.013  1.00  0.00    +0.000 F 
ATOM     63  C43 UNL A   1      10.253  46.675   4.451  1.00  0.00    +0.000 C 
ATOM     64  F14 UNL A   1       9.057  46.392   3.916  1.00  0.00    +0.000 F 
ENDBRANCH   55   56
TORSDOF 19
ENDMDL
MODEL 4
REMARK VINA RESULT:     -12.2     42.682     47.057
ROOT
ATOM     19  C15 UNL A   1      21.557  24.079   1.780  1.00  0.00    +0.000 C 
ATOM     20  C16 UNL A   1      20.149  23.592   1.584  1.00  0.00    +0.000 C 
ATOM     21  N3  UNL A   1      19.642  22.409   1.831  1.00  0.00    +0.000 N 
ATOM     22  C17 UNL A   1      18.298  22.495   1.494  1.00  0.00    +0.000 C 
ATOM     23  C18 UNL A   1      17.360  21.517   1.505  1.00  0.00    +0.000 C 
ATOM     35  C25 UNL A   1      17.607  20.157   1.906  1.00  0.00    +0.000 C 
ATOM     36  C26 UNL A   1      16.728  19.087   1.923  1.00  0.00    +0.000 C 
ATOM     37  C27 UNL A   1      17.410  17.968   2.413  1.00  0.00    +0.000 C 
ATOM     38  C28 UNL A   1      18.722  18.331   2.666  1.00  0.00    +0.000 C 
ATOM     39  N4  UNL A   1      18.827  19.679   2.361  1.00  0.00    +0.000 N 
ATOM     40  C29 UNL A   1      19.804  17.512   3.147  1.00  0.00    +0.000 C 
ATOM     52  C36 UNL A   1      21.066  17.947   3.379  1.00  0.00    +0.000 C 
ATOM     53  N5  UNL A   1      21.593  19.221   3.223  1.00  0.00    +0.000 N 
ATOM     54  C37 UNL A   1      22.844  19.142   3.603  1.00  0.00    +0.000 C 
ATOM     55  C38 UNL A   1      23.898  20.214   3.624  1.00  0.00    +0.000 C 
ATOM     67  C45 UNL A   1      23.596  21.445   3.171  1.00  0.00    +0.000 C 
ATOM     68  C46 UNL A   1      24.522  22.570   3.092  1.00  0.00    +0.000 C 
ATOM     69  C47 UNL A   1      23.873  23.636   2.597  1.00  0.00    +0.000 C 
ATOM     70  C48 UNL A   1      22.489  23.261   2.304  1.00  0.00    +0.000 C 
ATOM     71  N6  UNL A   1      22.412  21.945   2.687  1.00  0.00    +0.000 N 
ATOM     72  C49 UNL A   1      23.250  17.806   4.060  1.00  0.00    +0.000 C 
ATOM     73  C50 UNL A   1      22.142  17.106   3.862  1.00  0.00    +0.000 C 
ATOM     74  C51 UNL A   1      18.054  23.859   1.077  1.00  0.00    +0.000 C 
ATOM     75  C52 UNL A   1      19.176  24.563   1.062  1.00  0.00    +0.000 C 
ATOM    119  H21 UNL A   1      15.741  19.111   1.624  1.00  0.00    +0.000 H 
ATOM    120  H22 UNL A   1      17.004  17.031   2.561  1.00  0.00    +0.000 H 
ATOM    121  H23 UNL A   1      19.646  20.217   2.452  1.00  0.00    +0.000 H 
ATOM    122  H24 UNL A   1      25.514  22.549   3.372  1.00  0.00    +0.000 H 
ATOM    123  H25 UNL A   1      24.285  24.571   2.447  1.00  0.00    +0.000 H 
ATOM    124  H26 UNL A   1      21.587  21.412   2.620  1.00  0.00    +0.000 H 
ATOM    125  H27 UNL A   1      24.159  17.494   4.436  1.00  0.00    +0.000 H 
ATOM    126  H28 UNL A   1      22.057  16.092   4.031  1.00  0.00    +0.000 H 
ATOM    127  H29 UNL A   1      17.126  24.234   0.825  1.00  0.00    +0.000 H 
ATOM    128  H30 UNL A   1      19.328  25.539   0.761  1.00  0.00    +0.000 H 
ENDROOT
BRANCH   19   18
ATOM    129  H31 UNL A   1      21.345  26.303   3.285  1.00  0.00    +0.000 H 
ATOM    130  H32 UNL A   1      21.883  28.589   2.680  1.00  0.00    +0.000 H 
ATOM     76  C53 UNL A   1      21.740  26.510   2.355  1.00  0.00    +0.000 C 
ATOM     77  C54 UNL A   1      22.084  27.820   2.022  1.00  0.00    +0.000 C 
ATOM     15  C11 UNL A   1      22.702  28.091   0.796  1.00  0.00    +0.000 C 
ATOM     16  C12 UNL A   1      22.878  27.067  -0.139  1.00  0.00    +0.000 C 
ATOM     17  C13 UNL A   1      22.478  25.767   0.171  1.00  0.00    +0.000 C 
ATOM     18  C14 UNL A   1      21.928  25.473   1.430  1.00  0.00    +0.000 C 
ATOM    117  H19 UNL A   1      23.303  27.271  -1.057  1.00  0.00    +0.000 H 
ATOM    118  H20 UNL A   1      22.586  25.017  -0.529  1.00  0.00    +0.000 H 
BRANCH   15   13
ATOM     13  C10 UNL A   1      23.144  29.458   0.437  1.00  0.00    +0.000 C 
ATOM     14  O2  UNL A   1      22.508  30.426   0.846  1.00  0.00    +0.000 O 
BRANCH   13   12
ATOM    116  H18 UNL A   1      25.103  29.408   0.061  1.00  0.00    +0.000 H 
ATOM     12  N2  UNL A   1      24.243  29.649  -0.352  1.00  0.00    +0.000 N 
BRANCH   12   11
ATOM    114  H16 UNL A   1      23.632  30.961  -1.827  1.00  0.00    +0.000 H 
ATOM     11  C9  UNL A   1      24.329  30.156  -1.714  1.00  0.00    +0.000 C 
ATOM    115  H17 UNL A   1      25.333  30.486  -1.881  1.00  0.00    +0.000 H 
BRANCH   11   10
ATOM    113  H15 UNL A   1      24.298  28.149  -2.311  1.00  0.00    +0.000 H 
ATOM     10  C8  UNL A   1      24.010  29.081  -2.750  1.00  0.00    +0.000 C 
ATOM    112  H14 UNL A   1      24.549  29.313  -3.645  1.00  0.00    +0.000 H 
BRANCH   10    9
ATOM      9  C7  UNL A   1      22.528  28.948  -3.108  1.00  0.00    +0.000 C 
ATOM    110  H12 UNL A   1      21.965  28.949  -2.198  1.00  0.00    +0.000 H 
ATOM    111  H13 UNL A   1      22.300  29.774  -3.751  1.00  0.00    +0.000 H 
BRANCH    9    8
ATOM    108  H10 UNL A   1      21.802  26.957  -3.195  1.00  0.00    +0.000 H 
ATOM    109  H11 UNL A   1      21.434  27.982  -4.615  1.00  0.00    +0.000 H 
ATOM      8  C6  UNL A   1      22.164  27.685  -3.891  1.00  0.00    +0.000 C 
BRANCH    8    7
ATOM    106  H8  UNL A   1      23.359  27.522  -5.642  1.00  0.00    +0.000 H 
ATOM    107  H9  UNL A   1      24.204  27.212  -4.102  1.00  0.00    +0.000 H 
ATOM      7  C5  UNL A   1      23.318  27.055  -4.680  1.00  0.00    +0.000 C 
BRANCH    7    6
ATOM    105  H7  UNL A   1      24.091  25.181  -5.343  1.00  0.00    +0.000 H 
ATOM      6  C4  UNL A   1      23.193  25.541  -4.887  1.00  0.00    +0.000 C 
ATOM    104  H6  UNL A   1      22.350  25.341  -5.515  1.00  0.00    +0.000 H 
BRANCH    6    5
ATOM      5  N1  UNL A   1      23.011  24.863  -3.619  1.00  0.00    +0.000 N 
ATOM    103  H5  UNL A   1      23.477  25.250  -2.842  1.00  0.00    +0.000 H 
BRANCH    5    3
ATOM      3  C3  UNL A   1      22.261  23.741  -3.388  1.00  0.00    +0.000 C 
ATOM      4  O1  UNL A   1      22.293  22.860  -4.247  1.00  0.00    +0.000 O 
BRANCH    3    2
ATOM      2  C2  UNL A   1      21.413  23.659  -2.105  1.00  0.00    +0.000 C 
ATOM    102  H4  UNL A   1      21.768  24.400  -1.420  1.00  0.00    +0.000 H 
BRANCH    2    1
ATOM      1  C1  UNL A   1      21.587  22.256  -1.500  1.00  0.00    +0.000 C 
ATOM     99  H1  UNL A   1      22.266  21.691  -2.103  1.00  0.00    +0.000 H 
ATOM    100  H2  UNL A   1      20.639  21.761  -1.470  1.00  0.00    +0.000 H 
ATOM    101  H3  UNL A   1      21.976  22.341  -0.508  1.00  0.00    +0.000 H 
ENDBRANCH    2    1
BRANCH    2   78
ATOM    131  H33 UNL A   1      19.250  22.079  -2.695  1.00  0.00    +0.000 H 
ATOM    132  H34 UNL A   1      16.894  22.648  -2.779  1.00  0.00    +0.000 H 
ATOM    133  H35 UNL A   1      14.435  23.861  -2.468  1.00  0.00    +0.000 H 
ATOM    134  H36 UNL A   1      12.957  27.787  -2.407  1.00  0.00    +0.000 H 
ATOM    135  H37 UNL A   1      15.224  28.675  -2.432  1.00  0.00    +0.000 H 
ATOM    138  H40 UNL A   1      20.241  26.125  -2.199  1.00  0.00    +0.000 H 
ATOM     78  C55 UNL A   1      19.934  24.031  -2.307  1.00  0.00    +0.000 C 
ATOM     79  C56 UNL A   1      18.960  23.060  -2.559  1.00  0.00    +0.000 C 
ATOM     80  C57 UNL A   1      17.599  23.387  -2.631  1.00  0.00    +0.000 C 
ATOM     81  C58 UNL A   1      17.194  24.731  -2.499  1.00  0.00    +0.000 C 
ATOM     82  C59 UNL A   1      15.929  25.375  -2.435  1.00  0.00    +0.000 C 
ATOM     83  C60 UNL A   1      14.608  24.879  -2.441  1.00  0.00    +0.000 C 
ATOM     84  C61 UNL A   1      13.540  25.770  -2.412  1.00  0.00    +0.000 C 
ATOM     85 Cl1  UNL A   1      11.929  25.163  -2.404  1.00  0.00    +0.000 Cl
ATOM     86  C62 UNL A   1      13.761  27.140  -2.408  1.00  0.00    +0.000 C 
ATOM     87  C63 UNL A   1      15.064  27.656  -2.408  1.00  0.00    +0.000 C 
ATOM     88  C64 UNL A   1      16.152  26.758  -2.371  1.00  0.00    +0.000 C 
ATOM     89  N7  UNL A   1      17.535  26.962  -2.352  1.00  0.00    +0.000 N 
ATOM     97  C69 UNL A   1      18.169  25.714  -2.390  1.00  0.00    +0.000 C 
ATOM     98  C70 UNL A   1      19.534  25.378  -2.289  1.00  0.00    +0.000 C 
BRANCH   89   90
ATOM     90  C65 UNL A   1      18.238  28.195  -2.319  1.00  0.00    +0.000 C 
ATOM     91  O3  UNL A   1      18.802  28.519  -3.373  1.00  0.00    +0.000 O 
BRANCH   90   92
ATOM    136  H38 UNL A   1      16.761  30.467  -1.247  1.00  0.00    +0.000 H 
ATOM    137  H39 UNL A   1      19.610  29.776   1.636  1.00  0.00    +0.000 H 
ATOM     92  C66 UNL A   1      18.378  29.046  -1.145  1.00  0.00    +0.000 C 
ATOM     93  C67 UNL A   1      17.568  30.085  -0.729  1.00  0.00    +0.000 C 
ATOM     94  O4  UNL A   1      18.016  30.520   0.485  1.00  0.00    +0.000 O 
ATOM     95  C68 UNL A   1      19.066  29.704   0.762  1.00  0.00    +0.000 C 
ATOM     96  N8  UNL A   1      19.333  28.817  -0.164  1.00  0.00    +0.000 N 
ENDBRANCH   90   92
ENDBRANCH   89   90
ENDBRANCH    2   78
ENDBRANCH    3    2
ENDBRANCH    5    3
ENDBRANCH    6    5
ENDBRANCH    7    6
ENDBRANCH    8    7
ENDBRANCH    9    8
ENDBRANCH   10    9
ENDBRANCH   11   10
ENDBRANCH   12   11
ENDBRANCH   13   12
ENDBRANCH   15   13
ENDBRANCH   19   18
BRANCH   23   24
ATOM     33  C24 UNL A   1      15.076  22.508   1.924  1.00  0.00    +0.000 C 
ATOM     34  F5  UNL A   1      15.454  22.831   3.169  1.00  0.00    +0.000 F 
ATOM     24  C19 UNL A   1      15.977  21.881   1.050  1.00  0.00    +0.000 C 
ATOM     25  C20 UNL A   1      15.528  21.561  -0.240  1.00  0.00    +0.000 C 
ATOM     26  F1  UNL A   1      16.356  20.971  -1.116  1.00  0.00    +0.000 F 
ATOM     27  C21 UNL A   1      14.234  21.874  -0.646  1.00  0.00    +0.000 C 
ATOM     28  F2  UNL A   1      13.839  21.592  -1.896  1.00  0.00    +0.000 F 
ATOM     29  C22 UNL A   1      13.356  22.484   0.236  1.00  0.00    +0.000 C 
ATOM     30  F3  UNL A   1      12.106  22.776  -0.153  1.00  0.00    +0.000 F 
ATOM     31  C23 UNL A   1      13.774  22.796   1.522  1.00  0.00    +0.000 C 
ATOM     32  F4  UNL A   1      12.923  23.376   2.379  1.00  0.00    +0.000 F 
ENDBRANCH   23   24
BRANCH   40   41
ATOM     41  C30 UNL A   1      19.528  16.059   3.401  1.00  0.00    +0.000 C 
ATOM     42  C31 UNL A   1      19.672  15.099   2.388  1.00  0.00    +0.000 C 
ATOM     43  F6  UNL A   1      20.030  15.473   1.150  1.00  0.00    +0.000 F 
ATOM     44  C32 UNL A   1      19.401  13.756   2.632  1.00  0.00    +0.000 C 
ATOM     45  F7  UNL A   1      19.494  12.864   1.637  1.00  0.00    +0.000 F 
ATOM     46  C33 UNL A   1      19.015  13.344   3.899  1.00  0.00    +0.000 C 
ATOM     47  F8  UNL A   1      18.752  12.050   4.132  1.00  0.00    +0.000 F 
ATOM     48  C34 UNL A   1      18.889  14.273   4.922  1.00  0.00    +0.000 C 
ATOM     49  F9  UNL A   1      18.526  13.873   6.147  1.00  0.00    +0.000 F 
ATOM     50  C35 UNL A   1      19.135  15.621   4.673  1.00  0.00    +0.000 C 
ATOM     51  F10 UNL A   1      18.988  16.498   5.677  1.00  0.00    +0.000 F 
ENDBRANCH   40   41
BRANCH   55   56
ATOM     65  C44 UNL A   1      25.584  19.976   5.476  1.00  0.00    +0.000 C 
ATOM     66  F15 UNL A   1      24.641  20.311   6.369  1.00  0.00    +0.000 F 
ATOM     56  C39 UNL A   1      25.271  19.922   4.111  1.00  0.00    +0.000 C 
ATOM     57  C40 UNL A   1      26.294  19.572   3.219  1.00  0.00    +0.000 C 
ATOM     58  F11 UNL A   1      26.037  19.488   1.905  1.00  0.00    +0.000 F 
ATOM     59  C41 UNL A   1      27.574  19.265   3.676  1.00  0.00    +0.000 C 
ATOM     60  F12 UNL A   1      28.521  18.888   2.808  1.00  0.00    +0.000 F 
ATOM     61  C42 UNL A   1      27.862  19.330   5.032  1.00  0.00    +0.000 C 
ATOM     62  F13 UNL A   1      29.092  19.035   5.472  1.00  0.00    +0.000 F 
ATOM     63  C43 UNL A   1      26.871  19.695   5.930  1.00  0.00    +0.000 C 
ATOM     64  F14 UNL A   1      27.149  19.772   7.240  1.00  0.00    +0.000 F 
ENDBRANCH   55   56
TORSDOF 19
ENDMDL
MODEL 5
REMARK VINA RESULT:     -12.1     40.346     46.428
ROOT
ATOM     19  C15 UNL A   1      53.508  19.714  11.517  1.00  0.00    +0.000 C 
ATOM     20  C16 UNL A   1      53.231  20.402  12.823  1.00  0.00    +0.000 C 
ATOM     21  N3  UNL A   1      54.033  20.596  13.841  1.00  0.00    +0.000 N 
ATOM     22  C17 UNL A   1      53.289  21.299  14.780  1.00  0.00    +0.000 C 
ATOM     23  C18 UNL A   1      53.648  21.678  16.030  1.00  0.00    +0.000 C 
ATOM     35  C25 UNL A   1      54.935  21.420  16.621  1.00  0.00    +0.000 C 
ATOM     36  C26 UNL A   1      55.383  21.738  17.892  1.00  0.00    +0.000 C 
ATOM     37  C27 UNL A   1      56.710  21.310  18.009  1.00  0.00    +0.000 C 
ATOM     38  C28 UNL A   1      57.077  20.692  16.824  1.00  0.00    +0.000 C 
ATOM     39  N4  UNL A   1      55.982  20.776  15.978  1.00  0.00    +0.000 N 
ATOM     40  C29 UNL A   1      58.329  20.068  16.488  1.00  0.00    +0.000 C 
ATOM     52  C36 UNL A   1      58.614  19.488  15.296  1.00  0.00    +0.000 C 
ATOM     53  N5  UNL A   1      57.813  19.368  14.170  1.00  0.00    +0.000 N 
ATOM     54  C37 UNL A   1      58.545  18.759  13.270  1.00  0.00    +0.000 C 
ATOM     55  C38 UNL A   1      58.181  18.348  11.871  1.00  0.00    +0.000 C 
ATOM     67  C45 UNL A   1      56.933  18.575  11.421  1.00  0.00    +0.000 C 
ATOM     68  C46 UNL A   1      56.424  18.196  10.107  1.00  0.00    +0.000 C 
ATOM     69  C47 UNL A   1      55.142  18.584  10.006  1.00  0.00    +0.000 C 
ATOM     70  C48 UNL A   1      54.734  19.221  11.259  1.00  0.00    +0.000 C 
ATOM     71  N6  UNL A   1      55.865  19.180  12.037  1.00  0.00    +0.000 N 
ATOM     72  C49 UNL A   1      59.905  18.437  13.722  1.00  0.00    +0.000 C 
ATOM     73  C50 UNL A   1      59.881  18.864  14.976  1.00  0.00    +0.000 C 
ATOM     74  C51 UNL A   1      51.990  21.546  14.191  1.00  0.00    +0.000 C 
ATOM     75  C52 UNL A   1      51.885  20.965  13.005  1.00  0.00    +0.000 C 
ATOM    119  H21 UNL A   1      54.833  22.209  18.626  1.00  0.00    +0.000 H 
ATOM    120  H22 UNL A   1      57.314  21.435  18.836  1.00  0.00    +0.000 H 
ATOM    121  H23 UNL A   1      55.951  20.427  15.058  1.00  0.00    +0.000 H 
ATOM    122  H24 UNL A   1      56.962  17.709   9.374  1.00  0.00    +0.000 H 
ATOM    123  H25 UNL A   1      54.541  18.454   9.177  1.00  0.00    +0.000 H 
ATOM    124  H26 UNL A   1      55.905  19.550  12.948  1.00  0.00    +0.000 H 
ATOM    125  H27 UNL A   1      60.678  17.994  13.200  1.00  0.00    +0.000 H 
ATOM    126  H28 UNL A   1      60.664  18.764  15.640  1.00  0.00    +0.000 H 
ATOM    127  H29 UNL A   1      51.245  22.104  14.637  1.00  0.00    +0.000 H 
ATOM    128  H30 UNL A   1      51.069  20.920  12.373  1.00  0.00    +0.000 H 
ENDROOT
BRANCH   19   18
ATOM    129  H31 UNL A   1      51.834  17.655  11.054  1.00  0.00    +0.000 H 
ATOM    130  H32 UNL A   1      50.154  17.440   9.317  1.00  0.00    +0.000 H 
ATOM     76  C53 UNL A   1      51.671  18.434  10.396  1.00  0.00    +0.000 C 
ATOM     77  C54 UNL A   1      50.678  18.323   9.422  1.00  0.00    +0.000 C 
ATOM     15  C11 UNL A   1      50.394  19.409   8.587  1.00  0.00    +0.000 C 
ATOM     16  C12 UNL A   1      51.175  20.567   8.656  1.00  0.00    +0.000 C 
ATOM     17  C13 UNL A   1      52.207  20.653   9.590  1.00  0.00    +0.000 C 
ATOM     18  C14 UNL A   1      52.448  19.598  10.485  1.00  0.00    +0.000 C 
ATOM    117  H19 UNL A   1      50.988  21.356   8.018  1.00  0.00    +0.000 H 
ATOM    118  H20 UNL A   1      52.798  21.499   9.624  1.00  0.00    +0.000 H 
BRANCH   15   13
ATOM     13  C10 UNL A   1      49.302  19.353   7.588  1.00  0.00    +0.000 C 
ATOM     14  O2  UNL A   1      48.336  20.101   7.705  1.00  0.00    +0.000 O 
BRANCH   13   12
ATOM    116  H18 UNL A   1      49.945  18.736   5.801  1.00  0.00    +0.000 H 
ATOM     12  N2  UNL A   1      49.359  18.470   6.546  1.00  0.00    +0.000 N 
BRANCH   12   11
ATOM    114  H16 UNL A   1      48.719  16.655   7.299  1.00  0.00    +0.000 H 
ATOM     11  C9  UNL A   1      48.679  17.194   6.375  1.00  0.00    +0.000 C 
ATOM    115  H17 UNL A   1      47.668  17.395   6.088  1.00  0.00    +0.000 H 
BRANCH   11   10
ATOM    113  H15 UNL A   1      50.184  15.893   5.721  1.00  0.00    +0.000 H 
ATOM     10  C8  UNL A   1      49.318  16.343   5.281  1.00  0.00    +0.000 C 
ATOM    112  H14 UNL A   1      49.547  16.983   4.455  1.00  0.00    +0.000 H 
BRANCH   10    9
ATOM      9  C7  UNL A   1      48.451  15.192   4.767  1.00  0.00    +0.000 C 
ATOM    110  H12 UNL A   1      48.770  14.954   3.774  1.00  0.00    +0.000 H 
ATOM    111  H13 UNL A   1      48.580  14.387   5.461  1.00  0.00    +0.000 H 
BRANCH    9    8
ATOM    108  H10 UNL A   1      46.429  14.581   4.966  1.00  0.00    +0.000 H 
ATOM    109  H11 UNL A   1      46.779  16.273   5.430  1.00  0.00    +0.000 H 
ATOM      8  C6  UNL A   1      46.949  15.484   4.726  1.00  0.00    +0.000 C 
BRANCH    8    7
ATOM    106  H8  UNL A   1      47.068  15.625   2.607  1.00  0.00    +0.000 H 
ATOM    107  H9  UNL A   1      45.420  15.636   3.288  1.00  0.00    +0.000 H 
ATOM      7  C5  UNL A   1      46.424  15.993   3.378  1.00  0.00    +0.000 C 
BRANCH    7    6
ATOM    105  H7  UNL A   1      46.588  17.797   2.251  1.00  0.00    +0.000 H 
ATOM      6  C4  UNL A   1      46.358  17.521   3.259  1.00  0.00    +0.000 C 
ATOM    104  H6  UNL A   1      47.064  17.956   3.935  1.00  0.00    +0.000 H 
BRANCH    6    5
ATOM      5  N1  UNL A   1      45.030  18.004   3.582  1.00  0.00    +0.000 N 
ATOM    103  H5  UNL A   1      44.479  17.424   4.156  1.00  0.00    +0.000 H 
BRANCH    5    3
ATOM      3  C3  UNL A   1      44.463  19.180   3.172  1.00  0.00    +0.000 C 
ATOM      4  O1  UNL A   1      44.753  20.193   3.811  1.00  0.00    +0.000 O 
BRANCH    3    2
ATOM      2  C2  UNL A   1      43.490  19.167   1.979  1.00  0.00    +0.000 C 
ATOM    102  H4  UNL A   1      43.647  18.263   1.428  1.00  0.00    +0.000 H 
BRANCH    2    1
ATOM      1  C1  UNL A   1      43.800  20.384   1.091  1.00  0.00    +0.000 C 
ATOM     99  H1  UNL A   1      44.814  20.331   0.755  1.00  0.00    +0.000 H 
ATOM    100  H2  UNL A   1      43.658  21.282   1.656  1.00  0.00    +0.000 H 
ATOM    101  H3  UNL A   1      43.143  20.386   0.247  1.00  0.00    +0.000 H 
ENDBRANCH    2    1
BRANCH    2   78
ATOM    131  H33 UNL A   1      42.203  17.484   3.720  1.00  0.00    +0.000 H 
ATOM    132  H34 UNL A   1      39.912  17.536   4.514  1.00  0.00    +0.000 H 
ATOM    133  H35 UNL A   1      37.344  18.289   5.191  1.00  0.00    +0.000 H 
ATOM    134  H36 UNL A   1      34.328  20.681   3.523  1.00  0.00    +0.000 H 
ATOM    135  H37 UNL A   1      35.858  21.464   1.798  1.00  0.00    +0.000 H 
ATOM    138  H40 UNL A   1      41.354  20.542   0.978  1.00  0.00    +0.000 H 
ATOM     78  C55 UNL A   1      42.007  19.095   2.380  1.00  0.00    +0.000 C 
ATOM     79  C56 UNL A   1      41.547  18.182   3.335  1.00  0.00    +0.000 C 
ATOM     80  C57 UNL A   1      40.218  18.193   3.780  1.00  0.00    +0.000 C 
ATOM     81  C58 UNL A   1      39.302  19.108   3.224  1.00  0.00    +0.000 C 
ATOM     82  C59 UNL A   1      37.947  19.434   3.503  1.00  0.00    +0.000 C 
ATOM     83  C60 UNL A   1      37.041  18.976   4.482  1.00  0.00    +0.000 C 
ATOM     84  C61 UNL A   1      35.734  19.454   4.485  1.00  0.00    +0.000 C 
ATOM     85 Cl1  UNL A   1      34.633  18.905   5.690  1.00  0.00    +0.000 Cl
ATOM     86  C62 UNL A   1      35.306  20.352   3.518  1.00  0.00    +0.000 C 
ATOM     87  C63 UNL A   1      36.187  20.817   2.532  1.00  0.00    +0.000 C 
ATOM     88  C64 UNL A   1      37.530  20.388   2.562  1.00  0.00    +0.000 C 
ATOM     89  N7  UNL A   1      38.625  20.676   1.741  1.00  0.00    +0.000 N 
ATOM     97  C69 UNL A   1      39.719  19.918   2.177  1.00  0.00    +0.000 C 
ATOM     98  C70 UNL A   1      41.063  19.925   1.752  1.00  0.00    +0.000 C 
BRANCH   89   90
ATOM     90  C65 UNL A   1      38.678  21.560   0.631  1.00  0.00    +0.000 C 
ATOM     91  O3  UNL A   1      39.682  22.282   0.570  1.00  0.00    +0.000 O 
BRANCH   90   92
ATOM    136  H38 UNL A   1      36.500  19.871  -0.314  1.00  0.00    +0.000 H 
ATOM    137  H39 UNL A   1      35.945  23.357  -2.422  1.00  0.00    +0.000 H 
ATOM     92  C66 UNL A   1      37.634  21.702  -0.374  1.00  0.00    +0.000 C 
ATOM     93  C67 UNL A   1      36.622  20.820  -0.699  1.00  0.00    +0.000 C 
ATOM     94  O4  UNL A   1      35.809  21.419  -1.619  1.00  0.00    +0.000 O 
ATOM     95  C68 UNL A   1      36.353  22.652  -1.789  1.00  0.00    +0.000 C 
ATOM     96  N8  UNL A   1      37.435  22.877  -1.086  1.00  0.00    +0.000 N 
ENDBRANCH   90   92
ENDBRANCH   89   90
ENDBRANCH    2   78
ENDBRANCH    3    2
ENDBRANCH    5    3
ENDBRANCH    6    5
ENDBRANCH    7    6
ENDBRANCH    8    7
ENDBRANCH    9    8
ENDBRANCH   10    9
ENDBRANCH   11   10
ENDBRANCH   12   11
ENDBRANCH   13   12
ENDBRANCH   15   13
ENDBRANCH   19   18
BRANCH   23   24
ATOM     33  C24 UNL A   1      52.418  23.781  16.694  1.00  0.00    +0.000 C 
ATOM     34  F5  UNL A   1      53.106  24.465  15.769  1.00  0.00    +0.000 F 
ATOM     24  C19 UNL A   1      52.624  22.402  16.854  1.00  0.00    +0.000 C 
ATOM     25  C20 UNL A   1      51.881  21.737  17.840  1.00  0.00    +0.000 C 
ATOM     26  F1  UNL A   1      52.033  20.416  18.024  1.00  0.00    +0.000 F 
ATOM     27  C21 UNL A   1      50.953  22.419  18.622  1.00  0.00    +0.000 C 
ATOM     28  F2  UNL A   1      50.227  21.755  19.532  1.00  0.00    +0.000 F 
ATOM     29  C22 UNL A   1      50.773  23.783  18.455  1.00  0.00    +0.000 C 
ATOM     30  F3  UNL A   1      49.886  24.442  19.215  1.00  0.00    +0.000 F 
ATOM     31  C23 UNL A   1      51.508  24.466  17.496  1.00  0.00    +0.000 C 
ATOM     32  F4  UNL A   1      51.342  25.786  17.341  1.00  0.00    +0.000 F 
ENDBRANCH   23   24
BRANCH   40   41
ATOM     41  C30 UNL A   1      59.404  20.037  17.534  1.00  0.00    +0.000 C 
ATOM     42  C31 UNL A   1      59.654  18.884  18.292  1.00  0.00    +0.000 C 
ATOM     43  F6  UNL A   1      58.905  17.786  18.117  1.00  0.00    +0.000 F 
ATOM     44  C32 UNL A   1      60.646  18.872  19.268  1.00  0.00    +0.000 C 
ATOM     45  F7  UNL A   1      60.833  17.777  20.017  1.00  0.00    +0.000 F 
ATOM     46  C33 UNL A   1      61.427  19.998  19.480  1.00  0.00    +0.000 C 
ATOM     47  F8  UNL A   1      62.381  19.986  20.421  1.00  0.00    +0.000 F 
ATOM     48  C34 UNL A   1      61.213  21.142  18.724  1.00  0.00    +0.000 C 
ATOM     49  F9  UNL A   1      61.974  22.227  18.923  1.00  0.00    +0.000 F 
ATOM     50  C35 UNL A   1      60.204  21.165  17.765  1.00  0.00    +0.000 C 
ATOM     51  F10 UNL A   1      60.008  22.291  17.062  1.00  0.00    +0.000 F 
ENDBRANCH   40   41
BRANCH   55   56
ATOM     65  C44 UNL A   1      59.256  16.275  10.936  1.00  0.00    +0.000 C 
ATOM     66  F15 UNL A   1      58.445  15.521  11.692  1.00  0.00    +0.000 F 
ATOM     56  C39 UNL A   1      59.172  17.673  10.994  1.00  0.00    +0.000 C 
ATOM     57  C40 UNL A   1      60.047  18.415  10.189  1.00  0.00    +0.000 C 
ATOM     58  F11 UNL A   1      59.990  19.755  10.196  1.00  0.00    +0.000 F 
ATOM     59  C41 UNL A   1      60.954  17.784   9.340  1.00  0.00    +0.000 C 
ATOM     60  F12 UNL A   1      61.746  18.515   8.546  1.00  0.00    +0.000 F 
ATOM     61  C42 UNL A   1      61.024  16.399   9.303  1.00  0.00    +0.000 C 
ATOM     62  F13 UNL A   1      61.895  15.791   8.488  1.00  0.00    +0.000 F 
ATOM     63  C43 UNL A   1      60.182  15.645  10.107  1.00  0.00    +0.000 C 
ATOM     64  F14 UNL A   1      60.255  14.306  10.085  1.00  0.00    +0.000 F 
ENDBRANCH   55   56
TORSDOF 19
ENDMDL
MODEL 6
REMARK VINA RESULT:     -12.1     40.464     46.883
ROOT
ATOM     19  C15 UNL A   1      54.025  19.651  11.819  1.00  0.00    +0.000 C 
ATOM     20  C16 UNL A   1      55.390  19.025  11.777  1.00  0.00    +0.000 C 
ATOM     21  N3  UNL A   1      56.323  19.015  12.697  1.00  0.00    +0.000 N 
ATOM     22  C17 UNL A   1      57.376  18.286  12.161  1.00  0.00    +0.000 C 
ATOM     23  C18 UNL A   1      58.598  18.048  12.695  1.00  0.00    +0.000 C 
ATOM     35  C25 UNL A   1      59.029  18.522  13.984  1.00  0.00    +0.000 C 
ATOM     36  C26 UNL A   1      60.258  18.358  14.599  1.00  0.00    +0.000 C 
ATOM     37  C27 UNL A   1      60.204  18.971  15.856  1.00  0.00    +0.000 C 
ATOM     38  C28 UNL A   1      58.954  19.548  16.008  1.00  0.00    +0.000 C 
ATOM     39  N4  UNL A   1      58.240  19.256  14.857  1.00  0.00    +0.000 N 
ATOM     40  C29 UNL A   1      58.448  20.312  17.118  1.00  0.00    +0.000 C 
ATOM     52  C36 UNL A   1      57.202  20.840  17.195  1.00  0.00    +0.000 C 
ATOM     53  N5  UNL A   1      56.165  20.769  16.275  1.00  0.00    +0.000 N 
ATOM     54  C37 UNL A   1      55.158  21.407  16.818  1.00  0.00    +0.000 C 
ATOM     55  C38 UNL A   1      53.786  21.665  16.259  1.00  0.00    +0.000 C 
ATOM     67  C45 UNL A   1      53.490  21.238  15.017  1.00  0.00    +0.000 C 
ATOM     68  C46 UNL A   1      52.221  21.450  14.329  1.00  0.00    +0.000 C 
ATOM     69  C47 UNL A   1      52.283  20.884  13.112  1.00  0.00    +0.000 C 
ATOM     70  C48 UNL A   1      53.607  20.288  12.929  1.00  0.00    +0.000 C 
ATOM     71  N6  UNL A   1      54.252  20.537  14.115  1.00  0.00    +0.000 N 
ATOM     72  C49 UNL A   1      55.439  21.944  18.156  1.00  0.00    +0.000 C 
ATOM     73  C50 UNL A   1      56.710  21.608  18.320  1.00  0.00    +0.000 C 
ATOM     74  C51 UNL A   1      56.948  17.822  10.858  1.00  0.00    +0.000 C 
ATOM     75  C52 UNL A   1      55.750  18.297  10.551  1.00  0.00    +0.000 C 
ATOM    119  H21 UNL A   1      61.074  17.870  14.199  1.00  0.00    +0.000 H 
ATOM    120  H22 UNL A   1      60.966  18.989  16.552  1.00  0.00    +0.000 H 
ATOM    121  H23 UNL A   1      57.310  19.531  14.684  1.00  0.00    +0.000 H 
ATOM    122  H24 UNL A   1      51.407  21.952  14.715  1.00  0.00    +0.000 H 
ATOM    123  H25 UNL A   1      51.519  20.871  12.418  1.00  0.00    +0.000 H 
ATOM    124  H26 UNL A   1      55.173  20.242  14.300  1.00  0.00    +0.000 H 
ATOM    125  H27 UNL A   1      54.811  22.450  18.801  1.00  0.00    +0.000 H 
ATOM    126  H28 UNL A   1      57.277  21.860  19.144  1.00  0.00    +0.000 H 
ATOM    127  H29 UNL A   1      57.504  17.201  10.249  1.00  0.00    +0.000 H 
ATOM    128  H30 UNL A   1      55.210  18.186   9.678  1.00  0.00    +0.000 H 
ENDROOT
BRANCH   19   18
ATOM    129  H31 UNL A   1      52.047  17.873  11.388  1.00  0.00    +0.000 H 
ATOM    130  H32 UNL A   1      50.608  17.662   9.447  1.00  0.00    +0.000 H 
ATOM     76  C53 UNL A   1      52.135  18.542  10.607  1.00  0.00    +0.000 C 
ATOM     77  C54 UNL A   1      51.280  18.442   9.509  1.00  0.00    +0.000 C 
ATOM     15  C11 UNL A   1      51.336  19.401   8.491  1.00  0.00    +0.000 C 
ATOM     16  C12 UNL A   1      52.317  20.396   8.520  1.00  0.00    +0.000 C 
ATOM     17  C13 UNL A   1      53.211  20.458   9.589  1.00  0.00    +0.000 C 
ATOM     18  C14 UNL A   1      53.111  19.548  10.654  1.00  0.00    +0.000 C 
ATOM    117  H19 UNL A   1      52.381  21.083   7.753  1.00  0.00    +0.000 H 
ATOM    118  H20 UNL A   1      53.950  21.179   9.598  1.00  0.00    +0.000 H 
BRANCH   15   13
ATOM     13  C10 UNL A   1      50.399  19.367   7.343  1.00  0.00    +0.000 C 
ATOM     14  O2  UNL A   1      50.736  19.865   6.273  1.00  0.00    +0.000 O 
BRANCH   13   12
ATOM    116  H18 UNL A   1      49.160  17.885   7.844  1.00  0.00    +0.000 H 
ATOM     12  N2  UNL A   1      49.164  18.796   7.471  1.00  0.00    +0.000 N 
BRANCH   12   11
ATOM    114  H16 UNL A   1      47.247  19.339   8.016  1.00  0.00    +0.000 H 
ATOM     11  C9  UNL A   1      47.855  19.336   7.135  1.00  0.00    +0.000 C 
ATOM    115  H17 UNL A   1      47.994  20.327   6.756  1.00  0.00    +0.000 H 
BRANCH   11   10
ATOM    113  H15 UNL A   1      47.457  18.932   5.119  1.00  0.00    +0.000 H 
ATOM     10  C8  UNL A   1      47.153  18.515   6.056  1.00  0.00    +0.000 C 
ATOM    112  H14 UNL A   1      46.098  18.578   6.226  1.00  0.00    +0.000 H 
BRANCH   10    9
ATOM      9  C7  UNL A   1      47.541  17.036   6.015  1.00  0.00    +0.000 C 
ATOM    110  H12 UNL A   1      48.530  16.940   6.412  1.00  0.00    +0.000 H 
ATOM    111  H13 UNL A   1      46.801  16.516   6.587  1.00  0.00    +0.000 H 
BRANCH    9    8
ATOM    108  H10 UNL A   1      47.825  17.149   3.915  1.00  0.00    +0.000 H 
ATOM    109  H11 UNL A   1      48.194  15.568   4.666  1.00  0.00    +0.000 H 
ATOM      8  C6  UNL A   1      47.526  16.403   4.621  1.00  0.00    +0.000 C 
BRANCH    8    7
ATOM    106  H8  UNL A   1      46.295  15.379   3.222  1.00  0.00    +0.000 H 
ATOM    107  H9  UNL A   1      45.858  15.159   4.937  1.00  0.00    +0.000 H 
ATOM      7  C5  UNL A   1      46.169  15.844   4.177  1.00  0.00    +0.000 C 
BRANCH    7    6
ATOM    105  H7  UNL A   1      44.946  17.386   5.001  1.00  0.00    +0.000 H 
ATOM      6  C4  UNL A   1      45.059  16.896   4.057  1.00  0.00    +0.000 C 
ATOM    104  H6  UNL A   1      44.147  16.412   3.777  1.00  0.00    +0.000 H 
BRANCH    6    5
ATOM      5  N1  UNL A   1      45.398  17.887   3.055  1.00  0.00    +0.000 N 
ATOM    103  H5  UNL A   1      46.078  17.627   2.391  1.00  0.00    +0.000 H 
BRANCH    5    3
ATOM      3  C3  UNL A   1      44.872  19.145   2.935  1.00  0.00    +0.000 C 
ATOM      4  O1  UNL A   1      45.149  19.954   3.822  1.00  0.00    +0.000 O 
BRANCH    3    2
ATOM      2  C2  UNL A   1      43.961  19.465   1.736  1.00  0.00    +0.000 C 
ATOM    102  H4  UNL A   1      44.101  18.705   0.996  1.00  0.00    +0.000 H 
BRANCH    2    1
ATOM      1  C1  UNL A   1      44.372  20.834   1.168  1.00  0.00    +0.000 C 
ATOM     99  H1  UNL A   1      45.327  20.750   0.694  1.00  0.00    +0.000 H 
ATOM    100  H2  UNL A   1      44.430  21.547   1.965  1.00  0.00    +0.000 H 
ATOM    101  H3  UNL A   1      43.645  21.157   0.453  1.00  0.00    +0.000 H 
ENDBRANCH    2    1
BRANCH    2   78
ATOM    131  H33 UNL A   1      42.593  17.831   3.463  1.00  0.00    +0.000 H 
ATOM    132  H34 UNL A   1      40.260  17.883   4.123  1.00  0.00    +0.000 H 
ATOM    133  H35 UNL A   1      37.650  18.628   4.624  1.00  0.00    +0.000 H 
ATOM    134  H36 UNL A   1      34.709  20.919   2.699  1.00  0.00    +0.000 H 
ATOM    135  H37 UNL A   1      36.328  21.657   1.036  1.00  0.00    +0.000 H 
ATOM    138  H40 UNL A   1      41.871  20.775   0.564  1.00  0.00    +0.000 H 
ATOM     78  C55 UNL A   1      42.458  19.389   2.054  1.00  0.00    +0.000 C 
ATOM     79  C56 UNL A   1      41.953  18.506   3.015  1.00  0.00    +0.000 C 
ATOM     80  C57 UNL A   1      40.601  18.517   3.384  1.00  0.00    +0.000 C 
ATOM     81  C58 UNL A   1      39.708  19.398   2.742  1.00  0.00    +0.000 C 
ATOM     82  C59 UNL A   1      38.337  19.718   2.931  1.00  0.00    +0.000 C 
ATOM     83  C60 UNL A   1      37.380  19.284   3.874  1.00  0.00    +0.000 C 
ATOM     84  C61 UNL A   1      36.071  19.745   3.785  1.00  0.00    +0.000 C 
ATOM     85 Cl1  UNL A   1      34.908  19.228   4.945  1.00  0.00    +0.000 Cl
ATOM     86  C62 UNL A   1      35.689  20.602   2.762  1.00  0.00    +0.000 C 
ATOM     87  C63 UNL A   1      36.620  21.042   1.811  1.00  0.00    +0.000 C 
ATOM     88  C64 UNL A   1      37.965  20.631   1.933  1.00  0.00    +0.000 C 
ATOM     89  N7  UNL A   1      39.101  20.902   1.166  1.00  0.00    +0.000 N 
ATOM     97  C69 UNL A   1      40.177  20.175   1.691  1.00  0.00    +0.000 C 
ATOM     98  C70 UNL A   1      41.543  20.183   1.343  1.00  0.00    +0.000 C 
BRANCH   89   90
ATOM     90  C65 UNL A   1      39.209  21.745   0.028  1.00  0.00    +0.000 C 
ATOM     91  O3  UNL A   1      40.363  22.038  -0.314  1.00  0.00    +0.000 O 
BRANCH   90   92
ATOM    136  H38 UNL A   1      38.201  24.444  -0.407  1.00  0.00    +0.000 H 
ATOM    137  H39 UNL A   1      35.697  22.141  -2.718  1.00  0.00    +0.000 H 
ATOM     92  C66 UNL A   1      38.082  22.313  -0.701  1.00  0.00    +0.000 C 
ATOM     93  C67 UNL A   1      37.736  23.641  -0.858  1.00  0.00    +0.000 C 
ATOM     94  O4  UNL A   1      36.674  23.709  -1.713  1.00  0.00    +0.000 O 
ATOM     95  C68 UNL A   1      36.442  22.416  -2.057  1.00  0.00    +0.000 C 
ATOM     96  N8  UNL A   1      37.236  21.544  -1.487  1.00  0.00    +0.000 N 
ENDBRANCH   90   92
ENDBRANCH   89   90
ENDBRANCH    2   78
ENDBRANCH    3    2
ENDBRANCH    5    3
ENDBRANCH    6    5
ENDBRANCH    7    6
ENDBRANCH    8    7
ENDBRANCH    9    8
ENDBRANCH   10    9
ENDBRANCH   11   10
ENDBRANCH   12   11
ENDBRANCH   13   12
ENDBRANCH   15   13
ENDBRANCH   19   18
BRANCH   23   24
ATOM     33  C24 UNL A   1      59.640  15.856  12.000  1.00  0.00    +0.000 C 
ATOM     34  F5  UNL A   1      58.809  15.208  12.830  1.00  0.00    +0.000 F 
ATOM     24  C19 UNL A   1      59.569  17.251  11.874  1.00  0.00    +0.000 C 
ATOM     25  C20 UNL A   1      60.466  17.878  10.996  1.00  0.00    +0.000 C 
ATOM     26  F1  UNL A   1      60.430  19.209  10.831  1.00  0.00    +0.000 F 
ATOM     27  C21 UNL A   1      61.384  17.136  10.259  1.00  0.00    +0.000 C 
ATOM     28  F2  UNL A   1      62.206  17.753   9.398  1.00  0.00    +0.000 F 
ATOM     29  C22 UNL A   1      61.445  15.759  10.407  1.00  0.00    +0.000 C 
ATOM     30  F3  UNL A   1      62.337  15.046   9.704  1.00  0.00    +0.000 F 
ATOM     31  C23 UNL A   1      60.578  15.119  11.281  1.00  0.00    +0.000 C 
ATOM     32  F4  UNL A   1      60.643  13.789  11.433  1.00  0.00    +0.000 F 
ENDBRANCH   23   24
BRANCH   40   41
ATOM     41  C30 UNL A   1      59.366  20.564  18.278  1.00  0.00    +0.000 C 
ATOM     42  C31 UNL A   1      60.024  21.792  18.436  1.00  0.00    +0.000 C 
ATOM     43  F6  UNL A   1      59.869  22.764  17.524  1.00  0.00    +0.000 F 
ATOM     44  C32 UNL A   1      60.883  22.009  19.510  1.00  0.00    +0.000 C 
ATOM     45  F7  UNL A   1      61.542  23.171  19.614  1.00  0.00    +0.000 F 
ATOM     46  C33 UNL A   1      61.072  21.017  20.460  1.00  0.00    +0.000 C 
ATOM     47  F8  UNL A   1      61.901  21.227  21.493  1.00  0.00    +0.000 F 
ATOM     48  C34 UNL A   1      60.412  19.803  20.336  1.00  0.00    +0.000 C 
ATOM     49  F9  UNL A   1      60.588  18.849  21.259  1.00  0.00    +0.000 F 
ATOM     50  C35 UNL A   1      59.573  19.574  19.249  1.00  0.00    +0.000 C 
ATOM     51  F10 UNL A   1      58.961  18.385  19.146  1.00  0.00    +0.000 F 
ENDBRANCH   40   41
BRANCH   55   56
ATOM     65  C44 UNL A   1      52.570  23.781  16.867  1.00  0.00    +0.000 C 
ATOM     66  F15 UNL A   1      53.314  24.456  15.980  1.00  0.00    +0.000 F 
ATOM     56  C39 UNL A   1      52.769  22.406  17.049  1.00  0.00    +0.000 C 
ATOM     57  C40 UNL A   1      51.970  21.748  17.994  1.00  0.00    +0.000 C 
ATOM     58  F11 UNL A   1      52.112  20.428  18.188  1.00  0.00    +0.000 F 
ATOM     59  C41 UNL A   1      50.993  22.434  18.712  1.00  0.00    +0.000 C 
ATOM     60  F12 UNL A   1      50.210  21.772  19.575  1.00  0.00    +0.000 F 
ATOM     61  C42 UNL A   1      50.816  23.796  18.520  1.00  0.00    +0.000 C 
ATOM     62  F13 UNL A   1      49.877  24.456  19.209  1.00  0.00    +0.000 F 
ATOM     63  C43 UNL A   1      51.610  24.471  17.605  1.00  0.00    +0.000 C 
ATOM     64  F14 UNL A   1      51.452  25.790  17.426  1.00  0.00    +0.000 F 
ENDBRANCH   55   56
TORSDOF 19
ENDMDL
MODEL 7
REMARK VINA RESULT:     -12.0      0.985      6.933
ROOT
ATOM     19  C15 UNL A   1      25.817  35.579  45.728  1.00  0.00    +0.000 C 
ATOM     20  C16 UNL A   1      27.138  35.538  45.014  1.00  0.00    +0.000 C 
ATOM     21  N3  UNL A   1      28.169  36.336  45.137  1.00  0.00    +0.000 N 
ATOM     22  C17 UNL A   1      29.134  35.846  44.268  1.00  0.00    +0.000 C 
ATOM     23  C18 UNL A   1      30.353  36.362  43.980  1.00  0.00    +0.000 C 
ATOM     35  C25 UNL A   1      30.890  37.560  44.571  1.00  0.00    +0.000 C 
ATOM     36  C26 UNL A   1      32.102  38.180  44.321  1.00  0.00    +0.000 C 
ATOM     37  C27 UNL A   1      32.199  39.304  45.149  1.00  0.00    +0.000 C 
ATOM     38  C28 UNL A   1      31.032  39.405  45.888  1.00  0.00    +0.000 C 
ATOM     39  N4  UNL A   1      30.241  38.324  45.530  1.00  0.00    +0.000 N 
ATOM     40  C29 UNL A   1      30.660  40.413  46.845  1.00  0.00    +0.000 C 
ATOM     52  C36 UNL A   1      29.495  40.437  47.536  1.00  0.00    +0.000 C 
ATOM     53  N5  UNL A   1      28.436  39.541  47.496  1.00  0.00    +0.000 N 
ATOM     54  C37 UNL A   1      27.559  39.980  48.365  1.00  0.00    +0.000 C 
ATOM     55  C38 UNL A   1      26.213  39.415  48.721  1.00  0.00    +0.000 C 
ATOM     67  C45 UNL A   1      25.763  38.324  48.073  1.00  0.00    +0.000 C 
ATOM     68  C46 UNL A   1      24.466  37.689  48.280  1.00  0.00    +0.000 C 
ATOM     69  C47 UNL A   1      24.363  36.626  47.465  1.00  0.00    +0.000 C 
ATOM     70  C48 UNL A   1      25.583  36.519  46.663  1.00  0.00    +0.000 C 
ATOM     71  N6  UNL A   1      26.362  37.562  47.099  1.00  0.00    +0.000 N 
ATOM     72  C49 UNL A   1      27.971  41.202  49.068  1.00  0.00    +0.000 C 
ATOM     73  C50 UNL A   1      29.137  41.462  48.496  1.00  0.00    +0.000 C 
ATOM     74  C51 UNL A   1      28.589  34.648  43.664  1.00  0.00    +0.000 C 
ATOM     75  C52 UNL A   1      27.338  34.445  44.049  1.00  0.00    +0.000 C 
ATOM    119  H21 UNL A   1      32.812  37.867  43.640  1.00  0.00    +0.000 H 
ATOM    120  H22 UNL A   1      33.004  39.947  45.202  1.00  0.00    +0.000 H 
ATOM    121  H23 UNL A   1      29.351  38.127  45.902  1.00  0.00    +0.000 H 
ATOM    122  H24 UNL A   1      23.744  38.006  48.946  1.00  0.00    +0.000 H 
ATOM    123  H25 UNL A   1      23.554  35.987  47.414  1.00  0.00    +0.000 H 
ATOM    124  H26 UNL A   1      27.262  37.745  46.747  1.00  0.00    +0.000 H 
ATOM    125  H27 UNL A   1      27.481  41.722  49.813  1.00  0.00    +0.000 H 
ATOM    126  H28 UNL A   1      29.718  42.289  48.707  1.00  0.00    +0.000 H 
ATOM    127  H29 UNL A   1      29.108  34.034  43.018  1.00  0.00    +0.000 H 
ATOM    128  H30 UNL A   1      26.676  33.712  43.750  1.00  0.00    +0.000 H 
ENDROOT
BRANCH   19   18
ATOM    129  H31 UNL A   1      25.558  33.091  46.727  1.00  0.00    +0.000 H 
ATOM    130  H32 UNL A   1      23.887  31.417  46.189  1.00  0.00    +0.000 H 
ATOM     76  C53 UNL A   1      24.803  33.313  46.059  1.00  0.00    +0.000 C 
ATOM     77  C54 UNL A   1      23.822  32.362  45.780  1.00  0.00    +0.000 C 
ATOM     15  C11 UNL A   1      22.748  32.690  44.944  1.00  0.00    +0.000 C 
ATOM     16  C12 UNL A   1      22.715  33.933  44.305  1.00  0.00    +0.000 C 
ATOM     17  C13 UNL A   1      23.730  34.861  44.538  1.00  0.00    +0.000 C 
ATOM     18  C14 UNL A   1      24.769  34.569  45.436  1.00  0.00    +0.000 C 
ATOM    117  H19 UNL A   1      21.941  34.164  43.662  1.00  0.00    +0.000 H 
ATOM    118  H20 UNL A   1      23.717  35.769  44.047  1.00  0.00    +0.000 H 
BRANCH   15   13
ATOM     13  C10 UNL A   1      21.652  31.730  44.679  1.00  0.00    +0.000 C 
ATOM     14  O2  UNL A   1      21.918  30.551  44.467  1.00  0.00    +0.000 O 
BRANCH   13   12
ATOM    116  H18 UNL A   1      20.010  32.504  45.511  1.00  0.00    +0.000 H 
ATOM     12  N2  UNL A   1      20.351  32.150  44.658  1.00  0.00    +0.000 N 
BRANCH   12   11
ATOM    114  H16 UNL A   1      19.893  31.824  42.669  1.00  0.00    +0.000 H 
ATOM     11  C9  UNL A   1      19.395  32.149  43.560  1.00  0.00    +0.000 C 
ATOM    115  H17 UNL A   1      18.595  31.488  43.820  1.00  0.00    +0.000 H 
BRANCH   11   10
ATOM    113  H15 UNL A   1      19.376  33.969  42.524  1.00  0.00    +0.000 H 
ATOM     10  C8  UNL A   1      18.800  33.533  43.314  1.00  0.00    +0.000 C 
ATOM    112  H14 UNL A   1      18.853  34.084  44.230  1.00  0.00    +0.000 H 
BRANCH   10    9
ATOM      9  C7  UNL A   1      17.346  33.537  42.839  1.00  0.00    +0.000 C 
ATOM    110  H12 UNL A   1      16.803  34.240  43.436  1.00  0.00    +0.000 H 
ATOM    111  H13 UNL A   1      17.372  33.792  41.799  1.00  0.00    +0.000 H 
BRANCH    9    8
ATOM    108  H10 UNL A   1      15.893  32.149  42.158  1.00  0.00    +0.000 H 
ATOM    109  H11 UNL A   1      17.394  31.440  42.825  1.00  0.00    +0.000 H 
ATOM      8  C6  UNL A   1      16.634  32.186  42.929  1.00  0.00    +0.000 C 
BRANCH    8    7
ATOM    106  H8  UNL A   1      16.485  32.411  45.039  1.00  0.00    +0.000 H 
ATOM    107  H9  UNL A   1      14.935  32.256  44.170  1.00  0.00    +0.000 H 
ATOM      7  C5  UNL A   1      15.941  31.906  44.268  1.00  0.00    +0.000 C 
BRANCH    7    6
ATOM    105  H7  UNL A   1      14.831  30.177  44.842  1.00  0.00    +0.000 H 
ATOM      6  C4  UNL A   1      15.853  30.420  44.638  1.00  0.00    +0.000 C 
ATOM    104  H6  UNL A   1      16.459  30.237  45.501  1.00  0.00    +0.000 H 
BRANCH    6    5
ATOM      5  N1  UNL A   1      16.319  29.591  43.545  1.00  0.00    +0.000 N 
ATOM    103  H5  UNL A   1      16.603  30.060  42.727  1.00  0.00    +0.000 H 
BRANCH    5    3
ATOM      3  C3  UNL A   1      16.406  28.225  43.531  1.00  0.00    +0.000 C 
ATOM      4  O1  UNL A   1      17.529  27.735  43.660  1.00  0.00    +0.000 O 
BRANCH    3    2
ATOM      2  C2  UNL A   1      15.125  27.395  43.331  1.00  0.00    +0.000 C 
ATOM    102  H4  UNL A   1      14.284  28.051  43.413  1.00  0.00    +0.000 H 
BRANCH    2    1
ATOM      1  C1  UNL A   1      15.066  26.325  44.435  1.00  0.00    +0.000 C 
ATOM     99  H1  UNL A   1      16.058  26.109  44.775  1.00  0.00    +0.000 H 
ATOM    100  H2  UNL A   1      14.620  25.434  44.044  1.00  0.00    +0.000 H 
ATOM    101  H3  UNL A   1      14.480  26.688  45.253  1.00  0.00    +0.000 H 
ENDBRANCH    2    1
BRANCH    2   78
ATOM    131  H33 UNL A   1      15.149  28.609  40.872  1.00  0.00    +0.000 H 
ATOM    132  H34 UNL A   1      15.156  27.620  38.658  1.00  0.00    +0.000 H 
ATOM    133  H35 UNL A   1      15.397  25.908  36.506  1.00  0.00    +0.000 H 
ATOM    134  H36 UNL A   1      14.643  21.853  35.736  1.00  0.00    +0.000 H 
ATOM    135  H37 UNL A   1      14.184  21.458  38.095  1.00  0.00    +0.000 H 
ATOM    138  H40 UNL A   1      14.547  24.830  42.592  1.00  0.00    +0.000 H 
ATOM     78  C55 UNL A   1      14.982  26.793  41.923  1.00  0.00    +0.000 C 
ATOM     79  C56 UNL A   1      15.069  27.584  40.773  1.00  0.00    +0.000 C 
ATOM     80  C57 UNL A   1      15.051  27.020  39.490  1.00  0.00    +0.000 C 
ATOM     81  C58 UNL A   1      14.890  25.628  39.341  1.00  0.00    +0.000 C 
ATOM     82  C59 UNL A   1      14.917  24.749  38.225  1.00  0.00    +0.000 C 
ATOM     83  C60 UNL A   1      15.159  24.964  36.851  1.00  0.00    +0.000 C 
ATOM     84  C61 UNL A   1      15.072  23.896  35.964  1.00  0.00    +0.000 C 
ATOM     85 Cl1  UNL A   1      15.383  24.156  34.290  1.00  0.00    +0.000 Cl
ATOM     86  C62 UNL A   1      14.722  22.630  36.411  1.00  0.00    +0.000 C 
ATOM     87  C63 UNL A   1      14.471  22.394  37.769  1.00  0.00    +0.000 C 
ATOM     88  C64 UNL A   1      14.621  23.457  38.685  1.00  0.00    +0.000 C 
ATOM     89  N7  UNL A   1      14.456  23.531  40.071  1.00  0.00    +0.000 N 
ATOM     97  C69 UNL A   1      14.662  24.857  40.473  1.00  0.00    +0.000 C 
ATOM     98  C70 UNL A   1      14.711  25.424  41.763  1.00  0.00    +0.000 C 
BRANCH   89   90
ATOM     90  C65 UNL A   1      14.120  22.484  40.970  1.00  0.00    +0.000 C 
ATOM     91  O3  UNL A   1      14.822  22.407  41.987  1.00  0.00    +0.000 O 
BRANCH   90   92
ATOM    136  H38 UNL A   1      11.841  22.287  39.166  1.00  0.00    +0.000 H 
ATOM    137  H39 UNL A   1      11.769  18.681  41.142  1.00  0.00    +0.000 H 
ATOM     92  C66 UNL A   1      13.072  21.497  40.748  1.00  0.00    +0.000 C 
ATOM     93  C67 UNL A   1      12.054  21.513  39.814  1.00  0.00    +0.000 C 
ATOM     94  O4  UNL A   1      11.379  20.329  39.895  1.00  0.00    +0.000 O 
ATOM     95  C68 UNL A   1      12.038  19.637  40.861  1.00  0.00    +0.000 C 
ATOM     96  N8  UNL A   1      13.043  20.275  41.406  1.00  0.00    +0.000 N 
ENDBRANCH   90   92
ENDBRANCH   89   90
ENDBRANCH    2   78
ENDBRANCH    3    2
ENDBRANCH    5    3
ENDBRANCH    6    5
ENDBRANCH    7    6
ENDBRANCH    8    7
ENDBRANCH    9    8
ENDBRANCH   10    9
ENDBRANCH   11   10
ENDBRANCH   12   11
ENDBRANCH   13   12
ENDBRANCH   15   13
ENDBRANCH   19   18
BRANCH   23   24
ATOM     33  C24 UNL A   1      31.223  36.070  41.628  1.00  0.00    +0.000 C 
ATOM     34  F5  UNL A   1      30.541  37.161  41.250  1.00  0.00    +0.000 F 
ATOM     24  C19 UNL A   1      31.188  35.640  42.963  1.00  0.00    +0.000 C 
ATOM     25  C20 UNL A   1      31.915  34.490  43.303  1.00  0.00    +0.000 C 
ATOM     26  F1  UNL A   1      31.923  34.046  44.569  1.00  0.00    +0.000 F 
ATOM     27  C21 UNL A   1      32.664  33.807  42.349  1.00  0.00    +0.000 C 
ATOM     28  F2  UNL A   1      33.381  32.732  42.704  1.00  0.00    +0.000 F 
ATOM     29  C22 UNL A   1      32.676  34.242  41.032  1.00  0.00    +0.000 C 
ATOM     30  F3  UNL A   1      33.390  33.578  40.111  1.00  0.00    +0.000 F 
ATOM     31  C23 UNL A   1      31.952  35.369  40.670  1.00  0.00    +0.000 C 
ATOM     32  F4  UNL A   1      31.955  35.784  39.396  1.00  0.00    +0.000 F 
ENDBRANCH   23   24
BRANCH   40   41
ATOM     41  C30 UNL A   1      31.622  41.537  47.094  1.00  0.00    +0.000 C 
ATOM     42  C31 UNL A   1      32.779  41.352  47.866  1.00  0.00    +0.000 C 
ATOM     43  F6  UNL A   1      33.030  40.161  48.430  1.00  0.00    +0.000 F 
ATOM     44  C32 UNL A   1      33.657  42.405  48.101  1.00  0.00    +0.000 C 
ATOM     45  F7  UNL A   1      34.728  42.220  48.884  1.00  0.00    +0.000 F 
ATOM     46  C33 UNL A   1      33.415  43.651  47.542  1.00  0.00    +0.000 C 
ATOM     47  F8  UNL A   1      34.261  44.665  47.770  1.00  0.00    +0.000 F 
ATOM     48  C34 UNL A   1      32.290  43.850  46.755  1.00  0.00    +0.000 C 
ATOM     49  F9  UNL A   1      32.060  45.051  46.207  1.00  0.00    +0.000 F 
ATOM     50  C35 UNL A   1      31.395  42.805  46.540  1.00  0.00    +0.000 C 
ATOM     51  F10 UNL A   1      30.307  43.031  45.789  1.00  0.00    +0.000 F 
ENDBRANCH   40   41
BRANCH   55   56
ATOM     65  C44 UNL A   1      24.443  41.061  49.419  1.00  0.00    +0.000 C 
ATOM     66  F15 UNL A   1      24.324  41.463  48.145  1.00  0.00    +0.000 F 
ATOM     56  C39 UNL A   1      25.365  40.061  49.756  1.00  0.00    +0.000 C 
ATOM     57  C40 UNL A   1      25.456  39.682  51.102  1.00  0.00    +0.000 C 
ATOM     58  F11 UNL A   1      26.311  38.715  51.470  1.00  0.00    +0.000 F 
ATOM     59  C41 UNL A   1      24.639  40.262  52.070  1.00  0.00    +0.000 C 
ATOM     60  F12 UNL A   1      24.712  39.848  53.342  1.00  0.00    +0.000 F 
ATOM     61  C42 UNL A   1      23.737  41.254  51.715  1.00  0.00    +0.000 C 
ATOM     62  F13 UNL A   1      22.951  41.812  52.644  1.00  0.00    +0.000 F 
ATOM     63  C43 UNL A   1      23.645  41.660  50.391  1.00  0.00    +0.000 C 
ATOM     64  F14 UNL A   1      22.785  42.628  50.045  1.00  0.00    +0.000 F 
ENDBRANCH   55   56
TORSDOF 19
ENDMDL
MODEL 8
REMARK VINA RESULT:     -11.9     42.432     46.226
ROOT
ATOM     19  C15 UNL A   1      14.280  54.064   4.230  1.00  0.00    +0.000 C 
ATOM     20  C16 UNL A   1      15.286  54.440   3.180  1.00  0.00    +0.000 C 
ATOM     21  N3  UNL A   1      15.781  53.711   2.210  1.00  0.00    +0.000 N 
ATOM     22  C17 UNL A   1      16.650  54.542   1.517  1.00  0.00    +0.000 C 
ATOM     23  C18 UNL A   1      17.457  54.238   0.472  1.00  0.00    +0.000 C 
ATOM     35  C25 UNL A   1      17.541  52.938  -0.141  1.00  0.00    +0.000 C 
ATOM     36  C26 UNL A   1      18.351  52.524  -1.184  1.00  0.00    +0.000 C 
ATOM     37  C27 UNL A   1      18.067  51.180  -1.452  1.00  0.00    +0.000 C 
ATOM     38  C28 UNL A   1      17.108  50.747  -0.552  1.00  0.00    +0.000 C 
ATOM     39  N4  UNL A   1      16.787  51.838   0.240  1.00  0.00    +0.000 N 
ATOM     40  C29 UNL A   1      16.528  49.437  -0.419  1.00  0.00    +0.000 C 
ATOM     52  C36 UNL A   1      15.582  49.093   0.488  1.00  0.00    +0.000 C 
ATOM     53  N5  UNL A   1      14.971  49.880   1.454  1.00  0.00    +0.000 N 
ATOM     54  C37 UNL A   1      14.108  49.102   2.060  1.00  0.00    +0.000 C 
ATOM     55  C38 UNL A   1      13.185  49.419   3.203  1.00  0.00    +0.000 C 
ATOM     67  C45 UNL A   1      13.218  50.646   3.756  1.00  0.00    +0.000 C 
ATOM     68  C46 UNL A   1      12.415  51.085   4.892  1.00  0.00    +0.000 C 
ATOM     69  C47 UNL A   1      12.708  52.367   5.166  1.00  0.00    +0.000 C 
ATOM     70  C48 UNL A   1      13.736  52.832   4.234  1.00  0.00    +0.000 C 
ATOM     71  N6  UNL A   1      13.970  51.747   3.427  1.00  0.00    +0.000 N 
ATOM     72  C49 UNL A   1      14.064  47.731   1.534  1.00  0.00    +0.000 C 
ATOM     73  C50 UNL A   1      15.010  47.767   0.608  1.00  0.00    +0.000 C 
ATOM     74  C51 UNL A   1      16.577  55.846   2.142  1.00  0.00    +0.000 C 
ATOM     75  C52 UNL A   1      15.790  55.822   3.207  1.00  0.00    +0.000 C 
ATOM    119  H21 UNL A   1      19.045  53.105  -1.678  1.00  0.00    +0.000 H 
ATOM    120  H22 UNL A   1      18.498  50.609  -2.196  1.00  0.00    +0.000 H 
ATOM    121  H23 UNL A   1      16.122  51.833   0.967  1.00  0.00    +0.000 H 
ATOM    122  H24 UNL A   1      11.731  50.505   5.403  1.00  0.00    +0.000 H 
ATOM    123  H25 UNL A   1      12.276  52.934   5.913  1.00  0.00    +0.000 H 
ATOM    124  H26 UNL A   1      14.616  51.757   2.684  1.00  0.00    +0.000 H 
ATOM    125  H27 UNL A   1      13.455  46.945   1.813  1.00  0.00    +0.000 H 
ATOM    126  H28 UNL A   1      15.304  46.955   0.043  1.00  0.00    +0.000 H 
ATOM    127  H29 UNL A   1      17.072  56.685   1.800  1.00  0.00    +0.000 H 
ATOM    128  H30 UNL A   1      15.585  56.576   3.882  1.00  0.00    +0.000 H 
ENDROOT
BRANCH   19   18
ATOM    129  H31 UNL A   1      12.221  55.798   4.132  1.00  0.00    +0.000 H 
ATOM    130  H32 UNL A   1      11.572  57.460   5.774  1.00  0.00    +0.000 H 
ATOM     76  C53 UNL A   1      12.744  55.877   5.018  1.00  0.00    +0.000 C 
ATOM     77  C54 UNL A   1      12.345  56.809   5.977  1.00  0.00    +0.000 C 
ATOM     15  C11 UNL A   1      12.996  56.858   7.215  1.00  0.00    +0.000 C 
ATOM     16  C12 UNL A   1      14.112  56.050   7.452  1.00  0.00    +0.000 C 
ATOM     17  C13 UNL A   1      14.547  55.162   6.469  1.00  0.00    +0.000 C 
ATOM     18  C14 UNL A   1      13.852  55.050   5.253  1.00  0.00    +0.000 C 
ATOM    117  H19 UNL A   1      14.613  56.110   8.352  1.00  0.00    +0.000 H 
ATOM    118  H20 UNL A   1      15.385  54.583   6.635  1.00  0.00    +0.000 H 
BRANCH   15   13
ATOM     13  C10 UNL A   1      12.557  57.786   8.284  1.00  0.00    +0.000 C 
ATOM     14  O2  UNL A   1      12.839  58.978   8.203  1.00  0.00    +0.000 O 
BRANCH   13   12
ATOM    116  H18 UNL A   1      12.158  57.655  10.235  1.00  0.00    +0.000 H 
ATOM     12  N2  UNL A   1      11.853  57.324   9.360  1.00  0.00    +0.000 N 
BRANCH   12   11
ATOM    114  H16 UNL A   1      10.122  56.644  10.260  1.00  0.00    +0.000 H 
ATOM     11  C9  UNL A   1      10.719  56.413   9.402  1.00  0.00    +0.000 C 
ATOM    115  H17 UNL A   1      10.162  56.537   8.497  1.00  0.00    +0.000 H 
BRANCH   11   10
ATOM    113  H15 UNL A   1      11.948  54.920  10.207  1.00  0.00    +0.000 H 
ATOM     10  C8  UNL A   1      11.157  54.953   9.488  1.00  0.00    +0.000 C 
ATOM    112  H14 UNL A   1      11.460  54.640   8.510  1.00  0.00    +0.000 H 
BRANCH   10    9
ATOM      9  C7  UNL A   1      10.083  53.983   9.986  1.00  0.00    +0.000 C 
ATOM    110  H12 UNL A   1       9.428  54.520  10.641  1.00  0.00    +0.000 H 
ATOM    111  H13 UNL A   1       9.593  53.604   9.113  1.00  0.00    +0.000 H 
BRANCH    9    8
ATOM    108  H10 UNL A   1      10.528  51.912  10.100  1.00  0.00    +0.000 H 
ATOM    109  H11 UNL A   1      11.625  52.995  11.008  1.00  0.00    +0.000 H 
ATOM      8  C6  UNL A   1      10.614  52.764  10.742  1.00  0.00    +0.000 C 
BRANCH    8    7
ATOM    106  H8  UNL A   1       9.831  53.345  12.632  1.00  0.00    +0.000 H 
ATOM    107  H9  UNL A   1       8.926  52.062  11.785  1.00  0.00    +0.000 H 
ATOM      7  C5  UNL A   1       9.887  52.446  12.054  1.00  0.00    +0.000 C 
BRANCH    7    6
ATOM    105  H7  UNL A   1      11.160  50.748  12.272  1.00  0.00    +0.000 H 
ATOM      6  C4  UNL A   1      10.565  51.368  12.909  1.00  0.00    +0.000 C 
ATOM    104  H6  UNL A   1       9.813  50.786  13.400  1.00  0.00    +0.000 H 
BRANCH    6    5
ATOM      5  N1  UNL A   1      11.426  51.971  13.907  1.00  0.00    +0.000 N 
ATOM    103  H5  UNL A   1      10.981  52.497  14.612  1.00  0.00    +0.000 H 
BRANCH    5    3
ATOM      3  C3  UNL A   1      12.791  51.887  13.973  1.00  0.00    +0.000 C 
ATOM      4  O1  UNL A   1      13.262  50.965  14.640  1.00  0.00    +0.000 O 
BRANCH    3    2
ATOM      2  C2  UNL A   1      13.642  52.946  13.249  1.00  0.00    +0.000 C 
ATOM    102  H4  UNL A   1      14.586  53.015  13.746  1.00  0.00    +0.000 H 
BRANCH    2    1
ATOM      1  C1  UNL A   1      12.906  54.294  13.329  1.00  0.00    +0.000 C 
ATOM     99  H1  UNL A   1      13.474  55.041  12.815  1.00  0.00    +0.000 H 
ATOM    100  H2  UNL A   1      12.791  54.577  14.355  1.00  0.00    +0.000 H 
ATOM    101  H3  UNL A   1      11.941  54.202  12.875  1.00  0.00    +0.000 H 
ENDBRANCH    2    1
BRANCH    2   78
ATOM    131  H33 UNL A   1      14.137  54.535  11.069  1.00  0.00    +0.000 H 
ATOM    132  H34 UNL A   1      14.954  53.932   8.867  1.00  0.00    +0.000 H 
ATOM    133  H35 UNL A   1      16.106  52.645   6.714  1.00  0.00    +0.000 H 
ATOM    134  H36 UNL A   1      16.361  48.705   5.295  1.00  0.00    +0.000 H 
ATOM    135  H37 UNL A   1      15.333  47.869   7.339  1.00  0.00    +0.000 H 
ATOM    138  H40 UNL A   1      13.779  50.481  12.082  1.00  0.00    +0.000 H 
ATOM     78  C55 UNL A   1      14.017  52.567  11.806  1.00  0.00    +0.000 C 
ATOM     79  C56 UNL A   1      14.279  53.540  10.835  1.00  0.00    +0.000 C 
ATOM     80  C57 UNL A   1      14.729  53.195   9.554  1.00  0.00    +0.000 C 
ATOM     81  C58 UNL A   1      14.877  51.837   9.206  1.00  0.00    +0.000 C 
ATOM     82  C59 UNL A   1      15.380  51.165   8.059  1.00  0.00    +0.000 C 
ATOM     83  C60 UNL A   1      15.957  51.634   6.860  1.00  0.00    +0.000 C 
ATOM     84  C61 UNL A   1      16.324  50.723   5.874  1.00  0.00    +0.000 C 
ATOM     85 Cl1  UNL A   1      17.043  51.294   4.417  1.00  0.00    +0.000 Cl
ATOM     86  C62 UNL A   1      16.101  49.364   6.046  1.00  0.00    +0.000 C 
ATOM     87  C63 UNL A   1      15.523  48.877   7.226  1.00  0.00    +0.000 C 
ATOM     88  C64 UNL A   1      15.209  49.787   8.257  1.00  0.00    +0.000 C 
ATOM     89  N7  UNL A   1      14.647  49.610   9.525  1.00  0.00    +0.000 N 
ATOM     97  C69 UNL A   1      14.483  50.868  10.118  1.00  0.00    +0.000 C 
ATOM     98  C70 UNL A   1      14.059  51.218  11.416  1.00  0.00    +0.000 C 
BRANCH   89   90
ATOM     90  C65 UNL A   1      14.269  48.394  10.153  1.00  0.00    +0.000 C 
ATOM     91  O3  UNL A   1      15.048  47.975  11.020  1.00  0.00    +0.000 O 
BRANCH   90   92
ATOM    136  H38 UNL A   1      11.394  48.817  10.364  1.00  0.00    +0.000 H 
ATOM    137  H39 UNL A   1      11.654  45.191   8.440  1.00  0.00    +0.000 H 
ATOM     92  C66 UNL A   1      13.091  47.609   9.811  1.00  0.00    +0.000 C 
ATOM     93  C67 UNL A   1      11.758  47.953   9.933  1.00  0.00    +0.000 C 
ATOM     94  O4  UNL A   1      11.005  46.955   9.384  1.00  0.00    +0.000 O 
ATOM     95  C68 UNL A   1      11.921  46.061   8.929  1.00  0.00    +0.000 C 
ATOM     96  N8  UNL A   1      13.169  46.387   9.157  1.00  0.00    +0.000 N 
ENDBRANCH   90   92
ENDBRANCH   89   90
ENDBRANCH    2   78
ENDBRANCH    3    2
ENDBRANCH    5    3
ENDBRANCH    6    5
ENDBRANCH    7    6
ENDBRANCH    8    7
ENDBRANCH    9    8
ENDBRANCH   10    9
ENDBRANCH   11   10
ENDBRANCH   12   11
ENDBRANCH   13   12
ENDBRANCH   15   13
ENDBRANCH   19   18
BRANCH   23   24
ATOM     33  C24 UNL A   1      18.054  55.930  -1.305  1.00  0.00    +0.000 C 
ATOM     34  F5  UNL A   1      16.972  55.561  -2.006  1.00  0.00    +0.000 F 
ATOM     24  C19 UNL A   1      18.333  55.331  -0.067  1.00  0.00    +0.000 C 
ATOM     25  C20 UNL A   1      19.480  55.751   0.622  1.00  0.00    +0.000 C 
ATOM     26  F1  UNL A   1      19.784  55.217   1.815  1.00  0.00    +0.000 F 
ATOM     27  C21 UNL A   1      20.305  56.745   0.103  1.00  0.00    +0.000 C 
ATOM     28  F2  UNL A   1      21.376  57.156   0.797  1.00  0.00    +0.000 F 
ATOM     29  C22 UNL A   1      20.017  57.316  -1.127  1.00  0.00    +0.000 C 
ATOM     30  F3  UNL A   1      20.818  58.266  -1.631  1.00  0.00    +0.000 F 
ATOM     31  C23 UNL A   1      18.896  56.905  -1.834  1.00  0.00    +0.000 C 
ATOM     32  F4  UNL A   1      18.622  57.449  -3.027  1.00  0.00    +0.000 F 
ENDBRANCH   23   24
BRANCH   40   41
ATOM     41  C30 UNL A   1      17.011  48.356  -1.341  1.00  0.00    +0.000 C 
ATOM     42  C31 UNL A   1      18.122  47.563  -1.019  1.00  0.00    +0.000 C 
ATOM     43  F6  UNL A   1      18.802  47.782   0.116  1.00  0.00    +0.000 F 
ATOM     44  C32 UNL A   1      18.568  46.572  -1.888  1.00  0.00    +0.000 C 
ATOM     45  F7  UNL A   1      19.663  45.861  -1.586  1.00  0.00    +0.000 F 
ATOM     46  C33 UNL A   1      17.893  46.333  -3.076  1.00  0.00    +0.000 C 
ATOM     47  F8  UNL A   1      18.325  45.379  -3.913  1.00  0.00    +0.000 F 
ATOM     48  C34 UNL A   1      16.777  47.089  -3.403  1.00  0.00    +0.000 C 
ATOM     49  F9  UNL A   1      16.119  46.852  -4.545  1.00  0.00    +0.000 F 
ATOM     50  C35 UNL A   1      16.344  48.099  -2.547  1.00  0.00    +0.000 C 
ATOM     51  F10 UNL A   1      15.273  48.826  -2.897  1.00  0.00    +0.000 F 
ENDBRANCH   40   41
BRANCH   55   56
ATOM     65  C44 UNL A   1      10.889  48.423   3.459  1.00  0.00    +0.000 C 
ATOM     66  F15 UNL A   1      10.384  49.406   2.700  1.00  0.00    +0.000 F 
ATOM     56  C39 UNL A   1      12.261  48.389   3.744  1.00  0.00    +0.000 C 
ATOM     57  C40 UNL A   1      12.737  47.344   4.548  1.00  0.00    +0.000 C 
ATOM     58  F11 UNL A   1      14.046  47.259   4.831  1.00  0.00    +0.000 F 
ATOM     59  C41 UNL A   1      11.879  46.358   5.028  1.00  0.00    +0.000 C 
ATOM     60  F12 UNL A   1      12.366  45.344   5.755  1.00  0.00    +0.000 F 
ATOM     61  C42 UNL A   1      10.523  46.414   4.739  1.00  0.00    +0.000 C 
ATOM     62  F13 UNL A   1       9.698  45.466   5.200  1.00  0.00    +0.000 F 
ATOM     63  C43 UNL A   1      10.027  47.451   3.963  1.00  0.00    +0.000 C 
ATOM     64  F14 UNL A   1       8.716  47.517   3.691  1.00  0.00    +0.000 F 
ENDBRANCH   55   56
TORSDOF 19
ENDMDL
MODEL 9
REMARK VINA RESULT:     -11.8      1.708      7.452
ROOT
ATOM     19  C15 UNL A   1      25.879  36.395  45.579  1.00  0.00    +0.000 C 
ATOM     20  C16 UNL A   1      27.207  36.203  44.904  1.00  0.00    +0.000 C 
ATOM     21  N3  UNL A   1      28.322  36.872  45.067  1.00  0.00    +0.000 N 
ATOM     22  C17 UNL A   1      29.248  36.277  44.220  1.00  0.00    +0.000 C 
ATOM     23  C18 UNL A   1      30.528  36.647  43.975  1.00  0.00    +0.000 C 
ATOM     35  C25 UNL A   1      31.185  37.766  44.596  1.00  0.00    +0.000 C 
ATOM     36  C26 UNL A   1      32.470  38.239  44.390  1.00  0.00    +0.000 C 
ATOM     37  C27 UNL A   1      32.675  39.335  45.236  1.00  0.00    +0.000 C 
ATOM     38  C28 UNL A   1      31.506  39.568  45.941  1.00  0.00    +0.000 C 
ATOM     39  N4  UNL A   1      30.604  38.592  45.547  1.00  0.00    +0.000 N 
ATOM     40  C29 UNL A   1      31.228  40.604  46.901  1.00  0.00    +0.000 C 
ATOM     52  C36 UNL A   1      30.054  40.761  47.558  1.00  0.00    +0.000 C 
ATOM     53  N5  UNL A   1      28.898  39.998  47.475  1.00  0.00    +0.000 N 
ATOM     54  C37 UNL A   1      28.053  40.530  48.324  1.00  0.00    +0.000 C 
ATOM     55  C38 UNL A   1      26.638  40.127  48.633  1.00  0.00    +0.000 C 
ATOM     67  C45 UNL A   1      26.082  39.104  47.958  1.00  0.00    +0.000 C 
ATOM     68  C46 UNL A   1      24.712  38.628  48.118  1.00  0.00    +0.000 C 
ATOM     69  C47 UNL A   1      24.509  37.592  47.287  1.00  0.00    +0.000 C 
ATOM     70  C48 UNL A   1      25.731  37.348  46.519  1.00  0.00    +0.000 C 
ATOM     71  N6  UNL A   1      26.615  38.285  46.992  1.00  0.00    +0.000 N 
ATOM     72  C49 UNL A   1      28.586  41.687  49.055  1.00  0.00    +0.000 C 
ATOM     73  C50 UNL A   1      29.792  41.812  48.521  1.00  0.00    +0.000 C 
ATOM     74  C51 UNL A   1      28.582  35.160  43.584  1.00  0.00    +0.000 C 
ATOM     75  C52 UNL A   1      27.305  35.104  43.931  1.00  0.00    +0.000 C 
ATOM    119  H21 UNL A   1      33.158  37.850  43.727  1.00  0.00    +0.000 H 
ATOM    120  H22 UNL A   1      33.549  39.876  45.321  1.00  0.00    +0.000 H 
ATOM    121  H23 UNL A   1      29.685  38.501  45.890  1.00  0.00    +0.000 H 
ATOM    122  H24 UNL A   1      24.014  39.022  48.767  1.00  0.00    +0.000 H 
ATOM    123  H25 UNL A   1      23.631  37.056  47.204  1.00  0.00    +0.000 H 
ATOM    124  H26 UNL A   1      27.541  38.363  46.668  1.00  0.00    +0.000 H 
ATOM    125  H27 UNL A   1      28.139  42.255  49.792  1.00  0.00    +0.000 H 
ATOM    126  H28 UNL A   1      30.460  42.561  48.759  1.00  0.00    +0.000 H 
ATOM    127  H29 UNL A   1      29.044  34.493  42.946  1.00  0.00    +0.000 H 
ATOM    128  H30 UNL A   1      26.569  34.458  43.603  1.00  0.00    +0.000 H 
ENDROOT
BRANCH   19   18
ATOM    129  H31 UNL A   1      25.357  33.899  46.447  1.00  0.00    +0.000 H 
ATOM    130  H32 UNL A   1      23.514  32.446  45.835  1.00  0.00    +0.000 H 
ATOM     76  C53 UNL A   1      24.628  34.237  45.798  1.00  0.00    +0.000 C 
ATOM     77  C54 UNL A   1      23.549  33.413  45.478  1.00  0.00    +0.000 C 
ATOM     15  C11 UNL A   1      22.515  33.900  44.671  1.00  0.00    +0.000 C 
ATOM     16  C12 UNL A   1      22.613  35.172  44.099  1.00  0.00    +0.000 C 
ATOM     17  C13 UNL A   1      23.722  35.971  44.372  1.00  0.00    +0.000 C 
ATOM     18  C14 UNL A   1      24.728  35.521  45.244  1.00  0.00    +0.000 C 
ATOM    117  H19 UNL A   1      21.867  35.519  43.477  1.00  0.00    +0.000 H 
ATOM    118  H20 UNL A   1      23.806  36.901  43.931  1.00  0.00    +0.000 H 
BRANCH   15   13
ATOM     13  C10 UNL A   1      21.320  33.079  44.365  1.00  0.00    +0.000 C 
ATOM     14  O2  UNL A   1      21.464  31.947  43.913  1.00  0.00    +0.000 O 
BRANCH   13   12
ATOM    116  H18 UNL A   1      19.935  34.050  45.424  1.00  0.00    +0.000 H 
ATOM     12  N2  UNL A   1      20.064  33.576  44.571  1.00  0.00    +0.000 N 
BRANCH   12   11
ATOM    114  H16 UNL A   1      18.029  33.796  44.285  1.00  0.00    +0.000 H 
ATOM     11  C9  UNL A   1      18.888  33.506  43.716  1.00  0.00    +0.000 C 
ATOM    115  H17 UNL A   1      19.044  34.165  42.887  1.00  0.00    +0.000 H 
BRANCH   11   10
ATOM    113  H15 UNL A   1      19.421  31.485  43.595  1.00  0.00    +0.000 H 
ATOM     10  C8  UNL A   1      18.661  32.102  43.163  1.00  0.00    +0.000 C 
ATOM    112  H14 UNL A   1      18.713  32.153  42.095  1.00  0.00    +0.000 H 
BRANCH   10    9
ATOM      9  C7  UNL A   1      17.323  31.465  43.544  1.00  0.00    +0.000 C 
ATOM    110  H12 UNL A   1      17.210  31.539  44.606  1.00  0.00    +0.000 H 
ATOM    111  H13 UNL A   1      16.572  31.999  42.999  1.00  0.00    +0.000 H 
BRANCH    9    8
ATOM    108  H10 UNL A   1      16.688  29.953  42.199  1.00  0.00    +0.000 H 
ATOM    109  H11 UNL A   1      18.161  29.585  43.143  1.00  0.00    +0.000 H 
ATOM      8  C6  UNL A   1      17.172  29.994  43.152  1.00  0.00    +0.000 C 
BRANCH    8    7
ATOM    106  H8  UNL A   1      16.426  29.592  45.102  1.00  0.00    +0.000 H 
ATOM    107  H9  UNL A   1      15.364  29.103  43.755  1.00  0.00    +0.000 H 
ATOM      7  C5  UNL A   1      16.363  29.140  44.134  1.00  0.00    +0.000 C 
BRANCH    7    6
ATOM    105  H7  UNL A   1      17.484  27.604  45.102  1.00  0.00    +0.000 H 
ATOM      6  C4  UNL A   1      16.839  27.687  44.252  1.00  0.00    +0.000 C 
ATOM    104  H6  UNL A   1      17.363  27.416  43.359  1.00  0.00    +0.000 H 
BRANCH    6    5
ATOM      5  N1  UNL A   1      15.714  26.791  44.434  1.00  0.00    +0.000 N 
ATOM    103  H5  UNL A   1      15.650  26.336  45.305  1.00  0.00    +0.000 H 
BRANCH    5    3
ATOM      3  C3  UNL A   1      14.732  26.512  43.522  1.00  0.00    +0.000 C 
ATOM      4  O1  UNL A   1      13.570  26.726  43.869  1.00  0.00    +0.000 O 
BRANCH    3    2
ATOM      2  C2  UNL A   1      15.126  25.931  42.151  1.00  0.00    +0.000 C 
ATOM    102  H4  UNL A   1      16.181  25.753  42.153  1.00  0.00    +0.000 H 
BRANCH    2    1
ATOM      1  C1  UNL A   1      14.770  26.964  41.069  1.00  0.00    +0.000 C 
ATOM     99  H1  UNL A   1      14.151  26.504  40.328  1.00  0.00    +0.000 H 
ATOM    100  H2  UNL A   1      15.668  27.324  40.611  1.00  0.00    +0.000 H 
ATOM    101  H3  UNL A   1      14.245  27.783  41.516  1.00  0.00    +0.000 H 
ENDBRANCH    2    1
BRANCH    2   78
ATOM    131  H33 UNL A   1      13.618  24.284  43.743  1.00  0.00    +0.000 H 
ATOM    132  H34 UNL A   1      12.483  22.213  43.191  1.00  0.00    +0.000 H 
ATOM    133  H35 UNL A   1      11.264  20.111  41.881  1.00  0.00    +0.000 H 
ATOM    134  H36 UNL A   1      11.872  17.969  38.325  1.00  0.00    +0.000 H 
ATOM    135  H37 UNL A   1      13.601  19.540  37.637  1.00  0.00    +0.000 H 
ATOM    138  H40 UNL A   1      15.454  24.319  39.971  1.00  0.00    +0.000 H 
ATOM     78  C55 UNL A   1      14.524  24.546  41.861  1.00  0.00    +0.000 C 
ATOM     79  C56 UNL A   1      13.733  23.877  42.801  1.00  0.00    +0.000 C 
ATOM     80  C57 UNL A   1      13.094  22.668  42.494  1.00  0.00    +0.000 C 
ATOM     81  C58 UNL A   1      13.285  22.077  41.229  1.00  0.00    +0.000 C 
ATOM     82  C59 UNL A   1      12.732  20.938  40.583  1.00  0.00    +0.000 C 
ATOM     83  C60 UNL A   1      11.748  20.006  40.975  1.00  0.00    +0.000 C 
ATOM     84  C61 UNL A   1      11.436  18.943  40.133  1.00  0.00    +0.000 C 
ATOM     85 Cl1  UNL A   1      10.223  17.815  40.606  1.00  0.00    +0.000 Cl
ATOM     86  C62 UNL A   1      12.103  18.774  38.928  1.00  0.00    +0.000 C 
ATOM     87  C63 UNL A   1      13.088  19.684  38.520  1.00  0.00    +0.000 C 
ATOM     88  C64 UNL A   1      13.364  20.800  39.338  1.00  0.00    +0.000 C 
ATOM     89  N7  UNL A   1      14.263  21.863  39.201  1.00  0.00    +0.000 N 
ATOM     97  C69 UNL A   1      14.181  22.665  40.346  1.00  0.00    +0.000 C 
ATOM     98  C70 UNL A   1      14.799  23.895  40.647  1.00  0.00    +0.000 C 
BRANCH   89   90
ATOM     90  C65 UNL A   1      15.146  22.129  38.121  1.00  0.00    +0.000 C 
ATOM     91  O3  UNL A   1      16.155  21.414  38.066  1.00  0.00    +0.000 O 
BRANCH   90   92
ATOM    136  H38 UNL A   1      14.530  24.973  38.273  1.00  0.00    +0.000 H 
ATOM    137  H39 UNL A   1      15.151  24.377  34.252  1.00  0.00    +0.000 H 
ATOM     92  C66 UNL A   1      14.970  23.192  37.141  1.00  0.00    +0.000 C 
ATOM     93  C67 UNL A   1      14.712  24.532  37.358  1.00  0.00    +0.000 C 
ATOM     94  O4  UNL A   1      14.740  25.175  36.153  1.00  0.00    +0.000 O 
ATOM     95  C68 UNL A   1      15.041  24.195  35.262  1.00  0.00    +0.000 C 
ATOM     96  N8  UNL A   1      15.182  23.002  35.783  1.00  0.00    +0.000 N 
ENDBRANCH   90   92
ENDBRANCH   89   90
ENDBRANCH    2   78
ENDBRANCH    3    2
ENDBRANCH    5    3
ENDBRANCH    6    5
ENDBRANCH    7    6
ENDBRANCH    8    7
ENDBRANCH    9    8
ENDBRANCH   10    9
ENDBRANCH   11   10
ENDBRANCH   12   11
ENDBRANCH   13   12
ENDBRANCH   15   13
ENDBRANCH   19   18
BRANCH   23   24
ATOM     33  C24 UNL A   1      31.367  36.237  41.629  1.00  0.00    +0.000 C 
ATOM     34  F5  UNL A   1      30.772  37.370  41.228  1.00  0.00    +0.000 F 
ATOM     24  C19 UNL A   1      31.301  35.840  42.973  1.00  0.00    +0.000 C 
ATOM     25  C20 UNL A   1      31.936  34.644  43.337  1.00  0.00    +0.000 C 
ATOM     26  F1  UNL A   1      31.912  34.227  44.612  1.00  0.00    +0.000 F 
ATOM     27  C21 UNL A   1      32.627  33.884  42.397  1.00  0.00    +0.000 C 
ATOM     28  F2  UNL A   1      33.258  32.763  42.776  1.00  0.00    +0.000 F 
ATOM     29  C22 UNL A   1      32.671  34.288  41.072  1.00  0.00    +0.000 C 
ATOM     30  F3  UNL A   1      33.328  33.551  40.165  1.00  0.00    +0.000 F 
ATOM     31  C23 UNL A   1      32.037  35.461  40.686  1.00  0.00    +0.000 C 
ATOM     32  F4  UNL A   1      32.070  35.847  39.404  1.00  0.00    +0.000 F 
ENDBRANCH   23   24
BRANCH   40   41
ATOM     41  C30 UNL A   1      32.310  41.602  47.193  1.00  0.00    +0.000 C 
ATOM     42  C31 UNL A   1      33.401  41.279  48.012  1.00  0.00    +0.000 C 
ATOM     43  F6  UNL A   1      33.481  40.068  48.584  1.00  0.00    +0.000 F 
ATOM     44  C32 UNL A   1      34.392  42.217  48.286  1.00  0.00    +0.000 C 
ATOM     45  F7  UNL A   1      35.398  41.905  49.114  1.00  0.00    +0.000 F 
ATOM     46  C33 UNL A   1      34.328  43.482  47.720  1.00  0.00    +0.000 C 
ATOM     47  F8  UNL A   1      35.282  44.385  47.986  1.00  0.00    +0.000 F 
ATOM     48  C34 UNL A   1      33.270  43.814  46.886  1.00  0.00    +0.000 C 
ATOM     49  F9  UNL A   1      33.213  45.033  46.332  1.00  0.00    +0.000 F 
ATOM     50  C35 UNL A   1      32.264  42.886  46.632  1.00  0.00    +0.000 C 
ATOM     51  F10 UNL A   1      31.244  43.242  45.836  1.00  0.00    +0.000 F 
ENDBRANCH   40   41
BRANCH   55   56
ATOM     65  C44 UNL A   1      25.836  40.458  50.994  1.00  0.00    +0.000 C 
ATOM     66  F15 UNL A   1      26.542  39.384  51.378  1.00  0.00    +0.000 F 
ATOM     56  C39 UNL A   1      25.843  40.860  49.652  1.00  0.00    +0.000 C 
ATOM     57  C40 UNL A   1      25.083  41.984  49.301  1.00  0.00    +0.000 C 
ATOM     58  F11 UNL A   1      25.075  42.419  48.032  1.00  0.00    +0.000 F 
ATOM     59  C41 UNL A   1      24.364  42.694  50.261  1.00  0.00    +0.000 C 
ATOM     60  F12 UNL A   1      23.684  43.792  49.908  1.00  0.00    +0.000 F 
ATOM     61  C42 UNL A   1      24.367  42.274  51.583  1.00  0.00    +0.000 C 
ATOM     62  F13 UNL A   1      23.675  42.956  52.505  1.00  0.00    +0.000 F 
ATOM     63  C43 UNL A   1      25.095  41.152  51.948  1.00  0.00    +0.000 C 
ATOM     64  F14 UNL A   1      25.089  40.735  53.222  1.00  0.00    +0.000 F 
ENDBRANCH   55   56
TORSDOF 19
ENDMDL
MODEL 10
REMARK VINA RESULT:     -11.8      8.596     15.237
ROOT
ATOM     19  C15 UNL A   1      25.623  39.513  46.897  1.00  0.00    +0.000 C 
ATOM     20  C16 UNL A   1      25.047  38.144  46.674  1.00  0.00    +0.000 C 
ATOM     21  N3  UNL A   1      23.845  37.699  46.945  1.00  0.00    +0.000 N 
ATOM     22  C17 UNL A   1      23.826  36.376  46.523  1.00  0.00    +0.000 C 
ATOM     23  C18 UNL A   1      22.833  35.464  46.646  1.00  0.00    +0.000 C 
ATOM     35  C25 UNL A   1      21.554  35.729  47.252  1.00  0.00    +0.000 C 
ATOM     36  C26 UNL A   1      20.494  34.861  47.451  1.00  0.00    +0.000 C 
ATOM     37  C27 UNL A   1      19.452  35.574  48.055  1.00  0.00    +0.000 C 
ATOM     38  C28 UNL A   1      19.876  36.875  48.267  1.00  0.00    +0.000 C 
ATOM     39  N4  UNL A   1      21.164  36.959  47.760  1.00  0.00    +0.000 N 
ATOM     40  C29 UNL A   1      19.165  37.961  48.887  1.00  0.00    +0.000 C 
ATOM     52  C36 UNL A   1      19.650  39.216  49.050  1.00  0.00    +0.000 C 
ATOM     53  N5  UNL A   1      20.881  39.733  48.673  1.00  0.00    +0.000 N 
ATOM     54  C37 UNL A   1      20.864  40.996  49.020  1.00  0.00    +0.000 C 
ATOM     55  C38 UNL A   1      21.941  42.035  48.874  1.00  0.00    +0.000 C 
ATOM     67  C45 UNL A   1      23.130  41.682  48.352  1.00  0.00    +0.000 C 
ATOM     68  C46 UNL A   1      24.279  42.566  48.186  1.00  0.00    +0.000 C 
ATOM     69  C47 UNL A   1      25.287  41.875  47.630  1.00  0.00    +0.000 C 
ATOM     70  C48 UNL A   1      24.859  40.491  47.420  1.00  0.00    +0.000 C 
ATOM     71  N6  UNL A   1      23.562  40.471  47.867  1.00  0.00    +0.000 N 
ATOM     72  C49 UNL A   1      19.607  41.429  49.646  1.00  0.00    +0.000 C 
ATOM     73  C50 UNL A   1      18.919  40.297  49.679  1.00  0.00    +0.000 C 
ATOM     74  C51 UNL A   1      25.118  36.105  45.927  1.00  0.00    +0.000 C 
ATOM     75  C52 UNL A   1      25.927  37.147  46.044  1.00  0.00    +0.000 C 
ATOM    119  H21 UNL A   1      20.476  33.862  47.197  1.00  0.00    +0.000 H 
ATOM    120  H22 UNL A   1      18.525  35.194  48.300  1.00  0.00    +0.000 H 
ATOM    121  H23 UNL A   1      21.720  37.772  47.762  1.00  0.00    +0.000 H 
ATOM    122  H24 UNL A   1      24.311  43.562  48.453  1.00  0.00    +0.000 H 
ATOM    123  H25 UNL A   1      26.215  42.258  47.390  1.00  0.00    +0.000 H 
ATOM    124  H26 UNL A   1      22.996  39.666  47.844  1.00  0.00    +0.000 H 
ATOM    125  H27 UNL A   1      19.332  42.368  49.974  1.00  0.00    +0.000 H 
ATOM    126  H28 UNL A   1      17.982  40.198  50.099  1.00  0.00    +0.000 H 
ATOM    127  H29 UNL A   1      25.373  35.216  45.469  1.00  0.00    +0.000 H 
ATOM    128  H30 UNL A   1      26.917  37.236  45.767  1.00  0.00    +0.000 H 
ENDROOT
BRANCH   19   18
ATOM    129  H31 UNL A   1      26.581  40.313  44.510  1.00  0.00    +0.000 H 
ATOM    130  H32 UNL A   1      28.885  40.728  43.873  1.00  0.00    +0.000 H 
ATOM     76  C53 UNL A   1      27.334  40.219  45.210  1.00  0.00    +0.000 C 
ATOM     77  C54 UNL A   1      28.653  40.494  44.851  1.00  0.00    +0.000 C 
ATOM     15  C11 UNL A   1      29.664  40.454  45.819  1.00  0.00    +0.000 C 
ATOM     16  C12 UNL A   1      29.370  40.034  47.119  1.00  0.00    +0.000 C 
ATOM     17  C13 UNL A   1      28.059  39.700  47.461  1.00  0.00    +0.000 C 
ATOM     18  C14 UNL A   1      27.026  39.813  46.516  1.00  0.00    +0.000 C 
ATOM    117  H19 UNL A   1      30.120  39.971  47.825  1.00  0.00    +0.000 H 
ATOM    118  H20 UNL A   1      27.847  39.367  48.415  1.00  0.00    +0.000 H 
BRANCH   15   13
ATOM     13  C10 UNL A   1      31.064  40.807  45.491  1.00  0.00    +0.000 C 
ATOM     14  O2  UNL A   1      31.580  41.789  46.017  1.00  0.00    +0.000 O 
BRANCH   13   12
ATOM    116  H18 UNL A   1      31.593  40.236  43.652  1.00  0.00    +0.000 H 
ATOM     12  N2  UNL A   1      31.781  40.056  44.602  1.00  0.00    +0.000 N 
BRANCH   12   11
ATOM    114  H16 UNL A   1      33.035  38.560  43.923  1.00  0.00    +0.000 H 
ATOM     11  C9  UNL A   1      32.780  39.027  44.852  1.00  0.00    +0.000 C 
ATOM    115  H17 UNL A   1      33.632  39.496  45.297  1.00  0.00    +0.000 H 
BRANCH   11   10
ATOM    113  H15 UNL A   1      31.824  38.482  46.634  1.00  0.00    +0.000 H 
ATOM     10  C8  UNL A   1      32.275  37.957  45.817  1.00  0.00    +0.000 C 
ATOM    112  H14 UNL A   1      33.110  37.355  46.110  1.00  0.00    +0.000 H 
BRANCH   10    9
ATOM      9  C7  UNL A   1      31.196  37.032  45.251  1.00  0.00    +0.000 C 
ATOM    110  H12 UNL A   1      30.827  37.468  44.346  1.00  0.00    +0.000 H 
ATOM    111  H13 UNL A   1      31.664  36.081  45.105  1.00  0.00    +0.000 H 
BRANCH    9    8
ATOM    108  H10 UNL A   1      29.501  37.717  46.327  1.00  0.00    +0.000 H 
ATOM    109  H11 UNL A   1      29.399  36.046  45.697  1.00  0.00    +0.000 H 
ATOM      8  C6  UNL A   1      30.005  36.785  46.179  1.00  0.00    +0.000 C 
BRANCH    8    7
ATOM    106  H8  UNL A   1      30.541  35.164  47.448  1.00  0.00    +0.000 H 
ATOM    107  H9  UNL A   1      31.226  36.750  47.894  1.00  0.00    +0.000 H 
ATOM      7  C5  UNL A   1      30.364  36.214  47.556  1.00  0.00    +0.000 C 
BRANCH    7    6
ATOM    105  H7  UNL A   1      28.474  36.969  48.199  1.00  0.00    +0.000 H 
ATOM      6  C4  UNL A   1      29.281  36.410  48.625  1.00  0.00    +0.000 C 
ATOM    104  H6  UNL A   1      29.700  36.936  49.457  1.00  0.00    +0.000 H 
BRANCH    6    5
ATOM      5  N1  UNL A   1      28.772  35.131  49.080  1.00  0.00    +0.000 N 
ATOM    103  H5  UNL A   1      29.335  34.635  49.717  1.00  0.00    +0.000 H 
BRANCH    5    3
ATOM      3  C3  UNL A   1      27.591  34.542  48.717  1.00  0.00    +0.000 C 
ATOM      4  O1  UNL A   1      26.554  35.088  49.096  1.00  0.00    +0.000 O 
BRANCH    3    2
ATOM      2  C2  UNL A   1      27.625  33.240  47.896  1.00  0.00    +0.000 C 
ATOM    102  H4  UNL A   1      26.629  33.020  47.574  1.00  0.00    +0.000 H 
BRANCH    2    1
ATOM      1  C1  UNL A   1      28.146  32.112  48.802  1.00  0.00    +0.000 C 
ATOM     99  H1  UNL A   1      28.014  32.388  49.827  1.00  0.00    +0.000 H 
ATOM    100  H2  UNL A   1      29.186  31.950  48.607  1.00  0.00    +0.000 H 
ATOM    101  H3  UNL A   1      27.602  31.213  48.601  1.00  0.00    +0.000 H 
ENDBRANCH    2    1
BRANCH    2   78
ATOM    131  H33 UNL A   1      26.807  34.002  45.391  1.00  0.00    +0.000 H 
ATOM    132  H34 UNL A   1      28.116  34.392  43.387  1.00  0.00    +0.000 H 
ATOM    133  H35 UNL A   1      30.151  34.894  41.591  1.00  0.00    +0.000 H 
ATOM    134  H36 UNL A   1      34.178  33.796  41.158  1.00  0.00    +0.000 H 
ATOM    135  H37 UNL A   1      34.161  32.750  43.358  1.00  0.00    +0.000 H 
ATOM    138  H40 UNL A   1      30.200  32.508  47.355  1.00  0.00    +0.000 H 
ATOM     78  C55 UNL A   1      28.416  33.349  46.581  1.00  0.00    +0.000 C 
ATOM     79  C56 UNL A   1      27.821  33.809  45.402  1.00  0.00    +0.000 C 
ATOM     80  C57 UNL A   1      28.569  34.014  44.234  1.00  0.00    +0.000 C 
ATOM     81  C58 UNL A   1      29.944  33.706  44.221  1.00  0.00    +0.000 C 
ATOM     82  C59 UNL A   1      30.981  33.873  43.263  1.00  0.00    +0.000 C 
ATOM     83  C60 UNL A   1      31.002  34.455  41.978  1.00  0.00    +0.000 C 
ATOM     84  C61 UNL A   1      32.178  34.434  41.235  1.00  0.00    +0.000 C 
ATOM     85 Cl1  UNL A   1      32.208  35.160  39.673  1.00  0.00    +0.000 Cl
ATOM     86  C62 UNL A   1      33.319  33.820  41.731  1.00  0.00    +0.000 C 
ATOM     87  C63 UNL A   1      33.320  33.230  43.002  1.00  0.00    +0.000 C 
ATOM     88  C64 UNL A   1      32.150  33.304  43.789  1.00  0.00    +0.000 C 
ATOM     89  N7  UNL A   1      31.850  32.832  45.070  1.00  0.00    +0.000 N 
ATOM     97  C69 UNL A   1      30.507  33.117  45.346  1.00  0.00    +0.000 C 
ATOM     98  C70 UNL A   1      29.759  32.939  46.527  1.00  0.00    +0.000 C 
BRANCH   89   90
ATOM     90  C65 UNL A   1      32.709  32.157  45.977  1.00  0.00    +0.000 C 
ATOM     91  O3  UNL A   1      33.383  32.884  46.718  1.00  0.00    +0.000 O 
BRANCH   90   92
ATOM    136  H38 UNL A   1      34.390  30.222  44.592  1.00  0.00    +0.000 H 
ATOM    137  H39 UNL A   1      32.430  27.914  47.374  1.00  0.00    +0.000 H 
ATOM     92  C66 UNL A   1      32.879  30.712  46.048  1.00  0.00    +0.000 C 
ATOM     93  C67 UNL A   1      33.757  29.910  45.345  1.00  0.00    +0.000 C 
ATOM     94  O4  UNL A   1      33.646  28.634  45.817  1.00  0.00    +0.000 O 
ATOM     95  C68 UNL A   1      32.721  28.726  46.807  1.00  0.00    +0.000 C 
ATOM     96  N8  UNL A   1      32.226  29.926  46.987  1.00  0.00    +0.000 N 
ENDBRANCH   90   92
ENDBRANCH   89   90
ENDBRANCH    2   78
ENDBRANCH    3    2
ENDBRANCH    5    3
ENDBRANCH    6    5
ENDBRANCH    7    6
ENDBRANCH    8    7
ENDBRANCH    9    8
ENDBRANCH   10    9
ENDBRANCH   11   10
ENDBRANCH   12   11
ENDBRANCH   13   12
ENDBRANCH   15   13
ENDBRANCH   19   18
BRANCH   23   24
ATOM     33  C24 UNL A   1      23.868  33.172  46.872  1.00  0.00    +0.000 C 
ATOM     34  F5  UNL A   1      24.346  33.516  48.076  1.00  0.00    +0.000 F 
ATOM     24  C19 UNL A   1      23.097  34.080  46.130  1.00  0.00    +0.000 C 
ATOM     25  C20 UNL A   1      22.626  33.669  44.874  1.00  0.00    +0.000 C 
ATOM     26  F1  UNL A   1      21.875  34.497  44.131  1.00  0.00    +0.000 F 
ATOM     27  C21 UNL A   1      22.899  32.394  44.387  1.00  0.00    +0.000 C 
ATOM     28  F2  UNL A   1      22.407  32.011  43.201  1.00  0.00    +0.000 F 
ATOM     29  C22 UNL A   1      23.672  31.516  45.132  1.00  0.00    +0.000 C 
ATOM     30  F3  UNL A   1      23.943  30.291  44.658  1.00  0.00    +0.000 F 
ATOM     31  C23 UNL A   1      24.161  31.906  46.371  1.00  0.00    +0.000 C 
ATOM     32  F4  UNL A   1      24.917  31.062  47.086  1.00  0.00    +0.000 F 
ENDBRANCH   23   24
BRANCH   40   41
ATOM     41  C30 UNL A   1      17.785  37.692  49.412  1.00  0.00    +0.000 C 
ATOM     42  C31 UNL A   1      16.714  37.426  48.547  1.00  0.00    +0.000 C 
ATOM     43  F6  UNL A   1      16.898  37.443  47.218  1.00  0.00    +0.000 F 
ATOM     44  C32 UNL A   1      15.436  37.190  49.044  1.00  0.00    +0.000 C 
ATOM     45  F7  UNL A   1      14.415  36.991  48.199  1.00  0.00    +0.000 F 
ATOM     46  C33 UNL A   1      15.213  37.181  50.413  1.00  0.00    +0.000 C 
ATOM     47  F8  UNL A   1      13.981  36.956  50.891  1.00  0.00    +0.000 F 
ATOM     48  C34 UNL A   1      16.264  37.417  51.287  1.00  0.00    +0.000 C 
ATOM     49  F9  UNL A   1      16.051  37.400  52.610  1.00  0.00    +0.000 F 
ATOM     50  C35 UNL A   1      17.538  37.680  50.791  1.00  0.00    +0.000 C 
ATOM     51  F10 UNL A   1      18.531  37.922  51.660  1.00  0.00    +0.000 F 
ENDBRANCH   40   41
BRANCH   55   56
ATOM     65  C44 UNL A   1      21.231  44.409  48.442  1.00  0.00    +0.000 C 
ATOM     66  F15 UNL A   1      20.977  44.094  47.163  1.00  0.00    +0.000 F 
ATOM     56  C39 UNL A   1      21.716  43.433  49.323  1.00  0.00    +0.000 C 
ATOM     57  C40 UNL A   1      21.972  43.815  50.647  1.00  0.00    +0.000 C 
ATOM     58  F11 UNL A   1      22.417  42.910  51.531  1.00  0.00    +0.000 F 
ATOM     59  C41 UNL A   1      21.729  45.117  51.079  1.00  0.00    +0.000 C 
ATOM     60  F12 UNL A   1      21.938  45.445  52.361  1.00  0.00    +0.000 F 
ATOM     61  C42 UNL A   1      21.255  46.069  50.188  1.00  0.00    +0.000 C 
ATOM     62  F13 UNL A   1      21.022  47.321  50.603  1.00  0.00    +0.000 F 
ATOM     63  C43 UNL A   1      21.015  45.718  48.868  1.00  0.00    +0.000 C 
ATOM     64  F14 UNL A   1      20.569  46.637  48.000  1.00  0.00    +0.000 F 
ENDBRANCH   55   56
TORSDOF 19
ENDMDL
