MODEL 1
REMARK VINA RESULT:     -10.9      0.000      0.000
ROOT
ATOM    166  H62 UNL A   1      19.921  31.151  -0.638  1.00  0.00    +0.000 H 
ATOM    167  H63 UNL A   1      17.378  31.653  -0.907  1.00  0.00    +0.000 H 
ATOM    168  H64 UNL A   1      17.982  27.626  -1.634  1.00  0.00    +0.000 H 
ATOM    169  H65 UNL A   1      15.572  21.929  -3.375  1.00  0.00    +0.000 H 
ATOM    170  H66 UNL A   1      18.065  21.472  -3.172  1.00  0.00    +0.000 H 
ATOM    171  H67 UNL A   1      17.435  25.483  -2.286  1.00  0.00    +0.000 H 
ATOM    172  H68 UNL A   1      12.557  26.350  -2.772  1.00  0.00    +0.000 H 
ATOM    173  H69 UNL A   1      13.114  28.811  -2.343  1.00  0.00    +0.000 H 
ATOM     46  C41 UNL A   1      19.621  23.777  -2.529  1.00  0.00    +0.000 C 
ATOM     47  C42 UNL A   1      20.228  25.086  -2.097  1.00  0.00    +0.000 C 
ATOM     48  N3  UNL A   1      19.642  26.205  -1.763  1.00  0.00    +0.000 N 
ATOM    175  H71 UNL A   1      22.394  24.418  -2.253  1.00  0.00    +0.000 H 
ATOM     49  C43 UNL A   1      20.665  27.044  -1.341  1.00  0.00    +0.000 C 
ATOM    174  H70 UNL A   1      22.787  26.599  -0.962  1.00  0.00    +0.000 H 
ATOM     50  C44 UNL A   1      20.597  28.356  -1.020  1.00  0.00    +0.000 C 
ATOM     62  C51 UNL A   1      19.381  29.113  -1.089  1.00  0.00    +0.000 C 
ATOM     63  C52 UNL A   1      19.190  30.464  -0.875  1.00  0.00    +0.000 C 
ATOM     64  C53 UNL A   1      17.828  30.734  -1.037  1.00  0.00    +0.000 C 
ATOM     65  C54 UNL A   1      17.180  29.562  -1.403  1.00  0.00    +0.000 C 
ATOM     66  N4  UNL A   1      18.146  28.573  -1.419  1.00  0.00    +0.000 N 
ATOM     67  C55 UNL A   1      15.788  29.366  -1.713  1.00  0.00    +0.000 C 
ATOM     79  C62 UNL A   1      15.205  28.189  -2.052  1.00  0.00    +0.000 C 
ATOM     80  N5  UNL A   1      15.777  26.933  -2.197  1.00  0.00    +0.000 N 
ATOM     81  C63 UNL A   1      14.797  26.122  -2.518  1.00  0.00    +0.000 C 
ATOM     82  C64 UNL A   1      14.844  24.647  -2.828  1.00  0.00    +0.000 C 
ATOM     94  C71 UNL A   1      16.041  24.032  -2.820  1.00  0.00    +0.000 C 
ATOM     95  C72 UNL A   1      16.291  22.626  -3.124  1.00  0.00    +0.000 C 
ATOM     96  C73 UNL A   1      17.610  22.385  -3.025  1.00  0.00    +0.000 C 
ATOM     97  C74 UNL A   1      18.295  23.631  -2.678  1.00  0.00    +0.000 C 
ATOM     98  N6  UNL A   1      17.284  24.545  -2.549  1.00  0.00    +0.000 N 
ATOM     99  C75 UNL A   1      13.481  26.769  -2.583  1.00  0.00    +0.000 C 
ATOM    100  C76 UNL A   1      13.793  28.034  -2.336  1.00  0.00    +0.000 C 
ATOM    101  C77 UNL A   1      21.888  26.282  -1.360  1.00  0.00    +0.000 C 
ATOM    102  C78 UNL A   1      21.697  25.120  -1.959  1.00  0.00    +0.000 C 
ENDROOT
BRANCH   46   45
ATOM    164  H60 UNL A   1      22.173  20.853  -5.043  1.00  0.00    +0.000 H 
ATOM    165  H61 UNL A   1      20.435  22.548  -4.824  1.00  0.00    +0.000 H 
ATOM    103  C79 UNL A   1      21.136  22.099  -1.560  1.00  0.00    +0.000 C 
ATOM    104  C80 UNL A   1      22.206  21.242  -1.694  1.00  0.00    +0.000 C 
ATOM     42  C37 UNL A   1      22.566  20.781  -2.966  1.00  0.00    +0.000 C 
ATOM     43  C38 UNL A   1      21.914  21.223  -4.115  1.00  0.00    +0.000 C 
ATOM     44  C39 UNL A   1      20.906  22.175  -3.984  1.00  0.00    +0.000 C 
ATOM     45  C40 UNL A   1      20.528  22.625  -2.708  1.00  0.00    +0.000 C 
ATOM    176  H72 UNL A   1      20.785  22.352  -0.623  1.00  0.00    +0.000 H 
ATOM    177  H73 UNL A   1      22.740  20.942  -0.862  1.00  0.00    +0.000 H 
BRANCH   42   40
ATOM     41  O3  UNL A   1      23.305  18.553  -2.677  1.00  0.00    +0.000 O 
ATOM     40  C36 UNL A   1      23.549  19.675  -3.034  1.00  0.00    +0.000 C 
BRANCH   40   39
ATOM    163  H59 UNL A   1      24.830  20.448  -4.452  1.00  0.00    +0.000 H 
ATOM     39  N2  UNL A   1      24.774  20.053  -3.553  1.00  0.00    +0.000 N 
BRANCH   39   38
ATOM    161  H57 UNL A   1      25.777  20.110  -1.740  1.00  0.00    +0.000 H 
ATOM    162  H58 UNL A   1      26.292  18.842  -2.806  1.00  0.00    +0.000 H 
ATOM     38  C35 UNL A   1      25.972  19.862  -2.763  1.00  0.00    +0.000 C 
BRANCH   38   37
ATOM     37  C34 UNL A   1      27.036  20.774  -3.319  1.00  0.00    +0.000 C 
ATOM    159  H55 UNL A   1      27.362  20.380  -4.259  1.00  0.00    +0.000 H 
ATOM    160  H56 UNL A   1      26.598  21.745  -3.414  1.00  0.00    +0.000 H 
BRANCH   37   36
ATOM     36  C33 UNL A   1      28.295  20.926  -2.379  1.00  0.00    +0.000 C 
ATOM    157  H53 UNL A   1      27.906  21.143  -1.406  1.00  0.00    +0.000 H 
ATOM    158  H54 UNL A   1      28.805  20.006  -2.575  1.00  0.00    +0.000 H 
BRANCH   36   35
ATOM     35  C32 UNL A   1      29.523  22.026  -2.629  1.00  0.00    +0.000 C 
ATOM    156  H52 UNL A   1      30.314  21.332  -2.433  1.00  0.00    +0.000 H 
ATOM    155  H51 UNL A   1      29.187  22.887  -2.090  1.00  0.00    +0.000 H 
BRANCH   35   34
ATOM    153  H49 UNL A   1      31.334  22.853  -3.797  1.00  0.00    +0.000 H 
ATOM     34  C31 UNL A   1      30.317  22.762  -4.117  1.00  0.00    +0.000 C 
ATOM    154  H50 UNL A   1      29.771  22.132  -4.787  1.00  0.00    +0.000 H 
BRANCH   34   33
ATOM     33  C30 UNL A   1      30.113  24.444  -5.362  1.00  0.00    +0.000 C 
ATOM    151  H47 UNL A   1      29.076  24.404  -5.623  1.00  0.00    +0.000 H 
ATOM    152  H48 UNL A   1      30.709  25.067  -4.729  1.00  0.00    +0.000 H 
BRANCH   33   32
ATOM    150  H46 UNL A   1      31.410  25.683  -6.471  1.00  0.00    +0.000 H 
ATOM     32  N1  UNL A   1      30.737  24.985  -6.639  1.00  0.00    +0.000 N 
BRANCH   32   30
ATOM     30  C29 UNL A   1      30.573  24.721  -7.961  1.00  0.00    +0.000 C 
ATOM     31  O2  UNL A   1      29.660  25.355  -8.507  1.00  0.00    +0.000 O 
BRANCH   30   29
ATOM    149  H45 UNL A   1      31.830  23.158  -8.023  1.00  0.00    +0.000 H 
ATOM    148  H44 UNL A   1      32.028  24.403  -9.407  1.00  0.00    +0.000 H 
ATOM     29  C28 UNL A   1      31.417  23.774  -8.795  1.00  0.00    +0.000 C 
BRANCH   29   28
ATOM    146  H42 UNL A   1      31.635  21.958  -9.858  1.00  0.00    +0.000 H 
ATOM    147  H43 UNL A   1      29.973  22.351  -9.268  1.00  0.00    +0.000 H 
ATOM     28  C27 UNL A   1      30.871  22.696  -9.738  1.00  0.00    +0.000 C 
BRANCH   28   27
ATOM      3  C3  UNL A   1      31.403  24.165 -11.825  1.00  0.00    +0.000 C 
ATOM      4  C4  UNL A   1      30.777  25.553 -12.106  1.00  0.00    +0.000 C 
ATOM      6  C5  UNL A   1      29.286  25.511 -12.441  1.00  0.00    +0.000 C 
ATOM      7  C6  UNL A   1      28.509  24.912 -11.224  1.00  0.00    +0.000 C 
ATOM      8  C7  UNL A   1      28.859  23.064 -11.284  1.00  0.00    +0.000 C 
ATOM      9  C8  UNL A   1      27.681  21.753 -10.479  1.00  0.00    +0.000 C 
ATOM     10  C9  UNL A   1      26.056  22.357  -9.603  1.00  0.00    +0.000 C 
ATOM     11  C10 UNL A   1      25.658  24.278  -9.456  1.00  0.00    +0.000 C 
ATOM    139  H35 UNL A   1      27.533  27.329  -9.730  1.00  0.00    +0.000 H 
ATOM    140  H36 UNL A   1      25.794  27.338 -10.128  1.00  0.00    +0.000 H 
ATOM     13  C12 UNL A   1      25.905  25.015  -7.934  1.00  0.00    +0.000 C 
ATOM    137  H33 UNL A   1      27.080  26.802  -7.633  1.00  0.00    +0.000 H 
ATOM    144  H40 UNL A   1      29.900  22.532 -13.184  1.00  0.00    +0.000 H 
ATOM    145  H41 UNL A   1      29.869  21.231 -12.390  1.00  0.00    +0.000 H 
ATOM    138  H34 UNL A   1      25.366  27.083  -8.033  1.00  0.00    +0.000 H 
ATOM     22  C21 UNL A   1      26.248  26.515  -8.244  1.00  0.00    +0.000 C 
ATOM     23  C22 UNL A   1      26.610  26.788  -9.708  1.00  0.00    +0.000 C 
ATOM     24  C23 UNL A   1      26.775  25.516 -10.571  1.00  0.00    +0.000 C 
ATOM     26  C25 UNL A   1      29.796  22.271 -12.152  1.00  0.00    +0.000 C 
ATOM     27  C26 UNL A   1      30.442  23.131 -11.111  1.00  0.00    +0.000 C 
ATOM    108  H4  UNL A   1      31.533  23.719 -12.788  1.00  0.00    +0.000 H 
ATOM    109  H5  UNL A   1      30.905  26.090 -11.188  1.00  0.00    +0.000 H 
ATOM    111  H7  UNL A   1      29.129  24.899 -13.304  1.00  0.00    +0.000 H 
ATOM    112  H8  UNL A   1      28.932  26.501 -12.645  1.00  0.00    +0.000 H 
ATOM    113  H9  UNL A   1      28.882  25.433 -10.367  1.00  0.00    +0.000 H 
ATOM    114  H10 UNL A   1      28.254  21.225  -9.747  1.00  0.00    +0.000 H 
ATOM    115  H11 UNL A   1      27.326  21.182 -11.311  1.00  0.00    +0.000 H 
ATOM    116  H12 UNL A   1      26.084  21.972  -8.605  1.00  0.00    +0.000 H 
ATOM    117  H13 UNL A   1      25.284  22.000 -10.252  1.00  0.00    +0.000 H 
ATOM    121  H17 UNL A   1      25.014  24.721  -7.420  1.00  0.00    +0.000 H 
BRANCH    3    2
ATOM      2  C2  UNL A   1      32.816  24.250 -11.248  1.00  0.00    +0.000 C 
ATOM    107  H3  UNL A   1      32.926  23.942 -10.269  1.00  0.00    +0.000 H 
BRANCH    2    1
ATOM      1  C1  UNL A   1      33.931  24.675 -11.862  1.00  0.00    +0.000 C 
ATOM    106  H2  UNL A   1      34.186  24.300 -12.788  1.00  0.00    +0.000 H 
ATOM    105  H1  UNL A   1      34.534  25.379 -11.407  1.00  0.00    +0.000 H 
ENDBRANCH    2    1
ENDBRANCH    3    2
BRANCH    4    5
ATOM      5  O1  UNL A   1      31.437  26.206 -13.199  1.00  0.00    +0.000 O 
ATOM    110  H6  UNL A   1      32.307  25.801 -13.341  1.00  0.00    +0.000 H 
ENDBRANCH    4    5
BRANCH   11   12
ATOM     12  C11 UNL A   1      24.076  24.195  -9.322  1.00  0.00    +0.000 C 
ATOM    118  H14 UNL A   1      23.820  23.727  -8.395  1.00  0.00    +0.000 H 
ATOM    119  H15 UNL A   1      23.678  23.623 -10.132  1.00  0.00    +0.000 H 
ATOM    120  H16 UNL A   1      23.664  25.183  -9.347  1.00  0.00    +0.000 H 
ENDBRANCH   11   12
BRANCH   13   14
ATOM    122  H18 UNL A   1      26.898  25.294  -6.289  1.00  0.00    +0.000 H 
ATOM     14  C13 UNL A   1      26.419  24.364  -6.514  1.00  0.00    +0.000 C 
BRANCH   14   15
ATOM    123  H19 UNL A   1      28.254  23.269  -6.750  1.00  0.00    +0.000 H 
ATOM    124  H20 UNL A   1      26.920  22.628  -7.679  1.00  0.00    +0.000 H 
ATOM    125  H21 UNL A   1      26.987  22.369  -5.952  1.00  0.00    +0.000 H 
ATOM     15  C14 UNL A   1      27.205  23.058  -6.741  1.00  0.00    +0.000 C 
ENDBRANCH   14   15
BRANCH   14   16
ATOM    126  H22 UNL A   1      25.748  25.289  -4.684  1.00  0.00    +0.000 H 
ATOM    127  H23 UNL A   1      26.233  23.515  -4.598  1.00  0.00    +0.000 H 
ATOM     16  C15 UNL A   1      25.699  24.301  -5.090  1.00  0.00    +0.000 C 
BRANCH   16   17
ATOM     17  C16 UNL A   1      24.220  23.841  -4.942  1.00  0.00    +0.000 C 
ATOM    129  H25 UNL A   1      24.211  22.855  -5.358  1.00  0.00    +0.000 H 
ATOM    128  H24 UNL A   1      23.969  23.919  -3.904  1.00  0.00    +0.000 H 
BRANCH   17   18
ATOM     18  C17 UNL A   1      23.140  24.587  -5.725  1.00  0.00    +0.000 C 
ATOM    130  H26 UNL A   1      22.441  23.989  -6.193  1.00  0.00    +0.000 H 
BRANCH   18   19
ATOM     19  C18 UNL A   1      22.965  25.923  -5.890  1.00  0.00    +0.000 C 
BRANCH   19   20
ATOM    133  H29 UNL A   1      23.524  27.874  -5.275  1.00  0.00    +0.000 H 
ATOM    131  H27 UNL A   1      24.237  26.588  -4.329  1.00  0.00    +0.000 H 
ATOM     20  C19 UNL A   1      23.348  26.920  -4.824  1.00  0.00    +0.000 C 
ATOM    132  H28 UNL A   1      22.554  27.003  -4.111  1.00  0.00    +0.000 H 
ENDBRANCH   19   20
BRANCH   19   21
ATOM     21  C20 UNL A   1      22.331  26.620  -7.059  1.00  0.00    +0.000 C 
ATOM    134  H30 UNL A   1      21.806  25.906  -7.657  1.00  0.00    +0.000 H 
ATOM    135  H31 UNL A   1      23.090  27.090  -7.647  1.00  0.00    +0.000 H 
ATOM    136  H32 UNL A   1      21.645  27.360  -6.702  1.00  0.00    +0.000 H 
ENDBRANCH   19   21
ENDBRANCH   18   19
ENDBRANCH   17   18
ENDBRANCH   16   17
ENDBRANCH   14   16
ENDBRANCH   13   14
BRANCH   24   25
ATOM     25  C24 UNL A   1      26.558  26.160 -12.001  1.00  0.00    +0.000 C 
ATOM    141  H37 UNL A   1      27.348  25.853 -12.653  1.00  0.00    +0.000 H 
ATOM    142  H38 UNL A   1      26.559  27.227 -11.916  1.00  0.00    +0.000 H 
ATOM    143  H39 UNL A   1      25.620  25.834 -12.400  1.00  0.00    +0.000 H 
ENDBRANCH   24   25
ENDBRANCH   28   27
ENDBRANCH   29   28
ENDBRANCH   30   29
ENDBRANCH   32   30
ENDBRANCH   33   32
ENDBRANCH   34   33
ENDBRANCH   35   34
ENDBRANCH   36   35
ENDBRANCH   37   36
ENDBRANCH   38   37
ENDBRANCH   39   38
ENDBRANCH   40   39
ENDBRANCH   42   40
ENDBRANCH   46   45
BRANCH   50   51
ATOM     51  C45 UNL A   1      21.869  29.036  -0.602  1.00  0.00    +0.000 C 
ATOM     52  C46 UNL A   1      22.783  29.540  -1.541  1.00  0.00    +0.000 C 
ATOM     53  F1  UNL A   1      22.540  29.416  -2.855  1.00  0.00    +0.000 F 
ATOM     54  C47 UNL A   1      23.984  30.116  -1.138  1.00  0.00    +0.000 C 
ATOM     55  F2  UNL A   1      24.872  30.522  -2.057  1.00  0.00    +0.000 F 
ATOM     56  C48 UNL A   1      24.275  30.247   0.211  1.00  0.00    +0.000 C 
ATOM     57  F3  UNL A   1      25.430  30.804   0.599  1.00  0.00    +0.000 F 
ATOM     58  C49 UNL A   1      23.370  29.789   1.158  1.00  0.00    +0.000 C 
ATOM     59  F4  UNL A   1      23.645  29.924   2.463  1.00  0.00    +0.000 F 
ATOM     60  C50 UNL A   1      22.186  29.176   0.758  1.00  0.00    +0.000 C 
ATOM     61  F5  UNL A   1      21.350  28.712   1.699  1.00  0.00    +0.000 F 
ENDBRANCH   50   51
BRANCH   67   68
ATOM     68  C56 UNL A   1      14.909  30.580  -1.671  1.00  0.00    +0.000 C 
ATOM     69  C57 UNL A   1      14.367  31.133  -2.839  1.00  0.00    +0.000 C 
ATOM     70  F6  UNL A   1      14.696  30.633  -4.039  1.00  0.00    +0.000 F 
ATOM     71  C58 UNL A   1      13.504  32.221  -2.776  1.00  0.00    +0.000 C 
ATOM     72  F7  UNL A   1      13.026  32.761  -3.906  1.00  0.00    +0.000 F 
ATOM     73  C59 UNL A   1      13.141  32.751  -1.547  1.00  0.00    +0.000 C 
ATOM     74  F8  UNL A   1      12.294  33.790  -1.488  1.00  0.00    +0.000 F 
ATOM     75  C60 UNL A   1      13.654  32.210  -0.379  1.00  0.00    +0.000 C 
ATOM     76  F9  UNL A   1      13.288  32.707   0.810  1.00  0.00    +0.000 F 
ATOM     77  C61 UNL A   1      14.544  31.143  -0.439  1.00  0.00    +0.000 C 
ATOM     78  F10 UNL A   1      15.027  30.638   0.706  1.00  0.00    +0.000 F 
ENDBRANCH   67   68
BRANCH   82   83
ATOM     83  C65 UNL A   1      13.617  23.891  -3.191  1.00  0.00    +0.000 C 
ATOM     84  C66 UNL A   1      13.100  23.939  -4.494  1.00  0.00    +0.000 C 
ATOM     85  F11 UNL A   1      13.706  24.688  -5.426  1.00  0.00    +0.000 F 
ATOM     86  C67 UNL A   1      11.936  23.253  -4.834  1.00  0.00    +0.000 C 
ATOM     87  F12 UNL A   1      11.439  23.356  -6.074  1.00  0.00    +0.000 F 
ATOM     88  C68 UNL A   1      11.283  22.477  -3.889  1.00  0.00    +0.000 C 
ATOM     89  F13 UNL A   1      10.165  21.815  -4.217  1.00  0.00    +0.000 F 
ATOM     90  C69 UNL A   1      11.788  22.394  -2.599  1.00  0.00    +0.000 C 
ATOM     91  F14 UNL A   1      11.169  21.633  -1.687  1.00  0.00    +0.000 F 
ATOM     92  C70 UNL A   1      12.937  23.103  -2.250  1.00  0.00    +0.000 C 
ATOM     93  F15 UNL A   1      13.395  23.014  -0.993  1.00  0.00    +0.000 F 
ENDBRANCH   82   83
TORSDOF 30
ENDMDL
MODEL 2
REMARK VINA RESULT:     -10.3      2.203      4.240
ROOT
ATOM    166  H62 UNL A   1      19.896  31.261  -0.417  1.00  0.00    +0.000 H 
ATOM    167  H63 UNL A   1      17.362  31.798  -0.711  1.00  0.00    +0.000 H 
ATOM    168  H64 UNL A   1      17.925  27.770  -1.470  1.00  0.00    +0.000 H 
ATOM    169  H65 UNL A   1      15.465  22.122  -3.295  1.00  0.00    +0.000 H 
ATOM    170  H66 UNL A   1      17.949  21.631  -3.067  1.00  0.00    +0.000 H 
ATOM    171  H67 UNL A   1      17.359  25.640  -2.150  1.00  0.00    +0.000 H 
ATOM    172  H68 UNL A   1      12.498  26.574  -2.685  1.00  0.00    +0.000 H 
ATOM    173  H69 UNL A   1      13.081  29.023  -2.225  1.00  0.00    +0.000 H 
ATOM     46  C41 UNL A   1      19.527  23.909  -2.383  1.00  0.00    +0.000 C 
ATOM     47  C42 UNL A   1      20.145  25.207  -1.932  1.00  0.00    +0.000 C 
ATOM     48  N3  UNL A   1      19.569  26.329  -1.594  1.00  0.00    +0.000 N 
ATOM    175  H71 UNL A   1      22.304  24.513  -2.069  1.00  0.00    +0.000 H 
ATOM     49  C43 UNL A   1      20.597  27.152  -1.151  1.00  0.00    +0.000 C 
ATOM    174  H70 UNL A   1      22.709  26.677  -0.752  1.00  0.00    +0.000 H 
ATOM     50  C44 UNL A   1      20.542  28.461  -0.818  1.00  0.00    +0.000 C 
ATOM     62  C51 UNL A   1      19.336  29.234  -0.894  1.00  0.00    +0.000 C 
ATOM     63  C52 UNL A   1      19.159  30.585  -0.669  1.00  0.00    +0.000 C 
ATOM     64  C53 UNL A   1      17.803  30.874  -0.844  1.00  0.00    +0.000 C 
ATOM     65  C54 UNL A   1      17.145  29.714  -1.229  1.00  0.00    +0.000 C 
ATOM     66  N4  UNL A   1      18.098  28.713  -1.244  1.00  0.00    +0.000 N 
ATOM     67  C55 UNL A   1      15.754  29.538  -1.558  1.00  0.00    +0.000 C 
ATOM     79  C62 UNL A   1      15.161  28.372  -1.915  1.00  0.00    +0.000 C 
ATOM     80  N5  UNL A   1      15.719  27.111  -2.065  1.00  0.00    +0.000 N 
ATOM     81  C63 UNL A   1      14.733  26.315  -2.407  1.00  0.00    +0.000 C 
ATOM     82  C64 UNL A   1      14.765  24.843  -2.730  1.00  0.00    +0.000 C 
ATOM     94  C71 UNL A   1      15.954  24.213  -2.714  1.00  0.00    +0.000 C 
ATOM     95  C72 UNL A   1      16.190  22.806  -3.029  1.00  0.00    +0.000 C 
ATOM     96  C73 UNL A   1      17.504  22.549  -2.917  1.00  0.00    +0.000 C 
ATOM     97  C74 UNL A   1      18.200  23.782  -2.550  1.00  0.00    +0.000 C 
ATOM     98  N6  UNL A   1      17.200  24.707  -2.423  1.00  0.00    +0.000 N 
ATOM     99  C75 UNL A   1      13.426  26.979  -2.480  1.00  0.00    +0.000 C 
ATOM    100  C76 UNL A   1      13.750  28.238  -2.217  1.00  0.00    +0.000 C 
ATOM    101  C77 UNL A   1      21.811  26.375  -1.163  1.00  0.00    +0.000 C 
ATOM    102  C78 UNL A   1      21.613  25.221  -1.776  1.00  0.00    +0.000 C 
ENDROOT
BRANCH   46   45
ATOM    164  H60 UNL A   1      22.053  20.965  -4.899  1.00  0.00    +0.000 H 
ATOM    165  H61 UNL A   1      20.334  22.678  -4.680  1.00  0.00    +0.000 H 
ATOM    103  C79 UNL A   1      21.020  22.213  -1.415  1.00  0.00    +0.000 C 
ATOM    104  C80 UNL A   1      22.081  21.345  -1.548  1.00  0.00    +0.000 C 
ATOM     42  C37 UNL A   1      22.439  20.882  -2.821  1.00  0.00    +0.000 C 
ATOM     43  C38 UNL A   1      21.795  21.334  -3.970  1.00  0.00    +0.000 C 
ATOM     44  C39 UNL A   1      20.797  22.297  -3.840  1.00  0.00    +0.000 C 
ATOM     45  C40 UNL A   1      20.421  22.749  -2.563  1.00  0.00    +0.000 C 
ATOM    176  H72 UNL A   1      20.670  22.467  -0.479  1.00  0.00    +0.000 H 
ATOM    177  H73 UNL A   1      22.609  21.036  -0.716  1.00  0.00    +0.000 H 
BRANCH   42   40
ATOM     41  O3  UNL A   1      23.084  18.618  -3.034  1.00  0.00    +0.000 O 
ATOM     40  C36 UNL A   1      23.410  19.766  -2.890  1.00  0.00    +0.000 C 
BRANCH   40   39
ATOM    163  H59 UNL A   1      25.135  20.292  -1.891  1.00  0.00    +0.000 H 
ATOM     39  N2  UNL A   1      24.728  20.169  -2.778  1.00  0.00    +0.000 N 
BRANCH   39   38
ATOM    161  H57 UNL A   1      25.657  19.489  -4.502  1.00  0.00    +0.000 H 
ATOM    162  H58 UNL A   1      24.992  21.086  -4.627  1.00  0.00    +0.000 H 
ATOM     38  C35 UNL A   1      25.504  20.409  -3.976  1.00  0.00    +0.000 C 
BRANCH   38   37
ATOM     37  C34 UNL A   1      26.832  20.985  -3.553  1.00  0.00    +0.000 C 
ATOM    159  H55 UNL A   1      26.826  21.103  -2.490  1.00  0.00    +0.000 H 
ATOM    160  H56 UNL A   1      27.589  20.304  -3.883  1.00  0.00    +0.000 H 
BRANCH   37   36
ATOM     36  C33 UNL A   1      27.154  22.385  -4.208  1.00  0.00    +0.000 C 
ATOM    157  H53 UNL A   1      27.589  22.976  -3.430  1.00  0.00    +0.000 H 
ATOM    158  H54 UNL A   1      27.732  22.081  -5.057  1.00  0.00    +0.000 H 
BRANCH   36   35
ATOM     35  C32 UNL A   1      26.016  23.362  -4.936  1.00  0.00    +0.000 C 
ATOM    156  H52 UNL A   1      25.702  22.628  -5.649  1.00  0.00    +0.000 H 
ATOM    155  H51 UNL A   1      26.537  24.288  -5.056  1.00  0.00    +0.000 H 
BRANCH   35   34
ATOM    153  H49 UNL A   1      23.743  23.026  -4.717  1.00  0.00    +0.000 H 
ATOM     34  C31 UNL A   1      24.312  23.906  -4.503  1.00  0.00    +0.000 C 
ATOM    154  H50 UNL A   1      24.641  24.420  -3.624  1.00  0.00    +0.000 H 
BRANCH   34   33
ATOM     33  C30 UNL A   1      22.950  25.425  -5.011  1.00  0.00    +0.000 C 
ATOM    151  H47 UNL A   1      22.013  24.911  -4.957  1.00  0.00    +0.000 H 
ATOM    152  H48 UNL A   1      23.443  26.160  -4.410  1.00  0.00    +0.000 H 
BRANCH   33   32
ATOM    150  H46 UNL A   1      21.971  26.114  -6.747  1.00  0.00    +0.000 H 
ATOM     32  N1  UNL A   1      22.713  26.390  -6.162  1.00  0.00    +0.000 N 
BRANCH   32   30
ATOM     30  C29 UNL A   1      23.297  27.547  -6.565  1.00  0.00    +0.000 C 
ATOM     31  O2  UNL A   1      23.699  28.274  -5.646  1.00  0.00    +0.000 O 
BRANCH   30   29
ATOM    149  H45 UNL A   1      23.896  28.972  -7.844  1.00  0.00    +0.000 H 
ATOM    148  H44 UNL A   1      22.596  27.797  -8.503  1.00  0.00    +0.000 H 
ATOM     29  C28 UNL A   1      23.522  27.982  -8.002  1.00  0.00    +0.000 C 
BRANCH   29   28
ATOM    146  H42 UNL A   1      24.536  27.965  -9.860  1.00  0.00    +0.000 H 
ATOM    147  H43 UNL A   1      25.523  27.562  -8.401  1.00  0.00    +0.000 H 
ATOM     28  C27 UNL A   1      24.606  27.430  -8.937  1.00  0.00    +0.000 C 
BRANCH   28   27
ATOM      3  C3  UNL A   1      25.723  25.094  -8.636  1.00  0.00    +0.000 C 
ATOM      4  C4  UNL A   1      26.670  24.432  -9.667  1.00  0.00    +0.000 C 
ATOM      6  C5  UNL A   1      25.983  24.003 -10.964  1.00  0.00    +0.000 C 
ATOM      7  C6  UNL A   1      25.381  25.266 -11.661  1.00  0.00    +0.000 C 
ATOM      8  C7  UNL A   1      23.845  25.689 -10.660  1.00  0.00    +0.000 C 
ATOM      9  C8  UNL A   1      22.364  26.698 -11.397  1.00  0.00    +0.000 C 
ATOM     10  C9  UNL A   1      22.444  27.271 -13.252  1.00  0.00    +0.000 C 
ATOM     11  C10 UNL A   1      24.043  26.909 -14.338  1.00  0.00    +0.000 C 
ATOM    139  H35 UNL A   1      27.466  26.040 -13.681  1.00  0.00    +0.000 H 
ATOM    140  H36 UNL A   1      26.715  25.519 -15.213  1.00  0.00    +0.000 H 
ATOM     13  C12 UNL A   1      25.103  28.218 -14.632  1.00  0.00    +0.000 C 
ATOM    137  H33 UNL A   1      27.228  28.160 -14.253  1.00  0.00    +0.000 H 
ATOM    144  H40 UNL A   1      23.399  24.065  -9.196  1.00  0.00    +0.000 H 
ATOM    145  H41 UNL A   1      22.375  25.150  -8.884  1.00  0.00    +0.000 H 
ATOM    138  H34 UNL A   1      26.730  27.572 -15.860  1.00  0.00    +0.000 H 
ATOM     22  C21 UNL A   1      26.525  27.577 -14.810  1.00  0.00    +0.000 C 
ATOM     23  C22 UNL A   1      26.622  26.123 -14.334  1.00  0.00    +0.000 C 
ATOM     24  C23 UNL A   1      25.373  25.614 -13.578  1.00  0.00    +0.000 C 
ATOM     26  C25 UNL A   1      23.328  25.119  -9.368  1.00  0.00    +0.000 C 
ATOM     27  C26 UNL A   1      24.558  25.964  -9.261  1.00  0.00    +0.000 C 
ATOM    108  H4  UNL A   1      25.183  24.283  -8.195  1.00  0.00    +0.000 H 
ATOM    109  H5  UNL A   1      27.384  25.197  -9.897  1.00  0.00    +0.000 H 
ATOM    111  H7  UNL A   1      25.201  23.308 -10.743  1.00  0.00    +0.000 H 
ATOM    112  H8  UNL A   1      26.694  23.536 -11.614  1.00  0.00    +0.000 H 
ATOM    113  H9  UNL A   1      26.164  25.995 -11.650  1.00  0.00    +0.000 H 
ATOM    114  H10 UNL A   1      22.258  27.581 -10.801  1.00  0.00    +0.000 H 
ATOM    115  H11 UNL A   1      21.547  26.007 -11.377  1.00  0.00    +0.000 H 
ATOM    116  H12 UNL A   1      22.306  28.332 -13.252  1.00  0.00    +0.000 H 
ATOM    117  H13 UNL A   1      21.692  26.671 -13.722  1.00  0.00    +0.000 H 
ATOM    121  H17 UNL A   1      24.591  28.718 -15.427  1.00  0.00    +0.000 H 
BRANCH    3    2
ATOM      2  C2  UNL A   1      26.466  25.739  -7.467  1.00  0.00    +0.000 C 
ATOM    107  H3  UNL A   1      25.891  26.298  -6.817  1.00  0.00    +0.000 H 
BRANCH    2    1
ATOM      1  C1  UNL A   1      27.777  25.667  -7.184  1.00  0.00    +0.000 C 
ATOM    106  H2  UNL A   1      28.441  26.306  -7.645  1.00  0.00    +0.000 H 
ATOM    105  H1  UNL A   1      28.119  24.972  -6.502  1.00  0.00    +0.000 H 
ENDBRANCH    2    1
ENDBRANCH    3    2
BRANCH    4    5
ATOM      5  O1  UNL A   1      27.300  23.267  -9.118  1.00  0.00    +0.000 O 
ATOM    110  H6  UNL A   1      27.142  22.508  -9.702  1.00  0.00    +0.000 H 
ENDBRANCH    4    5
BRANCH   11   12
ATOM     12  C11 UNL A   1      23.376  26.937 -15.781  1.00  0.00    +0.000 C 
ATOM    118  H14 UNL A   1      23.730  26.105 -16.354  1.00  0.00    +0.000 H 
ATOM    119  H15 UNL A   1      23.635  27.848 -16.277  1.00  0.00    +0.000 H 
ATOM    120  H16 UNL A   1      22.312  26.874 -15.683  1.00  0.00    +0.000 H 
ENDBRANCH   11   12
BRANCH   13   14
ATOM    122  H18 UNL A   1      23.934  29.710 -14.209  1.00  0.00    +0.000 H 
ATOM     14  C13 UNL A   1      24.999  29.790 -14.159  1.00  0.00    +0.000 C 
BRANCH   14   15
ATOM    123  H19 UNL A   1      25.144  31.202 -15.774  1.00  0.00    +0.000 H 
ATOM    124  H20 UNL A   1      26.523  30.138 -15.635  1.00  0.00    +0.000 H 
ATOM    125  H21 UNL A   1      26.317  31.453 -14.504  1.00  0.00    +0.000 H 
ATOM     15  C14 UNL A   1      25.807  30.716 -15.089  1.00  0.00    +0.000 C 
ENDBRANCH   14   15
BRANCH   14   16
ATOM    126  H22 UNL A   1      25.647  29.856 -12.102  1.00  0.00    +0.000 H 
ATOM    127  H23 UNL A   1      23.919  30.384 -12.455  1.00  0.00    +0.000 H 
ATOM     16  C15 UNL A   1      24.961  30.424 -12.694  1.00  0.00    +0.000 C 
BRANCH   16   17
ATOM     17  C16 UNL A   1      25.302  31.921 -12.442  1.00  0.00    +0.000 C 
ATOM    129  H25 UNL A   1      26.340  31.912 -12.181  1.00  0.00    +0.000 H 
ATOM    128  H24 UNL A   1      25.043  32.457 -13.333  1.00  0.00    +0.000 H 
BRANCH   17   18
ATOM     18  C17 UNL A   1      24.629  32.639 -11.273  1.00  0.00    +0.000 C 
ATOM    130  H26 UNL A   1      23.826  33.237 -11.525  1.00  0.00    +0.000 H 
BRANCH   18   19
ATOM     19  C18 UNL A   1      24.934  32.602  -9.951  1.00  0.00    +0.000 C 
BRANCH   19   20
ATOM    133  H29 UNL A   1      25.331  31.234  -8.379  1.00  0.00    +0.000 H 
ATOM    131  H27 UNL A   1      26.753  31.775  -9.240  1.00  0.00    +0.000 H 
ATOM     20  C19 UNL A   1      25.730  31.474  -9.343  1.00  0.00    +0.000 C 
ATOM    132  H28 UNL A   1      25.673  30.614  -9.977  1.00  0.00    +0.000 H 
ENDBRANCH   19   20
BRANCH   19   21
ATOM     21  C20 UNL A   1      24.504  33.574  -8.891  1.00  0.00    +0.000 C 
ATOM    134  H30 UNL A   1      25.365  33.941  -8.374  1.00  0.00    +0.000 H 
ATOM    135  H31 UNL A   1      23.855  33.081  -8.198  1.00  0.00    +0.000 H 
ATOM    136  H32 UNL A   1      23.986  34.392  -9.346  1.00  0.00    +0.000 H 
ENDBRANCH   19   21
ENDBRANCH   18   19
ENDBRANCH   17   18
ENDBRANCH   16   17
ENDBRANCH   14   16
ENDBRANCH   13   14
BRANCH   24   25
ATOM     25  C24 UNL A   1      25.585  24.058 -13.773  1.00  0.00    +0.000 C 
ATOM    141  H37 UNL A   1      26.321  23.708 -13.080  1.00  0.00    +0.000 H 
ATOM    142  H38 UNL A   1      25.916  23.865 -14.773  1.00  0.00    +0.000 H 
ATOM    143  H39 UNL A   1      24.660  23.548 -13.599  1.00  0.00    +0.000 H 
ENDBRANCH   24   25
ENDBRANCH   28   27
ENDBRANCH   29   28
ENDBRANCH   30   29
ENDBRANCH   32   30
ENDBRANCH   33   32
ENDBRANCH   34   33
ENDBRANCH   35   34
ENDBRANCH   36   35
ENDBRANCH   37   36
ENDBRANCH   38   37
ENDBRANCH   39   38
ENDBRANCH   40   39
ENDBRANCH   42   40
ENDBRANCH   46   45
BRANCH   50   51
ATOM     51  C45 UNL A   1      21.816  29.121  -0.378  1.00  0.00    +0.000 C 
ATOM     52  C46 UNL A   1      22.752  29.617  -1.302  1.00  0.00    +0.000 C 
ATOM     53  F1  UNL A   1      22.526  29.502  -2.620  1.00  0.00    +0.000 F 
ATOM     54  C47 UNL A   1      23.955  30.174  -0.879  1.00  0.00    +0.000 C 
ATOM     55  F2  UNL A   1      24.862  30.571  -1.783  1.00  0.00    +0.000 F 
ATOM     56  C48 UNL A   1      24.227  30.294   0.475  1.00  0.00    +0.000 C 
ATOM     57  F3  UNL A   1      25.385  30.833   0.882  1.00  0.00    +0.000 F 
ATOM     58  C49 UNL A   1      23.303  29.845   1.407  1.00  0.00    +0.000 C 
ATOM     59  F4  UNL A   1      23.561  29.969   2.716  1.00  0.00    +0.000 F 
ATOM     60  C50 UNL A   1      22.116  29.251   0.986  1.00  0.00    +0.000 C 
ATOM     61  F5  UNL A   1      21.260  28.794   1.913  1.00  0.00    +0.000 F 
ENDBRANCH   50   51
BRANCH   67   68
ATOM     68  C56 UNL A   1      14.890  30.763  -1.514  1.00  0.00    +0.000 C 
ATOM     69  C57 UNL A   1      14.350  31.320  -2.681  1.00  0.00    +0.000 C 
ATOM     70  F6  UNL A   1      14.668  30.814  -3.881  1.00  0.00    +0.000 F 
ATOM     71  C58 UNL A   1      13.500  32.419  -2.616  1.00  0.00    +0.000 C 
ATOM     72  F7  UNL A   1      13.024  32.963  -3.745  1.00  0.00    +0.000 F 
ATOM     73  C59 UNL A   1      13.148  32.956  -1.386  1.00  0.00    +0.000 C 
ATOM     74  F8  UNL A   1      12.315  34.004  -1.325  1.00  0.00    +0.000 F 
ATOM     75  C60 UNL A   1      13.660  32.410  -0.219  1.00  0.00    +0.000 C 
ATOM     76  F9  UNL A   1      13.305  32.914   0.971  1.00  0.00    +0.000 F 
ATOM     77  C61 UNL A   1      14.537  31.332  -0.281  1.00  0.00    +0.000 C 
ATOM     78  F10 UNL A   1      15.019  30.824   0.862  1.00  0.00    +0.000 F 
ENDBRANCH   67   68
BRANCH   82   83
ATOM     83  C65 UNL A   1      13.533  24.105  -3.115  1.00  0.00    +0.000 C 
ATOM     84  C66 UNL A   1      13.024  24.185  -4.419  1.00  0.00    +0.000 C 
ATOM     85  F11 UNL A   1      13.642  24.947  -5.333  1.00  0.00    +0.000 F 
ATOM     86  C67 UNL A   1      11.855  23.517  -4.780  1.00  0.00    +0.000 C 
ATOM     87  F12 UNL A   1      11.366  23.649  -6.020  1.00  0.00    +0.000 F 
ATOM     88  C68 UNL A   1      11.190  22.728  -3.854  1.00  0.00    +0.000 C 
ATOM     89  F13 UNL A   1      10.068  22.084  -4.201  1.00  0.00    +0.000 F 
ATOM     90  C69 UNL A   1      11.687  22.615  -2.564  1.00  0.00    +0.000 C 
ATOM     91  F14 UNL A   1      11.056  21.841  -1.670  1.00  0.00    +0.000 F 
ATOM     92  C70 UNL A   1      12.840  23.306  -2.194  1.00  0.00    +0.000 C 
ATOM     93  F15 UNL A   1      13.290  23.187  -0.937  1.00  0.00    +0.000 F 
ENDBRANCH   82   83
TORSDOF 30
ENDMDL
MODEL 3
REMARK VINA RESULT:     -10.1      3.331      5.338
ROOT
ATOM    166  H62 UNL A   1      19.784  31.099  -0.508  1.00  0.00    +0.000 H 
ATOM    167  H63 UNL A   1      17.246  31.591  -0.843  1.00  0.00    +0.000 H 
ATOM    168  H64 UNL A   1      17.888  27.570  -1.574  1.00  0.00    +0.000 H 
ATOM    169  H65 UNL A   1      15.552  21.872  -3.408  1.00  0.00    +0.000 H 
ATOM    170  H66 UNL A   1      18.040  21.424  -3.140  1.00  0.00    +0.000 H 
ATOM    171  H67 UNL A   1      17.369  25.428  -2.252  1.00  0.00    +0.000 H 
ATOM    172  H68 UNL A   1      12.501  26.276  -2.863  1.00  0.00    +0.000 H 
ATOM    173  H69 UNL A   1      13.035  28.737  -2.407  1.00  0.00    +0.000 H 
ATOM     46  C41 UNL A   1      19.568  23.733  -2.444  1.00  0.00    +0.000 C 
ATOM     47  C42 UNL A   1      20.158  25.043  -1.990  1.00  0.00    +0.000 C 
ATOM     48  N3  UNL A   1      19.558  26.157  -1.666  1.00  0.00    +0.000 N 
ATOM    175  H71 UNL A   1      22.330  24.385  -2.091  1.00  0.00    +0.000 H 
ATOM     49  C43 UNL A   1      20.565  26.998  -1.212  1.00  0.00    +0.000 C 
ATOM    174  H70 UNL A   1      22.679  26.561  -0.780  1.00  0.00    +0.000 H 
ATOM     50  C44 UNL A   1      20.483  28.308  -0.886  1.00  0.00    +0.000 C 
ATOM     62  C51 UNL A   1      19.266  29.061  -0.984  1.00  0.00    +0.000 C 
ATOM     63  C52 UNL A   1      19.062  30.409  -0.769  1.00  0.00    +0.000 C 
ATOM     64  C53 UNL A   1      17.704  30.674  -0.965  1.00  0.00    +0.000 C 
ATOM     65  C54 UNL A   1      17.072  29.501  -1.354  1.00  0.00    +0.000 C 
ATOM     66  N4  UNL A   1      18.042  28.516  -1.350  1.00  0.00    +0.000 N 
ATOM     67  C55 UNL A   1      15.689  29.301  -1.702  1.00  0.00    +0.000 C 
ATOM     79  C62 UNL A   1      15.121  28.122  -2.064  1.00  0.00    +0.000 C 
ATOM     80  N5  UNL A   1      15.703  26.870  -2.199  1.00  0.00    +0.000 N 
ATOM     81  C63 UNL A   1      14.735  26.056  -2.551  1.00  0.00    +0.000 C 
ATOM     82  C64 UNL A   1      14.797  24.583  -2.867  1.00  0.00    +0.000 C 
ATOM     94  C71 UNL A   1      15.996  23.974  -2.830  1.00  0.00    +0.000 C 
ATOM     95  C72 UNL A   1      16.261  22.570  -3.134  1.00  0.00    +0.000 C 
ATOM     96  C73 UNL A   1      17.577  22.335  -3.002  1.00  0.00    +0.000 C 
ATOM     97  C74 UNL A   1      18.247  23.582  -2.630  1.00  0.00    +0.000 C 
ATOM     98  N6  UNL A   1      17.229  24.491  -2.523  1.00  0.00    +0.000 N 
ATOM     99  C75 UNL A   1      13.419  26.698  -2.647  1.00  0.00    +0.000 C 
ATOM    100  C76 UNL A   1      13.718  27.963  -2.385  1.00  0.00    +0.000 C 
ATOM    101  C77 UNL A   1      21.792  26.242  -1.203  1.00  0.00    +0.000 C 
ATOM    102  C78 UNL A   1      21.623  25.082  -1.813  1.00  0.00    +0.000 C 
ENDROOT
BRANCH   46   45
ATOM    164  H60 UNL A   1      22.202  20.836  -4.904  1.00  0.00    +0.000 H 
ATOM    165  H61 UNL A   1      20.452  22.522  -4.724  1.00  0.00    +0.000 H 
ATOM    103  C79 UNL A   1      21.063  22.055  -1.444  1.00  0.00    +0.000 C 
ATOM    104  C80 UNL A   1      22.140  21.204  -1.553  1.00  0.00    +0.000 C 
ATOM     42  C37 UNL A   1      22.537  20.752  -2.817  1.00  0.00    +0.000 C 
ATOM     43  C38 UNL A   1      21.916  21.198  -3.981  1.00  0.00    +0.000 C 
ATOM     44  C39 UNL A   1      20.900  22.145  -3.873  1.00  0.00    +0.000 C 
ATOM     45  C40 UNL A   1      20.485  22.586  -2.605  1.00  0.00    +0.000 C 
ATOM    176  H72 UNL A   1      20.685  22.301  -0.516  1.00  0.00    +0.000 H 
ATOM    177  H73 UNL A   1      22.652  20.901  -0.709  1.00  0.00    +0.000 H 
BRANCH   42   40
ATOM     41  O3  UNL A   1      23.224  18.490  -2.797  1.00  0.00    +0.000 O 
ATOM     40  C36 UNL A   1      23.527  19.651  -2.865  1.00  0.00    +0.000 C 
BRANCH   40   39
ATOM    163  H59 UNL A   1      25.036  20.884  -3.537  1.00  0.00    +0.000 H 
ATOM     39  N2  UNL A   1      24.833  20.084  -3.001  1.00  0.00    +0.000 N 
BRANCH   39   38
ATOM    161  H57 UNL A   1      25.663  19.208  -1.317  1.00  0.00    +0.000 H 
ATOM    162  H58 UNL A   1      26.024  18.389  -2.803  1.00  0.00    +0.000 H 
ATOM     38  C35 UNL A   1      25.899  19.351  -2.351  1.00  0.00    +0.000 C 
BRANCH   38   37
ATOM     37  C34 UNL A   1      27.161  20.166  -2.482  1.00  0.00    +0.000 C 
ATOM    159  H55 UNL A   1      27.179  20.890  -1.695  1.00  0.00    +0.000 H 
ATOM    160  H56 UNL A   1      27.982  19.482  -2.427  1.00  0.00    +0.000 H 
BRANCH   37   36
ATOM     36  C33 UNL A   1      27.285  20.925  -3.861  1.00  0.00    +0.000 C 
ATOM    157  H53 UNL A   1      28.208  20.596  -4.291  1.00  0.00    +0.000 H 
ATOM    158  H54 UNL A   1      26.347  20.676  -4.313  1.00  0.00    +0.000 H 
BRANCH   36   35
ATOM     35  C32 UNL A   1      27.279  22.585  -4.019  1.00  0.00    +0.000 C 
ATOM    156  H52 UNL A   1      28.276  22.648  -4.401  1.00  0.00    +0.000 H 
ATOM    155  H51 UNL A   1      26.853  22.912  -3.093  1.00  0.00    +0.000 H 
BRANCH   35   34
ATOM    153  H49 UNL A   1      27.183  24.625  -5.093  1.00  0.00    +0.000 H 
ATOM     34  C31 UNL A   1      26.563  23.766  -5.236  1.00  0.00    +0.000 C 
ATOM    154  H50 UNL A   1      26.449  23.010  -5.984  1.00  0.00    +0.000 H 
BRANCH   34   33
ATOM     33  C30 UNL A   1      24.712  24.650  -5.696  1.00  0.00    +0.000 C 
ATOM    151  H47 UNL A   1      24.154  23.817  -6.069  1.00  0.00    +0.000 H 
ATOM    152  H48 UNL A   1      24.692  25.232  -4.798  1.00  0.00    +0.000 H 
BRANCH   33   32
ATOM    150  H46 UNL A   1      24.746  25.958  -7.350  1.00  0.00    +0.000 H 
ATOM     32  N1  UNL A   1      24.189  25.791  -6.556  1.00  0.00    +0.000 N 
BRANCH   32   30
ATOM     30  C29 UNL A   1      23.126  26.631  -6.473  1.00  0.00    +0.000 C 
ATOM     31  O2  UNL A   1      23.129  27.376  -5.484  1.00  0.00    +0.000 O 
BRANCH   30   29
ATOM    149  H45 UNL A   1      21.315  27.360  -6.932  1.00  0.00    +0.000 H 
ATOM    148  H44 UNL A   1      21.763  25.743  -7.762  1.00  0.00    +0.000 H 
ATOM     29  C28 UNL A   1      21.998  26.748  -7.482  1.00  0.00    +0.000 C 
BRANCH   29   28
ATOM    146  H42 UNL A   1      21.091  27.498  -9.241  1.00  0.00    +0.000 H 
ATOM    147  H43 UNL A   1      22.405  28.507  -8.520  1.00  0.00    +0.000 H 
ATOM     28  C27 UNL A   1      22.064  27.532  -8.799  1.00  0.00    +0.000 C 
BRANCH   28   27
ATOM      3  C3  UNL A   1      24.349  27.949  -9.981  1.00  0.00    +0.000 C 
ATOM      4  C4  UNL A   1      24.516  28.646 -11.353  1.00  0.00    +0.000 C 
ATOM      6  C5  UNL A   1      23.985  27.834 -12.536  1.00  0.00    +0.000 C 
ATOM      7  C6  UNL A   1      22.452  27.597 -12.341  1.00  0.00    +0.000 C 
ATOM      8  C7  UNL A   1      22.329  26.268 -11.015  1.00  0.00    +0.000 C 
ATOM      9  C8  UNL A   1      20.782  25.116 -10.832  1.00  0.00    +0.000 C 
ATOM     10  C9  UNL A   1      19.309  25.310 -12.084  1.00  0.00    +0.000 C 
ATOM     11  C10 UNL A   1      19.349  26.716 -13.460  1.00  0.00    +0.000 C 
ATOM    139  H35 UNL A   1      21.172  29.767 -13.977  1.00  0.00    +0.000 H 
ATOM    140  H36 UNL A   1      20.569  28.863 -15.392  1.00  0.00    +0.000 H 
ATOM     13  C12 UNL A   1      18.374  28.095 -13.199  1.00  0.00    +0.000 C 
ATOM    137  H33 UNL A   1      19.103  30.125 -13.290  1.00  0.00    +0.000 H 
ATOM    144  H40 UNL A   1      24.345  25.417 -10.579  1.00  0.00    +0.000 H 
ATOM    145  H41 UNL A   1      23.422  24.749  -9.566  1.00  0.00    +0.000 H 
ATOM    138  H34 UNL A   1      18.569  29.443 -14.848  1.00  0.00    +0.000 H 
ATOM     22  C21 UNL A   1      19.104  29.273 -13.937  1.00  0.00    +0.000 C 
ATOM     23  C22 UNL A   1      20.554  28.966 -14.327  1.00  0.00    +0.000 C 
ATOM     24  C23 UNL A   1      21.104  27.643 -13.748  1.00  0.00    +0.000 C 
ATOM     26  C25 UNL A   1      23.390  25.642 -10.152  1.00  0.00    +0.000 C 
ATOM     27  C26 UNL A   1      23.047  27.063  -9.834  1.00  0.00    +0.000 C 
ATOM    108  H4  UNL A   1      25.124  27.212  -9.948  1.00  0.00    +0.000 H 
ATOM    109  H5  UNL A   1      23.934  29.541 -11.266  1.00  0.00    +0.000 H 
ATOM    111  H7  UNL A   1      24.490  26.893 -12.581  1.00  0.00    +0.000 H 
ATOM    112  H8  UNL A   1      24.155  28.368 -13.448  1.00  0.00    +0.000 H 
ATOM    113  H9  UNL A   1      22.049  28.555 -12.085  1.00  0.00    +0.000 H 
ATOM    114  H10 UNL A   1      20.384  25.279  -9.852  1.00  0.00    +0.000 H 
ATOM    115  H11 UNL A   1      21.165  24.138 -11.036  1.00  0.00    +0.000 H 
ATOM    116  H12 UNL A   1      18.428  25.478 -11.499  1.00  0.00    +0.000 H 
ATOM    117  H13 UNL A   1      19.360  24.409 -12.659  1.00  0.00    +0.000 H 
ATOM    121  H17 UNL A   1      17.417  27.726 -13.505  1.00  0.00    +0.000 H 
BRANCH    3    2
ATOM      2  C2  UNL A   1      24.649  28.872  -8.800  1.00  0.00    +0.000 C 
ATOM    107  H3  UNL A   1      23.975  29.637  -8.640  1.00  0.00    +0.000 H 
BRANCH    2    1
ATOM      1  C1  UNL A   1      25.682  28.808  -7.945  1.00  0.00    +0.000 C 
ATOM    106  H2  UNL A   1      26.624  28.569  -8.291  1.00  0.00    +0.000 H 
ATOM    105  H1  UNL A   1      25.534  28.998  -6.941  1.00  0.00    +0.000 H 
ENDBRANCH    2    1
ENDBRANCH    3    2
BRANCH    4    5
ATOM      5  O1  UNL A   1      25.894  28.933 -11.625  1.00  0.00    +0.000 O 
ATOM    110  H6  UNL A   1      26.457  28.364 -11.076  1.00  0.00    +0.000 H 
ENDBRANCH    4    5
BRANCH   11   12
ATOM     12  C11 UNL A   1      18.376  26.049 -14.526  1.00  0.00    +0.000 C 
ATOM    118  H14 UNL A   1      18.091  26.779 -15.255  1.00  0.00    +0.000 H 
ATOM    119  H15 UNL A   1      17.503  25.681 -14.031  1.00  0.00    +0.000 H 
ATOM    120  H16 UNL A   1      18.880  25.240 -15.011  1.00  0.00    +0.000 H 
ENDBRANCH   11   12
BRANCH   13   14
ATOM    122  H18 UNL A   1      16.531  28.312 -12.625  1.00  0.00    +0.000 H 
ATOM     14  C13 UNL A   1      17.355  28.452 -11.958  1.00  0.00    +0.000 C 
BRANCH   14   15
ATOM    123  H19 UNL A   1      17.450  30.599 -12.013  1.00  0.00    +0.000 H 
ATOM    124  H20 UNL A   1      18.733  29.855 -11.090  1.00  0.00    +0.000 H 
ATOM    125  H21 UNL A   1      17.119  29.943 -10.428  1.00  0.00    +0.000 H 
ATOM     15  C14 UNL A   1      17.690  29.816 -11.324  1.00  0.00    +0.000 C 
ENDBRANCH   14   15
BRANCH   14   16
ATOM    126  H22 UNL A   1      16.977  27.925  -9.899  1.00  0.00    +0.000 H 
ATOM    127  H23 UNL A   1      17.113  26.543 -11.108  1.00  0.00    +0.000 H 
ATOM     16  C15 UNL A   1      16.716  27.501 -10.846  1.00  0.00    +0.000 C 
BRANCH   16   17
ATOM     17  C16 UNL A   1      15.186  27.222 -10.791  1.00  0.00    +0.000 C 
ATOM    129  H25 UNL A   1      15.024  26.847  -9.802  1.00  0.00    +0.000 H 
ATOM    128  H24 UNL A   1      14.690  28.138 -11.037  1.00  0.00    +0.000 H 
BRANCH   17   18
ATOM     18  C17 UNL A   1      14.606  26.138 -11.700  1.00  0.00    +0.000 C 
ATOM    130  H26 UNL A   1      14.006  25.442 -11.231  1.00  0.00    +0.000 H 
BRANCH   18   19
ATOM     19  C18 UNL A   1      14.766  25.961 -13.037  1.00  0.00    +0.000 C 
BRANCH   19   20
ATOM    133  H29 UNL A   1      15.559  24.745 -14.584  1.00  0.00    +0.000 H 
ATOM    131  H27 UNL A   1      14.179  24.056 -13.761  1.00  0.00    +0.000 H 
ATOM     20  C19 UNL A   1      15.085  24.612 -13.633  1.00  0.00    +0.000 C 
ATOM    132  H28 UNL A   1      15.742  24.078 -12.979  1.00  0.00    +0.000 H 
ENDBRANCH   19   20
BRANCH   19   21
ATOM     21  C20 UNL A   1      14.733  27.014 -14.105  1.00  0.00    +0.000 C 
ATOM    134  H30 UNL A   1      14.233  26.630 -14.969  1.00  0.00    +0.000 H 
ATOM    135  H31 UNL A   1      15.733  27.290 -14.365  1.00  0.00    +0.000 H 
ATOM    136  H32 UNL A   1      14.208  27.873 -13.742  1.00  0.00    +0.000 H 
ENDBRANCH   19   21
ENDBRANCH   18   19
ENDBRANCH   17   18
ENDBRANCH   16   17
ENDBRANCH   14   16
ENDBRANCH   13   14
BRANCH   24   25
ATOM     25  C24 UNL A   1      22.289  27.401 -14.770  1.00  0.00    +0.000 C 
ATOM    141  H37 UNL A   1      22.489  26.353 -14.842  1.00  0.00    +0.000 H 
ATOM    142  H38 UNL A   1      23.166  27.908 -14.426  1.00  0.00    +0.000 H 
ATOM    143  H39 UNL A   1      22.012  27.778 -15.732  1.00  0.00    +0.000 H 
ENDBRANCH   24   25
ENDBRANCH   28   27
ENDBRANCH   29   28
ENDBRANCH   30   29
ENDBRANCH   32   30
ENDBRANCH   33   32
ENDBRANCH   34   33
ENDBRANCH   35   34
ENDBRANCH   36   35
ENDBRANCH   37   36
ENDBRANCH   38   37
ENDBRANCH   39   38
ENDBRANCH   40   39
ENDBRANCH   42   40
ENDBRANCH   46   45
BRANCH   50   51
ATOM     51  C45 UNL A   1      21.740  28.992  -0.431  1.00  0.00    +0.000 C 
ATOM     52  C46 UNL A   1      22.073  29.103   0.929  1.00  0.00    +0.000 C 
ATOM     53  F1  UNL A   1      21.257  28.598   1.867  1.00  0.00    +0.000 F 
ATOM     54  C47 UNL A   1      23.212  29.790   1.337  1.00  0.00    +0.000 C 
ATOM     55  F2  UNL A   1      23.467  29.945   2.644  1.00  0.00    +0.000 F 
ATOM     56  C48 UNL A   1      24.069  30.336   0.394  1.00  0.00    +0.000 C 
ATOM     57  F3  UNL A   1      25.168  30.996   0.788  1.00  0.00    +0.000 F 
ATOM     58  C49 UNL A   1      23.780  30.209  -0.956  1.00  0.00    +0.000 C 
ATOM     59  F4  UNL A   1      24.613  30.728  -1.869  1.00  0.00    +0.000 F 
ATOM     60  C50 UNL A   1      22.620  29.556  -1.366  1.00  0.00    +0.000 C 
ATOM     61  F5  UNL A   1      22.353  29.482  -2.679  1.00  0.00    +0.000 F 
ENDBRANCH   50   51
BRANCH   67   68
ATOM     68  C56 UNL A   1      14.804  30.510  -1.678  1.00  0.00    +0.000 C 
ATOM     69  C57 UNL A   1      14.433  31.122  -0.473  1.00  0.00    +0.000 C 
ATOM     70  F6  UNL A   1      14.796  30.582   0.699  1.00  0.00    +0.000 F 
ATOM     71  C58 UNL A   1      13.663  32.281  -0.473  1.00  0.00    +0.000 C 
ATOM     72  F7  UNL A   1      13.284  32.830   0.690  1.00  0.00    +0.000 F 
ATOM     73  C59 UNL A   1      13.283  32.865  -1.672  1.00  0.00    +0.000 C 
ATOM     74  F8  UNL A   1      12.555  33.991  -1.669  1.00  0.00    +0.000 F 
ATOM     75  C60 UNL A   1      13.652  32.283  -2.875  1.00  0.00    +0.000 C 
ATOM     76  F9  UNL A   1      13.303  32.857  -4.034  1.00  0.00    +0.000 F 
ATOM     77  C61 UNL A   1      14.393  31.107  -2.880  1.00  0.00    +0.000 C 
ATOM     78  F10 UNL A   1      14.737  30.564  -4.057  1.00  0.00    +0.000 F 
ENDBRANCH   67   68
BRANCH   82   83
ATOM     83  C65 UNL A   1      13.584  23.824  -3.266  1.00  0.00    +0.000 C 
ATOM     84  C66 UNL A   1      12.911  23.005  -2.346  1.00  0.00    +0.000 C 
ATOM     85  F11 UNL A   1      13.372  22.889  -1.093  1.00  0.00    +0.000 F 
ATOM     86  C67 UNL A   1      11.788  22.271  -2.721  1.00  0.00    +0.000 C 
ATOM     87  F12 UNL A   1      11.194  21.460  -1.835  1.00  0.00    +0.000 F 
ATOM     88  C68 UNL A   1      11.293  22.365  -4.013  1.00  0.00    +0.000 C 
ATOM     89  F13 UNL A   1      10.212  21.660  -4.372  1.00  0.00    +0.000 F 
ATOM     90  C69 UNL A   1      11.927  23.186  -4.934  1.00  0.00    +0.000 C 
ATOM     91  F14 UNL A   1      11.443  23.292  -6.179  1.00  0.00    +0.000 F 
ATOM     92  C70 UNL A   1      13.068  23.899  -4.568  1.00  0.00    +0.000 C 
ATOM     93  F15 UNL A   1      13.666  24.675  -5.483  1.00  0.00    +0.000 F 
ENDBRANCH   82   83
TORSDOF 30
ENDMDL
MODEL 4
REMARK VINA RESULT:      -9.9     36.614     42.274
ROOT
ATOM    166  H62 UNL A   1      39.868  28.414  26.747  1.00  0.00    +0.000 H 
ATOM    167  H63 UNL A   1      37.995  30.144  27.287  1.00  0.00    +0.000 H 
ATOM    168  H64 UNL A   1      40.255  29.581  30.706  1.00  0.00    +0.000 H 
ATOM    169  H65 UNL A   1      41.206  30.828  36.937  1.00  0.00    +0.000 H 
ATOM    170  H66 UNL A   1      42.987  29.091  36.410  1.00  0.00    +0.000 H 
ATOM    171  H67 UNL A   1      40.816  29.776  32.934  1.00  0.00    +0.000 H 
ATOM    172  H68 UNL A   1      37.295  33.121  34.032  1.00  0.00    +0.000 H 
ATOM    173  H69 UNL A   1      36.423  32.747  31.655  1.00  0.00    +0.000 H 
ATOM     46  C41 UNL A   1      42.891  28.102  33.734  1.00  0.00    +0.000 C 
ATOM     47  C42 UNL A   1      42.721  27.795  32.269  1.00  0.00    +0.000 C 
ATOM     48  N3  UNL A   1      41.937  28.356  31.387  1.00  0.00    +0.000 N 
ATOM    175  H71 UNL A   1      44.230  26.099  32.195  1.00  0.00    +0.000 H 
ATOM     49  C43 UNL A   1      42.267  27.767  30.174  1.00  0.00    +0.000 C 
ATOM    174  H70 UNL A   1      43.937  26.424  29.668  1.00  0.00    +0.000 H 
ATOM     50  C44 UNL A   1      41.653  27.905  28.977  1.00  0.00    +0.000 C 
ATOM     62  C51 UNL A   1      40.490  28.723  28.788  1.00  0.00    +0.000 C 
ATOM     63  C52 UNL A   1      39.721  28.884  27.653  1.00  0.00    +0.000 C 
ATOM     64  C53 UNL A   1      38.706  29.799  27.950  1.00  0.00    +0.000 C 
ATOM     65  C54 UNL A   1      38.813  30.167  29.284  1.00  0.00    +0.000 C 
ATOM     66  N4  UNL A   1      39.920  29.507  29.782  1.00  0.00    +0.000 N 
ATOM     67  C55 UNL A   1      37.966  31.052  30.041  1.00  0.00    +0.000 C 
ATOM     79  C62 UNL A   1      38.127  31.388  31.345  1.00  0.00    +0.000 C 
ATOM     80  N5  UNL A   1      39.095  30.971  32.248  1.00  0.00    +0.000 N 
ATOM     81  C63 UNL A   1      38.831  31.589  33.375  1.00  0.00    +0.000 C 
ATOM     82  C64 UNL A   1      39.536  31.489  34.704  1.00  0.00    +0.000 C 
ATOM     94  C71 UNL A   1      40.568  30.633  34.815  1.00  0.00    +0.000 C 
ATOM     95  C72 UNL A   1      41.350  30.374  36.021  1.00  0.00    +0.000 C 
ATOM     96  C73 UNL A   1      42.286  29.450  35.745  1.00  0.00    +0.000 C 
ATOM     97  C74 UNL A   1      42.146  29.035  34.349  1.00  0.00    +0.000 C 
ATOM     98  N6  UNL A   1      41.124  29.809  33.869  1.00  0.00    +0.000 N 
ATOM     99  C75 UNL A   1      37.679  32.496  33.305  1.00  0.00    +0.000 C 
ATOM    100  C76 UNL A   1      37.261  32.302  32.061  1.00  0.00    +0.000 C 
ATOM    101  C77 UNL A   1      43.385  26.887  30.407  1.00  0.00    +0.000 C 
ATOM    102  C78 UNL A   1      43.604  26.756  31.705  1.00  0.00    +0.000 C 
ENDROOT
BRANCH   46   45
ATOM    164  H60 UNL A   1      47.169  27.684  35.439  1.00  0.00    +0.000 H 
ATOM    165  H61 UNL A   1      45.536  28.732  33.965  1.00  0.00    +0.000 H 
ATOM    103  C79 UNL A   1      43.601  26.274  35.218  1.00  0.00    +0.000 C 
ATOM    104  C80 UNL A   1      44.484  25.769  36.146  1.00  0.00    +0.000 C 
ATOM     42  C37 UNL A   1      45.788  26.278  36.208  1.00  0.00    +0.000 C 
ATOM     43  C38 UNL A   1      46.197  27.337  35.401  1.00  0.00    +0.000 C 
ATOM     44  C39 UNL A   1      45.267  27.919  34.543  1.00  0.00    +0.000 C 
ATOM     45  C40 UNL A   1      43.965  27.398  34.463  1.00  0.00    +0.000 C 
ATOM    176  H72 UNL A   1      42.680  25.831  35.079  1.00  0.00    +0.000 H 
ATOM    177  H73 UNL A   1      44.188  25.020  36.792  1.00  0.00    +0.000 H 
BRANCH   42   40
ATOM     41  O3  UNL A   1      47.556  26.080  37.764  1.00  0.00    +0.000 O 
ATOM     40  C36 UNL A   1      46.767  25.539  37.037  1.00  0.00    +0.000 C 
BRANCH   40   39
ATOM    163  H59 UNL A   1      46.079  23.646  37.477  1.00  0.00    +0.000 H 
ATOM     39  N2  UNL A   1      46.685  24.165  36.901  1.00  0.00    +0.000 N 
BRANCH   39   38
ATOM    161  H57 UNL A   1      47.685  24.158  35.086  1.00  0.00    +0.000 H 
ATOM    162  H58 UNL A   1      48.438  23.204  36.323  1.00  0.00    +0.000 H 
ATOM     38  C35 UNL A   1      47.497  23.497  35.906  1.00  0.00    +0.000 C 
BRANCH   38   37
ATOM     37  C34 UNL A   1      46.731  22.289  35.427  1.00  0.00    +0.000 C 
ATOM    159  H55 UNL A   1      47.379  21.701  34.810  1.00  0.00    +0.000 H 
ATOM    160  H56 UNL A   1      46.405  21.759  36.297  1.00  0.00    +0.000 H 
BRANCH   37   36
ATOM     36  C33 UNL A   1      45.440  22.647  34.593  1.00  0.00    +0.000 C 
ATOM    157  H53 UNL A   1      45.100  21.723  34.174  1.00  0.00    +0.000 H 
ATOM    158  H54 UNL A   1      44.861  23.163  35.330  1.00  0.00    +0.000 H 
BRANCH   36   35
ATOM     35  C32 UNL A   1      45.409  23.749  33.342  1.00  0.00    +0.000 C 
ATOM    156  H52 UNL A   1      44.754  24.436  33.836  1.00  0.00    +0.000 H 
ATOM    155  H51 UNL A   1      45.266  23.130  32.481  1.00  0.00    +0.000 H 
BRANCH   35   34
ATOM    153  H49 UNL A   1      46.200  25.914  33.224  1.00  0.00    +0.000 H 
ATOM     34  C31 UNL A   1      46.566  25.040  32.726  1.00  0.00    +0.000 C 
ATOM    154  H50 UNL A   1      47.417  24.398  32.816  1.00  0.00    +0.000 H 
BRANCH   34   33
ATOM     33  C30 UNL A   1      47.231  25.842  30.899  1.00  0.00    +0.000 C 
ATOM    151  H47 UNL A   1      48.278  25.968  31.080  1.00  0.00    +0.000 H 
ATOM    152  H48 UNL A   1      46.641  25.169  30.313  1.00  0.00    +0.000 H 
BRANCH   33   32
ATOM    150  H46 UNL A   1      47.004  27.897  30.482  1.00  0.00    +0.000 H 
ATOM     32  N1  UNL A   1      46.919  27.037  30.011  1.00  0.00    +0.000 N 
BRANCH   32   30
ATOM     30  C29 UNL A   1      46.547  27.182  28.714  1.00  0.00    +0.000 C 
ATOM     31  O2  UNL A   1      46.046  26.173  28.201  1.00  0.00    +0.000 O 
BRANCH   30   29
ATOM    149  H45 UNL A   1      47.224  29.065  28.561  1.00  0.00    +0.000 H 
ATOM    148  H44 UNL A   1      45.660  28.694  27.601  1.00  0.00    +0.000 H 
ATOM     29  C28 UNL A   1      46.661  28.451  27.889  1.00  0.00    +0.000 C 
BRANCH   29   28
ATOM    146  H42 UNL A   1      47.127  27.907  25.897  1.00  0.00    +0.000 H 
ATOM    147  H43 UNL A   1      47.393  29.639  26.342  1.00  0.00    +0.000 H 
ATOM     28  C27 UNL A   1      47.499  28.608  26.613  1.00  0.00    +0.000 C 
BRANCH   28   27
ATOM      3  C3  UNL A   1      49.464  26.897  26.547  1.00  0.00    +0.000 C 
ATOM      4  C4  UNL A   1      50.124  26.266  27.797  1.00  0.00    +0.000 C 
ATOM      6  C5  UNL A   1      50.930  27.251  28.645  1.00  0.00    +0.000 C 
ATOM      7  C6  UNL A   1      49.975  28.373  29.165  1.00  0.00    +0.000 C 
ATOM      8  C7  UNL A   1      49.665  29.479  27.675  1.00  0.00    +0.000 C 
ATOM      9  C8  UNL A   1      49.132  31.334  27.845  1.00  0.00    +0.000 C 
ATOM     10  C9  UNL A   1      48.940  32.101  29.620  1.00  0.00    +0.000 C 
ATOM     11  C10 UNL A   1      49.196  30.986  31.220  1.00  0.00    +0.000 C 
ATOM    139  H35 UNL A   1      49.235  27.466  31.932  1.00  0.00    +0.000 H 
ATOM    140  H36 UNL A   1      50.189  28.571  32.957  1.00  0.00    +0.000 H 
ATOM     13  C12 UNL A   1      47.794  30.488  32.061  1.00  0.00    +0.000 C 
ATOM    137  H33 UNL A   1      47.360  28.438  32.581  1.00  0.00    +0.000 H 
ATOM    144  H40 UNL A   1      51.015  28.911  25.992  1.00  0.00    +0.000 H 
ATOM    145  H41 UNL A   1      50.110  29.989  25.407  1.00  0.00    +0.000 H 
ATOM    138  H34 UNL A   1      48.346  29.328  33.770  1.00  0.00    +0.000 H 
ATOM     22  C21 UNL A   1      48.169  29.122  32.735  1.00  0.00    +0.000 C 
ATOM     23  C22 UNL A   1      49.450  28.482  32.188  1.00  0.00    +0.000 C 
ATOM     24  C23 UNL A   1      50.028  29.183  30.937  1.00  0.00    +0.000 C 
ATOM     26  C25 UNL A   1      50.052  29.312  26.232  1.00  0.00    +0.000 C 
ATOM     27  C26 UNL A   1      48.981  28.393  26.729  1.00  0.00    +0.000 C 
ATOM    108  H4  UNL A   1      50.259  27.005  25.839  1.00  0.00    +0.000 H 
ATOM    109  H5  UNL A   1      49.297  25.913  28.380  1.00  0.00    +0.000 H 
ATOM    111  H7  UNL A   1      51.705  27.686  28.050  1.00  0.00    +0.000 H 
ATOM    112  H8  UNL A   1      51.372  26.738  29.474  1.00  0.00    +0.000 H 
ATOM    113  H9  UNL A   1      49.121  27.859  29.554  1.00  0.00    +0.000 H 
ATOM    114  H10 UNL A   1      48.185  31.434  27.357  1.00  0.00    +0.000 H 
ATOM    115  H11 UNL A   1      49.949  31.876  27.418  1.00  0.00    +0.000 H 
ATOM    116  H12 UNL A   1      47.948  32.498  29.678  1.00  0.00    +0.000 H 
ATOM    117  H13 UNL A   1      49.757  32.791  29.674  1.00  0.00    +0.000 H 
ATOM    121  H17 UNL A   1      47.573  31.370  32.625  1.00  0.00    +0.000 H 
BRANCH    3    2
ATOM      2  C2  UNL A   1      48.465  25.966  25.862  1.00  0.00    +0.000 C 
ATOM    107  H3  UNL A   1      47.889  25.380  26.486  1.00  0.00    +0.000 H 
BRANCH    2    1
ATOM      1  C1  UNL A   1      48.244  25.820  24.545  1.00  0.00    +0.000 C 
ATOM    106  H2  UNL A   1      47.386  25.354  24.214  1.00  0.00    +0.000 H 
ATOM    105  H1  UNL A   1      48.934  26.176  23.864  1.00  0.00    +0.000 H 
ENDBRANCH    2    1
ENDBRANCH    3    2
BRANCH    4    5
ATOM      5  O1  UNL A   1      51.010  25.199  27.433  1.00  0.00    +0.000 O 
ATOM    110  H6  UNL A   1      50.635  24.353  27.724  1.00  0.00    +0.000 H 
ENDBRANCH    4    5
BRANCH   11   12
ATOM     12  C11 UNL A   1      49.590  32.125  32.257  1.00  0.00    +0.000 C 
ATOM    118  H14 UNL A   1      50.511  31.868  32.738  1.00  0.00    +0.000 H 
ATOM    119  H15 UNL A   1      48.819  32.221  32.991  1.00  0.00    +0.000 H 
ATOM    120  H16 UNL A   1      49.707  33.054  31.738  1.00  0.00    +0.000 H 
ENDBRANCH   11   12
BRANCH   13   14
ATOM    122  H18 UNL A   1      46.518  31.629  31.143  1.00  0.00    +0.000 H 
ATOM     14  C13 UNL A   1      46.209  30.811  31.759  1.00  0.00    +0.000 C 
BRANCH   14   15
ATOM    123  H19 UNL A   1      45.945  31.673  33.711  1.00  0.00    +0.000 H 
ATOM    124  H20 UNL A   1      45.284  30.063  33.550  1.00  0.00    +0.000 H 
ATOM    125  H21 UNL A   1      44.453  31.425  32.836  1.00  0.00    +0.000 H 
ATOM     15  C14 UNL A   1      45.412  31.008  33.063  1.00  0.00    +0.000 C 
ENDBRANCH   14   15
BRANCH   14   16
ATOM    126  H22 UNL A   1      44.474  29.682  31.148  1.00  0.00    +0.000 H 
ATOM    127  H23 UNL A   1      45.913  29.696  30.000  1.00  0.00    +0.000 H 
ATOM     16  C15 UNL A   1      45.236  30.229  30.634  1.00  0.00    +0.000 C 
BRANCH   16   17
ATOM     17  C16 UNL A   1      44.502  31.161  29.627  1.00  0.00    +0.000 C 
ATOM    129  H25 UNL A   1      44.894  32.134  29.839  1.00  0.00    +0.000 H 
ATOM    128  H24 UNL A   1      44.693  30.777  28.646  1.00  0.00    +0.000 H 
BRANCH   17   18
ATOM     18  C17 UNL A   1      42.989  31.332  29.757  1.00  0.00    +0.000 C 
ATOM    130  H26 UNL A   1      42.422  30.724  29.145  1.00  0.00    +0.000 H 
BRANCH   18   19
ATOM     19  C18 UNL A   1      42.284  32.166  30.563  1.00  0.00    +0.000 C 
BRANCH   19   20
ATOM    133  H29 UNL A   1      40.902  33.761  30.782  1.00  0.00    +0.000 H 
ATOM    131  H27 UNL A   1      40.331  32.445  29.782  1.00  0.00    +0.000 H 
ATOM     20  C19 UNL A   1      41.180  33.048  30.033  1.00  0.00    +0.000 C 
ATOM    132  H28 UNL A   1      41.521  33.564  29.160  1.00  0.00    +0.000 H 
ENDBRANCH   19   20
BRANCH   19   21
ATOM     21  C20 UNL A   1      42.498  32.415  32.027  1.00  0.00    +0.000 C 
ATOM    134  H30 UNL A   1      41.746  31.903  32.589  1.00  0.00    +0.000 H 
ATOM    135  H31 UNL A   1      42.438  33.464  32.223  1.00  0.00    +0.000 H 
ATOM    136  H32 UNL A   1      43.465  32.053  32.312  1.00  0.00    +0.000 H 
ENDBRANCH   19   21
ENDBRANCH   18   19
ENDBRANCH   17   18
ENDBRANCH   16   17
ENDBRANCH   14   16
ENDBRANCH   13   14
BRANCH   24   25
ATOM     25  C24 UNL A   1      51.521  28.665  31.033  1.00  0.00    +0.000 C 
ATOM    141  H37 UNL A   1      51.958  28.652  30.057  1.00  0.00    +0.000 H 
ATOM    142  H38 UNL A   1      51.530  27.676  31.441  1.00  0.00    +0.000 H 
ATOM    143  H39 UNL A   1      52.084  29.318  31.667  1.00  0.00    +0.000 H 
ENDBRANCH   24   25
ENDBRANCH   28   27
ENDBRANCH   29   28
ENDBRANCH   30   29
ENDBRANCH   32   30
ENDBRANCH   33   32
ENDBRANCH   34   33
ENDBRANCH   35   34
ENDBRANCH   36   35
ENDBRANCH   37   36
ENDBRANCH   38   37
ENDBRANCH   39   38
ENDBRANCH   40   39
ENDBRANCH   42   40
ENDBRANCH   46   45
BRANCH   50   51
ATOM     51  C45 UNL A   1      42.213  27.138  27.815  1.00  0.00    +0.000 C 
ATOM     52  C46 UNL A   1      41.852  25.804  27.564  1.00  0.00    +0.000 C 
ATOM     53  F1  UNL A   1      40.990  25.173  28.376  1.00  0.00    +0.000 F 
ATOM     54  C47 UNL A   1      42.424  25.088  26.516  1.00  0.00    +0.000 C 
ATOM     55  F2  UNL A   1      42.117  23.794  26.345  1.00  0.00    +0.000 F 
ATOM     56  C48 UNL A   1      43.330  25.704  25.667  1.00  0.00    +0.000 C 
ATOM     57  F3  UNL A   1      43.879  25.016  24.657  1.00  0.00    +0.000 F 
ATOM     58  C49 UNL A   1      43.675  27.032  25.873  1.00  0.00    +0.000 C 
ATOM     59  F4  UNL A   1      44.544  27.631  25.047  1.00  0.00    +0.000 F 
ATOM     60  C50 UNL A   1      43.135  27.739  26.944  1.00  0.00    +0.000 C 
ATOM     61  F5  UNL A   1      43.518  29.010  27.136  1.00  0.00    +0.000 F 
ENDBRANCH   50   51
BRANCH   67   68
ATOM     68  C56 UNL A   1      36.791  31.642  29.321  1.00  0.00    +0.000 C 
ATOM     69  C57 UNL A   1      35.669  30.869  28.993  1.00  0.00    +0.000 C 
ATOM     70  F6  UNL A   1      35.659  29.552  29.244  1.00  0.00    +0.000 F 
ATOM     71  C58 UNL A   1      34.562  31.447  28.381  1.00  0.00    +0.000 C 
ATOM     72  F7  UNL A   1      33.513  30.684  28.040  1.00  0.00    +0.000 F 
ATOM     73  C59 UNL A   1      34.543  32.809  28.119  1.00  0.00    +0.000 C 
ATOM     74  F8  UNL A   1      33.467  33.366  27.544  1.00  0.00    +0.000 F 
ATOM     75  C60 UNL A   1      35.637  33.593  28.448  1.00  0.00    +0.000 C 
ATOM     76  F9  UNL A   1      35.612  34.913  28.214  1.00  0.00    +0.000 F 
ATOM     77  C61 UNL A   1      36.759  33.014  29.029  1.00  0.00    +0.000 C 
ATOM     78  F10 UNL A   1      37.804  33.796  29.337  1.00  0.00    +0.000 F 
ENDBRANCH   67   68
BRANCH   82   83
ATOM     83  C65 UNL A   1      39.077  32.264  35.886  1.00  0.00    +0.000 C 
ATOM     84  C66 UNL A   1      38.206  31.695  36.827  1.00  0.00    +0.000 C 
ATOM     85  F11 UNL A   1      37.764  30.441  36.657  1.00  0.00    +0.000 F 
ATOM     86  C67 UNL A   1      37.753  32.425  37.924  1.00  0.00    +0.000 C 
ATOM     87  F12 UNL A   1      36.883  31.872  38.781  1.00  0.00    +0.000 F 
ATOM     88  C68 UNL A   1      38.186  33.727  38.122  1.00  0.00    +0.000 C 
ATOM     89  F13 UNL A   1      37.752  34.428  39.178  1.00  0.00    +0.000 F 
ATOM     90  C69 UNL A   1      39.066  34.304  37.218  1.00  0.00    +0.000 C 
ATOM     91  F14 UNL A   1      39.500  35.556  37.413  1.00  0.00    +0.000 F 
ATOM     92  C70 UNL A   1      39.498  33.584  36.105  1.00  0.00    +0.000 C 
ATOM     93  F15 UNL A   1      40.339  34.172  35.241  1.00  0.00    +0.000 F 
ENDBRANCH   82   83
TORSDOF 30
ENDMDL
MODEL 5
REMARK VINA RESULT:      -9.8     37.648     45.148
ROOT
ATOM    166  H62 UNL A   1      50.086  57.036  16.249  1.00  0.00    +0.000 H 
ATOM    167  H63 UNL A   1      52.074  56.880  17.928  1.00  0.00    +0.000 H 
ATOM    168  H64 UNL A   1      49.730  53.502  18.386  1.00  0.00    +0.000 H 
ATOM    169  H65 UNL A   1      48.531  48.023  21.521  1.00  0.00    +0.000 H 
ATOM    170  H66 UNL A   1      46.564  48.223  19.923  1.00  0.00    +0.000 H 
ATOM    171  H67 UNL A   1      49.005  51.538  19.353  1.00  0.00    +0.000 H 
ATOM    172  H68 UNL A   1      52.798  51.142  22.554  1.00  0.00    +0.000 H 
ATOM    173  H69 UNL A   1      53.515  53.461  21.744  1.00  0.00    +0.000 H 
ATOM     46  C41 UNL A   1      46.573  50.614  18.363  1.00  0.00    +0.000 C 
ATOM     47  C42 UNL A   1      46.824  51.880  17.586  1.00  0.00    +0.000 C 
ATOM     48  N3  UNL A   1      47.865  52.670  17.597  1.00  0.00    +0.000 N 
ATOM    175  H71 UNL A   1      44.839  51.890  16.481  1.00  0.00    +0.000 H 
ATOM     49  C43 UNL A   1      47.619  53.616  16.610  1.00  0.00    +0.000 C 
ATOM    174  H70 UNL A   1      46.032  53.682  15.086  1.00  0.00    +0.000 H 
ATOM     50  C44 UNL A   1      48.328  54.729  16.317  1.00  0.00    +0.000 C 
ATOM     62  C51 UNL A   1      49.502  55.118  17.044  1.00  0.00    +0.000 C 
ATOM     63  C52 UNL A   1      50.264  56.262  16.908  1.00  0.00    +0.000 C 
ATOM     64  C53 UNL A   1      51.319  56.184  17.821  1.00  0.00    +0.000 C 
ATOM     65  C54 UNL A   1      51.185  55.018  18.561  1.00  0.00    +0.000 C 
ATOM     66  N4  UNL A   1      50.070  54.368  18.064  1.00  0.00    +0.000 N 
ATOM     67  C55 UNL A   1      52.012  54.538  19.638  1.00  0.00    +0.000 C 
ATOM     79  C62 UNL A   1      51.839  53.378  20.319  1.00  0.00    +0.000 C 
ATOM     80  N5  UNL A   1      50.859  52.407  20.170  1.00  0.00    +0.000 N 
ATOM     81  C63 UNL A   1      51.135  51.473  21.049  1.00  0.00    +0.000 C 
ATOM     82  C64 UNL A   1      50.387  50.200  21.354  1.00  0.00    +0.000 C 
ATOM     94  C71 UNL A   1      49.248  49.954  20.681  1.00  0.00    +0.000 C 
ATOM     95  C72 UNL A   1      48.373  48.798  20.858  1.00  0.00    +0.000 C 
ATOM     96  C73 UNL A   1      47.329  48.908  20.020  1.00  0.00    +0.000 C 
ATOM     97  C74 UNL A   1      47.453  50.158  19.269  1.00  0.00    +0.000 C 
ATOM     98  N6  UNL A   1      48.633  50.696  19.705  1.00  0.00    +0.000 N 
ATOM     99  C75 UNL A   1      52.347  51.732  21.836  1.00  0.00    +0.000 C 
ATOM    100  C76 UNL A   1      52.711  52.924  21.383  1.00  0.00    +0.000 C 
ATOM    101  C77 UNL A   1      46.391  53.248  15.951  1.00  0.00    +0.000 C 
ATOM    102  C78 UNL A   1      45.788  52.275  16.612  1.00  0.00    +0.000 C 
ENDROOT
BRANCH   46   45
ATOM    164  H60 UNL A   1      42.038  49.733  18.563  1.00  0.00    +0.000 H 
ATOM    165  H61 UNL A   1      44.050  50.844  19.375  1.00  0.00    +0.000 H 
ATOM    103  C79 UNL A   1      45.454  48.884  17.021  1.00  0.00    +0.000 C 
ATOM    104  C80 UNL A   1      44.303  48.359  16.476  1.00  0.00    +0.000 C 
ATOM     42  C37 UNL A   1      43.064  48.661  17.055  1.00  0.00    +0.000 C 
ATOM     43  C38 UNL A   1      42.955  49.541  18.129  1.00  0.00    +0.000 C 
ATOM     44  C39 UNL A   1      44.110  50.157  18.606  1.00  0.00    +0.000 C 
ATOM     45  C40 UNL A   1      45.357  49.841  18.041  1.00  0.00    +0.000 C 
ATOM    176  H72 UNL A   1      46.378  48.577  16.682  1.00  0.00    +0.000 H 
ATOM    177  H73 UNL A   1      44.353  47.746  15.647  1.00  0.00    +0.000 H 
BRANCH   42   40
ATOM     41  O3  UNL A   1      41.175  48.232  15.700  1.00  0.00    +0.000 O 
ATOM     40  C36 UNL A   1      41.892  47.880  16.598  1.00  0.00    +0.000 C 
BRANCH   40   39
ATOM    163  H59 UNL A   1      41.545  46.723  18.269  1.00  0.00    +0.000 H 
ATOM     39  N2  UNL A   1      41.703  46.702  17.298  1.00  0.00    +0.000 N 
BRANCH   39   38
ATOM    161  H57 UNL A   1      41.132  45.497  15.711  1.00  0.00    +0.000 H 
ATOM    162  H58 UNL A   1      42.738  45.201  16.295  1.00  0.00    +0.000 H 
ATOM     38  C35 UNL A   1      41.738  45.439  16.591  1.00  0.00    +0.000 C 
BRANCH   38   37
ATOM     37  C34 UNL A   1      41.195  44.381  17.519  1.00  0.00    +0.000 C 
ATOM    159  H55 UNL A   1      40.461  44.831  18.153  1.00  0.00    +0.000 H 
ATOM    160  H56 UNL A   1      40.783  43.607  16.905  1.00  0.00    +0.000 H 
BRANCH   37   36
ATOM     36  C33 UNL A   1      42.297  43.710  18.429  1.00  0.00    +0.000 C 
ATOM    157  H53 UNL A   1      42.782  42.984  17.810  1.00  0.00    +0.000 H 
ATOM    158  H54 UNL A   1      42.822  44.574  18.779  1.00  0.00    +0.000 H 
BRANCH   36   35
ATOM     35  C32 UNL A   1      41.975  42.933  19.869  1.00  0.00    +0.000 C 
ATOM    156  H52 UNL A   1      42.886  42.370  19.879  1.00  0.00    +0.000 H 
ATOM    155  H51 UNL A   1      40.956  42.628  19.754  1.00  0.00    +0.000 H 
BRANCH   35   34
ATOM    153  H49 UNL A   1      43.105  43.597  21.768  1.00  0.00    +0.000 H 
ATOM     34  C31 UNL A   1      42.059  43.411  21.644  1.00  0.00    +0.000 C 
ATOM    154  H50 UNL A   1      41.170  44.003  21.583  1.00  0.00    +0.000 H 
BRANCH   34   33
ATOM     33  C30 UNL A   1      41.541  42.635  23.528  1.00  0.00    +0.000 C 
ATOM    151  H47 UNL A   1      41.833  43.428  24.184  1.00  0.00    +0.000 H 
ATOM    152  H48 UNL A   1      40.606  42.245  23.183  1.00  0.00    +0.000 H 
BRANCH   33   32
ATOM    150  H46 UNL A   1      41.874  40.575  23.834  1.00  0.00    +0.000 H 
ATOM     32  N1  UNL A   1      41.851  41.403  24.365  1.00  0.00    +0.000 N 
BRANCH   32   30
ATOM     30  C29 UNL A   1      42.102  41.191  25.682  1.00  0.00    +0.000 C 
ATOM     31  O2  UNL A   1      41.094  41.087  26.393  1.00  0.00    +0.000 O 
BRANCH   30   29
ATOM    149  H45 UNL A   1      43.942  40.394  25.603  1.00  0.00    +0.000 H 
ATOM    148  H44 UNL A   1      43.286  40.730  27.324  1.00  0.00    +0.000 H 
ATOM     29  C28 UNL A   1      43.473  41.038  26.317  1.00  0.00    +0.000 C 
BRANCH   29   28
ATOM    146  H42 UNL A   1      44.716  42.504  25.431  1.00  0.00    +0.000 H 
ATOM    147  H43 UNL A   1      44.114  42.859  27.097  1.00  0.00    +0.000 H 
ATOM     28  C27 UNL A   1      44.531  42.143  26.420  1.00  0.00    +0.000 C 
BRANCH   28   27
ATOM      3  C3  UNL A   1      46.115  42.326  28.483  1.00  0.00    +0.000 C 
ATOM      4  C4  UNL A   1      47.286  43.331  28.607  1.00  0.00    +0.000 C 
ATOM      6  C5  UNL A   1      48.454  43.052  27.660  1.00  0.00    +0.000 C 
ATOM      7  C6  UNL A   1      47.944  43.144  26.185  1.00  0.00    +0.000 C 
ATOM      8  C7  UNL A   1      46.974  41.556  25.905  1.00  0.00    +0.000 C 
ATOM      9  C8  UNL A   1      46.684  40.807  24.141  1.00  0.00    +0.000 C 
ATOM     10  C9  UNL A   1      47.450  41.706  22.598  1.00  0.00    +0.000 C 
ATOM     11  C10 UNL A   1      48.428  43.399  22.815  1.00  0.00    +0.000 C 
ATOM    139  H35 UNL A   1      48.661  45.938  25.345  1.00  0.00    +0.000 H 
ATOM    140  H36 UNL A   1      50.052  45.658  24.263  1.00  0.00    +0.000 H 
ATOM     13  C12 UNL A   1      47.621  44.834  22.357  1.00  0.00    +0.000 C 
ATOM    137  H33 UNL A   1      47.417  46.565  23.631  1.00  0.00    +0.000 H 
ATOM    144  H40 UNL A   1      47.263  40.157  27.619  1.00  0.00    +0.000 H 
ATOM    145  H41 UNL A   1      46.236  39.464  26.730  1.00  0.00    +0.000 H 
ATOM    138  H34 UNL A   1      48.907  46.517  22.654  1.00  0.00    +0.000 H 
ATOM     22  C21 UNL A   1      48.223  45.964  23.264  1.00  0.00    +0.000 C 
ATOM     23  C22 UNL A   1      49.022  45.446  24.466  1.00  0.00    +0.000 C 
ATOM     24  C23 UNL A   1      48.921  43.920  24.688  1.00  0.00    +0.000 C 
ATOM     26  C25 UNL A   1      46.572  40.470  26.864  1.00  0.00    +0.000 C 
ATOM     27  C26 UNL A   1      45.858  41.776  27.022  1.00  0.00    +0.000 C 
ATOM    108  H4  UNL A   1      46.448  41.448  28.996  1.00  0.00    +0.000 H 
ATOM    109  H5  UNL A   1      46.852  44.274  28.344  1.00  0.00    +0.000 H 
ATOM    111  H7  UNL A   1      48.840  42.073  27.846  1.00  0.00    +0.000 H 
ATOM    112  H8  UNL A   1      49.230  43.771  27.820  1.00  0.00    +0.000 H 
ATOM    113  H9  UNL A   1      47.381  44.052  26.137  1.00  0.00    +0.000 H 
ATOM    114  H10 UNL A   1      45.626  40.768  23.988  1.00  0.00    +0.000 H 
ATOM    115  H11 UNL A   1      47.198  39.870  24.173  1.00  0.00    +0.000 H 
ATOM    116  H12 UNL A   1      46.642  41.902  21.925  1.00  0.00    +0.000 H 
ATOM    117  H13 UNL A   1      48.212  41.027  22.277  1.00  0.00    +0.000 H 
ATOM    121  H17 UNL A   1      47.756  44.812  21.296  1.00  0.00    +0.000 H 
BRANCH    3    2
ATOM      2  C2  UNL A   1      44.865  42.764  29.246  1.00  0.00    +0.000 C 
ATOM    107  H3  UNL A   1      44.645  43.772  29.214  1.00  0.00    +0.000 H 
BRANCH    2    1
ATOM      1  C1  UNL A   1      44.019  41.997  29.950  1.00  0.00    +0.000 C 
ATOM    106  H2  UNL A   1      44.301  41.048  30.239  1.00  0.00    +0.000 H 
ATOM    105  H1  UNL A   1      43.085  42.357  30.205  1.00  0.00    +0.000 H 
ENDBRANCH    2    1
ENDBRANCH    3    2
BRANCH    4    5
ATOM      5  O1  UNL A   1      47.817  43.345  29.938  1.00  0.00    +0.000 O 
ATOM    110  H6  UNL A   1      47.255  42.807  30.517  1.00  0.00    +0.000 H 
ENDBRANCH    4    5
BRANCH   11   12
ATOM     12  C11 UNL A   1      49.343  43.327  21.516  1.00  0.00    +0.000 C 
ATOM    118  H14 UNL A   1      49.126  42.428  20.977  1.00  0.00    +0.000 H 
ATOM    119  H15 UNL A   1      50.372  43.331  21.804  1.00  0.00    +0.000 H 
ATOM    120  H16 UNL A   1      49.143  44.173  20.892  1.00  0.00    +0.000 H 
ENDBRANCH   11   12
BRANCH   13   14
ATOM    122  H18 UNL A   1      46.523  45.792  21.073  1.00  0.00    +0.000 H 
ATOM     14  C13 UNL A   1      46.117  45.047  21.725  1.00  0.00    +0.000 C 
BRANCH   14   15
ATOM    123  H19 UNL A   1      45.285  46.344  23.223  1.00  0.00    +0.000 H 
ATOM    124  H20 UNL A   1      45.144  44.644  23.599  1.00  0.00    +0.000 H 
ATOM    125  H21 UNL A   1      44.100  45.362  22.396  1.00  0.00    +0.000 H 
ATOM     15  C14 UNL A   1      45.083  45.374  22.819  1.00  0.00    +0.000 C 
ENDBRANCH   14   15
BRANCH   14   16
ATOM    126  H22 UNL A   1      44.406  44.703  20.456  1.00  0.00    +0.000 H 
ATOM    127  H23 UNL A   1      45.490  43.258  20.812  1.00  0.00    +0.000 H 
ATOM     16  C15 UNL A   1      45.387  44.284  20.526  1.00  0.00    +0.000 C 
BRANCH   16   17
ATOM     17  C16 UNL A   1      45.968  44.287  19.083  1.00  0.00    +0.000 C 
ATOM    129  H25 UNL A   1      46.815  43.636  19.141  1.00  0.00    +0.000 H 
ATOM    128  H24 UNL A   1      45.180  43.980  18.426  1.00  0.00    +0.000 H 
BRANCH   17   18
ATOM     18  C17 UNL A   1      46.537  45.591  18.525  1.00  0.00    +0.000 C 
ATOM    130  H26 UNL A   1      45.918  46.413  18.605  1.00  0.00    +0.000 H 
BRANCH   18   19
ATOM     19  C18 UNL A   1      47.740  45.824  17.940  1.00  0.00    +0.000 C 
BRANCH   19   20
ATOM    133  H29 UNL A   1      49.580  46.694  18.537  1.00  0.00    +0.000 H 
ATOM    131  H27 UNL A   1      49.613  44.950  18.414  1.00  0.00    +0.000 H 
ATOM     20  C19 UNL A   1      49.030  45.794  18.722  1.00  0.00    +0.000 C 
ATOM    132  H28 UNL A   1      48.814  45.716  19.767  1.00  0.00    +0.000 H 
ENDBRANCH   19   20
BRANCH   19   21
ATOM     21  C20 UNL A   1      47.999  46.205  16.512  1.00  0.00    +0.000 C 
ATOM    134  H30 UNL A   1      48.932  46.722  16.445  1.00  0.00    +0.000 H 
ATOM    135  H31 UNL A   1      47.212  46.841  16.164  1.00  0.00    +0.000 H 
ATOM    136  H32 UNL A   1      48.037  45.321  15.908  1.00  0.00    +0.000 H 
ENDBRANCH   19   21
ENDBRANCH   18   19
ENDBRANCH   17   18
ENDBRANCH   16   17
ENDBRANCH   14   16
ENDBRANCH   13   14
BRANCH   24   25
ATOM     25  C24 UNL A   1      50.233  43.710  25.549  1.00  0.00    +0.000 C 
ATOM    141  H37 UNL A   1      49.964  43.504  26.563  1.00  0.00    +0.000 H 
ATOM    142  H38 UNL A   1      50.830  44.597  25.511  1.00  0.00    +0.000 H 
ATOM    143  H39 UNL A   1      50.790  42.886  25.153  1.00  0.00    +0.000 H 
ENDBRANCH   24   25
ENDBRANCH   28   27
ENDBRANCH   29   28
ENDBRANCH   30   29
ENDBRANCH   32   30
ENDBRANCH   33   32
ENDBRANCH   34   33
ENDBRANCH   35   34
ENDBRANCH   36   35
ENDBRANCH   37   36
ENDBRANCH   38   37
ENDBRANCH   39   38
ENDBRANCH   40   39
ENDBRANCH   42   40
ENDBRANCH   46   45
BRANCH   50   51
ATOM     51  C45 UNL A   1      47.831  55.596  15.197  1.00  0.00    +0.000 C 
ATOM     52  C46 UNL A   1      48.124  55.312  13.853  1.00  0.00    +0.000 C 
ATOM     53  F1  UNL A   1      48.874  54.246  13.536  1.00  0.00    +0.000 F 
ATOM     54  C47 UNL A   1      47.704  56.158  12.830  1.00  0.00    +0.000 C 
ATOM     55  F2  UNL A   1      48.060  55.903  11.564  1.00  0.00    +0.000 F 
ATOM     56  C48 UNL A   1      46.940  57.277  13.124  1.00  0.00    +0.000 C 
ATOM     57  F3  UNL A   1      46.533  58.089  12.139  1.00  0.00    +0.000 F 
ATOM     58  C49 UNL A   1      46.607  57.558  14.441  1.00  0.00    +0.000 C 
ATOM     59  F4  UNL A   1      45.860  58.634  14.724  1.00  0.00    +0.000 F 
ATOM     60  C50 UNL A   1      47.059  56.736  15.470  1.00  0.00    +0.000 C 
ATOM     61  F5  UNL A   1      46.750  57.058  16.734  1.00  0.00    +0.000 F 
ENDBRANCH   50   51
BRANCH   67   68
ATOM     68  C56 UNL A   1      53.156  55.413  20.051  1.00  0.00    +0.000 C 
ATOM     69  C57 UNL A   1      52.982  56.470  20.955  1.00  0.00    +0.000 C 
ATOM     70  F6  UNL A   1      51.758  56.776  21.408  1.00  0.00    +0.000 F 
ATOM     71  C58 UNL A   1      54.067  57.231  21.375  1.00  0.00    +0.000 C 
ATOM     72  F7  UNL A   1      53.876  58.263  22.210  1.00  0.00    +0.000 F 
ATOM     73  C59 UNL A   1      55.345  56.929  20.929  1.00  0.00    +0.000 C 
ATOM     74  F8  UNL A   1      56.392  57.654  21.349  1.00  0.00    +0.000 F 
ATOM     75  C60 UNL A   1      55.541  55.879  20.045  1.00  0.00    +0.000 C 
ATOM     76  F9  UNL A   1      56.777  55.572  19.629  1.00  0.00    +0.000 F 
ATOM     77  C61 UNL A   1      54.455  55.136  19.597  1.00  0.00    +0.000 C 
ATOM     78  F10 UNL A   1      54.671  54.126  18.742  1.00  0.00    +0.000 F 
ENDBRANCH   67   68
BRANCH   82   83
ATOM     83  C65 UNL A   1      50.851  49.260  22.408  1.00  0.00    +0.000 C 
ATOM     84  C66 UNL A   1      50.420  49.397  23.736  1.00  0.00    +0.000 C 
ATOM     85  F11 UNL A   1      49.590  50.395  24.070  1.00  0.00    +0.000 F 
ATOM     86  C67 UNL A   1      50.870  48.535  24.733  1.00  0.00    +0.000 C 
ATOM     87  F12 UNL A   1      50.479  48.718  26.001  1.00  0.00    +0.000 F 
ATOM     88  C68 UNL A   1      51.736  47.498  24.419  1.00  0.00    +0.000 C 
ATOM     89  F13 UNL A   1      52.168  46.668  25.378  1.00  0.00    +0.000 F 
ATOM     90  C69 UNL A   1      52.159  47.328  23.109  1.00  0.00    +0.000 C 
ATOM     91  F14 UNL A   1      52.982  46.319  22.798  1.00  0.00    +0.000 F 
ATOM     92  C70 UNL A   1      51.731  48.207  22.115  1.00  0.00    +0.000 C 
ATOM     93  F15 UNL A   1      52.165  48.026  20.860  1.00  0.00    +0.000 F 
ENDBRANCH   82   83
TORSDOF 30
ENDMDL
MODEL 6
REMARK VINA RESULT:      -9.8     23.664     30.617
ROOT
ATOM    166  H62 UNL A   1      15.460  56.745   4.378  1.00  0.00    +0.000 H 
ATOM    167  H63 UNL A   1      16.961  57.078   2.273  1.00  0.00    +0.000 H 
ATOM    168  H64 UNL A   1      15.556  53.187   2.253  1.00  0.00    +0.000 H 
ATOM    169  H65 UNL A   1      15.511  47.370  -0.476  1.00  0.00    +0.000 H 
ATOM    170  H66 UNL A   1      14.103  47.044   1.616  1.00  0.00    +0.000 H 
ATOM    171  H67 UNL A   1      15.386  50.996   1.552  1.00  0.00    +0.000 H 
ATOM    172  H68 UNL A   1      18.199  51.566  -2.516  1.00  0.00    +0.000 H 
ATOM    173  H69 UNL A   1      18.680  53.928  -1.658  1.00  0.00    +0.000 H 
ATOM     46  C41 UNL A   1      13.926  49.364   3.270  1.00  0.00    +0.000 C 
ATOM     47  C42 UNL A   1      13.889  50.716   3.934  1.00  0.00    +0.000 C 
ATOM     48  N3  UNL A   1      14.349  51.863   3.512  1.00  0.00    +0.000 N 
ATOM    175  H71 UNL A   1      12.815  50.037   5.818  1.00  0.00    +0.000 H 
ATOM     49  C43 UNL A   1      13.943  52.794   4.459  1.00  0.00    +0.000 C 
ATOM    174  H70 UNL A   1      12.557  52.567   6.154  1.00  0.00    +0.000 H 
ATOM     50  C44 UNL A   1      14.279  54.101   4.552  1.00  0.00    +0.000 C 
ATOM     62  C51 UNL A   1      15.172  54.743   3.631  1.00  0.00    +0.000 C 
ATOM     63  C52 UNL A   1      15.662  56.033   3.659  1.00  0.00    +0.000 C 
ATOM     64  C53 UNL A   1      16.481  56.204   2.539  1.00  0.00    +0.000 C 
ATOM     65  C54 UNL A   1      16.541  55.005   1.843  1.00  0.00    +0.000 C 
ATOM     66  N4  UNL A   1      15.723  54.120   2.520  1.00  0.00    +0.000 N 
ATOM     67  C55 UNL A   1      17.290  54.696   0.652  1.00  0.00    +0.000 C 
ATOM     79  C62 UNL A   1      17.300  53.504   0.004  1.00  0.00    +0.000 C 
ATOM     80  N5  UNL A   1      16.635  52.327   0.316  1.00  0.00    +0.000 N 
ATOM     81  C63 UNL A   1      16.956  51.468  -0.624  1.00  0.00    +0.000 C 
ATOM     82  C64 UNL A   1      16.549  50.024  -0.773  1.00  0.00    +0.000 C 
ATOM     94  C71 UNL A   1      15.775  49.478   0.182  1.00  0.00    +0.000 C 
ATOM     95  C72 UNL A   1      15.307  48.095   0.229  1.00  0.00    +0.000 C 
ATOM     96  C73 UNL A   1      14.571  47.921   1.339  1.00  0.00    +0.000 C 
ATOM     97  C74 UNL A   1      14.541  49.176   2.092  1.00  0.00    +0.000 C 
ATOM     98  N6  UNL A   1      15.256  50.049   1.317  1.00  0.00    +0.000 N 
ATOM     99  C75 UNL A   1      17.839  52.017  -1.659  1.00  0.00    +0.000 C 
ATOM    100  C76 UNL A   1      18.054  53.244  -1.205  1.00  0.00    +0.000 C 
ATOM    101  C77 UNL A   1      13.116  52.106   5.418  1.00  0.00    +0.000 C 
ATOM    102  C78 UNL A   1      13.175  50.800   5.224  1.00  0.00    +0.000 C 
ENDROOT
BRANCH   46   45
ATOM    164  H60 UNL A   1      13.485  45.866   6.263  1.00  0.00    +0.000 H 
ATOM    165  H61 UNL A   1      14.831  47.461   5.002  1.00  0.00    +0.000 H 
ATOM    103  C79 UNL A   1      11.811  48.183   3.695  1.00  0.00    +0.000 C 
ATOM    104  C80 UNL A   1      11.038  47.378   4.502  1.00  0.00    +0.000 C 
ATOM     42  C37 UNL A   1      11.659  46.524   5.423  1.00  0.00    +0.000 C 
ATOM     43  C38 UNL A   1      13.040  46.520   5.599  1.00  0.00    +0.000 C 
ATOM     44  C39 UNL A   1      13.809  47.416   4.860  1.00  0.00    +0.000 C 
ATOM     45  C40 UNL A   1      13.192  48.260   3.920  1.00  0.00    +0.000 C 
ATOM    176  H72 UNL A   1      11.378  48.726   2.932  1.00  0.00    +0.000 H 
ATOM    177  H73 UNL A   1      10.009  47.402   4.428  1.00  0.00    +0.000 H 
BRANCH   42   40
ATOM     41  O3  UNL A   1      11.225  44.431   6.433  1.00  0.00    +0.000 O 
ATOM     40  C36 UNL A   1      10.811  45.504   6.081  1.00  0.00    +0.000 C 
BRANCH   40   39
ATOM    163  H59 UNL A   1       8.959  46.187   5.487  1.00  0.00    +0.000 H 
ATOM     39  N2  UNL A   1       9.499  45.903   6.259  1.00  0.00    +0.000 N 
BRANCH   39   38
ATOM    161  H57 UNL A   1       9.579  45.385   8.264  1.00  0.00    +0.000 H 
ATOM    162  H58 UNL A   1       8.794  46.898   7.945  1.00  0.00    +0.000 H 
ATOM     38  C35 UNL A   1       8.926  45.898   7.589  1.00  0.00    +0.000 C 
BRANCH   38   37
ATOM     37  C34 UNL A   1       7.601  45.183   7.514  1.00  0.00    +0.000 C 
ATOM    159  H55 UNL A   1       7.518  44.724   6.551  1.00  0.00    +0.000 H 
ATOM    160  H56 UNL A   1       7.585  44.468   8.309  1.00  0.00    +0.000 H 
BRANCH   37   36
ATOM     36  C33 UNL A   1       6.356  46.132   7.721  1.00  0.00    +0.000 C 
ATOM    157  H53 UNL A   1       5.494  45.507   7.615  1.00  0.00    +0.000 H 
ATOM    158  H54 UNL A   1       6.599  46.581   8.661  1.00  0.00    +0.000 H 
BRANCH   36   35
ATOM     35  C32 UNL A   1       6.047  47.486   6.797  1.00  0.00    +0.000 C 
ATOM    156  H52 UNL A   1       6.098  48.173   7.616  1.00  0.00    +0.000 H 
ATOM    155  H51 UNL A   1       5.228  47.175   6.183  1.00  0.00    +0.000 H 
BRANCH   35   34
ATOM    153  H49 UNL A   1       7.462  47.787   4.999  1.00  0.00    +0.000 H 
ATOM     34  C31 UNL A   1       7.044  48.525   5.651  1.00  0.00    +0.000 C 
ATOM    154  H50 UNL A   1       6.284  49.275   5.584  1.00  0.00    +0.000 H 
BRANCH   34   33
ATOM     33  C30 UNL A   1       8.591  49.946   5.729  1.00  0.00    +0.000 C 
ATOM    151  H47 UNL A   1       8.899  49.997   4.705  1.00  0.00    +0.000 H 
ATOM    152  H48 UNL A   1       8.054  50.593   6.390  1.00  0.00    +0.000 H 
BRANCH   33   32
ATOM    150  H46 UNL A   1      10.560  50.668   5.948  1.00  0.00    +0.000 H 
ATOM     32  N1  UNL A   1       9.909  50.140   6.463  1.00  0.00    +0.000 N 
BRANCH   32   30
ATOM     30  C29 UNL A   1      10.390  49.746   7.670  1.00  0.00    +0.000 C 
ATOM     31  O2  UNL A   1       9.607  49.904   8.617  1.00  0.00    +0.000 O 
BRANCH   30   29
ATOM    149  H45 UNL A   1      12.368  49.753   7.338  1.00  0.00    +0.000 H 
ATOM    148  H44 UNL A   1      11.623  48.076   7.707  1.00  0.00    +0.000 H 
ATOM     29  C28 UNL A   1      11.746  49.115   7.930  1.00  0.00    +0.000 C 
BRANCH   29   28
ATOM    146  H42 UNL A   1      11.813  49.475  10.014  1.00  0.00    +0.000 H 
ATOM    147  H43 UNL A   1      12.892  48.168   9.388  1.00  0.00    +0.000 H 
ATOM     28  C27 UNL A   1      12.504  49.157   9.263  1.00  0.00    +0.000 C 
BRANCH   28   27
ATOM      3  C3  UNL A   1      15.105  49.323   9.240  1.00  0.00    +0.000 C 
ATOM      4  C4  UNL A   1      15.992  49.421  10.505  1.00  0.00    +0.000 C 
ATOM      6  C5  UNL A   1      15.854  50.740  11.266  1.00  0.00    +0.000 C 
ATOM      7  C6  UNL A   1      14.375  50.897  11.747  1.00  0.00    +0.000 C 
ATOM      8  C7  UNL A   1      13.408  51.365  10.203  1.00  0.00    +0.000 C 
ATOM      9  C8  UNL A   1      11.720  52.315  10.276  1.00  0.00    +0.000 C 
ATOM     10  C9  UNL A   1      11.008  52.838  12.007  1.00  0.00    +0.000 C 
ATOM     11  C10 UNL A   1      11.941  52.332  13.663  1.00  0.00    +0.000 C 
ATOM    139  H35 UNL A   1      14.430  49.912  14.585  1.00  0.00    +0.000 H 
ATOM    140  H36 UNL A   1      14.309  51.433  15.511  1.00  0.00    +0.000 H 
ATOM     13  C12 UNL A   1      11.277  51.048  14.575  1.00  0.00    +0.000 C 
ATOM    137  H33 UNL A   1      12.401  49.325  15.231  1.00  0.00    +0.000 H 
ATOM    144  H40 UNL A   1      14.801  51.804   8.517  1.00  0.00    +0.000 H 
ATOM    145  H41 UNL A   1      13.412  51.893   7.895  1.00  0.00    +0.000 H 
ATOM    138  H34 UNL A   1      12.450  50.725  16.334  1.00  0.00    +0.000 H 
ATOM     22  C21 UNL A   1      12.492  50.387  15.319  1.00  0.00    +0.000 C 
ATOM     23  C22 UNL A   1      13.863  50.800  14.772  1.00  0.00    +0.000 C 
ATOM     24  C23 UNL A   1      13.806  51.622  13.464  1.00  0.00    +0.000 C 
ATOM     26  C25 UNL A   1      13.830  51.426   8.761  1.00  0.00    +0.000 C 
ATOM     27  C26 UNL A   1      13.706  50.054   9.346  1.00  0.00    +0.000 C 
ATOM    108  H4  UNL A   1      15.608  49.913   8.503  1.00  0.00    +0.000 H 
ATOM    109  H5  UNL A   1      15.641  48.627  11.133  1.00  0.00    +0.000 H 
ATOM    111  H7  UNL A   1      16.110  51.554  10.622  1.00  0.00    +0.000 H 
ATOM    112  H8  UNL A   1      16.511  50.742  12.111  1.00  0.00    +0.000 H 
ATOM    113  H9  UNL A   1      14.122  49.957  12.193  1.00  0.00    +0.000 H 
ATOM    114  H10 UNL A   1      10.988  51.688   9.813  1.00  0.00    +0.000 H 
ATOM    115  H11 UNL A   1      11.929  53.246   9.793  1.00  0.00    +0.000 H 
ATOM    116  H12 UNL A   1      10.022  52.425  12.071  1.00  0.00    +0.000 H 
ATOM    117  H13 UNL A   1      11.101  53.904  11.994  1.00  0.00    +0.000 H 
ATOM    121  H17 UNL A   1      10.488  51.553  15.092  1.00  0.00    +0.000 H 
BRANCH    3    2
ATOM      2  C2  UNL A   1      15.064  47.917   8.643  1.00  0.00    +0.000 C 
ATOM    107  H3  UNL A   1      14.383  47.266   9.063  1.00  0.00    +0.000 H 
BRANCH    2    1
ATOM      1  C1  UNL A   1      15.807  47.428   7.637  1.00  0.00    +0.000 C 
ATOM    106  H2  UNL A   1      15.697  46.445   7.345  1.00  0.00    +0.000 H 
ATOM    105  H1  UNL A   1      16.488  48.036   7.154  1.00  0.00    +0.000 H 
ENDBRANCH    2    1
ENDBRANCH    3    2
BRANCH    4    5
ATOM      5  O1  UNL A   1      17.379  49.265  10.179  1.00  0.00    +0.000 O 
ATOM    110  H6  UNL A   1      17.796  48.662  10.814  1.00  0.00    +0.000 H 
ENDBRANCH    4    5
BRANCH   11   12
ATOM     12  C11 UNL A   1      11.398  53.482  14.617  1.00  0.00    +0.000 C 
ATOM    118  H14 UNL A   1      11.376  53.129  15.626  1.00  0.00    +0.000 H 
ATOM    119  H15 UNL A   1      10.411  53.760  14.315  1.00  0.00    +0.000 H 
ATOM    120  H16 UNL A   1      12.044  54.333  14.552  1.00  0.00    +0.000 H 
ENDBRANCH   11   12
BRANCH   13   14
ATOM    122  H18 UNL A   1       9.468  51.004  13.871  1.00  0.00    +0.000 H 
ATOM     14  C13 UNL A   1       9.931  50.142  14.303  1.00  0.00    +0.000 C 
BRANCH   14   15
ATOM    123  H19 UNL A   1       9.765  50.043  16.444  1.00  0.00    +0.000 H 
ATOM    124  H20 UNL A   1       9.785  48.481  15.660  1.00  0.00    +0.000 H 
ATOM    125  H21 UNL A   1       8.348  49.473  15.595  1.00  0.00    +0.000 H 
ATOM     15  C14 UNL A   1       9.418  49.485  15.599  1.00  0.00    +0.000 C 
ENDBRANCH   14   15
BRANCH   14   16
ATOM    126  H22 UNL A   1      10.063  49.619  12.214  1.00  0.00    +0.000 H 
ATOM    127  H23 UNL A   1       8.478  49.247  13.073  1.00  0.00    +0.000 H 
ATOM     16  C15 UNL A   1       9.547  49.217  13.060  1.00  0.00    +0.000 C 
BRANCH   16   17
ATOM     17  C16 UNL A   1       9.835  47.687  13.060  1.00  0.00    +0.000 C 
ATOM    129  H25 UNL A   1      10.591  47.564  13.807  1.00  0.00    +0.000 H 
ATOM    128  H24 UNL A   1       8.904  47.192  13.243  1.00  0.00    +0.000 H 
BRANCH   17   18
ATOM     18  C17 UNL A   1      10.443  47.057  11.808  1.00  0.00    +0.000 C 
ATOM    130  H26 UNL A   1       9.939  47.248  10.928  1.00  0.00    +0.000 H 
BRANCH   18   19
ATOM     19  C18 UNL A   1      11.551  46.282  11.686  1.00  0.00    +0.000 C 
BRANCH   19   20
ATOM    133  H29 UNL A   1      13.088  45.741  10.327  1.00  0.00    +0.000 H 
ATOM    131  H27 UNL A   1      11.652  46.389   9.570  1.00  0.00    +0.000 H 
ATOM     20  C19 UNL A   1      12.018  45.755  10.351  1.00  0.00    +0.000 C 
ATOM    132  H28 UNL A   1      11.645  44.762  10.208  1.00  0.00    +0.000 H 
ENDBRANCH   19   20
BRANCH   19   21
ATOM     21  C20 UNL A   1      12.429  45.769  12.790  1.00  0.00    +0.000 C 
ATOM    134  H30 UNL A   1      12.983  46.581  13.210  1.00  0.00    +0.000 H 
ATOM    135  H31 UNL A   1      13.106  45.040  12.398  1.00  0.00    +0.000 H 
ATOM    136  H32 UNL A   1      11.822  45.322  13.549  1.00  0.00    +0.000 H 
ENDBRANCH   19   21
ENDBRANCH   18   19
ENDBRANCH   17   18
ENDBRANCH   16   17
ENDBRANCH   14   16
ENDBRANCH   13   14
BRANCH   24   25
ATOM     25  C24 UNL A   1      15.229  52.311  13.545  1.00  0.00    +0.000 C 
ATOM    141  H37 UNL A   1      15.257  52.974  14.384  1.00  0.00    +0.000 H 
ATOM    142  H38 UNL A   1      15.409  52.865  12.647  1.00  0.00    +0.000 H 
ATOM    143  H39 UNL A   1      15.983  51.560  13.659  1.00  0.00    +0.000 H 
ENDBRANCH   24   25
ENDBRANCH   28   27
ENDBRANCH   29   28
ENDBRANCH   30   29
ENDBRANCH   32   30
ENDBRANCH   33   32
ENDBRANCH   34   33
ENDBRANCH   35   34
ENDBRANCH   36   35
ENDBRANCH   37   36
ENDBRANCH   38   37
ENDBRANCH   39   38
ENDBRANCH   40   39
ENDBRANCH   42   40
ENDBRANCH   46   45
BRANCH   50   51
ATOM     51  C45 UNL A   1      13.703  54.887   5.693  1.00  0.00    +0.000 C 
ATOM     52  C46 UNL A   1      14.205  54.775   7.000  1.00  0.00    +0.000 C 
ATOM     53  F1  UNL A   1      15.223  53.942   7.263  1.00  0.00    +0.000 F 
ATOM     54  C47 UNL A   1      13.622  55.468   8.057  1.00  0.00    +0.000 C 
ATOM     55  F2  UNL A   1      14.074  55.285   9.306  1.00  0.00    +0.000 F 
ATOM     56  C48 UNL A   1      12.559  56.326   7.824  1.00  0.00    +0.000 C 
ATOM     57  F3  UNL A   1      12.000  56.995   8.841  1.00  0.00    +0.000 F 
ATOM     58  C49 UNL A   1      12.068  56.481   6.536  1.00  0.00    +0.000 C 
ATOM     59  F4  UNL A   1      11.046  57.317   6.307  1.00  0.00    +0.000 F 
ATOM     60  C50 UNL A   1      12.623  55.759   5.482  1.00  0.00    +0.000 C 
ATOM     61  F5  UNL A   1      12.101  55.905   4.255  1.00  0.00    +0.000 F 
ENDBRANCH   50   51
BRANCH   67   68
ATOM     68  C56 UNL A   1      18.149  55.789   0.092  1.00  0.00    +0.000 C 
ATOM     69  C57 UNL A   1      19.446  56.020   0.568  1.00  0.00    +0.000 C 
ATOM     70  F6  UNL A   1      19.921  55.314   1.605  1.00  0.00    +0.000 F 
ATOM     71  C58 UNL A   1      20.251  56.998  -0.007  1.00  0.00    +0.000 C 
ATOM     72  F7  UNL A   1      21.475  57.231   0.488  1.00  0.00    +0.000 F 
ATOM     73  C59 UNL A   1      19.787  57.735  -1.086  1.00  0.00    +0.000 C 
ATOM     74  F8  UNL A   1      20.572  58.665  -1.649  1.00  0.00    +0.000 F 
ATOM     75  C60 UNL A   1      18.512  57.513  -1.582  1.00  0.00    +0.000 C 
ATOM     76  F9  UNL A   1      18.070  58.210  -2.638  1.00  0.00    +0.000 F 
ATOM     77  C61 UNL A   1      17.692  56.559  -0.989  1.00  0.00    +0.000 C 
ATOM     78  F10 UNL A   1      16.462  56.365  -1.487  1.00  0.00    +0.000 F 
ENDBRANCH   67   68
BRANCH   82   83
ATOM     83  C65 UNL A   1      17.030  49.197  -1.910  1.00  0.00    +0.000 C 
ATOM     84  C66 UNL A   1      18.177  48.399  -1.786  1.00  0.00    +0.000 C 
ATOM     85  F11 UNL A   1      18.864  48.390  -0.634  1.00  0.00    +0.000 F 
ATOM     86  C67 UNL A   1      18.648  47.640  -2.855  1.00  0.00    +0.000 C 
ATOM     87  F12 UNL A   1      19.773  46.925  -2.723  1.00  0.00    +0.000 F 
ATOM     88  C68 UNL A   1      17.963  47.636  -4.061  1.00  0.00    +0.000 C 
ATOM     89  F13 UNL A   1      18.414  46.904  -5.089  1.00  0.00    +0.000 F 
ATOM     90  C69 UNL A   1      16.812  48.398  -4.201  1.00  0.00    +0.000 C 
ATOM     91  F14 UNL A   1      16.139  48.385  -5.359  1.00  0.00    +0.000 F 
ATOM     92  C70 UNL A   1      16.357  49.180  -3.141  1.00  0.00    +0.000 C 
ATOM     93  F15 UNL A   1      15.249  49.916  -3.309  1.00  0.00    +0.000 F 
ENDBRANCH   82   83
TORSDOF 30
ENDMDL
MODEL 7
REMARK VINA RESULT:      -9.8     41.435     46.651
ROOT
ATOM    166  H62 UNL A   1       6.223   9.140  39.461  1.00  0.00    +0.000 H 
ATOM    167  H63 UNL A   1       4.702  11.253  39.599  1.00  0.00    +0.000 H 
ATOM    168  H64 UNL A   1       2.595   8.272  37.653  1.00  0.00    +0.000 H 
ATOM    169  H65 UNL A   1      -2.712   6.426  34.536  1.00  0.00    +0.000 H 
ATOM    170  H66 UNL A   1      -1.192   4.396  34.355  1.00  0.00    +0.000 H 
ATOM    171  H67 UNL A   1       0.865   7.338  36.448  1.00  0.00    +0.000 H 
ATOM    172  H68 UNL A   1      -2.117  11.316  36.712  1.00  0.00    +0.000 H 
ATOM    173  H69 UNL A   1      -0.141  12.526  37.798  1.00  0.00    +0.000 H 
ATOM     46  C41 UNL A   1       1.394   4.774  35.501  1.00  0.00    +0.000 C 
ATOM     47  C42 UNL A   1       2.650   5.155  36.242  1.00  0.00    +0.000 C 
ATOM     48  N3  UNL A   1       2.908   6.223  36.949  1.00  0.00    +0.000 N 
ATOM    175  H71 UNL A   1       3.836   3.298  35.688  1.00  0.00    +0.000 H 
ATOM     49  C43 UNL A   1       4.163   6.005  37.501  1.00  0.00    +0.000 C 
ATOM    174  H70 UNL A   1       5.394   4.180  37.525  1.00  0.00    +0.000 H 
ATOM     50  C44 UNL A   1       4.934   6.866  38.203  1.00  0.00    +0.000 C 
ATOM     62  C51 UNL A   1       4.540   8.217  38.478  1.00  0.00    +0.000 C 
ATOM     63  C52 UNL A   1       5.259   9.218  39.101  1.00  0.00    +0.000 C 
ATOM     64  C53 UNL A   1       4.448  10.355  39.159  1.00  0.00    +0.000 C 
ATOM     65  C54 UNL A   1       3.245  10.078  38.525  1.00  0.00    +0.000 C 
ATOM     66  N4  UNL A   1       3.312   8.757  38.123  1.00  0.00    +0.000 N 
ATOM     67  C55 UNL A   1       2.124  10.956  38.305  1.00  0.00    +0.000 C 
ATOM     79  C62 UNL A   1       0.962  10.624  37.689  1.00  0.00    +0.000 C 
ATOM     80  N5  UNL A   1       0.578   9.417  37.124  1.00  0.00    +0.000 N 
ATOM     81  C63 UNL A   1      -0.640   9.598  36.671  1.00  0.00    +0.000 C 
ATOM     82  C64 UNL A   1      -1.535   8.634  35.934  1.00  0.00    +0.000 C 
ATOM     94  C71 UNL A   1      -1.054   7.412  35.644  1.00  0.00    +0.000 C 
ATOM     95  C72 UNL A   1      -1.754   6.359  34.913  1.00  0.00    +0.000 C 
ATOM     96  C73 UNL A   1      -0.947   5.289  34.809  1.00  0.00    +0.000 C 
ATOM     97  C74 UNL A   1       0.335   5.597  35.444  1.00  0.00    +0.000 C 
ATOM     98  N6  UNL A   1       0.170   6.864  35.935  1.00  0.00    +0.000 N 
ATOM     99  C75 UNL A   1      -1.181  10.938  36.928  1.00  0.00    +0.000 C 
ATOM    100  C76 UNL A   1      -0.150  11.536  37.509  1.00  0.00    +0.000 C 
ATOM    101  C77 UNL A   1       4.571   4.670  37.139  1.00  0.00    +0.000 C 
ATOM    102  C78 UNL A   1       3.743   4.163  36.243  1.00  0.00    +0.000 C 
ENDROOT
BRANCH   46   45
ATOM    164  H60 UNL A   1       2.368   1.622  32.261  1.00  0.00    +0.000 H 
ATOM    165  H61 UNL A   1       2.229   3.925  33.047  1.00  0.00    +0.000 H 
ATOM    103  C79 UNL A   1       0.843   2.386  35.704  1.00  0.00    +0.000 C 
ATOM    104  C80 UNL A   1       1.044   1.080  35.315  1.00  0.00    +0.000 C 
ATOM     42  C37 UNL A   1       1.585   0.812  34.052  1.00  0.00    +0.000 C 
ATOM     43  C38 UNL A   1       1.995   1.835  33.200  1.00  0.00    +0.000 C 
ATOM     44  C39 UNL A   1       1.893   3.152  33.643  1.00  0.00    +0.000 C 
ATOM     45  C40 UNL A   1       1.332   3.426  34.902  1.00  0.00    +0.000 C 
ATOM    176  H72 UNL A   1       0.337   2.598  36.578  1.00  0.00    +0.000 H 
ATOM    177  H73 UNL A   1       0.798   0.304  35.950  1.00  0.00    +0.000 H 
BRANCH   42   40
ATOM     41  O3  UNL A   1       2.484  -1.340  33.665  1.00  0.00    +0.000 O 
ATOM     40  C36 UNL A   1       1.547  -0.591  33.581  1.00  0.00    +0.000 C 
BRANCH   40   39
ATOM    163  H59 UNL A   1      -0.416  -1.218  33.629  1.00  0.00    +0.000 H 
ATOM     39  N2  UNL A   1       0.330  -0.963  33.041  1.00  0.00    +0.000 N 
BRANCH   39   38
ATOM    161  H57 UNL A   1       1.027  -0.556  31.131  1.00  0.00    +0.000 H 
ATOM    162  H58 UNL A   1       0.039  -1.977  31.246  1.00  0.00    +0.000 H 
ATOM     38  C35 UNL A   1       0.162  -0.975  31.602  1.00  0.00    +0.000 C 
BRANCH   38   37
ATOM     37  C34 UNL A   1      -1.053  -0.144  31.277  1.00  0.00    +0.000 C 
ATOM    159  H55 UNL A   1      -1.609  -0.643  30.510  1.00  0.00    +0.000 H 
ATOM    160  H56 UNL A   1      -1.613  -0.039  32.183  1.00  0.00    +0.000 H 
BRANCH   37   36
ATOM     36  C33 UNL A   1      -0.709   1.312  30.774  1.00  0.00    +0.000 C 
ATOM    157  H53 UNL A   1      -1.632   1.854  30.803  1.00  0.00    +0.000 H 
ATOM    158  H54 UNL A   1       0.099   1.565  31.429  1.00  0.00    +0.000 H 
BRANCH   36   35
ATOM     35  C32 UNL A   1      -0.030   1.655  29.290  1.00  0.00    +0.000 C 
ATOM    156  H52 UNL A   1       0.689   2.350  29.673  1.00  0.00    +0.000 H 
ATOM    155  H51 UNL A   1      -0.886   1.795  28.663  1.00  0.00    +0.000 H 
BRANCH   35   34
ATOM    153  H49 UNL A   1       1.756   0.253  28.881  1.00  0.00    +0.000 H 
ATOM     34  C31 UNL A   1       1.154   0.790  28.179  1.00  0.00    +0.000 C 
ATOM    154  H50 UNL A   1       0.392   0.547  27.467  1.00  0.00    +0.000 H 
BRANCH   34   33
ATOM     33  C30 UNL A   1       2.556   1.249  26.681  1.00  0.00    +0.000 C 
ATOM    151  H47 UNL A   1       1.981   1.116  25.789  1.00  0.00    +0.000 H 
ATOM    152  H48 UNL A   1       2.944   2.093  27.211  1.00  0.00    +0.000 H 
BRANCH   33   32
ATOM    150  H46 UNL A   1       4.012   0.684  25.264  1.00  0.00    +0.000 H 
ATOM     32  N1  UNL A   1       3.933   0.775  26.241  1.00  0.00    +0.000 N 
BRANCH   32   30
ATOM     30  C29 UNL A   1       5.077   0.449  26.894  1.00  0.00    +0.000 C 
ATOM     31  O2  UNL A   1       4.914  -0.205  27.933  1.00  0.00    +0.000 O 
BRANCH   30   29
ATOM    149  H45 UNL A   1       6.936   1.022  27.385  1.00  0.00    +0.000 H 
ATOM    148  H44 UNL A   1       6.376   1.503  25.665  1.00  0.00    +0.000 H 
ATOM     29  C28 UNL A   1       6.489   0.779  26.444  1.00  0.00    +0.000 C 
BRANCH   29   28
ATOM    146  H42 UNL A   1       8.465   0.247  25.904  1.00  0.00    +0.000 H 
ATOM    147  H43 UNL A   1       7.428  -1.075  26.568  1.00  0.00    +0.000 H 
ATOM     28  C27 UNL A   1       7.511  -0.234  25.912  1.00  0.00    +0.000 C 
BRANCH   28   27
ATOM      3  C3  UNL A   1       6.714  -2.273  24.496  1.00  0.00    +0.000 C 
ATOM      4  C4  UNL A   1       7.656  -3.314  23.845  1.00  0.00    +0.000 C 
ATOM      6  C5  UNL A   1       8.495  -2.764  22.690  1.00  0.00    +0.000 C 
ATOM      7  C6  UNL A   1       9.407  -1.615  23.229  1.00  0.00    +0.000 C 
ATOM      8  C7  UNL A   1       8.254  -0.145  23.459  1.00  0.00    +0.000 C 
ATOM      9  C8  UNL A   1       8.885   1.687  23.456  1.00  0.00    +0.000 C 
ATOM     10  C9  UNL A   1      10.776   2.032  23.170  1.00  0.00    +0.000 C 
ATOM     11  C10 UNL A   1      12.044   0.540  22.977  1.00  0.00    +0.000 C 
ATOM    139  H35 UNL A   1      12.038  -2.966  23.756  1.00  0.00    +0.000 H 
ATOM    140  H36 UNL A   1      13.039  -2.377  22.402  1.00  0.00    +0.000 H 
ATOM     13  C12 UNL A   1      13.041   0.181  24.318  1.00  0.00    +0.000 C 
ATOM    137  H33 UNL A   1      13.232  -1.785  25.190  1.00  0.00    +0.000 H 
ATOM    144  H40 UNL A   1       6.254  -0.581  22.574  1.00  0.00    +0.000 H 
ATOM    145  H41 UNL A   1       6.086   0.779  23.243  1.00  0.00    +0.000 H 
ATOM    138  H34 UNL A   1      14.344  -1.446  23.839  1.00  0.00    +0.000 H 
ATOM     22  C21 UNL A   1      13.347  -1.355  24.217  1.00  0.00    +0.000 C 
ATOM     23  C22 UNL A   1      12.435  -2.114  23.245  1.00  0.00    +0.000 C 
ATOM     24  C23 UNL A   1      11.252  -1.282  22.699  1.00  0.00    +0.000 C 
ATOM     26  C25 UNL A   1       6.758  -0.045  23.351  1.00  0.00    +0.000 C 
ATOM     27  C26 UNL A   1       7.277  -0.795  24.538  1.00  0.00    +0.000 C 
ATOM    108  H4  UNL A   1       5.893  -2.179  23.817  1.00  0.00    +0.000 H 
ATOM    109  H5  UNL A   1       8.316  -3.603  24.637  1.00  0.00    +0.000 H 
ATOM    111  H7  UNL A   1       7.849  -2.383  21.928  1.00  0.00    +0.000 H 
ATOM    112  H8  UNL A   1       9.101  -3.544  22.278  1.00  0.00    +0.000 H 
ATOM    113  H9  UNL A   1       9.855  -2.003  24.119  1.00  0.00    +0.000 H 
ATOM    114  H10 UNL A   1       8.630   2.108  24.406  1.00  0.00    +0.000 H 
ATOM    115  H11 UNL A   1       8.414   2.119  22.599  1.00  0.00    +0.000 H 
ATOM    116  H12 UNL A   1      11.112   2.614  24.003  1.00  0.00    +0.000 H 
ATOM    117  H13 UNL A   1      10.795   2.490  22.203  1.00  0.00    +0.000 H 
ATOM    121  H17 UNL A   1      13.798   0.929  24.213  1.00  0.00    +0.000 H 
BRANCH    3    2
ATOM      2  C2  UNL A   1       6.080  -2.768  25.796  1.00  0.00    +0.000 C 
ATOM    107  H3  UNL A   1       5.211  -2.293  26.086  1.00  0.00    +0.000 H 
BRANCH    2    1
ATOM      1  C1  UNL A   1       6.517  -3.746  26.605  1.00  0.00    +0.000 C 
ATOM    106  H2  UNL A   1       5.996  -3.977  27.464  1.00  0.00    +0.000 H 
ATOM    105  H1  UNL A   1       7.375  -4.269  26.365  1.00  0.00    +0.000 H 
ENDBRANCH    2    1
ENDBRANCH    3    2
BRANCH    4    5
ATOM      5  O1  UNL A   1       6.918  -4.432  23.334  1.00  0.00    +0.000 O 
ATOM    110  H6  UNL A   1       6.205  -4.114  22.759  1.00  0.00    +0.000 H 
ENDBRANCH    4    5
BRANCH   11   12
ATOM     12  C11 UNL A   1      13.179   1.283  22.148  1.00  0.00    +0.000 C 
ATOM    118  H14 UNL A   1      12.975   2.333  22.125  1.00  0.00    +0.000 H 
ATOM    119  H15 UNL A   1      13.199   0.901  21.149  1.00  0.00    +0.000 H 
ATOM    120  H16 UNL A   1      14.128   1.115  22.613  1.00  0.00    +0.000 H 
ENDBRANCH   11   12
BRANCH   13   14
ATOM    122  H18 UNL A   1      13.265   1.847  25.290  1.00  0.00    +0.000 H 
ATOM     14  C13 UNL A   1      13.138   0.910  25.790  1.00  0.00    +0.000 C 
BRANCH   14   15
ATOM    123  H19 UNL A   1      14.043   0.490  27.694  1.00  0.00    +0.000 H 
ATOM    124  H20 UNL A   1      15.190   0.687  26.391  1.00  0.00    +0.000 H 
ATOM    125  H21 UNL A   1      14.251  -0.781  26.513  1.00  0.00    +0.000 H 
ATOM     15  C14 UNL A   1      14.240   0.278  26.664  1.00  0.00    +0.000 C 
ENDBRANCH   14   15
BRANCH   14   16
ATOM    126  H22 UNL A   1      11.438   2.190  26.148  1.00  0.00    +0.000 H 
ATOM    127  H23 UNL A   1      12.533   1.828  27.583  1.00  0.00    +0.000 H 
ATOM     16  C15 UNL A   1      11.984   1.480  26.734  1.00  0.00    +0.000 C 
BRANCH   16   17
ATOM     17  C16 UNL A   1      10.924   0.545  27.385  1.00  0.00    +0.000 C 
ATOM    129  H25 UNL A   1      11.393   0.205  28.284  1.00  0.00    +0.000 H 
ATOM    128  H24 UNL A   1      10.029   1.120  27.506  1.00  0.00    +0.000 H 
BRANCH   17   18
ATOM     18  C17 UNL A   1      10.537  -0.742  26.656  1.00  0.00    +0.000 C 
ATOM    130  H26 UNL A   1       9.872  -0.625  25.876  1.00  0.00    +0.000 H 
BRANCH   18   19
ATOM     19  C18 UNL A   1      10.943  -2.016  26.887  1.00  0.00    +0.000 C 
BRANCH   19   20
ATOM    133  H29 UNL A   1      10.376  -4.060  26.914  1.00  0.00    +0.000 H 
ATOM    131  H27 UNL A   1      10.636  -3.405  25.314  1.00  0.00    +0.000 H 
ATOM     20  C19 UNL A   1      10.234  -3.205  26.286  1.00  0.00    +0.000 C 
ATOM    132  H28 UNL A   1       9.188  -2.993  26.202  1.00  0.00    +0.000 H 
ENDBRANCH   19   20
BRANCH   19   21
ATOM     21  C20 UNL A   1      12.057  -2.468  27.785  1.00  0.00    +0.000 C 
ATOM    134  H30 UNL A   1      12.818  -1.717  27.814  1.00  0.00    +0.000 H 
ATOM    135  H31 UNL A   1      12.470  -3.381  27.410  1.00  0.00    +0.000 H 
ATOM    136  H32 UNL A   1      11.676  -2.627  28.773  1.00  0.00    +0.000 H 
ENDBRANCH   19   21
ENDBRANCH   18   19
ENDBRANCH   17   18
ENDBRANCH   16   17
ENDBRANCH   14   16
ENDBRANCH   13   14
BRANCH   24   25
ATOM     25  C24 UNL A   1      10.939  -2.126  21.397  1.00  0.00    +0.000 C 
ATOM    141  H37 UNL A   1      10.752  -1.463  20.579  1.00  0.00    +0.000 H 
ATOM    142  H38 UNL A   1      10.076  -2.736  21.566  1.00  0.00    +0.000 H 
ATOM    143  H39 UNL A   1      11.777  -2.750  21.167  1.00  0.00    +0.000 H 
ENDBRANCH   24   25
ENDBRANCH   28   27
ENDBRANCH   29   28
ENDBRANCH   30   29
ENDBRANCH   32   30
ENDBRANCH   33   32
ENDBRANCH   34   33
ENDBRANCH   35   34
ENDBRANCH   36   35
ENDBRANCH   37   36
ENDBRANCH   38   37
ENDBRANCH   39   38
ENDBRANCH   40   39
ENDBRANCH   42   40
ENDBRANCH   46   45
BRANCH   50   51
ATOM     51  C45 UNL A   1       6.269   6.373  38.680  1.00  0.00    +0.000 C 
ATOM     52  C46 UNL A   1       7.466   6.738  38.041  1.00  0.00    +0.000 C 
ATOM     53  F1  UNL A   1       7.440   7.542  36.967  1.00  0.00    +0.000 F 
ATOM     54  C47 UNL A   1       8.691   6.227  38.461  1.00  0.00    +0.000 C 
ATOM     55  F2  UNL A   1       9.808   6.533  37.787  1.00  0.00    +0.000 F 
ATOM     56  C48 UNL A   1       8.752   5.381  39.558  1.00  0.00    +0.000 C 
ATOM     57  F3  UNL A   1       9.931   4.891  39.963  1.00  0.00    +0.000 F 
ATOM     58  C49 UNL A   1       7.587   5.035  40.227  1.00  0.00    +0.000 C 
ATOM     59  F4  UNL A   1       7.646   4.226  41.294  1.00  0.00    +0.000 F 
ATOM     60  C50 UNL A   1       6.356   5.514  39.786  1.00  0.00    +0.000 C 
ATOM     61  F5  UNL A   1       5.246   5.131  40.434  1.00  0.00    +0.000 F 
ENDBRANCH   50   51
BRANCH   67   68
ATOM     68  C56 UNL A   1       2.266  12.367  38.790  1.00  0.00    +0.000 C 
ATOM     69  C57 UNL A   1       1.818  12.754  40.060  1.00  0.00    +0.000 C 
ATOM     70  F6  UNL A   1       1.168  11.881  40.843  1.00  0.00    +0.000 F 
ATOM     71  C58 UNL A   1       2.014  14.053  40.517  1.00  0.00    +0.000 C 
ATOM     72  F7  UNL A   1       1.544  14.416  41.719  1.00  0.00    +0.000 F 
ATOM     73  C59 UNL A   1       2.692  14.973  39.730  1.00  0.00    +0.000 C 
ATOM     74  F8  UNL A   1       2.895  16.219  40.181  1.00  0.00    +0.000 F 
ATOM     75  C60 UNL A   1       3.156  14.606  38.477  1.00  0.00    +0.000 C 
ATOM     76  F9  UNL A   1       3.828  15.487  37.725  1.00  0.00    +0.000 F 
ATOM     77  C61 UNL A   1       2.932  13.318  38.002  1.00  0.00    +0.000 C 
ATOM     78  F10 UNL A   1       3.391  12.989  36.786  1.00  0.00    +0.000 F 
ENDBRANCH   67   68
BRANCH   82   83
ATOM     83  C65 UNL A   1      -2.895   9.029  35.482  1.00  0.00    +0.000 C 
ATOM     84  C66 UNL A   1      -4.020   8.781  36.282  1.00  0.00    +0.000 C 
ATOM     85  F11 UNL A   1      -3.877   8.167  37.465  1.00  0.00    +0.000 F 
ATOM     86  C67 UNL A   1      -5.301   9.127  35.854  1.00  0.00    +0.000 C 
ATOM     87  F12 UNL A   1      -6.361   8.835  36.618  1.00  0.00    +0.000 F 
ATOM     88  C68 UNL A   1      -5.480   9.756  34.631  1.00  0.00    +0.000 C 
ATOM     89  F13 UNL A   1      -6.711  10.089  34.220  1.00  0.00    +0.000 F 
ATOM     90  C69 UNL A   1      -4.380  10.033  33.832  1.00  0.00    +0.000 C 
ATOM     91  F14 UNL A   1      -4.547  10.654  32.658  1.00  0.00    +0.000 F 
ATOM     92  C70 UNL A   1      -3.102   9.662  34.247  1.00  0.00    +0.000 C 
ATOM     93  F15 UNL A   1      -2.059   9.932  33.449  1.00  0.00    +0.000 F 
ENDBRANCH   82   83
TORSDOF 30
ENDMDL
MODEL 8
REMARK VINA RESULT:      -9.8     40.937     46.516
ROOT
ATOM    166  H62 UNL A   1       3.262  -0.350  28.369  1.00  0.00    +0.000 H 
ATOM    167  H63 UNL A   1       2.759  -0.019  30.905  1.00  0.00    +0.000 H 
ATOM    168  H64 UNL A   1       4.596  -3.694  30.423  1.00  0.00    +0.000 H 
ATOM    169  H65 UNL A   1       6.641  -9.203  33.023  1.00  0.00    +0.000 H 
ATOM    170  H66 UNL A   1       7.066  -9.537  30.539  1.00  0.00    +0.000 H 
ATOM    171  H67 UNL A   1       5.366  -5.778  31.042  1.00  0.00    +0.000 H 
ATOM    172  H68 UNL A   1       4.482  -5.201  35.907  1.00  0.00    +0.000 H 
ATOM    173  H69 UNL A   1       3.343  -2.998  35.276  1.00  0.00    +0.000 H 
ATOM     46  C41 UNL A   1       6.185  -7.366  28.907  1.00  0.00    +0.000 C 
ATOM     47  C42 UNL A   1       5.740  -6.082  28.256  1.00  0.00    +0.000 C 
ATOM     48  N3  UNL A   1       5.338  -4.967  28.804  1.00  0.00    +0.000 N 
ATOM    175  H71 UNL A   1       6.005  -6.788  26.113  1.00  0.00    +0.000 H 
ATOM     49  C43 UNL A   1       5.165  -4.080  27.749  1.00  0.00    +0.000 C 
ATOM    174  H70 UNL A   1       5.723  -4.285  25.630  1.00  0.00    +0.000 H 
ATOM     50  C44 UNL A   1       4.634  -2.837  27.775  1.00  0.00    +0.000 C 
ATOM     62  C51 UNL A   1       4.129  -2.230  28.973  1.00  0.00    +0.000 C 
ATOM     63  C52 UNL A   1       3.489  -1.015  29.124  1.00  0.00    +0.000 C 
ATOM     64  C53 UNL A   1       3.205  -0.847  30.482  1.00  0.00    +0.000 C 
ATOM     65  C54 UNL A   1       3.621  -1.980  31.168  1.00  0.00    +0.000 C 
ATOM     66  N4  UNL A   1       4.197  -2.815  30.229  1.00  0.00    +0.000 N 
ATOM     67  C55 UNL A   1       3.498  -2.272  32.573  1.00  0.00    +0.000 C 
ATOM     79  C62 UNL A   1       3.938  -3.396  33.194  1.00  0.00    +0.000 C 
ATOM     80  N5  UNL A   1       4.574  -4.506  32.659  1.00  0.00    +0.000 N 
ATOM     81  C63 UNL A   1       4.810  -5.312  33.667  1.00  0.00    +0.000 C 
ATOM     82  C64 UNL A   1       5.449  -6.677  33.667  1.00  0.00    +0.000 C 
ATOM     94  C71 UNL A   1       5.819  -7.207  32.486  1.00  0.00    +0.000 C 
ATOM     95  C72 UNL A   1       6.419  -8.522  32.280  1.00  0.00    +0.000 C 
ATOM     96  C73 UNL A   1       6.636  -8.702  30.966  1.00  0.00    +0.000 C 
ATOM     97  C74 UNL A   1       6.161  -7.523  30.240  1.00  0.00    +0.000 C 
ATOM     98  N6  UNL A   1       5.720  -6.679  31.223  1.00  0.00    +0.000 N 
ATOM     99  C75 UNL A   1       4.377  -4.786  34.967  1.00  0.00    +0.000 C 
ATOM    100  C76 UNL A   1       3.812  -3.638  34.617  1.00  0.00    +0.000 C 
ATOM    101  C77 UNL A   1       5.601  -4.744  26.547  1.00  0.00    +0.000 C 
ATOM    102  C78 UNL A   1       5.822  -6.026  26.783  1.00  0.00    +0.000 C 
ENDROOT
BRANCH   46   45
ATOM    164  H60 UNL A   1       5.836 -11.072  26.164  1.00  0.00    +0.000 H 
ATOM    165  H61 UNL A   1       4.940  -9.546  27.840  1.00  0.00    +0.000 H 
ATOM    103  C79 UNL A   1       8.060  -8.294  27.614  1.00  0.00    +0.000 C 
ATOM    104  C80 UNL A   1       8.520  -9.071  26.573  1.00  0.00    +0.000 C 
ATOM     42  C37 UNL A   1       7.708 -10.092  26.063  1.00  0.00    +0.000 C 
ATOM     43  C38 UNL A   1       6.413 -10.298  26.532  1.00  0.00    +0.000 C 
ATOM     44  C39 UNL A   1       5.912  -9.438  27.506  1.00  0.00    +0.000 C 
ATOM     45  C40 UNL A   1       6.730  -8.426  28.035  1.00  0.00    +0.000 C 
ATOM    176  H72 UNL A   1       8.688  -7.620  28.078  1.00  0.00    +0.000 H 
ATOM    177  H73 UNL A   1       9.456  -8.903  26.173  1.00  0.00    +0.000 H 
BRANCH   42   40
ATOM     41  O3  UNL A   1       9.521 -11.246  25.077  1.00  0.00    +0.000 O 
ATOM     40  C36 UNL A   1       8.335 -11.054  25.129  1.00  0.00    +0.000 C 
BRANCH   40   39
ATOM    163  H59 UNL A   1       6.757 -12.318  24.723  1.00  0.00    +0.000 H 
ATOM     39  N2  UNL A   1       7.428 -11.718  24.324  1.00  0.00    +0.000 N 
BRANCH   39   38
ATOM    161  H57 UNL A   1       8.445 -11.187  22.598  1.00  0.00    +0.000 H 
ATOM    162  H58 UNL A   1       7.271 -12.445  22.380  1.00  0.00    +0.000 H 
ATOM     38  C35 UNL A   1       7.472 -11.526  22.890  1.00  0.00    +0.000 C 
BRANCH   38   37
ATOM     37  C34 UNL A   1       6.439 -10.486  22.535  1.00  0.00    +0.000 C 
ATOM    159  H55 UNL A   1       5.925 -10.807  21.653  1.00  0.00    +0.000 H 
ATOM    160  H56 UNL A   1       5.785 -10.395  23.377  1.00  0.00    +0.000 H 
BRANCH   37   36
ATOM     36  C33 UNL A   1       7.047  -9.055  22.265  1.00  0.00    +0.000 C 
ATOM    157  H53 UNL A   1       8.086  -9.214  22.067  1.00  0.00    +0.000 H 
ATOM    158  H54 UNL A   1       6.388  -8.697  21.501  1.00  0.00    +0.000 H 
BRANCH   36   35
ATOM     35  C32 UNL A   1       6.982  -7.790  23.351  1.00  0.00    +0.000 C 
ATOM    156  H52 UNL A   1       6.998  -8.412  24.222  1.00  0.00    +0.000 H 
ATOM    155  H51 UNL A   1       6.217  -7.163  22.942  1.00  0.00    +0.000 H 
BRANCH   35   34
ATOM    153  H49 UNL A   1       7.773  -6.314  24.938  1.00  0.00    +0.000 H 
ATOM     34  C31 UNL A   1       8.205  -6.575  23.995  1.00  0.00    +0.000 C 
ATOM    154  H50 UNL A   1       9.039  -7.155  23.660  1.00  0.00    +0.000 H 
BRANCH   34   33
ATOM     33  C30 UNL A   1       9.098  -4.760  23.422  1.00  0.00    +0.000 C 
ATOM    151  H47 UNL A   1       9.132  -4.855  22.357  1.00  0.00    +0.000 H 
ATOM    152  H48 UNL A   1       8.520  -4.181  24.111  1.00  0.00    +0.000 H 
BRANCH   33   32
ATOM    150  H46 UNL A   1      10.508  -3.809  24.669  1.00  0.00    +0.000 H 
ATOM     32  N1  UNL A   1      10.380  -3.993  23.710  1.00  0.00    +0.000 N 
BRANCH   32   30
ATOM     30  C29 UNL A   1      11.385  -3.504  22.941  1.00  0.00    +0.000 C 
ATOM     31  O2  UNL A   1      11.793  -4.279  22.065  1.00  0.00    +0.000 O 
BRANCH   30   29
ATOM    149  H45 UNL A   1      11.120  -1.537  23.238  1.00  0.00    +0.000 H 
ATOM    148  H44 UNL A   1      12.577  -1.997  22.155  1.00  0.00    +0.000 H 
ATOM     29  C28 UNL A   1      11.998  -2.119  23.045  1.00  0.00    +0.000 C 
BRANCH   29   28
ATOM    146  H42 UNL A   1      13.015  -2.442  24.873  1.00  0.00    +0.000 H 
ATOM    147  H43 UNL A   1      13.800  -1.309  23.704  1.00  0.00    +0.000 H 
ATOM     28  C27 UNL A   1      12.900  -1.631  24.186  1.00  0.00    +0.000 C 
BRANCH   28   27
ATOM      3  C3  UNL A   1      11.547  -0.760  26.237  1.00  0.00    +0.000 C 
ATOM      4  C4  UNL A   1      10.096  -0.226  26.172  1.00  0.00    +0.000 C 
ATOM      6  C5  UNL A   1       9.952   1.107  25.435  1.00  0.00    +0.000 C 
ATOM      7  C6  UNL A   1      10.425   0.923  23.957  1.00  0.00    +0.000 C 
ATOM      8  C7  UNL A   1      12.303   0.859  24.051  1.00  0.00    +0.000 C 
ATOM      9  C8  UNL A   1      13.439   1.307  22.546  1.00  0.00    +0.000 C 
ATOM     10  C9  UNL A   1      12.616   1.878  20.881  1.00  0.00    +0.000 C 
ATOM     11  C10 UNL A   1      10.658   1.913  20.698  1.00  0.00    +0.000 C 
ATOM    139  H35 UNL A   1       7.878   0.448  22.436  1.00  0.00    +0.000 H 
ATOM    140  H36 UNL A   1       7.652   2.002  21.588  1.00  0.00    +0.000 H 
ATOM     13  C12 UNL A   1       9.932   0.655  19.797  1.00  0.00    +0.000 C 
ATOM    137  H33 UNL A   1       8.306  -0.567  20.522  1.00  0.00    +0.000 H 
ATOM    144  H40 UNL A   1      12.997   1.396  26.102  1.00  0.00    +0.000 H 
ATOM    145  H41 UNL A   1      14.269   1.000  25.361  1.00  0.00    +0.000 H 
ATOM    138  H34 UNL A   1       7.815   0.946  19.719  1.00  0.00    +0.000 H 
ATOM     22  C21 UNL A   1       8.494   0.479  20.401  1.00  0.00    +0.000 C 
ATOM     23  C22 UNL A   1       8.296   1.163  21.759  1.00  0.00    +0.000 C 
ATOM     24  C23 UNL A   1       9.593   1.723  22.387  1.00  0.00    +0.000 C 
ATOM     26  C25 UNL A   1      13.225   0.808  25.237  1.00  0.00    +0.000 C 
ATOM     27  C26 UNL A   1      12.437  -0.436  24.970  1.00  0.00    +0.000 C 
ATOM    108  H4  UNL A   1      12.023  -0.178  26.998  1.00  0.00    +0.000 H 
ATOM    109  H5  UNL A   1       9.564  -0.977  25.624  1.00  0.00    +0.000 H 
ATOM    111  H7  UNL A   1      10.553   1.849  25.915  1.00  0.00    +0.000 H 
ATOM    112  H8  UNL A   1       8.928   1.421  25.451  1.00  0.00    +0.000 H 
ATOM    113  H9  UNL A   1       9.941   0.032  23.614  1.00  0.00    +0.000 H 
ATOM    114  H10 UNL A   1      14.023   0.439  22.325  1.00  0.00    +0.000 H 
ATOM    115  H11 UNL A   1      13.974   2.172  22.877  1.00  0.00    +0.000 H 
ATOM    116  H12 UNL A   1      12.984   1.225  20.117  1.00  0.00    +0.000 H 
ATOM    117  H13 UNL A   1      12.882   2.912  20.822  1.00  0.00    +0.000 H 
ATOM    121  H17 UNL A   1      10.101   0.998  18.798  1.00  0.00    +0.000 H 
BRANCH    3    2
ATOM      2  C2  UNL A   1      11.634  -2.199  26.746  1.00  0.00    +0.000 C 
ATOM    107  H3  UNL A   1      10.922  -2.852  26.385  1.00  0.00    +0.000 H 
BRANCH    2    1
ATOM      1  C1  UNL A   1      12.526  -2.716  27.606  1.00  0.00    +0.000 C 
ATOM    106  H2  UNL A   1      12.257  -3.498  28.222  1.00  0.00    +0.000 H 
ATOM    105  H1  UNL A   1      13.484  -2.332  27.649  1.00  0.00    +0.000 H 
ENDBRANCH    2    1
ENDBRANCH    3    2
BRANCH    4    5
ATOM      5  O1  UNL A   1       9.551  -0.043  27.485  1.00  0.00    +0.000 O 
ATOM    110  H6  UNL A   1       8.582  -0.069  27.441  1.00  0.00    +0.000 H 
ENDBRANCH    4    5
BRANCH   11   12
ATOM     12  C11 UNL A   1      10.535   3.004  19.547  1.00  0.00    +0.000 C 
ATOM    118  H14 UNL A   1      11.039   2.656  18.670  1.00  0.00    +0.000 H 
ATOM    119  H15 UNL A   1      10.979   3.920  19.875  1.00  0.00    +0.000 H 
ATOM    120  H16 UNL A   1       9.501   3.169  19.322  1.00  0.00    +0.000 H 
ENDBRANCH   11   12
BRANCH   13   14
ATOM    122  H18 UNL A   1      11.529  -0.420  19.541  1.00  0.00    +0.000 H 
ATOM     14  C13 UNL A   1      10.619  -0.617  19.013  1.00  0.00    +0.000 C 
BRANCH   14   15
ATOM    123  H19 UNL A   1       9.936  -1.293  17.090  1.00  0.00    +0.000 H 
ATOM    124  H20 UNL A   1      11.476  -0.468  17.047  1.00  0.00    +0.000 H 
ATOM    125  H21 UNL A   1      10.000   0.445  17.250  1.00  0.00    +0.000 H 
ATOM     15  C14 UNL A   1      10.499  -0.472  17.483  1.00  0.00    +0.000 C 
ENDBRANCH   14   15
BRANCH   14   16
ATOM    126  H22 UNL A   1      11.365  -2.276  20.174  1.00  0.00    +0.000 H 
ATOM    127  H23 UNL A   1      10.836  -2.632  18.446  1.00  0.00    +0.000 H 
ATOM     16  C15 UNL A   1      10.644  -2.168  19.391  1.00  0.00    +0.000 C 
BRANCH   16   17
ATOM     17  C16 UNL A   1       9.364  -2.912  19.871  1.00  0.00    +0.000 C 
ATOM    129  H25 UNL A   1       9.383  -2.804  20.935  1.00  0.00    +0.000 H 
ATOM    128  H24 UNL A   1       8.532  -2.466  19.365  1.00  0.00    +0.000 H 
BRANCH   17   18
ATOM     18  C17 UNL A   1       9.268  -4.421  19.650  1.00  0.00    +0.000 C 
ATOM    130  H26 UNL A   1       8.850  -4.956  20.428  1.00  0.00    +0.000 H 
BRANCH   18   19
ATOM     19  C18 UNL A   1       9.652  -5.160  18.578  1.00  0.00    +0.000 C 
BRANCH   19   20
ATOM    133  H29 UNL A   1      10.932  -6.601  17.692  1.00  0.00    +0.000 H 
ATOM    131  H27 UNL A   1      10.532  -6.922  19.364  1.00  0.00    +0.000 H 
ATOM     20  C19 UNL A   1      10.781  -6.159  18.655  1.00  0.00    +0.000 C 
ATOM    132  H28 UNL A   1      11.677  -5.663  18.965  1.00  0.00    +0.000 H 
ENDBRANCH   19   20
BRANCH   19   21
ATOM     21  C20 UNL A   1       9.115  -5.080  17.179  1.00  0.00    +0.000 C 
ATOM    134  H30 UNL A   1       8.960  -4.056  16.915  1.00  0.00    +0.000 H 
ATOM    135  H31 UNL A   1       8.187  -5.609  17.123  1.00  0.00    +0.000 H 
ATOM    136  H32 UNL A   1       9.818  -5.520  16.502  1.00  0.00    +0.000 H 
ENDBRANCH   19   21
ENDBRANCH   18   19
ENDBRANCH   17   18
ENDBRANCH   16   17
ENDBRANCH   14   16
ENDBRANCH   13   14
BRANCH   24   25
ATOM     25  C24 UNL A   1       8.951   2.781  23.374  1.00  0.00    +0.000 C 
ATOM    141  H37 UNL A   1       8.026   3.131  22.969  1.00  0.00    +0.000 H 
ATOM    142  H38 UNL A   1       9.622   3.606  23.497  1.00  0.00    +0.000 H 
ATOM    143  H39 UNL A   1       8.774   2.321  24.323  1.00  0.00    +0.000 H 
ENDBRANCH   24   25
ENDBRANCH   28   27
ENDBRANCH   29   28
ENDBRANCH   30   29
ENDBRANCH   32   30
ENDBRANCH   33   32
ENDBRANCH   34   33
ENDBRANCH   35   34
ENDBRANCH   36   35
ENDBRANCH   37   36
ENDBRANCH   38   37
ENDBRANCH   39   38
ENDBRANCH   40   39
ENDBRANCH   42   40
ENDBRANCH   46   45
BRANCH   50   51
ATOM     51  C45 UNL A   1       4.552  -2.089  26.476  1.00  0.00    +0.000 C 
ATOM     52  C46 UNL A   1       5.598  -1.265  26.027  1.00  0.00    +0.000 C 
ATOM     53  F1  UNL A   1       6.709  -1.122  26.766  1.00  0.00    +0.000 F 
ATOM     54  C47 UNL A   1       5.483  -0.534  24.849  1.00  0.00    +0.000 C 
ATOM     55  F2  UNL A   1       6.466   0.301  24.482  1.00  0.00    +0.000 F 
ATOM     56  C48 UNL A   1       4.342  -0.647  24.069  1.00  0.00    +0.000 C 
ATOM     57  F3  UNL A   1       4.233   0.056  22.933  1.00  0.00    +0.000 F 
ATOM     58  C49 UNL A   1       3.311  -1.481  24.473  1.00  0.00    +0.000 C 
ATOM     59  F4  UNL A   1       2.212  -1.599  23.715  1.00  0.00    +0.000 F 
ATOM     60  C50 UNL A   1       3.406  -2.185  25.672  1.00  0.00    +0.000 C 
ATOM     61  F5  UNL A   1       2.375  -2.954  26.051  1.00  0.00    +0.000 F 
ENDBRANCH   50   51
BRANCH   67   68
ATOM     68  C56 UNL A   1       2.807  -1.246  33.419  1.00  0.00    +0.000 C 
ATOM     69  C57 UNL A   1       3.523  -0.245  34.088  1.00  0.00    +0.000 C 
ATOM     70  F6  UNL A   1       4.863  -0.235  34.055  1.00  0.00    +0.000 F 
ATOM     71  C58 UNL A   1       2.860   0.737  34.817  1.00  0.00    +0.000 C 
ATOM     72  F7  UNL A   1       3.563   1.663  35.484  1.00  0.00    +0.000 F 
ATOM     73  C59 UNL A   1       1.473   0.755  34.860  1.00  0.00    +0.000 C 
ATOM     74  F8  UNL A   1       0.836   1.712  35.550  1.00  0.00    +0.000 F 
ATOM     75  C60 UNL A   1       0.746  -0.218  34.193  1.00  0.00    +0.000 C 
ATOM     76  F9  UNL A   1      -0.593  -0.190  34.216  1.00  0.00    +0.000 F 
ATOM     77  C61 UNL A   1       1.405  -1.221  33.491  1.00  0.00    +0.000 C 
ATOM     78  F10 UNL A   1       0.678  -2.151  32.855  1.00  0.00    +0.000 F 
ENDBRANCH   67   68
BRANCH   82   83
ATOM     83  C65 UNL A   1       5.620  -7.455  34.922  1.00  0.00    +0.000 C 
ATOM     84  C66 UNL A   1       6.809  -7.375  35.662  1.00  0.00    +0.000 C 
ATOM     85  F11 UNL A   1       7.815  -6.601  35.231  1.00  0.00    +0.000 F 
ATOM     86  C67 UNL A   1       6.985  -8.120  36.826  1.00  0.00    +0.000 C 
ATOM     87  F12 UNL A   1       8.149  -8.060  37.487  1.00  0.00    +0.000 F 
ATOM     88  C68 UNL A   1       5.965  -8.935  37.293  1.00  0.00    +0.000 C 
ATOM     89  F13 UNL A   1       6.135  -9.650  38.413  1.00  0.00    +0.000 F 
ATOM     90  C69 UNL A   1       4.772  -9.014  36.590  1.00  0.00    +0.000 C 
ATOM     91  F14 UNL A   1       3.778  -9.788  37.045  1.00  0.00    +0.000 F 
ATOM     92  C70 UNL A   1       4.605  -8.290  35.410  1.00  0.00    +0.000 C 
ATOM     93  F15 UNL A   1       3.445  -8.395  34.746  1.00  0.00    +0.000 F 
ENDBRANCH   82   83
TORSDOF 30
ENDMDL
MODEL 9
REMARK VINA RESULT:      -9.7     36.224     42.097
ROOT
ATOM    166  H62 UNL A   1      39.949  28.059  26.465  1.00  0.00    +0.000 H 
ATOM    167  H63 UNL A   1      38.055  29.768  27.000  1.00  0.00    +0.000 H 
ATOM    168  H64 UNL A   1      40.430  29.379  30.365  1.00  0.00    +0.000 H 
ATOM    169  H65 UNL A   1      41.543  30.874  36.515  1.00  0.00    +0.000 H 
ATOM    170  H66 UNL A   1      43.345  29.157  35.996  1.00  0.00    +0.000 H 
ATOM    171  H67 UNL A   1      41.054  29.668  32.566  1.00  0.00    +0.000 H 
ATOM    172  H68 UNL A   1      37.496  32.977  33.652  1.00  0.00    +0.000 H 
ATOM    173  H69 UNL A   1      36.561  32.497  31.319  1.00  0.00    +0.000 H 
ATOM     46  C41 UNL A   1      43.189  28.068  33.361  1.00  0.00    +0.000 C 
ATOM     47  C42 UNL A   1      42.981  27.704  31.914  1.00  0.00    +0.000 C 
ATOM     48  N3  UNL A   1      42.158  28.215  31.038  1.00  0.00    +0.000 N 
ATOM    175  H71 UNL A   1      44.524  26.038  31.855  1.00  0.00    +0.000 H 
ATOM     49  C43 UNL A   1      42.465  27.589  29.837  1.00  0.00    +0.000 C 
ATOM    174  H70 UNL A   1      44.147  26.263  29.328  1.00  0.00    +0.000 H 
ATOM     50  C44 UNL A   1      41.811  27.671  28.655  1.00  0.00    +0.000 C 
ATOM     62  C51 UNL A   1      40.625  28.457  28.474  1.00  0.00    +0.000 C 
ATOM     63  C52 UNL A   1      39.818  28.560  27.358  1.00  0.00    +0.000 C 
ATOM     64  C53 UNL A   1      38.794  29.463  27.653  1.00  0.00    +0.000 C 
ATOM     65  C54 UNL A   1      38.933  29.882  28.969  1.00  0.00    +0.000 C 
ATOM     66  N4  UNL A   1      40.069  29.264  29.456  1.00  0.00    +0.000 N 
ATOM     67  C55 UNL A   1      38.090  30.777  29.719  1.00  0.00    +0.000 C 
ATOM     79  C62 UNL A   1      38.284  31.164  31.005  1.00  0.00    +0.000 C 
ATOM     80  N5  UNL A   1      39.287  30.801  31.891  1.00  0.00    +0.000 N 
ATOM     81  C63 UNL A   1      39.044  31.454  33.003  1.00  0.00    +0.000 C 
ATOM     82  C64 UNL A   1      39.791  31.418  34.313  1.00  0.00    +0.000 C 
ATOM     94  C71 UNL A   1      40.845  30.589  34.422  1.00  0.00    +0.000 C 
ATOM     95  C72 UNL A   1      41.669  30.391  35.611  1.00  0.00    +0.000 C 
ATOM     96  C73 UNL A   1      42.616  29.476  35.340  1.00  0.00    +0.000 C 
ATOM     97  C74 UNL A   1      42.443  29.008  33.965  1.00  0.00    +0.000 C 
ATOM     98  N6  UNL A   1      41.390  29.742  33.490  1.00  0.00    +0.000 N 
ATOM     99  C75 UNL A   1      37.871  32.334  32.936  1.00  0.00    +0.000 C 
ATOM    100  C76 UNL A   1      37.420  32.085  31.714  1.00  0.00    +0.000 C 
ATOM    101  C77 UNL A   1      43.608  26.742  30.067  1.00  0.00    +0.000 C 
ATOM    102  C78 UNL A   1      43.869  26.663  31.361  1.00  0.00    +0.000 C 
ENDROOT
BRANCH   46   45
ATOM    164  H60 UNL A   1      45.099  24.653  35.825  1.00  0.00    +0.000 H 
ATOM    165  H61 UNL A   1      43.165  25.836  34.929  1.00  0.00    +0.000 H 
ATOM    103  C79 UNL A   1      45.584  27.946  33.905  1.00  0.00    +0.000 C 
ATOM    104  C80 UNL A   1      46.680  27.209  34.295  1.00  0.00    +0.000 C 
ATOM     42  C37 UNL A   1      46.494  26.019  35.009  1.00  0.00    +0.000 C 
ATOM     43  C38 UNL A   1      45.221  25.518  35.275  1.00  0.00    +0.000 C 
ATOM     44  C39 UNL A   1      44.117  26.209  34.781  1.00  0.00    +0.000 C 
ATOM     45  C40 UNL A   1      44.299  27.414  34.081  1.00  0.00    +0.000 C 
ATOM    176  H72 UNL A   1      45.707  28.880  33.485  1.00  0.00    +0.000 H 
ATOM    177  H73 UNL A   1      47.634  27.531  34.064  1.00  0.00    +0.000 H 
BRANCH   42   40
ATOM     41  O3  UNL A   1      47.997  25.557  36.775  1.00  0.00    +0.000 O 
ATOM     40  C36 UNL A   1      47.691  25.400  35.623  1.00  0.00    +0.000 C 
BRANCH   40   39
ATOM    163  H59 UNL A   1      48.003  24.266  33.929  1.00  0.00    +0.000 H 
ATOM     39  N2  UNL A   1      48.422  24.618  34.748  1.00  0.00    +0.000 N 
BRANCH   39   38
ATOM    161  H57 UNL A   1      50.203  25.057  35.712  1.00  0.00    +0.000 H 
ATOM    162  H58 UNL A   1      49.894  23.362  35.512  1.00  0.00    +0.000 H 
ATOM     38  C35 UNL A   1      49.807  24.320  35.044  1.00  0.00    +0.000 C 
BRANCH   38   37
ATOM     37  C34 UNL A   1      50.569  24.345  33.743  1.00  0.00    +0.000 C 
ATOM    159  H55 UNL A   1      51.442  24.950  33.874  1.00  0.00    +0.000 H 
ATOM    160  H56 UNL A   1      50.809  23.330  33.502  1.00  0.00    +0.000 H 
BRANCH   37   36
ATOM     36  C33 UNL A   1      49.738  24.923  32.532  1.00  0.00    +0.000 C 
ATOM    157  H53 UNL A   1      48.899  24.269  32.418  1.00  0.00    +0.000 H 
ATOM    158  H54 UNL A   1      49.607  25.938  32.845  1.00  0.00    +0.000 H 
BRANCH   36   35
ATOM     35  C32 UNL A   1      50.350  25.145  30.997  1.00  0.00    +0.000 C 
ATOM    156  H52 UNL A   1      50.633  24.122  30.859  1.00  0.00    +0.000 H 
ATOM    155  H51 UNL A   1      50.937  26.034  31.100  1.00  0.00    +0.000 H 
BRANCH   35   34
ATOM    153  H49 UNL A   1      50.216  24.678  28.742  1.00  0.00    +0.000 H 
ATOM     34  C31 UNL A   1      49.609  25.337  29.324  1.00  0.00    +0.000 C 
ATOM    154  H50 UNL A   1      48.610  25.334  29.707  1.00  0.00    +0.000 H 
BRANCH   34   33
ATOM     33  C30 UNL A   1      49.185  26.859  27.936  1.00  0.00    +0.000 C 
ATOM    151  H47 UNL A   1      50.127  27.363  27.864  1.00  0.00    +0.000 H 
ATOM    152  H48 UNL A   1      48.625  26.211  27.296  1.00  0.00    +0.000 H 
BRANCH   33   32
ATOM    150  H46 UNL A   1      47.559  27.871  27.055  1.00  0.00    +0.000 H 
ATOM     32  N1  UNL A   1      48.201  28.009  27.788  1.00  0.00    +0.000 N 
BRANCH   32   30
ATOM     30  C29 UNL A   1      48.011  29.184  28.440  1.00  0.00    +0.000 C 
ATOM     31  O2  UNL A   1      49.047  29.729  28.842  1.00  0.00    +0.000 O 
BRANCH   30   29
ATOM    149  H45 UNL A   1      46.477  29.567  29.676  1.00  0.00    +0.000 H 
ATOM    148  H44 UNL A   1      46.058  29.574  27.851  1.00  0.00    +0.000 H 
ATOM     29  C28 UNL A   1      46.677  29.873  28.670  1.00  0.00    +0.000 C 
BRANCH   29   28
ATOM    146  H42 UNL A   1      45.866  31.554  29.667  1.00  0.00    +0.000 H 
ATOM    147  H43 UNL A   1      47.461  31.794  28.852  1.00  0.00    +0.000 H 
ATOM     28  C27 UNL A   1      46.472  31.387  28.802  1.00  0.00    +0.000 C 
BRANCH   28   27
ATOM      3  C3  UNL A   1      46.786  33.003  26.781  1.00  0.00    +0.000 C 
ATOM      4  C4  UNL A   1      46.464  34.517  26.806  1.00  0.00    +0.000 C 
ATOM      6  C5  UNL A   1      44.972  34.839  26.909  1.00  0.00    +0.000 C 
ATOM      7  C6  UNL A   1      44.416  34.244  28.242  1.00  0.00    +0.000 C 
ATOM      8  C7  UNL A   1      44.280  32.393  27.931  1.00  0.00    +0.000 C 
ATOM      9  C8  UNL A   1      43.069  31.253  28.927  1.00  0.00    +0.000 C 
ATOM     10  C9  UNL A   1      41.922  32.049  30.278  1.00  0.00    +0.000 C 
ATOM     11  C10 UNL A   1      42.053  33.968  30.692  1.00  0.00    +0.000 C 
ATOM    139  H35 UNL A   1      44.474  36.565  30.149  1.00  0.00    +0.000 H 
ATOM    140  H36 UNL A   1      42.747  36.997  30.266  1.00  0.00    +0.000 H 
ATOM     13  C12 UNL A   1      42.856  34.406  32.136  1.00  0.00    +0.000 C 
ATOM    137  H33 UNL A   1      44.465  35.841  32.236  1.00  0.00    +0.000 H 
ATOM    144  H40 UNL A   1      44.634  31.939  25.776  1.00  0.00    +0.000 H 
ATOM    145  H41 UNL A   1      44.495  30.572  26.435  1.00  0.00    +0.000 H 
ATOM    138  H34 UNL A   1      42.826  36.531  32.367  1.00  0.00    +0.000 H 
ATOM     22  C21 UNL A   1      43.460  35.829  31.867  1.00  0.00    +0.000 C 
ATOM     23  C22 UNL A   1      43.486  36.232  30.388  1.00  0.00    +0.000 C 
ATOM     24  C23 UNL A   1      43.109  35.095  29.411  1.00  0.00    +0.000 C 
ATOM     26  C25 UNL A   1      44.740  31.557  26.769  1.00  0.00    +0.000 C 
ATOM     27  C26 UNL A   1      45.821  32.099  27.651  1.00  0.00    +0.000 C 
ATOM    108  H4  UNL A   1      46.550  32.686  25.786  1.00  0.00    +0.000 H 
ATOM    109  H5  UNL A   1      46.951  34.874  27.691  1.00  0.00    +0.000 H 
ATOM    111  H7  UNL A   1      44.454  34.406  26.079  1.00  0.00    +0.000 H 
ATOM    112  H8  UNL A   1      44.828  35.899  26.897  1.00  0.00    +0.000 H 
ATOM    113  H9  UNL A   1      45.112  34.543  28.997  1.00  0.00    +0.000 H 
ATOM    114  H10 UNL A   1      43.667  30.515  29.419  1.00  0.00    +0.000 H 
ATOM    115  H11 UNL A   1      42.384  30.898  28.186  1.00  0.00    +0.000 H 
ATOM    116  H12 UNL A   1      42.113  31.525  31.191  1.00  0.00    +0.000 H 
ATOM    117  H13 UNL A   1      40.946  31.962  29.849  1.00  0.00    +0.000 H 
ATOM    121  H17 UNL A   1      42.084  34.232  32.856  1.00  0.00    +0.000 H 
BRANCH    3    2
ATOM      2  C2  UNL A   1      48.276  32.704  26.935  1.00  0.00    +0.000 C 
ATOM    107  H3  UNL A   1      48.633  31.890  26.409  1.00  0.00    +0.000 H 
BRANCH    2    1
ATOM      1  C1  UNL A   1      49.179  33.373  27.670  1.00  0.00    +0.000 C 
ATOM    106  H2  UNL A   1      49.882  33.968  27.207  1.00  0.00    +0.000 H 
ATOM    105  H1  UNL A   1      49.168  33.293  28.699  1.00  0.00    +0.000 H 
ENDBRANCH    2    1
ENDBRANCH    3    2
BRANCH    4    5
ATOM      5  O1  UNL A   1      46.956  35.171  25.629  1.00  0.00    +0.000 O 
ATOM    110  H6  UNL A   1      46.971  36.130  25.774  1.00  0.00    +0.000 H 
ENDBRANCH    4    5
BRANCH   11   12
ATOM     12  C11 UNL A   1      40.588  34.200  31.265  1.00  0.00    +0.000 C 
ATOM    118  H14 UNL A   1      40.505  35.200  31.638  1.00  0.00    +0.000 H 
ATOM    119  H15 UNL A   1      40.400  33.507  32.056  1.00  0.00    +0.000 H 
ATOM    120  H16 UNL A   1      39.872  34.052  30.483  1.00  0.00    +0.000 H 
ENDBRANCH   11   12
BRANCH   13   14
ATOM    122  H18 UNL A   1      42.751  32.757  33.157  1.00  0.00    +0.000 H 
ATOM     14  C13 UNL A   1      43.546  33.459  33.290  1.00  0.00    +0.000 C 
BRANCH   14   15
ATOM    123  H19 UNL A   1      44.799  34.236  34.855  1.00  0.00    +0.000 H 
ATOM    124  H20 UNL A   1      43.205  33.762  35.391  1.00  0.00    +0.000 H 
ATOM    125  H21 UNL A   1      43.420  35.241  34.485  1.00  0.00    +0.000 H 
ATOM     15  C14 UNL A   1      43.759  34.234  34.606  1.00  0.00    +0.000 C 
ENDBRANCH   14   15
BRANCH   14   16
ATOM    126  H22 UNL A   1      45.453  32.752  32.568  1.00  0.00    +0.000 H 
ATOM    127  H23 UNL A   1      44.116  31.502  32.769  1.00  0.00    +0.000 H 
ATOM     16  C15 UNL A   1      44.669  32.331  33.160  1.00  0.00    +0.000 C 
BRANCH   16   17
ATOM     17  C16 UNL A   1      45.353  31.711  34.413  1.00  0.00    +0.000 C 
ATOM    129  H25 UNL A   1      45.468  32.537  35.083  1.00  0.00    +0.000 H 
ATOM    128  H24 UNL A   1      44.726  30.911  34.751  1.00  0.00    +0.000 H 
BRANCH   17   18
ATOM     18  C17 UNL A   1      46.766  31.146  34.272  1.00  0.00    +0.000 C 
ATOM    130  H26 UNL A   1      47.075  30.533  35.042  1.00  0.00    +0.000 H 
BRANCH   18   19
ATOM     19  C18 UNL A   1      47.672  31.335  33.278  1.00  0.00    +0.000 C 
BRANCH   19   20
ATOM    133  H29 UNL A   1      48.063  29.403  32.494  1.00  0.00    +0.000 H 
ATOM    131  H27 UNL A   1      48.574  30.717  31.461  1.00  0.00    +0.000 H 
ATOM     20  C19 UNL A   1      47.806  30.373  32.123  1.00  0.00    +0.000 C 
ATOM    132  H28 UNL A   1      46.877  30.318  31.594  1.00  0.00    +0.000 H 
ENDBRANCH   19   20
BRANCH   19   21
ATOM     21  C20 UNL A   1      48.701  32.423  33.179  1.00  0.00    +0.000 C 
ATOM    134  H30 UNL A   1      48.701  32.823  32.188  1.00  0.00    +0.000 H 
ATOM    135  H31 UNL A   1      49.667  32.021  33.403  1.00  0.00    +0.000 H 
ATOM    136  H32 UNL A   1      48.466  33.200  33.877  1.00  0.00    +0.000 H 
ENDBRANCH   19   21
ENDBRANCH   18   19
ENDBRANCH   17   18
ENDBRANCH   16   17
ENDBRANCH   14   16
ENDBRANCH   13   14
BRANCH   24   25
ATOM     25  C24 UNL A   1      42.692  35.972  28.162  1.00  0.00    +0.000 C 
ATOM    141  H37 UNL A   1      42.777  37.009  28.410  1.00  0.00    +0.000 H 
ATOM    142  H38 UNL A   1      41.681  35.751  27.892  1.00  0.00    +0.000 H 
ATOM    143  H39 UNL A   1      43.338  35.749  27.338  1.00  0.00    +0.000 H 
ENDBRANCH   24   25
ENDBRANCH   28   27
ENDBRANCH   29   28
ENDBRANCH   30   29
ENDBRANCH   32   30
ENDBRANCH   33   32
ENDBRANCH   34   33
ENDBRANCH   35   34
ENDBRANCH   36   35
ENDBRANCH   37   36
ENDBRANCH   38   37
ENDBRANCH   39   38
ENDBRANCH   40   39
ENDBRANCH   42   40
ENDBRANCH   46   45
BRANCH   50   51
ATOM     51  C45 UNL A   1      42.353  26.872  27.505  1.00  0.00    +0.000 C 
ATOM     52  C46 UNL A   1      41.887  25.579  27.215  1.00  0.00    +0.000 C 
ATOM     53  F1  UNL A   1      40.937  25.017  27.978  1.00  0.00    +0.000 F 
ATOM     54  C47 UNL A   1      42.439  24.830  26.180  1.00  0.00    +0.000 C 
ATOM     55  F2  UNL A   1      42.028  23.572  25.973  1.00  0.00    +0.000 F 
ATOM     56  C48 UNL A   1      43.433  25.375  25.382  1.00  0.00    +0.000 C 
ATOM     57  F3  UNL A   1      43.963  24.655  24.384  1.00  0.00    +0.000 F 
ATOM     58  C49 UNL A   1      43.884  26.664  25.626  1.00  0.00    +0.000 C 
ATOM     59  F4  UNL A   1      44.838  27.195  24.849  1.00  0.00    +0.000 F 
ATOM     60  C50 UNL A   1      43.361  27.401  26.685  1.00  0.00    +0.000 C 
ATOM     61  F5  UNL A   1      43.846  28.631  26.916  1.00  0.00    +0.000 F 
ENDBRANCH   50   51
BRANCH   67   68
ATOM     68  C56 UNL A   1      36.881  31.315  29.015  1.00  0.00    +0.000 C 
ATOM     69  C57 UNL A   1      35.748  30.520  28.792  1.00  0.00    +0.000 C 
ATOM     70  F6  UNL A   1      35.756  29.223  29.132  1.00  0.00    +0.000 F 
ATOM     71  C58 UNL A   1      34.612  31.054  28.194  1.00  0.00    +0.000 C 
ATOM     72  F7  UNL A   1      33.553  30.269  27.953  1.00  0.00    +0.000 F 
ATOM     73  C59 UNL A   1      34.576  32.395  27.841  1.00  0.00    +0.000 C 
ATOM     74  F8  UNL A   1      33.473  32.911  27.280  1.00  0.00    +0.000 F 
ATOM     75  C60 UNL A   1      35.680  33.202  28.066  1.00  0.00    +0.000 C 
ATOM     76  F9  UNL A   1      35.639  34.502  27.745  1.00  0.00    +0.000 F 
ATOM     77  C61 UNL A   1      36.830  32.665  28.634  1.00  0.00    +0.000 C 
ATOM     78  F10 UNL A   1      37.885  33.467  28.840  1.00  0.00    +0.000 F 
ENDBRANCH   67   68
BRANCH   82   83
ATOM     83  C65 UNL A   1      39.352  32.227  35.479  1.00  0.00    +0.000 C 
ATOM     84  C66 UNL A   1      38.520  31.676  36.465  1.00  0.00    +0.000 C 
ATOM     85  F11 UNL A   1      38.098  30.408  36.353  1.00  0.00    +0.000 F 
ATOM     86  C67 UNL A   1      38.084  32.436  37.549  1.00  0.00    +0.000 C 
ATOM     87  F12 UNL A   1      37.252  31.898  38.450  1.00  0.00    +0.000 F 
ATOM     88  C68 UNL A   1      38.498  33.752  37.687  1.00  0.00    +0.000 C 
ATOM     89  F13 UNL A   1      38.080  34.483  38.730  1.00  0.00    +0.000 F 
ATOM     90  C69 UNL A   1      39.339  34.312  36.737  1.00  0.00    +0.000 C 
ATOM     91  F14 UNL A   1      39.753  35.579  36.875  1.00  0.00    +0.000 F 
ATOM     92  C70 UNL A   1      39.753  33.561  35.638  1.00  0.00    +0.000 C 
ATOM     93  F15 UNL A   1      40.556  34.133  34.730  1.00  0.00    +0.000 F 
ENDBRANCH   82   83
TORSDOF 30
ENDMDL
MODEL 10
REMARK VINA RESULT:      -9.7     49.151     54.014
ROOT
ATOM    166  H62 UNL A   1      18.686  33.859  47.757  1.00  0.00    +0.000 H 
ATOM    167  H63 UNL A   1      16.906  35.300  49.003  1.00  0.00    +0.000 H 
ATOM    168  H64 UNL A   1      20.231  37.664  48.319  1.00  0.00    +0.000 H 
ATOM    169  H65 UNL A   1      23.232  43.292  49.099  1.00  0.00    +0.000 H 
ATOM    170  H66 UNL A   1      24.980  41.854  47.942  1.00  0.00    +0.000 H 
ATOM    171  H67 UNL A   1      21.581  39.526  48.488  1.00  0.00    +0.000 H 
ATOM    172  H68 UNL A   1      18.217  42.358  50.823  1.00  0.00    +0.000 H 
ATOM    173  H69 UNL A   1      16.763  40.255  50.940  1.00  0.00    +0.000 H 
ATOM     46  C41 UNL A   1      24.152  39.160  47.485  1.00  0.00    +0.000 C 
ATOM     47  C42 UNL A   1      23.481  37.830  47.259  1.00  0.00    +0.000 C 
ATOM     48  N3  UNL A   1      22.241  37.477  47.472  1.00  0.00    +0.000 N 
ATOM    175  H71 UNL A   1      25.322  36.754  46.477  1.00  0.00    +0.000 H 
ATOM     49  C43 UNL A   1      22.138  36.182  46.982  1.00  0.00    +0.000 C 
ATOM    174  H70 UNL A   1      23.573  35.005  45.798  1.00  0.00    +0.000 H 
ATOM     50  C44 UNL A   1      21.098  35.324  47.085  1.00  0.00    +0.000 C 
ATOM     62  C51 UNL A   1      19.883  35.652  47.773  1.00  0.00    +0.000 C 
ATOM     63  C52 UNL A   1      18.788  34.850  48.025  1.00  0.00    +0.000 C 
ATOM     64  C53 UNL A   1      17.842  35.619  48.709  1.00  0.00    +0.000 C 
ATOM     65  C54 UNL A   1      18.369  36.884  48.927  1.00  0.00    +0.000 C 
ATOM     66  N4  UNL A   1      19.619  36.893  48.337  1.00  0.00    +0.000 N 
ATOM     67  C55 UNL A   1      17.774  37.996  49.623  1.00  0.00    +0.000 C 
ATOM     79  C62 UNL A   1      18.333  39.220  49.795  1.00  0.00    +0.000 C 
ATOM     80  N5  UNL A   1      19.570  39.689  49.377  1.00  0.00    +0.000 N 
ATOM     81  C63 UNL A   1      19.637  40.939  49.771  1.00  0.00    +0.000 C 
ATOM     82  C64 UNL A   1      20.766  41.927  49.618  1.00  0.00    +0.000 C 
ATOM     94  C71 UNL A   1      21.903  41.509  49.032  1.00  0.00    +0.000 C 
ATOM     95  C72 UNL A   1      23.111  42.305  48.825  1.00  0.00    +0.000 C 
ATOM     96  C73 UNL A   1      24.038  41.542  48.222  1.00  0.00    +0.000 C 
ATOM     97  C74 UNL A   1      23.494  40.197  48.028  1.00  0.00    +0.000 C 
ATOM     98  N6  UNL A   1      22.216  40.279  48.511  1.00  0.00    +0.000 N 
ATOM     99  C75 UNL A   1      18.430  41.416  50.457  1.00  0.00    +0.000 C 
ATOM    100  C76 UNL A   1      17.687  40.318  50.484  1.00  0.00    +0.000 C 
ATOM    101  C77 UNL A   1      23.400  35.847  46.370  1.00  0.00    +0.000 C 
ATOM    102  C78 UNL A   1      24.305  36.770  46.647  1.00  0.00    +0.000 C 
ENDROOT
BRANCH   46   45
ATOM    164  H60 UNL A   1      27.400  40.654  44.553  1.00  0.00    +0.000 H 
ATOM    165  H61 UNL A   1      25.084  40.148  45.119  1.00  0.00    +0.000 H 
ATOM    103  C79 UNL A   1      26.567  38.985  47.911  1.00  0.00    +0.000 C 
ATOM    104  C80 UNL A   1      27.856  39.392  47.646  1.00  0.00    +0.000 C 
ATOM     42  C37 UNL A   1      28.153  39.985  46.413  1.00  0.00    +0.000 C 
ATOM     43  C38 UNL A   1      27.162  40.241  45.468  1.00  0.00    +0.000 C 
ATOM     44  C39 UNL A   1      25.842  39.930  45.786  1.00  0.00    +0.000 C 
ATOM     45  C40 UNL A   1      25.542  39.317  47.014  1.00  0.00    +0.000 C 
ATOM    176  H72 UNL A   1      26.357  38.441  48.763  1.00  0.00    +0.000 H 
ATOM    177  H73 UNL A   1      28.598  39.262  48.352  1.00  0.00    +0.000 H 
BRANCH   42   40
ATOM     41  O3  UNL A   1      29.959  40.842  45.151  1.00  0.00    +0.000 O 
ATOM     40  C36 UNL A   1      29.582  40.171  46.076  1.00  0.00    +0.000 C 
BRANCH   40   39
ATOM    163  H59 UNL A   1      30.130  39.190  47.804  1.00  0.00    +0.000 H 
ATOM     39  N2  UNL A   1      30.445  39.507  46.927  1.00  0.00    +0.000 N 
BRANCH   39   38
ATOM    161  H57 UNL A   1      32.059  39.914  45.692  1.00  0.00    +0.000 H 
ATOM    162  H58 UNL A   1      32.489  39.503  47.321  1.00  0.00    +0.000 H 
ATOM     38  C35 UNL A   1      31.816  39.280  46.519  1.00  0.00    +0.000 C 
BRANCH   38   37
ATOM     37  C34 UNL A   1      31.939  37.833  46.112  1.00  0.00    +0.000 C 
ATOM    159  H55 UNL A   1      32.890  37.469  46.440  1.00  0.00    +0.000 H 
ATOM    160  H56 UNL A   1      31.123  37.310  46.566  1.00  0.00    +0.000 H 
BRANCH   37   36
ATOM     36  C33 UNL A   1      31.826  37.602  44.555  1.00  0.00    +0.000 C 
ATOM    157  H53 UNL A   1      32.158  38.512  44.102  1.00  0.00    +0.000 H 
ATOM    158  H54 UNL A   1      32.386  36.696  44.445  1.00  0.00    +0.000 H 
BRANCH   36   35
ATOM     35  C32 UNL A   1      30.413  37.195  43.768  1.00  0.00    +0.000 C 
ATOM    156  H52 UNL A   1      30.628  36.147  43.722  1.00  0.00    +0.000 H 
ATOM    155  H51 UNL A   1      30.344  37.938  43.001  1.00  0.00    +0.000 H 
BRANCH   35   34
ATOM    153  H49 UNL A   1      28.322  37.992  44.329  1.00  0.00    +0.000 H 
ATOM     34  C31 UNL A   1      28.661  36.979  44.286  1.00  0.00    +0.000 C 
ATOM    154  H50 UNL A   1      28.515  36.141  43.637  1.00  0.00    +0.000 H 
BRANCH   34   33
ATOM     33  C30 UNL A   1      27.559  36.098  45.845  1.00  0.00    +0.000 C 
ATOM    151  H47 UNL A   1      27.773  36.751  46.666  1.00  0.00    +0.000 H 
ATOM    152  H48 UNL A   1      26.705  35.916  45.228  1.00  0.00    +0.000 H 
BRANCH   33   32
ATOM    150  H46 UNL A   1      26.599  34.300  46.387  1.00  0.00    +0.000 H 
ATOM     32  N1  UNL A   1      27.464  34.746  46.536  1.00  0.00    +0.000 N 
BRANCH   32   30
ATOM     30  C29 UNL A   1      28.304  34.017  47.313  1.00  0.00    +0.000 C 
ATOM     31  O2  UNL A   1      27.754  33.399  48.235  1.00  0.00    +0.000 O 
BRANCH   30   29
ATOM    149  H45 UNL A   1      30.088  33.537  48.095  1.00  0.00    +0.000 H 
ATOM    148  H44 UNL A   1      30.128  34.815  46.727  1.00  0.00    +0.000 H 
ATOM     29  C28 UNL A   1      29.803  33.876  47.120  1.00  0.00    +0.000 C 
BRANCH   29   28
ATOM    146  H42 UNL A   1      30.119  31.859  46.562  1.00  0.00    +0.000 H 
ATOM    147  H43 UNL A   1      30.258  33.090  45.246  1.00  0.00    +0.000 H 
ATOM     28  C27 UNL A   1      30.491  32.813  46.253  1.00  0.00    +0.000 C 
BRANCH   28   27
ATOM      3  C3  UNL A   1      32.725  33.138  44.951  1.00  0.00    +0.000 C 
ATOM      4  C4  UNL A   1      33.535  31.994  44.294  1.00  0.00    +0.000 C 
ATOM      6  C5  UNL A   1      34.186  31.035  45.291  1.00  0.00    +0.000 C 
ATOM      7  C6  UNL A   1      33.068  30.354  46.145  1.00  0.00    +0.000 C 
ATOM      8  C7  UNL A   1      32.507  31.678  47.358  1.00  0.00    +0.000 C 
ATOM      9  C8  UNL A   1      31.660  31.253  49.049  1.00  0.00    +0.000 C 
ATOM     10  C9  UNL A   1      31.405  29.389  49.533  1.00  0.00    +0.000 C 
ATOM     11  C10 UNL A   1      31.918  27.956  48.286  1.00  0.00    +0.000 C 
ATOM    139  H35 UNL A   1      32.611  27.723  44.770  1.00  0.00    +0.000 H 
ATOM    140  H36 UNL A   1      33.393  26.574  45.889  1.00  0.00    +0.000 H 
ATOM     13  C12 UNL A   1      30.661  27.168  47.438  1.00  0.00    +0.000 C 
ATOM    137  H33 UNL A   1      30.620  26.920  45.294  1.00  0.00    +0.000 H 
ATOM    144  H40 UNL A   1      33.870  33.442  47.268  1.00  0.00    +0.000 H 
ATOM    145  H41 UNL A   1      32.764  33.864  48.229  1.00  0.00    +0.000 H 
ATOM    138  H34 UNL A   1      31.477  25.638  46.187  1.00  0.00    +0.000 H 
ATOM     22  C21 UNL A   1      31.300  26.689  46.087  1.00  0.00    +0.000 C 
ATOM     23  C22 UNL A   1      32.652  27.337  45.767  1.00  0.00    +0.000 C 
ATOM     24  C23 UNL A   1      33.046  28.491  46.716  1.00  0.00    +0.000 C 
ATOM     26  C25 UNL A   1      32.861  33.136  47.452  1.00  0.00    +0.000 C 
ATOM     27  C26 UNL A   1      31.991  32.750  46.297  1.00  0.00    +0.000 C 
ATOM    108  H4  UNL A   1      33.459  33.837  45.292  1.00  0.00    +0.000 H 
ATOM    109  H5  UNL A   1      32.809  31.451  43.724  1.00  0.00    +0.000 H 
ATOM    111  H7  UNL A   1      34.847  31.579  45.933  1.00  0.00    +0.000 H 
ATOM    112  H8  UNL A   1      34.745  30.288  44.765  1.00  0.00    +0.000 H 
ATOM    113  H9  UNL A   1      32.335  30.024  45.438  1.00  0.00    +0.000 H 
ATOM    114  H10 UNL A   1      30.692  31.709  49.037  1.00  0.00    +0.000 H 
ATOM    115  H11 UNL A   1      32.350  31.616  49.780  1.00  0.00    +0.000 H 
ATOM    116  H12 UNL A   1      30.361  29.263  49.732  1.00  0.00    +0.000 H 
ATOM    117  H13 UNL A   1      32.087  29.255  50.347  1.00  0.00    +0.000 H 
ATOM    121  H17 UNL A   1      30.309  26.487  48.185  1.00  0.00    +0.000 H 
BRANCH    3    2
ATOM      2  C2  UNL A   1      31.881  33.926  43.950  1.00  0.00    +0.000 C 
ATOM    107  H3  UNL A   1      31.604  34.877  44.240  1.00  0.00    +0.000 H 
BRANCH    2    1
ATOM      1  C1  UNL A   1      31.458  33.532  42.738  1.00  0.00    +0.000 C 
ATOM    106  H2  UNL A   1      30.927  34.182  42.140  1.00  0.00    +0.000 H 
ATOM    105  H1  UNL A   1      31.666  32.577  42.404  1.00  0.00    +0.000 H 
ENDBRANCH    2    1
ENDBRANCH    3    2
BRANCH    4    5
ATOM      5  O1  UNL A   1      34.582  32.512  43.462  1.00  0.00    +0.000 O 
ATOM    110  H6  UNL A   1      35.100  31.777  43.098  1.00  0.00    +0.000 H 
ENDBRANCH    4    5
BRANCH   11   12
ATOM     12  C11 UNL A   1      32.144  26.782  49.334  1.00  0.00    +0.000 C 
ATOM    118  H14 UNL A   1      31.882  25.847  48.885  1.00  0.00    +0.000 H 
ATOM    119  H15 UNL A   1      31.531  26.949  50.194  1.00  0.00    +0.000 H 
ATOM    120  H16 UNL A   1      33.173  26.760  49.628  1.00  0.00    +0.000 H 
ENDBRANCH   11   12
BRANCH   13   14
ATOM    122  H18 UNL A   1      29.124  27.565  48.556  1.00  0.00    +0.000 H 
ATOM     14  C13 UNL A   1      29.033  27.399  47.503  1.00  0.00    +0.000 C 
BRANCH   14   15
ATOM    123  H19 UNL A   1      28.962  25.457  46.584  1.00  0.00    +0.000 H 
ATOM    124  H20 UNL A   1      27.674  26.527  46.084  1.00  0.00    +0.000 H 
ATOM    125  H21 UNL A   1      27.628  25.781  47.664  1.00  0.00    +0.000 H 
ATOM     15  C14 UNL A   1      28.266  26.200  46.914  1.00  0.00    +0.000 C 
ENDBRANCH   14   15
BRANCH   14   16
ATOM    126  H22 UNL A   1      27.531  28.540  46.454  1.00  0.00    +0.000 H 
ATOM    127  H23 UNL A   1      28.930  29.478  47.198  1.00  0.00    +0.000 H 
ATOM     16  C15 UNL A   1      28.173  28.728  47.289  1.00  0.00    +0.000 C 
BRANCH   16   17
ATOM     17  C16 UNL A   1      27.267  29.305  48.415  1.00  0.00    +0.000 C 
ATOM    129  H25 UNL A   1      27.154  30.337  48.156  1.00  0.00    +0.000 H 
ATOM    128  H24 UNL A   1      26.371  28.719  48.428  1.00  0.00    +0.000 H 
BRANCH   17   18
ATOM     18  C17 UNL A   1      27.806  29.335  49.844  1.00  0.00    +0.000 C 
ATOM    130  H26 UNL A   1      28.377  30.161  50.084  1.00  0.00    +0.000 H 
BRANCH   18   19
ATOM     19  C18 UNL A   1      27.640  28.434  50.846  1.00  0.00    +0.000 C 
BRANCH   19   20
ATOM    133  H29 UNL A   1      27.148  28.512  52.908  1.00  0.00    +0.000 H 
ATOM    131  H27 UNL A   1      25.849  27.957  51.878  1.00  0.00    +0.000 H 
ATOM     20  C19 UNL A   1      26.655  28.656  51.968  1.00  0.00    +0.000 C 
ATOM    132  H28 UNL A   1      26.272  29.653  51.916  1.00  0.00    +0.000 H 
ENDBRANCH   19   20
BRANCH   19   21
ATOM     21  C20 UNL A   1      28.404  27.160  51.060  1.00  0.00    +0.000 C 
ATOM    134  H30 UNL A   1      29.452  27.373  51.081  1.00  0.00    +0.000 H 
ATOM    135  H31 UNL A   1      28.193  26.480  50.262  1.00  0.00    +0.000 H 
ATOM    136  H32 UNL A   1      28.110  26.721  51.991  1.00  0.00    +0.000 H 
ENDBRANCH   19   21
ENDBRANCH   18   19
ENDBRANCH   17   18
ENDBRANCH   16   17
ENDBRANCH   14   16
ENDBRANCH   13   14
BRANCH   24   25
ATOM     25  C24 UNL A   1      34.610  28.488  46.470  1.00  0.00    +0.000 C 
ATOM    141  H37 UNL A   1      35.118  28.402  47.407  1.00  0.00    +0.000 H 
ATOM    142  H38 UNL A   1      34.897  29.401  45.991  1.00  0.00    +0.000 H 
ATOM    143  H39 UNL A   1      34.871  27.660  45.845  1.00  0.00    +0.000 H 
ENDBRANCH   24   25
ENDBRANCH   28   27
ENDBRANCH   29   28
ENDBRANCH   30   29
ENDBRANCH   32   30
ENDBRANCH   33   32
ENDBRANCH   34   33
ENDBRANCH   35   34
ENDBRANCH   36   35
ENDBRANCH   37   36
ENDBRANCH   38   37
ENDBRANCH   39   38
ENDBRANCH   40   39
ENDBRANCH   42   40
ENDBRANCH   46   45
BRANCH   50   51
ATOM     51  C45 UNL A   1      21.255  33.964  46.470  1.00  0.00    +0.000 C 
ATOM     52  C46 UNL A   1      21.854  32.900  47.165  1.00  0.00    +0.000 C 
ATOM     53  F1  UNL A   1      22.313  33.082  48.412  1.00  0.00    +0.000 F 
ATOM     54  C47 UNL A   1      22.043  31.661  46.560  1.00  0.00    +0.000 C 
ATOM     55  F2  UNL A   1      22.684  30.686  47.219  1.00  0.00    +0.000 F 
ATOM     56  C48 UNL A   1      21.594  31.443  45.266  1.00  0.00    +0.000 C 
ATOM     57  F3  UNL A   1      21.774  30.250  44.685  1.00  0.00    +0.000 F 
ATOM     58  C49 UNL A   1      20.967  32.468  44.572  1.00  0.00    +0.000 C 
ATOM     59  F4  UNL A   1      20.524  32.256  43.326  1.00  0.00    +0.000 F 
ATOM     60  C50 UNL A   1      20.812  33.721  45.161  1.00  0.00    +0.000 C 
ATOM     61  F5  UNL A   1      20.234  34.700  44.449  1.00  0.00    +0.000 F 
ENDBRANCH   50   51
BRANCH   67   68
ATOM     68  C56 UNL A   1      16.420  37.769  50.224  1.00  0.00    +0.000 C 
ATOM     69  C57 UNL A   1      16.243  37.655  51.610  1.00  0.00    +0.000 C 
ATOM     70  F6  UNL A   1      17.305  37.662  52.429  1.00  0.00    +0.000 F 
ATOM     71  C58 UNL A   1      14.972  37.508  52.154  1.00  0.00    +0.000 C 
ATOM     72  F7  UNL A   1      14.826  37.361  53.479  1.00  0.00    +0.000 F 
ATOM     73  C59 UNL A   1      13.857  37.508  51.330  1.00  0.00    +0.000 C 
ATOM     74  F8  UNL A   1      12.631  37.383  51.859  1.00  0.00    +0.000 F 
ATOM     75  C60 UNL A   1      14.009  37.633  49.958  1.00  0.00    +0.000 C 
ATOM     76  F9  UNL A   1      12.931  37.654  49.161  1.00  0.00    +0.000 F 
ATOM     77  C61 UNL A   1      15.280  37.747  49.406  1.00  0.00    +0.000 C 
ATOM     78  F10 UNL A   1      15.400  37.867  48.076  1.00  0.00    +0.000 F 
ENDBRANCH   67   68
BRANCH   82   83
ATOM     83  C65 UNL A   1      20.662  43.312  50.148  1.00  0.00    +0.000 C 
ATOM     84  C66 UNL A   1      21.019  43.605  51.472  1.00  0.00    +0.000 C 
ATOM     85  F11 UNL A   1      21.445  42.626  52.283  1.00  0.00    +0.000 F 
ATOM     86  C67 UNL A   1      20.901  44.896  51.983  1.00  0.00    +0.000 C 
ATOM     87  F12 UNL A   1      21.203  45.138  53.265  1.00  0.00    +0.000 F 
ATOM     88  C68 UNL A   1      20.455  45.928  51.170  1.00  0.00    +0.000 C 
ATOM     89  F13 UNL A   1      20.343  47.170  51.660  1.00  0.00    +0.000 F 
ATOM     90  C69 UNL A   1      20.119  45.667  49.850  1.00  0.00    +0.000 C 
ATOM     91  F14 UNL A   1      19.703  46.664  49.057  1.00  0.00    +0.000 F 
ATOM     92  C70 UNL A   1      20.210  44.371  49.347  1.00  0.00    +0.000 C 
ATOM     93  F15 UNL A   1      19.867  44.147  48.070  1.00  0.00    +0.000 F 
ENDBRANCH   82   83
TORSDOF 30
ENDMDL
