MODEL 1
REMARK VINA RESULT:     -10.7      0.000      0.000
ROOT
ATOM     24  C18 UNL A   1      53.228  19.798  11.661  1.00  0.00    +0.000 C 
ATOM     25  C19 UNL A   1      54.582  19.170  11.492  1.00  0.00    +0.000 C 
ATOM     26  N4  UNL A   1      55.587  19.131  12.329  1.00  0.00    +0.000 N 
ATOM     27  C20 UNL A   1      56.576  18.389  11.698  1.00  0.00    +0.000 C 
ATOM     28  C21 UNL A   1      57.828  18.106  12.133  1.00  0.00    +0.000 C 
ATOM     40  C28 UNL A   1      58.375  18.566  13.383  1.00  0.00    +0.000 C 
ATOM     41  C29 UNL A   1      59.655  18.390  13.881  1.00  0.00    +0.000 C 
ATOM     42  C30 UNL A   1      59.715  18.982  15.147  1.00  0.00    +0.000 C 
ATOM     43  C31 UNL A   1      58.486  19.561  15.419  1.00  0.00    +0.000 C 
ATOM     44  N5  UNL A   1      57.672  19.295  14.330  1.00  0.00    +0.000 N 
ATOM     45  C32 UNL A   1      58.083  20.302  16.586  1.00  0.00    +0.000 C 
ATOM     57  C39 UNL A   1      56.856  20.846  16.777  1.00  0.00    +0.000 C 
ATOM     58  N6  UNL A   1      55.755  20.832  15.932  1.00  0.00    +0.000 N 
ATOM     59  C40 UNL A   1      54.808  21.482  16.564  1.00  0.00    +0.000 C 
ATOM     60  C41 UNL A   1      53.410  21.800  16.111  1.00  0.00    +0.000 C 
ATOM     72  C48 UNL A   1      53.009  21.407  14.887  1.00  0.00    +0.000 C 
ATOM     73  C49 UNL A   1      51.690  21.647  14.310  1.00  0.00    +0.000 C 
ATOM     74  C50 UNL A   1      51.632  21.077  13.095  1.00  0.00    +0.000 C 
ATOM     75  C51 UNL A   1      52.925  20.461  12.794  1.00  0.00    +0.000 C 
ATOM     76  N7  UNL A   1      53.683  20.714  13.912  1.00  0.00    +0.000 N 
ATOM     77  C52 UNL A   1      55.195  21.956  17.900  1.00  0.00    +0.000 C 
ATOM     78  C53 UNL A   1      56.464  21.577  17.964  1.00  0.00    +0.000 C 
ATOM     79  C54 UNL A   1      56.038  17.962  10.425  1.00  0.00    +0.000 C 
ATOM     80  C55 UNL A   1      54.831  18.470  10.222  1.00  0.00    +0.000 C 
ATOM    105  H22 UNL A   1      60.429  17.906  13.402  1.00  0.00    +0.000 H 
ATOM    106  H23 UNL A   1      60.536  18.986  15.773  1.00  0.00    +0.000 H 
ATOM    107  H24 UNL A   1      56.734  19.580  14.242  1.00  0.00    +0.000 H 
ATOM    108  H25 UNL A   1      50.923  22.170  14.762  1.00  0.00    +0.000 H 
ATOM    109  H26 UNL A   1      50.810  21.074  12.473  1.00  0.00    +0.000 H 
ATOM    110  H27 UNL A   1      54.619  20.426  14.004  1.00  0.00    +0.000 H 
ATOM    111  H28 UNL A   1      54.629  22.453  18.604  1.00  0.00    +0.000 H 
ATOM    112  H29 UNL A   1      57.093  21.777  18.758  1.00  0.00    +0.000 H 
ATOM    113  H30 UNL A   1      56.529  17.342   9.761  1.00  0.00    +0.000 H 
ATOM    114  H31 UNL A   1      54.225  18.395   9.390  1.00  0.00    +0.000 H 
ENDROOT
BRANCH   24   23
ATOM    103  H20 UNL A   1      49.977  17.410   9.398  1.00  0.00    +0.000 H 
ATOM    104  H21 UNL A   1      51.591  17.686  11.190  1.00  0.00    +0.000 H 
ATOM     81  C56 UNL A   1      51.947  20.678   9.709  1.00  0.00    +0.000 C 
ATOM     82  C57 UNL A   1      50.969  20.545   8.726  1.00  0.00    +0.000 C 
ATOM    115  H32 UNL A   1      52.494  21.550   9.772  1.00  0.00    +0.000 H 
ATOM     20  C14 UNL A   1      50.288  19.333   8.577  1.00  0.00    +0.000 C 
ATOM     21  C15 UNL A   1      50.507  18.291   9.484  1.00  0.00    +0.000 C 
ATOM    116  H33 UNL A   1      50.746  21.340   8.108  1.00  0.00    +0.000 H 
ATOM     22  C16 UNL A   1      51.446  18.446  10.507  1.00  0.00    +0.000 C 
ATOM     23  C17 UNL A   1      52.192  19.631  10.611  1.00  0.00    +0.000 C 
BRANCH   20   18
ATOM     18  C13 UNL A   1      49.303  19.136   7.490  1.00  0.00    +0.000 C 
ATOM     19  O3  UNL A   1      49.118  18.018   7.031  1.00  0.00    +0.000 O 
BRANCH   18   17
ATOM     17  N3  UNL A   1      48.604  20.212   6.995  1.00  0.00    +0.000 N 
ATOM    102  H19 UNL A   1      48.141  20.761   7.667  1.00  0.00    +0.000 H 
BRANCH   17   16
ATOM    100  H17 UNL A   1      48.887  21.622   5.513  1.00  0.00    +0.000 H 
ATOM    101  H18 UNL A   1      48.945  19.937   4.987  1.00  0.00    +0.000 H 
ATOM     16  C12 UNL A   1      48.452  20.649   5.617  1.00  0.00    +0.000 C 
BRANCH   16   15
ATOM     98  H15 UNL A   1      46.402  20.944   6.065  1.00  0.00    +0.000 H 
ATOM     99  H16 UNL A   1      46.921  21.470   4.440  1.00  0.00    +0.000 H 
ATOM     15  C11 UNL A   1      46.987  20.717   5.198  1.00  0.00    +0.000 C 
BRANCH   15   14
ATOM     97  H14 UNL A   1      45.838  18.967   5.330  1.00  0.00    +0.000 H 
ATOM     14  C10 UNL A   1      46.441  19.428   4.577  1.00  0.00    +0.000 C 
ATOM     96  H13 UNL A   1      47.275  18.829   4.272  1.00  0.00    +0.000 H 
BRANCH   14   13
ATOM     13  C9  UNL A   1      45.528  19.625   3.360  1.00  0.00    +0.000 C 
ATOM     94  H11 UNL A   1      46.144  19.876   2.521  1.00  0.00    +0.000 H 
ATOM     95  H12 UNL A   1      44.995  18.705   3.236  1.00  0.00    +0.000 H 
BRANCH   13   12
ATOM     92  H9  UNL A   1      43.566  20.274   3.889  1.00  0.00    +0.000 H 
ATOM     12  C8  UNL A   1      44.461  20.721   3.513  1.00  0.00    +0.000 C 
ATOM     93  H10 UNL A   1      44.858  21.456   4.182  1.00  0.00    +0.000 H 
BRANCH   12   11
ATOM     90  H7  UNL A   1      43.309  22.099   2.353  1.00  0.00    +0.000 H 
ATOM     11  C7  UNL A   1      44.133  21.434   2.199  1.00  0.00    +0.000 C 
ATOM     91  H8  UNL A   1      44.990  21.988   1.876  1.00  0.00    +0.000 H 
BRANCH   11   10
ATOM     89  H6  UNL A   1      44.566  20.105   0.703  1.00  0.00    +0.000 H 
ATOM     10  N2  UNL A   1      43.783  20.463   1.182  1.00  0.00    +0.000 N 
BRANCH   10    8
ATOM      9  O2  UNL A   1      42.562  19.545  -0.428  1.00  0.00    +0.000 O 
ATOM      8  C6  UNL A   1      42.599  19.933   0.745  1.00  0.00    +0.000 C 
BRANCH    8    7
ATOM      2  C1  UNL A   1      39.031  20.491   2.030  1.00  0.00    +0.000 C 
ATOM      3  C2  UNL A   1      39.012  19.589   3.094  1.00  0.00    +0.000 C 
ATOM      4  C3  UNL A   1      40.132  18.812   3.380  1.00  0.00    +0.000 C 
ATOM      5  C4  UNL A   1      41.280  18.944   2.604  1.00  0.00    +0.000 C 
ATOM      7  C5  UNL A   1      41.341  19.866   1.542  1.00  0.00    +0.000 C 
ATOM     83  C58 UNL A   1      40.227  20.686   1.325  1.00  0.00    +0.000 C 
ATOM    117  H34 UNL A   1      40.287  21.449   0.631  1.00  0.00    +0.000 H 
ATOM     86  H3  UNL A   1      38.163  19.498   3.673  1.00  0.00    +0.000 H 
ATOM     87  H4  UNL A   1      40.110  18.141   4.163  1.00  0.00    +0.000 H 
BRANCH    2    1
ATOM      1  N1  UNL A   1      37.940  21.346   1.820  1.00  0.00    +0.000 N 
ATOM     84  H1  UNL A   1      37.025  20.985   1.817  1.00  0.00    +0.000 H 
ATOM     85  H2  UNL A   1      38.090  22.308   1.675  1.00  0.00    +0.000 H 
ENDBRANCH    2    1
BRANCH    5    6
ATOM      6  O1  UNL A   1      42.329  18.138   2.968  1.00  0.00    +0.000 O 
ATOM     88  H5  UNL A   1      43.208  18.450   2.888  1.00  0.00    +0.000 H 
ENDBRANCH    5    6
ENDBRANCH    8    7
ENDBRANCH   10    8
ENDBRANCH   11   10
ENDBRANCH   12   11
ENDBRANCH   13   12
ENDBRANCH   14   13
ENDBRANCH   15   14
ENDBRANCH   16   15
ENDBRANCH   17   16
ENDBRANCH   18   17
ENDBRANCH   20   18
ENDBRANCH   24   23
BRANCH   28   29
ATOM     33  F2  UNL A   1      59.565  13.763  10.672  1.00  0.00    +0.000 F 
ATOM     34  C25 UNL A   1      60.275  15.701   9.524  1.00  0.00    +0.000 C 
ATOM     35  F3  UNL A   1      61.031  14.957   8.707  1.00  0.00    +0.000 F 
ATOM     36  C26 UNL A   1      60.248  17.081   9.384  1.00  0.00    +0.000 C 
ATOM     37  F4  UNL A   1      60.968  17.668   8.416  1.00  0.00    +0.000 F 
ATOM     38  C27 UNL A   1      59.477  17.857  10.244  1.00  0.00    +0.000 C 
ATOM     39  F5  UNL A   1      59.480  19.189  10.089  1.00  0.00    +0.000 F 
ATOM     29  C22 UNL A   1      58.699  17.264  11.249  1.00  0.00    +0.000 C 
ATOM     30  C23 UNL A   1      58.728  15.865  11.364  1.00  0.00    +0.000 C 
ATOM     31  F1  UNL A   1      58.011  15.251  12.316  1.00  0.00    +0.000 F 
ATOM     32  C24 UNL A   1      59.521  15.095  10.519  1.00  0.00    +0.000 C 
ENDBRANCH   28   29
BRANCH   45   46
ATOM     46  C33 UNL A   1      59.100  20.507  17.669  1.00  0.00    +0.000 C 
ATOM     47  C34 UNL A   1      59.795  21.717  17.804  1.00  0.00    +0.000 C 
ATOM     48  F6  UNL A   1      59.601  22.709  16.921  1.00  0.00    +0.000 F 
ATOM     49  C35 UNL A   1      60.723  21.897  18.827  1.00  0.00    +0.000 C 
ATOM     50  F7  UNL A   1      61.408  23.046  18.912  1.00  0.00    +0.000 F 
ATOM     51  C36 UNL A   1      60.949  20.885  19.748  1.00  0.00    +0.000 C 
ATOM     52  F8  UNL A   1      61.838  21.064  20.735  1.00  0.00    +0.000 F 
ATOM     53  C37 UNL A   1      60.260  19.687  19.643  1.00  0.00    +0.000 C 
ATOM     54  F9  UNL A   1      60.468  18.714  20.539  1.00  0.00    +0.000 F 
ATOM     55  C38 UNL A   1      59.351  19.493  18.607  1.00  0.00    +0.000 C 
ATOM     56  F10 UNL A   1      58.707  18.320  18.523  1.00  0.00    +0.000 F 
ENDBRANCH   45   46
BRANCH   60   61
ATOM     65  F12 UNL A   1      50.107  21.964  19.692  1.00  0.00    +0.000 F 
ATOM     66  C45 UNL A   1      50.705  23.989  18.633  1.00  0.00    +0.000 C 
ATOM     67  F13 UNL A   1      49.848  24.667  19.409  1.00  0.00    +0.000 F 
ATOM     68  C46 UNL A   1      51.451  24.657  17.672  1.00  0.00    +0.000 C 
ATOM     69  F14 UNL A   1      51.328  25.984  17.533  1.00  0.00    +0.000 F 
ATOM     70  C47 UNL A   1      52.323  23.949  16.849  1.00  0.00    +0.000 C 
ATOM     71  F15 UNL A   1      53.021  24.619  15.919  1.00  0.00    +0.000 F 
ATOM     61  C42 UNL A   1      52.485  22.563  16.986  1.00  0.00    +0.000 C 
ATOM     62  C43 UNL A   1      51.736  21.914  17.977  1.00  0.00    +0.000 C 
ATOM     63  F11 UNL A   1      51.841  20.586  18.132  1.00  0.00    +0.000 F 
ATOM     64  C44 UNL A   1      50.844  22.618  18.782  1.00  0.00    +0.000 C 
ENDBRANCH   60   61
TORSDOF 17
ENDMDL
MODEL 2
REMARK VINA RESULT:     -10.6     44.181     47.227
ROOT
ATOM     24  C18 UNL A   1      29.569 -14.535  32.390  1.00  0.00    +0.000 C 
ATOM     25  C19 UNL A   1      28.919 -13.570  31.438  1.00  0.00    +0.000 C 
ATOM     26  N4  UNL A   1      27.873 -12.805  31.621  1.00  0.00    +0.000 N 
ATOM     27  C20 UNL A   1      27.728 -12.078  30.446  1.00  0.00    +0.000 C 
ATOM     28  C21 UNL A   1      26.762 -11.186  30.120  1.00  0.00    +0.000 C 
ATOM     40  C28 UNL A   1      25.659 -10.835  30.975  1.00  0.00    +0.000 C 
ATOM     41  C29 UNL A   1      24.592  -9.994  30.707  1.00  0.00    +0.000 C 
ATOM     42  C30 UNL A   1      23.788  -9.932  31.850  1.00  0.00    +0.000 C 
ATOM     43  C31 UNL A   1      24.331 -10.765  32.814  1.00  0.00    +0.000 C 
ATOM     44  N5  UNL A   1      25.481 -11.310  32.266  1.00  0.00    +0.000 N 
ATOM     45  C32 UNL A   1      23.839 -11.044  34.138  1.00  0.00    +0.000 C 
ATOM     57  C39 UNL A   1      24.427 -11.882  35.027  1.00  0.00    +0.000 C 
ATOM     58  N6  UNL A   1      25.578 -12.643  34.877  1.00  0.00    +0.000 N 
ATOM     59  C40 UNL A   1      25.740 -13.277  36.013  1.00  0.00    +0.000 C 
ATOM     60  C41 UNL A   1      26.806 -14.262  36.406  1.00  0.00    +0.000 C 
ATOM     72  C48 UNL A   1      27.752 -14.601  35.510  1.00  0.00    +0.000 C 
ATOM     73  C49 UNL A   1      28.842 -15.544  35.745  1.00  0.00    +0.000 C 
ATOM     74  C50 UNL A   1      29.615 -15.602  34.647  1.00  0.00    +0.000 C 
ATOM     75  C51 UNL A   1      29.052 -14.725  33.619  1.00  0.00    +0.000 C 
ATOM     76  N7  UNL A   1      27.943 -14.179  34.218  1.00  0.00    +0.000 N 
ATOM     77  C52 UNL A   1      24.722 -12.963  37.026  1.00  0.00    +0.000 C 
ATOM     78  C53 UNL A   1      23.925 -12.139  36.360  1.00  0.00    +0.000 C 
ATOM     79  C54 UNL A   1      28.815 -12.462  29.573  1.00  0.00    +0.000 C 
ATOM     80  C55 UNL A   1      29.545 -13.427  30.114  1.00  0.00    +0.000 C 
ATOM    105  H22 UNL A   1      24.422  -9.499  29.819  1.00  0.00    +0.000 H 
ATOM    106  H23 UNL A   1      22.934  -9.361  31.956  1.00  0.00    +0.000 H 
ATOM    107  H24 UNL A   1      26.082 -11.941  32.724  1.00  0.00    +0.000 H 
ATOM    108  H25 UNL A   1      28.996 -16.079  36.613  1.00  0.00    +0.000 H 
ATOM    109  H26 UNL A   1      30.468 -16.173  34.545  1.00  0.00    +0.000 H 
ATOM    110  H27 UNL A   1      27.343 -13.545  33.763  1.00  0.00    +0.000 H 
ATOM    111  H28 UNL A   1      24.647 -13.297  37.999  1.00  0.00    +0.000 H 
ATOM    112  H29 UNL A   1      23.056 -11.734  36.743  1.00  0.00    +0.000 H 
ATOM    113  H30 UNL A   1      28.999 -12.040  28.649  1.00  0.00    +0.000 H 
ATOM    114  H31 UNL A   1      30.342 -13.943  29.712  1.00  0.00    +0.000 H 
ENDROOT
BRANCH   24   23
ATOM    103  H20 UNL A   1      34.166 -14.868  32.011  1.00  0.00    +0.000 H 
ATOM    104  H21 UNL A   1      32.141 -13.748  32.743  1.00  0.00    +0.000 H 
ATOM     81  C56 UNL A   1      30.755 -16.489  31.389  1.00  0.00    +0.000 C 
ATOM     82  C57 UNL A   1      31.921 -17.163  31.036  1.00  0.00    +0.000 C 
ATOM    115  H32 UNL A   1      29.836 -16.918  31.196  1.00  0.00    +0.000 H 
ATOM     20  C14 UNL A   1      33.164 -16.548  31.212  1.00  0.00    +0.000 C 
ATOM     21  C15 UNL A   1      33.246 -15.304  31.846  1.00  0.00    +0.000 C 
ATOM    116  H33 UNL A   1      31.869 -18.117  30.644  1.00  0.00    +0.000 H 
ATOM     22  C16 UNL A   1      32.079 -14.655  32.255  1.00  0.00    +0.000 C 
ATOM     23  C17 UNL A   1      30.823 -15.230  32.006  1.00  0.00    +0.000 C 
BRANCH   20   18
ATOM     18  C13 UNL A   1      34.414 -17.207  30.769  1.00  0.00    +0.000 C 
ATOM     19  O3  UNL A   1      35.422 -17.123  31.455  1.00  0.00    +0.000 O 
BRANCH   18   17
ATOM     17  N3  UNL A   1      34.439 -17.907  29.586  1.00  0.00    +0.000 N 
ATOM    102  H19 UNL A   1      34.273 -18.874  29.662  1.00  0.00    +0.000 H 
BRANCH   17   16
ATOM    100  H17 UNL A   1      35.419 -16.646  28.277  1.00  0.00    +0.000 H 
ATOM    101  H18 UNL A   1      35.009 -18.240  27.640  1.00  0.00    +0.000 H 
ATOM     16  C12 UNL A   1      34.678 -17.417  28.238  1.00  0.00    +0.000 C 
BRANCH   16   15
ATOM     98  H15 UNL A   1      33.258 -17.343  26.666  1.00  0.00    +0.000 H 
ATOM     99  H16 UNL A   1      32.617 -17.027  28.301  1.00  0.00    +0.000 H 
ATOM     15  C11 UNL A   1      33.410 -16.851  27.604  1.00  0.00    +0.000 C 
BRANCH   15   14
ATOM     97  H14 UNL A   1      33.100 -15.198  26.351  1.00  0.00    +0.000 H 
ATOM     14  C10 UNL A   1      33.443 -15.341  27.354  1.00  0.00    +0.000 C 
ATOM     96  H13 UNL A   1      34.445 -15.000  27.516  1.00  0.00    +0.000 H 
BRANCH   14   13
ATOM     13  C9  UNL A   1      32.510 -14.511  28.246  1.00  0.00    +0.000 C 
ATOM     94  H11 UNL A   1      31.610 -14.321  27.697  1.00  0.00    +0.000 H 
ATOM     95  H12 UNL A   1      32.353 -15.089  29.132  1.00  0.00    +0.000 H 
BRANCH   13   12
ATOM     92  H9  UNL A   1      32.346 -12.673  29.317  1.00  0.00    +0.000 H 
ATOM     12  C8  UNL A   1      33.079 -13.161  28.710  1.00  0.00    +0.000 C 
ATOM     93  H10 UNL A   1      33.979 -13.367  29.251  1.00  0.00    +0.000 H 
BRANCH   12   11
ATOM     90  H7  UNL A   1      33.926 -11.355  27.941  1.00  0.00    +0.000 H 
ATOM     11  C7  UNL A   1      33.448 -12.230  27.553  1.00  0.00    +0.000 C 
ATOM     91  H8  UNL A   1      34.113 -12.741  26.888  1.00  0.00    +0.000 H 
BRANCH   11   10
ATOM     89  H6  UNL A   1      32.219 -12.213  25.915  1.00  0.00    +0.000 H 
ATOM     10  N2  UNL A   1      32.255 -11.843  26.827  1.00  0.00    +0.000 N 
BRANCH   10    8
ATOM      9  O2  UNL A   1      30.083 -11.422  26.650  1.00  0.00    +0.000 O 
ATOM      8  C6  UNL A   1      31.164 -11.075  27.137  1.00  0.00    +0.000 C 
BRANCH    8    7
ATOM      2  C1  UNL A   1      31.381  -8.575  30.035  1.00  0.00    +0.000 C 
ATOM      3  C2  UNL A   1      31.310  -7.375  29.327  1.00  0.00    +0.000 C 
ATOM      4  C3  UNL A   1      31.202  -7.381  27.938  1.00  0.00    +0.000 C 
ATOM      5  C4  UNL A   1      31.157  -8.593  27.255  1.00  0.00    +0.000 C 
ATOM      7  C5  UNL A   1      31.197  -9.821  27.942  1.00  0.00    +0.000 C 
ATOM     83  C58 UNL A   1      31.230  -9.784  29.341  1.00  0.00    +0.000 C 
ATOM    117  H34 UNL A   1      31.141 -10.665  29.873  1.00  0.00    +0.000 H 
ATOM     86  H3  UNL A   1      31.336  -6.478  29.835  1.00  0.00    +0.000 H 
ATOM     87  H4  UNL A   1      31.158  -6.491  27.418  1.00  0.00    +0.000 H 
BRANCH    2    1
ATOM      1  N1  UNL A   1      31.377  -8.559  31.437  1.00  0.00    +0.000 N 
ATOM     84  H1  UNL A   1      31.095  -7.750  31.919  1.00  0.00    +0.000 H 
ATOM     85  H2  UNL A   1      31.657  -9.359  31.938  1.00  0.00    +0.000 H 
ENDBRANCH    2    1
BRANCH    5    6
ATOM      6  O1  UNL A   1      31.046  -8.493  25.890  1.00  0.00    +0.000 O 
ATOM     88  H5  UNL A   1      31.660  -7.976  25.408  1.00  0.00    +0.000 H 
ENDBRANCH    5    6
ENDBRANCH    8    7
ENDBRANCH   10    8
ENDBRANCH   11   10
ENDBRANCH   12   11
ENDBRANCH   13   12
ENDBRANCH   14   13
ENDBRANCH   15   14
ENDBRANCH   16   15
ENDBRANCH   17   16
ENDBRANCH   18   17
ENDBRANCH   20   18
ENDBRANCH   24   23
BRANCH   28   29
ATOM     33  F2  UNL A   1      25.831 -11.070  25.310  1.00  0.00    +0.000 F 
ATOM     34  C25 UNL A   1      26.952  -9.233  26.282  1.00  0.00    +0.000 C 
ATOM     35  F3  UNL A   1      27.006  -8.619  25.092  1.00  0.00    +0.000 F 
ATOM     36  C26 UNL A   1      27.507  -8.631  27.402  1.00  0.00    +0.000 C 
ATOM     37  F4  UNL A   1      28.083  -7.424  27.295  1.00  0.00    +0.000 F 
ATOM     38  C27 UNL A   1      27.466  -9.275  28.635  1.00  0.00    +0.000 C 
ATOM     39  F5  UNL A   1      28.021  -8.672  29.696  1.00  0.00    +0.000 F 
ATOM     29  C22 UNL A   1      26.849 -10.527  28.775  1.00  0.00    +0.000 C 
ATOM     30  C23 UNL A   1      26.280 -11.111  27.633  1.00  0.00    +0.000 C 
ATOM     31  F1  UNL A   1      25.689 -12.312  27.712  1.00  0.00    +0.000 F 
ATOM     32  C24 UNL A   1      26.346 -10.476  26.396  1.00  0.00    +0.000 C 
ENDBRANCH   28   29
BRANCH   45   46
ATOM     46  C33 UNL A   1      22.567 -10.373  34.566  1.00  0.00    +0.000 C 
ATOM     47  C34 UNL A   1      21.316 -10.967  34.352  1.00  0.00    +0.000 C 
ATOM     48  F6  UNL A   1      21.227 -12.138  33.702  1.00  0.00    +0.000 F 
ATOM     49  C35 UNL A   1      20.146 -10.340  34.773  1.00  0.00    +0.000 C 
ATOM     50  F7  UNL A   1      18.957 -10.905  34.520  1.00  0.00    +0.000 F 
ATOM     51  C36 UNL A   1      20.209  -9.126  35.440  1.00  0.00    +0.000 C 
ATOM     52  F8  UNL A   1      19.081  -8.526  35.849  1.00  0.00    +0.000 F 
ATOM     53  C37 UNL A   1      21.437  -8.529  35.677  1.00  0.00    +0.000 C 
ATOM     54  F9  UNL A   1      21.500  -7.362  36.332  1.00  0.00    +0.000 F 
ATOM     55  C38 UNL A   1      22.607  -9.140  35.235  1.00  0.00    +0.000 C 
ATOM     56  F10 UNL A   1      23.781  -8.535  35.468  1.00  0.00    +0.000 F 
ENDBRANCH   45   46
BRANCH   60   61
ATOM     65  F12 UNL A   1      28.204 -14.281  41.076  1.00  0.00    +0.000 F 
ATOM     66  C45 UNL A   1      26.841 -16.053  40.313  1.00  0.00    +0.000 C 
ATOM     67  F13 UNL A   1      26.868 -16.618  41.528  1.00  0.00    +0.000 F 
ATOM     68  C46 UNL A   1      26.148 -16.663  39.277  1.00  0.00    +0.000 C 
ATOM     69  F14 UNL A   1      25.489 -17.808  39.496  1.00  0.00    +0.000 F 
ATOM     70  C47 UNL A   1      26.140 -16.088  38.008  1.00  0.00    +0.000 C 
ATOM     71  F15 UNL A   1      25.474 -16.707  37.022  1.00  0.00    +0.000 F 
ATOM     61  C42 UNL A   1      26.806 -14.880  37.756  1.00  0.00    +0.000 C 
ATOM     62  C43 UNL A   1      27.482 -14.273  38.823  1.00  0.00    +0.000 C 
ATOM     63  F11 UNL A   1      28.150 -13.127  38.625  1.00  0.00    +0.000 F 
ATOM     64  C44 UNL A   1      27.511 -14.861  40.085  1.00  0.00    +0.000 C 
ENDBRANCH   60   61
TORSDOF 17
ENDMDL
MODEL 3
REMARK VINA RESULT:     -10.5     44.206     47.244
ROOT
ATOM     24  C18 UNL A   1      29.554 -14.531  32.408  1.00  0.00    +0.000 C 
ATOM     25  C19 UNL A   1      28.887 -13.575  31.458  1.00  0.00    +0.000 C 
ATOM     26  N4  UNL A   1      27.839 -12.815  31.649  1.00  0.00    +0.000 N 
ATOM     27  C20 UNL A   1      27.676 -12.095  30.472  1.00  0.00    +0.000 C 
ATOM     28  C21 UNL A   1      26.701 -11.211  30.152  1.00  0.00    +0.000 C 
ATOM     40  C28 UNL A   1      25.606 -10.862  31.018  1.00  0.00    +0.000 C 
ATOM     41  C29 UNL A   1      24.531 -10.029  30.758  1.00  0.00    +0.000 C 
ATOM     42  C30 UNL A   1      23.739  -9.965  31.909  1.00  0.00    +0.000 C 
ATOM     43  C31 UNL A   1      24.298 -10.790  32.871  1.00  0.00    +0.000 C 
ATOM     44  N5  UNL A   1      25.445 -11.331  32.313  1.00  0.00    +0.000 N 
ATOM     45  C32 UNL A   1      23.823 -11.065  34.202  1.00  0.00    +0.000 C 
ATOM     57  C39 UNL A   1      24.425 -11.895  35.088  1.00  0.00    +0.000 C 
ATOM     58  N6  UNL A   1      25.579 -12.649  34.930  1.00  0.00    +0.000 N 
ATOM     59  C40 UNL A   1      25.758 -13.276  36.067  1.00  0.00    +0.000 C 
ATOM     60  C41 UNL A   1      26.835 -14.253  36.453  1.00  0.00    +0.000 C 
ATOM     72  C48 UNL A   1      27.772 -14.591  35.549  1.00  0.00    +0.000 C 
ATOM     73  C49 UNL A   1      28.871 -15.526  35.776  1.00  0.00    +0.000 C 
ATOM     74  C50 UNL A   1      29.631 -15.585  34.670  1.00  0.00    +0.000 C 
ATOM     75  C51 UNL A   1      29.052 -14.717  33.644  1.00  0.00    +0.000 C 
ATOM     76  N7  UNL A   1      27.947 -14.175  34.252  1.00  0.00    +0.000 N 
ATOM     77  C52 UNL A   1      24.749 -12.963  37.090  1.00  0.00    +0.000 C 
ATOM     78  C53 UNL A   1      23.940 -12.148  36.429  1.00  0.00    +0.000 C 
ATOM     79  C54 UNL A   1      28.756 -12.477  29.589  1.00  0.00    +0.000 C 
ATOM     80  C55 UNL A   1      29.497 -13.435  30.127  1.00  0.00    +0.000 C 
ATOM    105  H22 UNL A   1      24.347  -9.540  29.868  1.00  0.00    +0.000 H 
ATOM    106  H23 UNL A   1      22.883  -9.399  32.022  1.00  0.00    +0.000 H 
ATOM    107  H24 UNL A   1      26.055 -11.956  32.768  1.00  0.00    +0.000 H 
ATOM    108  H25 UNL A   1      29.038 -16.055  36.645  1.00  0.00    +0.000 H 
ATOM    109  H26 UNL A   1      30.487 -16.151  34.561  1.00  0.00    +0.000 H 
ATOM    110  H27 UNL A   1      27.337 -13.547  33.801  1.00  0.00    +0.000 H 
ATOM    111  H28 UNL A   1      24.688 -13.292  38.065  1.00  0.00    +0.000 H 
ATOM    112  H29 UNL A   1      23.073 -11.745  36.819  1.00  0.00    +0.000 H 
ATOM    113  H30 UNL A   1      28.927 -12.059  28.661  1.00  0.00    +0.000 H 
ATOM    114  H31 UNL A   1      30.293 -13.949  29.718  1.00  0.00    +0.000 H 
ENDROOT
BRANCH   24   23
ATOM    103  H20 UNL A   1      34.153 -14.880  32.067  1.00  0.00    +0.000 H 
ATOM    104  H21 UNL A   1      32.127 -13.773  32.816  1.00  0.00    +0.000 H 
ATOM     81  C56 UNL A   1      30.738 -16.457  31.353  1.00  0.00    +0.000 C 
ATOM     82  C57 UNL A   1      31.905 -17.126  30.989  1.00  0.00    +0.000 C 
ATOM    115  H32 UNL A   1      29.819 -16.872  31.135  1.00  0.00    +0.000 H 
ATOM     20  C14 UNL A   1      33.149 -16.525  31.199  1.00  0.00    +0.000 C 
ATOM     21  C15 UNL A   1      33.232 -15.305  31.877  1.00  0.00    +0.000 C 
ATOM    116  H33 UNL A   1      31.850 -18.065  30.563  1.00  0.00    +0.000 H 
ATOM     22  C16 UNL A   1      32.065 -14.662  32.296  1.00  0.00    +0.000 C 
ATOM     23  C17 UNL A   1      30.808 -15.221  32.014  1.00  0.00    +0.000 C 
BRANCH   20   18
ATOM     18  C13 UNL A   1      34.399 -17.177  30.747  1.00  0.00    +0.000 C 
ATOM     19  O3  UNL A   1      35.407 -17.104  31.436  1.00  0.00    +0.000 O 
BRANCH   18   17
ATOM     17  N3  UNL A   1      34.426 -17.858  29.553  1.00  0.00    +0.000 N 
ATOM    102  H19 UNL A   1      34.200 -18.814  29.606  1.00  0.00    +0.000 H 
BRANCH   17   16
ATOM    100  H17 UNL A   1      35.428 -16.544  28.314  1.00  0.00    +0.000 H 
ATOM    101  H18 UNL A   1      35.171 -18.165  27.663  1.00  0.00    +0.000 H 
ATOM     16  C12 UNL A   1      34.742 -17.361  28.224  1.00  0.00    +0.000 C 
BRANCH   16   15
ATOM     98  H15 UNL A   1      33.461 -17.373  26.535  1.00  0.00    +0.000 H 
ATOM     99  H16 UNL A   1      32.662 -17.115  28.110  1.00  0.00    +0.000 H 
ATOM     15  C11 UNL A   1      33.498 -16.880  27.484  1.00  0.00    +0.000 C 
BRANCH   15   14
ATOM     97  H14 UNL A   1      33.082 -15.241  26.243  1.00  0.00    +0.000 H 
ATOM     14  C10 UNL A   1      33.446 -15.369  27.240  1.00  0.00    +0.000 C 
ATOM     96  H13 UNL A   1      34.431 -14.976  27.389  1.00  0.00    +0.000 H 
BRANCH   14   13
ATOM     13  C9  UNL A   1      32.484 -14.593  28.149  1.00  0.00    +0.000 C 
ATOM     94  H11 UNL A   1      31.615 -14.344  27.576  1.00  0.00    +0.000 H 
ATOM     95  H12 UNL A   1      32.276 -15.235  28.980  1.00  0.00    +0.000 H 
BRANCH   13   12
ATOM     92  H9  UNL A   1      32.311 -12.861  29.384  1.00  0.00    +0.000 H 
ATOM     12  C8  UNL A   1      33.051 -13.293  28.744  1.00  0.00    +0.000 C 
ATOM     93  H10 UNL A   1      33.943 -13.551  29.274  1.00  0.00    +0.000 H 
BRANCH   12   11
ATOM     90  H7  UNL A   1      33.864 -11.404  28.160  1.00  0.00    +0.000 H 
ATOM     11  C7  UNL A   1      33.436 -12.260  27.682  1.00  0.00    +0.000 C 
ATOM     91  H8  UNL A   1      34.149 -12.694  27.012  1.00  0.00    +0.000 H 
BRANCH   11   10
ATOM     89  H6  UNL A   1      32.246 -12.218  26.017  1.00  0.00    +0.000 H 
ATOM     10  N2  UNL A   1      32.263 -11.857  26.933  1.00  0.00    +0.000 N 
BRANCH   10    8
ATOM      9  O2  UNL A   1      30.092 -11.439  26.740  1.00  0.00    +0.000 O 
ATOM      8  C6  UNL A   1      31.172 -11.084  27.224  1.00  0.00    +0.000 C 
BRANCH    8    7
ATOM      2  C1  UNL A   1      31.367  -8.530  30.077  1.00  0.00    +0.000 C 
ATOM      3  C2  UNL A   1      31.313  -7.343  29.345  1.00  0.00    +0.000 C 
ATOM      4  C3  UNL A   1      31.225  -7.375  27.955  1.00  0.00    +0.000 C 
ATOM      5  C4  UNL A   1      31.180  -8.600  27.294  1.00  0.00    +0.000 C 
ATOM      7  C5  UNL A   1      31.203  -9.814  28.005  1.00  0.00    +0.000 C 
ATOM     83  C58 UNL A   1      31.216  -9.751  29.404  1.00  0.00    +0.000 C 
ATOM    117  H34 UNL A   1      31.114 -10.621  29.952  1.00  0.00    +0.000 H 
ATOM     86  H3  UNL A   1      31.339  -6.437  29.836  1.00  0.00    +0.000 H 
ATOM     87  H4  UNL A   1      31.194  -6.495  27.418  1.00  0.00    +0.000 H 
BRANCH    2    1
ATOM      1  N1  UNL A   1      31.344  -8.487  31.478  1.00  0.00    +0.000 N 
ATOM     84  H1  UNL A   1      32.181  -8.576  31.986  1.00  0.00    +0.000 H 
ATOM     85  H2  UNL A   1      30.490  -8.368  31.952  1.00  0.00    +0.000 H 
ENDBRANCH    2    1
BRANCH    5    6
ATOM      6  O1  UNL A   1      31.089  -8.525  25.927  1.00  0.00    +0.000 O 
ATOM     88  H5  UNL A   1      31.078  -7.690  25.504  1.00  0.00    +0.000 H 
ENDBRANCH    5    6
ENDBRANCH    8    7
ENDBRANCH   10    8
ENDBRANCH   11   10
ENDBRANCH   12   11
ENDBRANCH   13   12
ENDBRANCH   14   13
ENDBRANCH   15   14
ENDBRANCH   16   15
ENDBRANCH   17   16
ENDBRANCH   18   17
ENDBRANCH   20   18
ENDBRANCH   24   23
BRANCH   28   29
ATOM     33  F2  UNL A   1      28.087  -7.554  27.199  1.00  0.00    +0.000 F 
ATOM     34  C25 UNL A   1      26.957  -9.397  26.250  1.00  0.00    +0.000 C 
ATOM     35  F3  UNL A   1      27.040  -8.841  25.034  1.00  0.00    +0.000 F 
ATOM     36  C26 UNL A   1      26.324 -10.621  26.413  1.00  0.00    +0.000 C 
ATOM     37  F4  UNL A   1      25.812 -11.255  25.348  1.00  0.00    +0.000 F 
ATOM     38  C27 UNL A   1      26.221 -11.192  27.678  1.00  0.00    +0.000 C 
ATOM     39  F5  UNL A   1      25.595 -12.371  27.804  1.00  0.00    +0.000 F 
ATOM     29  C22 UNL A   1      26.769 -10.558  28.803  1.00  0.00    +0.000 C 
ATOM     30  C23 UNL A   1      27.419  -9.329  28.613  1.00  0.00    +0.000 C 
ATOM     31  F1  UNL A   1      27.949  -8.678  29.659  1.00  0.00    +0.000 F 
ATOM     32  C24 UNL A   1      27.497  -8.748  27.350  1.00  0.00    +0.000 C 
ENDBRANCH   28   29
BRANCH   45   46
ATOM     46  C33 UNL A   1      22.552 -10.399  34.641  1.00  0.00    +0.000 C 
ATOM     47  C34 UNL A   1      22.556  -9.138  35.253  1.00  0.00    +0.000 C 
ATOM     48  F6  UNL A   1      23.718  -8.518  35.511  1.00  0.00    +0.000 F 
ATOM     49  C35 UNL A   1      21.366  -8.526  35.637  1.00  0.00    +0.000 C 
ATOM     50  F7  UNL A   1      21.396  -7.340  36.260  1.00  0.00    +0.000 F 
ATOM     51  C36 UNL A   1      20.152  -9.149  35.389  1.00  0.00    +0.000 C 
ATOM     52  F8  UNL A   1      19.007  -8.555  35.754  1.00  0.00    +0.000 F 
ATOM     53  C37 UNL A   1      20.124 -10.389  34.770  1.00  0.00    +0.000 C 
ATOM     54  F9  UNL A   1      18.951 -10.986  34.519  1.00  0.00    +0.000 F 
ATOM     55  C38 UNL A   1      21.313 -11.016  34.408  1.00  0.00    +0.000 C 
ATOM     56  F10 UNL A   1      21.256 -12.220  33.820  1.00  0.00    +0.000 F 
ENDBRANCH   45   46
BRANCH   60   61
ATOM     65  F12 UNL A   1      25.525 -17.789  39.542  1.00  0.00    +0.000 F 
ATOM     66  C45 UNL A   1      26.851 -16.019  40.371  1.00  0.00    +0.000 C 
ATOM     67  F13 UNL A   1      26.839 -16.564  41.596  1.00  0.00    +0.000 F 
ATOM     68  C46 UNL A   1      27.516 -14.823  40.148  1.00  0.00    +0.000 C 
ATOM     69  F14 UNL A   1      28.165 -14.220  41.153  1.00  0.00    +0.000 F 
ATOM     70  C47 UNL A   1      27.508 -14.245  38.881  1.00  0.00    +0.000 C 
ATOM     71  F15 UNL A   1      28.148 -13.080  38.697  1.00  0.00    +0.000 F 
ATOM     61  C42 UNL A   1      26.853 -14.864  37.807  1.00  0.00    +0.000 C 
ATOM     62  C43 UNL A   1      26.205 -16.082  38.052  1.00  0.00    +0.000 C 
ATOM     63  F11 UNL A   1      25.547 -16.701  37.061  1.00  0.00    +0.000 F 
ATOM     64  C44 UNL A   1      26.191 -16.646  39.326  1.00  0.00    +0.000 C 
ENDBRANCH   60   61
TORSDOF 17
ENDMDL
MODEL 4
REMARK VINA RESULT:     -10.4     44.567     50.772
ROOT
ATOM     24  C18 UNL A   1      21.396  38.299  49.500  1.00  0.00    +0.000 C 
ATOM     25  C19 UNL A   1      22.253  39.530  49.602  1.00  0.00    +0.000 C 
ATOM     26  N4  UNL A   1      23.412  39.778  49.049  1.00  0.00    +0.000 N 
ATOM     27  C20 UNL A   1      23.740  41.074  49.427  1.00  0.00    +0.000 C 
ATOM     28  C21 UNL A   1      24.867  41.775  49.151  1.00  0.00    +0.000 C 
ATOM     40  C28 UNL A   1      25.977  41.260  48.394  1.00  0.00    +0.000 C 
ATOM     41  C29 UNL A   1      27.191  41.867  48.120  1.00  0.00    +0.000 C 
ATOM     42  C30 UNL A   1      27.942  41.000  47.320  1.00  0.00    +0.000 C 
ATOM     43  C31 UNL A   1      27.214  39.837  47.130  1.00  0.00    +0.000 C 
ATOM     44  N5  UNL A   1      26.008  40.011  47.791  1.00  0.00    +0.000 N 
ATOM     45  C32 UNL A   1      27.587  38.654  46.399  1.00  0.00    +0.000 C 
ATOM     57  C39 UNL A   1      26.817  37.547  46.264  1.00  0.00    +0.000 C 
ATOM     58  N6  UNL A   1      25.554  37.296  46.780  1.00  0.00    +0.000 N 
ATOM     59  C40 UNL A   1      25.228  36.095  46.366  1.00  0.00    +0.000 C 
ATOM     60  C41 UNL A   1      23.983  35.300  46.646  1.00  0.00    +0.000 C 
ATOM     72  C48 UNL A   1      23.031  35.824  47.440  1.00  0.00    +0.000 C 
ATOM     73  C49 UNL A   1      21.777  35.172  47.805  1.00  0.00    +0.000 C 
ATOM     74  C50 UNL A   1      21.056  36.006  48.572  1.00  0.00    +0.000 C 
ATOM     75  C51 UNL A   1      21.814  37.240  48.781  1.00  0.00    +0.000 C 
ATOM     76  N7  UNL A   1      22.977  37.039  48.079  1.00  0.00    +0.000 N 
ATOM     77  C52 UNL A   1      26.242  35.461  45.510  1.00  0.00    +0.000 C 
ATOM     78  C53 UNL A   1      27.205  36.371  45.513  1.00  0.00    +0.000 C 
ATOM     79  C54 UNL A   1      22.640  41.575  50.221  1.00  0.00    +0.000 C 
ATOM     80  C55 UNL A   1      21.722  40.638  50.412  1.00  0.00    +0.000 C 
ATOM    105  H22 UNL A   1      27.488  42.798  48.449  1.00  0.00    +0.000 H 
ATOM    106  H23 UNL A   1      28.881  41.194  46.936  1.00  0.00    +0.000 H 
ATOM    107  H24 UNL A   1      25.282  39.348  47.827  1.00  0.00    +0.000 H 
ATOM    108  H25 UNL A   1      21.490  34.223  47.519  1.00  0.00    +0.000 H 
ATOM    109  H26 UNL A   1      20.118  35.809  48.953  1.00  0.00    +0.000 H 
ATOM    110  H27 UNL A   1      23.703  37.702  48.037  1.00  0.00    +0.000 H 
ATOM    111  H28 UNL A   1      26.211  34.547  45.033  1.00  0.00    +0.000 H 
ATOM    112  H29 UNL A   1      28.115  36.257  45.041  1.00  0.00    +0.000 H 
ATOM    113  H30 UNL A   1      22.578  42.536  50.592  1.00  0.00    +0.000 H 
ATOM    114  H31 UNL A   1      20.862  40.675  50.980  1.00  0.00    +0.000 H 
ENDROOT
BRANCH   24   23
ATOM    103  H20 UNL A   1      16.853  39.160  49.607  1.00  0.00    +0.000 H 
ATOM    104  H21 UNL A   1      19.014  39.130  48.502  1.00  0.00    +0.000 H 
ATOM     81  C56 UNL A   1      19.907  37.733  51.421  1.00  0.00    +0.000 C 
ATOM     82  C57 UNL A   1      18.653  37.684  52.025  1.00  0.00    +0.000 C 
ATOM    115  H32 UNL A   1      20.733  37.371  51.923  1.00  0.00    +0.000 H 
ATOM     20  C14 UNL A   1      17.548  38.255  51.386  1.00  0.00    +0.000 C 
ATOM     21  C15 UNL A   1      17.677  38.774  50.094  1.00  0.00    +0.000 C 
ATOM    116  H33 UNL A   1      18.539  37.227  52.943  1.00  0.00    +0.000 H 
ATOM     22  C16 UNL A   1      18.923  38.768  49.464  1.00  0.00    +0.000 C 
ATOM     23  C17 UNL A   1      20.053  38.271  50.133  1.00  0.00    +0.000 C 
BRANCH   20   18
ATOM     18  C13 UNL A   1      16.220  38.291  52.041  1.00  0.00    +0.000 C 
ATOM     19  O3  UNL A   1      16.098  37.896  53.191  1.00  0.00    +0.000 O 
BRANCH   18   17
ATOM     17  N3  UNL A   1      15.128  38.765  51.352  1.00  0.00    +0.000 N 
ATOM    102  H19 UNL A   1      15.099  39.740  51.225  1.00  0.00    +0.000 H 
BRANCH   17   16
ATOM    100  H17 UNL A   1      13.357  37.728  51.581  1.00  0.00    +0.000 H 
ATOM    101  H18 UNL A   1      13.509  38.663  50.091  1.00  0.00    +0.000 H 
ATOM     16  C12 UNL A   1      14.011  38.025  50.787  1.00  0.00    +0.000 C 
BRANCH   16   15
ATOM     98  H15 UNL A   1      15.530  36.856  49.882  1.00  0.00    +0.000 H 
ATOM     99  H16 UNL A   1      14.202  35.940  50.645  1.00  0.00    +0.000 H 
ATOM     15  C11 UNL A   1      14.474  36.779  50.038  1.00  0.00    +0.000 C 
BRANCH   15   14
ATOM     97  H14 UNL A   1      13.381  37.511  48.405  1.00  0.00    +0.000 H 
ATOM     14  C10 UNL A   1      13.802  36.567  48.678  1.00  0.00    +0.000 C 
ATOM     96  H13 UNL A   1      13.075  35.790  48.786  1.00  0.00    +0.000 H 
BRANCH   14   13
ATOM     13  C9  UNL A   1      14.749  36.176  47.536  1.00  0.00    +0.000 C 
ATOM     94  H11 UNL A   1      14.545  35.159  47.271  1.00  0.00    +0.000 H 
ATOM     95  H12 UNL A   1      14.561  36.869  46.742  1.00  0.00    +0.000 H 
BRANCH   13   12
ATOM     92  H9  UNL A   1      16.389  37.122  48.520  1.00  0.00    +0.000 H 
ATOM     12  C8  UNL A   1      16.247  36.292  47.860  1.00  0.00    +0.000 C 
ATOM     93  H10 UNL A   1      16.548  35.367  48.304  1.00  0.00    +0.000 H 
BRANCH   12   11
ATOM     90  H7  UNL A   1      16.503  36.483  45.746  1.00  0.00    +0.000 H 
ATOM     11  C7  UNL A   1      17.120  36.504  46.620  1.00  0.00    +0.000 C 
ATOM     91  H8  UNL A   1      17.610  37.453  46.693  1.00  0.00    +0.000 H 
BRANCH   11   10
ATOM     89  H6  UNL A   1      18.237  34.963  47.374  1.00  0.00    +0.000 H 
ATOM     10  N2  UNL A   1      18.117  35.457  46.530  1.00  0.00    +0.000 N 
BRANCH   10    8
ATOM      9  O2  UNL A   1      19.776  35.796  45.096  1.00  0.00    +0.000 O 
ATOM      8  C6  UNL A   1      18.929  35.005  45.525  1.00  0.00    +0.000 C 
BRANCH    8    7
ATOM      2  C1  UNL A   1      18.188  32.205  43.014  1.00  0.00    +0.000 C 
ATOM      3  C2  UNL A   1      18.727  31.115  43.699  1.00  0.00    +0.000 C 
ATOM      4  C3  UNL A   1      19.325  31.291  44.944  1.00  0.00    +0.000 C 
ATOM      5  C4  UNL A   1      19.376  32.561  45.512  1.00  0.00    +0.000 C 
ATOM      7  C5  UNL A   1      18.816  33.675  44.861  1.00  0.00    +0.000 C 
ATOM     83  C58 UNL A   1      18.155  33.457  43.646  1.00  0.00    +0.000 C 
ATOM    117  H34 UNL A   1      17.634  34.232  43.205  1.00  0.00    +0.000 H 
ATOM     86  H3  UNL A   1      18.682  30.174  43.280  1.00  0.00    +0.000 H 
ATOM     87  H4  UNL A   1      19.729  30.484  45.442  1.00  0.00    +0.000 H 
BRANCH    2    1
ATOM      1  N1  UNL A   1      17.491  32.001  41.815  1.00  0.00    +0.000 N 
ATOM     84  H1  UNL A   1      16.683  32.526  41.620  1.00  0.00    +0.000 H 
ATOM     85  H2  UNL A   1      17.811  31.331  41.168  1.00  0.00    +0.000 H 
ENDBRANCH    2    1
BRANCH    5    6
ATOM      6  O1  UNL A   1      19.982  32.628  46.742  1.00  0.00    +0.000 O 
ATOM     88  H5  UNL A   1      19.729  33.291  47.353  1.00  0.00    +0.000 H 
ENDBRANCH    5    6
ENDBRANCH    8    7
ENDBRANCH   10    8
ENDBRANCH   11   10
ENDBRANCH   12   11
ENDBRANCH   13   12
ENDBRANCH   14   13
ENDBRANCH   15   14
ENDBRANCH   16   15
ENDBRANCH   17   16
ENDBRANCH   18   17
ENDBRANCH   20   18
ENDBRANCH   24   23
BRANCH   28   29
ATOM     33  F2  UNL A   1      26.100  44.996  52.632  1.00  0.00    +0.000 F 
ATOM     34  C25 UNL A   1      25.205  45.818  50.607  1.00  0.00    +0.000 C 
ATOM     35  F3  UNL A   1      25.315  47.076  51.053  1.00  0.00    +0.000 F 
ATOM     36  C26 UNL A   1      24.677  45.569  49.348  1.00  0.00    +0.000 C 
ATOM     37  F4  UNL A   1      24.293  46.592  48.571  1.00  0.00    +0.000 F 
ATOM     38  C27 UNL A   1      24.546  44.261  48.891  1.00  0.00    +0.000 C 
ATOM     39  F5  UNL A   1      24.022  44.053  47.674  1.00  0.00    +0.000 F 
ATOM     29  C22 UNL A   1      24.961  43.176  49.678  1.00  0.00    +0.000 C 
ATOM     30  C23 UNL A   1      25.507  43.451  50.941  1.00  0.00    +0.000 C 
ATOM     31  F1  UNL A   1      25.908  42.448  51.736  1.00  0.00    +0.000 F 
ATOM     32  C24 UNL A   1      25.612  44.759  51.406  1.00  0.00    +0.000 C 
ENDBRANCH   28   29
BRANCH   45   46
ATOM     46  C33 UNL A   1      28.941  38.632  45.753  1.00  0.00    +0.000 C 
ATOM     47  C34 UNL A   1      29.205  39.347  44.576  1.00  0.00    +0.000 C 
ATOM     48  F6  UNL A   1      28.224  40.032  43.969  1.00  0.00    +0.000 F 
ATOM     49  C35 UNL A   1      30.472  39.331  44.000  1.00  0.00    +0.000 C 
ATOM     50  F7  UNL A   1      30.692  39.987  42.852  1.00  0.00    +0.000 F 
ATOM     51  C36 UNL A   1      31.502  38.625  44.603  1.00  0.00    +0.000 C 
ATOM     52  F8  UNL A   1      32.723  38.616  44.049  1.00  0.00    +0.000 F 
ATOM     53  C37 UNL A   1      31.267  37.924  45.776  1.00  0.00    +0.000 C 
ATOM     54  F9  UNL A   1      32.264  37.252  46.366  1.00  0.00    +0.000 F 
ATOM     55  C38 UNL A   1      29.995  37.917  46.341  1.00  0.00    +0.000 C 
ATOM     56  F10 UNL A   1      29.794  37.222  47.470  1.00  0.00    +0.000 F 
ENDBRANCH   45   46
BRANCH   60   61
ATOM     65  F12 UNL A   1      24.934  30.519  46.702  1.00  0.00    +0.000 F 
ATOM     66  C45 UNL A   1      23.522  31.355  45.003  1.00  0.00    +0.000 C 
ATOM     67  F13 UNL A   1      23.394  30.127  44.483  1.00  0.00    +0.000 F 
ATOM     68  C46 UNL A   1      22.886  32.434  44.406  1.00  0.00    +0.000 C 
ATOM     69  F14 UNL A   1      22.127  32.244  43.318  1.00  0.00    +0.000 F 
ATOM     70  C47 UNL A   1      23.038  33.714  44.932  1.00  0.00    +0.000 C 
ATOM     71  F15 UNL A   1      22.423  34.741  44.325  1.00  0.00    +0.000 F 
ATOM     61  C42 UNL A   1      23.811  33.938  46.080  1.00  0.00    +0.000 C 
ATOM     62  C43 UNL A   1      24.427  32.830  46.678  1.00  0.00    +0.000 C 
ATOM     63  F11 UNL A   1      25.194  32.997  47.766  1.00  0.00    +0.000 F 
ATOM     64  C44 UNL A   1      24.296  31.554  46.136  1.00  0.00    +0.000 C 
ENDBRANCH   60   61
TORSDOF 17
ENDMDL
MODEL 5
REMARK VINA RESULT:     -10.4     46.612     51.432
ROOT
ATOM     24  C18 UNL A   1      14.062  53.702   5.140  1.00  0.00    +0.000 C 
ATOM     25  C19 UNL A   1      15.030  54.153   4.083  1.00  0.00    +0.000 C 
ATOM     26  N4  UNL A   1      15.510  53.489   3.063  1.00  0.00    +0.000 N 
ATOM     27  C20 UNL A   1      16.320  54.385   2.377  1.00  0.00    +0.000 C 
ATOM     28  C21 UNL A   1      17.082  54.164   1.278  1.00  0.00    +0.000 C 
ATOM     40  C28 UNL A   1      17.196  52.893   0.613  1.00  0.00    +0.000 C 
ATOM     41  C29 UNL A   1      17.995  52.552  -0.466  1.00  0.00    +0.000 C 
ATOM     42  C30 UNL A   1      17.746  51.214  -0.788  1.00  0.00    +0.000 C 
ATOM     43  C31 UNL A   1      16.823  50.711   0.115  1.00  0.00    +0.000 C 
ATOM     44  N5  UNL A   1      16.491  51.752   0.966  1.00  0.00    +0.000 N 
ATOM     45  C32 UNL A   1      16.282  49.379   0.195  1.00  0.00    +0.000 C 
ATOM     57  C39 UNL A   1      15.382  48.958   1.117  1.00  0.00    +0.000 C 
ATOM     58  N6  UNL A   1      14.804  49.670   2.159  1.00  0.00    +0.000 N 
ATOM     59  C40 UNL A   1      13.995  48.833   2.762  1.00  0.00    +0.000 C 
ATOM     60  C41 UNL A   1      13.131  49.054   3.973  1.00  0.00    +0.000 C 
ATOM     72  C48 UNL A   1      13.153  50.251   4.588  1.00  0.00    +0.000 C 
ATOM     73  C49 UNL A   1      12.377  50.610   5.771  1.00  0.00    +0.000 C 
ATOM     74  C50 UNL A   1      12.616  51.895   6.079  1.00  0.00    +0.000 C 
ATOM     75  C51 UNL A   1      13.591  52.440   5.133  1.00  0.00    +0.000 C 
ATOM     76  N7  UNL A   1      13.858  51.390   4.289  1.00  0.00    +0.000 N 
ATOM     77  C52 UNL A   1      13.946  47.499   2.147  1.00  0.00    +0.000 C 
ATOM     78  C53 UNL A   1      14.838  47.618   1.174  1.00  0.00    +0.000 C 
ATOM     79  C54 UNL A   1      16.234  55.651   3.071  1.00  0.00    +0.000 C 
ATOM     80  C55 UNL A   1      15.498  55.546   4.168  1.00  0.00    +0.000 C 
ATOM    105  H22 UNL A   1      18.659  53.178  -0.947  1.00  0.00    +0.000 H 
ATOM    106  H23 UNL A   1      18.176  50.691  -1.566  1.00  0.00    +0.000 H 
ATOM    107  H24 UNL A   1      15.850  51.692   1.711  1.00  0.00    +0.000 H 
ATOM    108  H25 UNL A   1      11.746  49.979   6.288  1.00  0.00    +0.000 H 
ATOM    109  H26 UNL A   1      12.183  52.415   6.857  1.00  0.00    +0.000 H 
ATOM    110  H27 UNL A   1      14.496  51.449   3.541  1.00  0.00    +0.000 H 
ATOM    111  H28 UNL A   1      13.369  46.684   2.405  1.00  0.00    +0.000 H 
ATOM    112  H29 UNL A   1      15.112  46.852   0.538  1.00  0.00    +0.000 H 
ATOM    113  H30 UNL A   1      16.687  56.523   2.754  1.00  0.00    +0.000 H 
ATOM    114  H31 UNL A   1      15.306  56.254   4.893  1.00  0.00    +0.000 H 
ENDROOT
BRANCH   24   23
ATOM    103  H20 UNL A   1      14.318  55.974   9.161  1.00  0.00    +0.000 H 
ATOM    104  H21 UNL A   1      15.209  54.471   7.475  1.00  0.00    +0.000 H 
ATOM     81  C56 UNL A   1      12.348  55.329   5.942  1.00  0.00    +0.000 C 
ATOM     82  C57 UNL A   1      11.874  56.246   6.878  1.00  0.00    +0.000 C 
ATOM    115  H32 UNL A   1      11.802  55.138   5.088  1.00  0.00    +0.000 H 
ATOM     20  C14 UNL A   1      12.565  56.440   8.078  1.00  0.00    +0.000 C 
ATOM     21  C15 UNL A   1      13.789  55.800   8.292  1.00  0.00    +0.000 C 
ATOM    116  H33 UNL A   1      11.014  56.782   6.685  1.00  0.00    +0.000 H 
ATOM     22  C16 UNL A   1      14.295  54.926   7.327  1.00  0.00    +0.000 C 
ATOM     23  C17 UNL A   1      13.566  54.664   6.156  1.00  0.00    +0.000 C 
BRANCH   20   18
ATOM     18  C13 UNL A   1      12.040  57.347   9.124  1.00  0.00    +0.000 C 
ATOM     19  O3  UNL A   1      12.301  58.540   9.082  1.00  0.00    +0.000 O 
BRANCH   18   17
ATOM     17  N3  UNL A   1      11.266  56.843  10.143  1.00  0.00    +0.000 N 
ATOM    102  H19 UNL A   1      10.930  57.507  10.787  1.00  0.00    +0.000 H 
BRANCH   17   16
ATOM    100  H17 UNL A   1       9.853  55.451  10.716  1.00  0.00    +0.000 H 
ATOM    101  H18 UNL A   1      11.009  54.909   9.497  1.00  0.00    +0.000 H 
ATOM     16  C12 UNL A   1      10.876  55.467  10.401  1.00  0.00    +0.000 C 
BRANCH   16   15
ATOM     98  H15 UNL A   1      12.252  55.603  12.007  1.00  0.00    +0.000 H 
ATOM     99  H16 UNL A   1      11.069  54.271  12.115  1.00  0.00    +0.000 H 
ATOM     15  C11 UNL A   1      11.735  54.824  11.485  1.00  0.00    +0.000 C 
BRANCH   15   14
ATOM     97  H14 UNL A   1      13.113  53.279  11.821  1.00  0.00    +0.000 H 
ATOM     14  C10 UNL A   1      12.773  53.824  10.967  1.00  0.00    +0.000 C 
ATOM     96  H13 UNL A   1      13.547  54.376  10.475  1.00  0.00    +0.000 H 
BRANCH   14   13
ATOM     13  C9  UNL A   1      12.235  52.779   9.980  1.00  0.00    +0.000 C 
ATOM     94  H11 UNL A   1      11.243  53.067   9.700  1.00  0.00    +0.000 H 
ATOM     95  H12 UNL A   1      12.922  52.763   9.159  1.00  0.00    +0.000 H 
BRANCH   13   12
ATOM     92  H9  UNL A   1      13.085  51.142  11.054  1.00  0.00    +0.000 H 
ATOM     12  C8  UNL A   1      12.180  51.340  10.519  1.00  0.00    +0.000 C 
ATOM     93  H10 UNL A   1      11.316  51.270  11.146  1.00  0.00    +0.000 H 
BRANCH   12   11
ATOM     90  H7  UNL A   1      11.063  49.832   9.494  1.00  0.00    +0.000 H 
ATOM     11  C7  UNL A   1      12.028  50.287   9.418  1.00  0.00    +0.000 C 
ATOM     91  H8  UNL A   1      12.130  50.760   8.463  1.00  0.00    +0.000 H 
BRANCH   11   10
ATOM     89  H6  UNL A   1      12.684  48.371   9.719  1.00  0.00    +0.000 H 
ATOM     10  N2  UNL A   1      13.051  49.271   9.558  1.00  0.00    +0.000 N 
BRANCH   10    8
ATOM      9  O2  UNL A   1      15.014  48.984  10.553  1.00  0.00    +0.000 O 
ATOM      8  C6  UNL A   1      14.419  49.291   9.515  1.00  0.00    +0.000 C 
BRANCH    8    7
ATOM      2  C1  UNL A   1      16.292  49.388   6.171  1.00  0.00    +0.000 C 
ATOM      3  C2  UNL A   1      16.734  50.711   6.178  1.00  0.00    +0.000 C 
ATOM      4  C3  UNL A   1      16.422  51.553   7.243  1.00  0.00    +0.000 C 
ATOM      5  C4  UNL A   1      15.672  51.067   8.310  1.00  0.00    +0.000 C 
ATOM      7  C5  UNL A   1      15.236  49.730   8.347  1.00  0.00    +0.000 C 
ATOM     83  C58 UNL A   1      15.627  48.886   7.300  1.00  0.00    +0.000 C 
ATOM    117  H34 UNL A   1      15.422  47.876   7.359  1.00  0.00    +0.000 H 
ATOM     86  H3  UNL A   1      17.296  51.067   5.390  1.00  0.00    +0.000 H 
ATOM     87  H4  UNL A   1      16.745  52.533   7.239  1.00  0.00    +0.000 H 
BRANCH    2    1
ATOM      1  N1  UNL A   1      16.704  48.519   5.151  1.00  0.00    +0.000 N 
ATOM     84  H1  UNL A   1      16.504  47.558   5.212  1.00  0.00    +0.000 H 
ATOM     85  H2  UNL A   1      17.193  48.872   4.372  1.00  0.00    +0.000 H 
ENDBRANCH    2    1
BRANCH    5    6
ATOM      6  O1  UNL A   1      15.421  51.973   9.310  1.00  0.00    +0.000 O 
ATOM     88  H5  UNL A   1      16.062  52.619   9.528  1.00  0.00    +0.000 H 
ENDBRANCH    5    6
ENDBRANCH    8    7
ENDBRANCH   10    8
ENDBRANCH   11   10
ENDBRANCH   12   11
ENDBRANCH   13   12
ENDBRANCH   14   13
ENDBRANCH   15   14
ENDBRANCH   16   15
ENDBRANCH   17   16
ENDBRANCH   18   17
ENDBRANCH   20   18
ENDBRANCH   24   23
BRANCH   28   29
ATOM     33  F2  UNL A   1      20.962  57.157   1.314  1.00  0.00    +0.000 F 
ATOM     34  C25 UNL A   1      19.339  57.441  -0.378  1.00  0.00    +0.000 C 
ATOM     35  F3  UNL A   1      20.041  58.456  -0.900  1.00  0.00    +0.000 F 
ATOM     36  C26 UNL A   1      18.135  57.060  -0.952  1.00  0.00    +0.000 C 
ATOM     37  F4  UNL A   1      17.684  57.697  -2.042  1.00  0.00    +0.000 F 
ATOM     38  C27 UNL A   1      17.396  56.018  -0.400  1.00  0.00    +0.000 C 
ATOM     39  F5  UNL A   1      16.231  55.680  -0.972  1.00  0.00    +0.000 F 
ATOM     29  C22 UNL A   1      17.859  55.322   0.726  1.00  0.00    +0.000 C 
ATOM     30  C23 UNL A   1      19.087  55.714   1.282  1.00  0.00    +0.000 C 
ATOM     31  F1  UNL A   1      19.567  55.088   2.367  1.00  0.00    +0.000 F 
ATOM     32  C24 UNL A   1      19.811  56.774   0.743  1.00  0.00    +0.000 C 
ENDBRANCH   28   29
BRANCH   45   46
ATOM     46  C33 UNL A   1      16.763  48.368  -0.804  1.00  0.00    +0.000 C 
ATOM     47  C34 UNL A   1      17.996  47.718  -0.655  1.00  0.00    +0.000 C 
ATOM     48  F6  UNL A   1      18.805  48.031   0.369  1.00  0.00    +0.000 F 
ATOM     49  C35 UNL A   1      18.419  46.768  -1.582  1.00  0.00    +0.000 C 
ATOM     50  F7  UNL A   1      19.620  46.190  -1.443  1.00  0.00    +0.000 F 
ATOM     51  C36 UNL A   1      17.606  46.432  -2.654  1.00  0.00    +0.000 C 
ATOM     52  F8  UNL A   1      18.014  45.513  -3.541  1.00  0.00    +0.000 F 
ATOM     53  C37 UNL A   1      16.376  47.051  -2.811  1.00  0.00    +0.000 C 
ATOM     54  F9  UNL A   1      15.585  46.718  -3.839  1.00  0.00    +0.000 F 
ATOM     55  C38 UNL A   1      15.961  48.019  -1.901  1.00  0.00    +0.000 C 
ATOM     56  F10 UNL A   1      14.771  48.610  -2.084  1.00  0.00    +0.000 F 
ENDBRANCH   45   46
BRANCH   60   61
ATOM     65  F12 UNL A   1       8.786  46.908   4.497  1.00  0.00    +0.000 F 
ATOM     66  C45 UNL A   1      10.656  45.909   5.538  1.00  0.00    +0.000 C 
ATOM     67  F13 UNL A   1       9.878  44.939   6.040  1.00  0.00    +0.000 F 
ATOM     68  C46 UNL A   1      12.015  45.924   5.816  1.00  0.00    +0.000 C 
ATOM     69  F14 UNL A   1      12.555  44.957   6.570  1.00  0.00    +0.000 F 
ATOM     70  C47 UNL A   1      12.819  46.945   5.315  1.00  0.00    +0.000 C 
ATOM     71  F15 UNL A   1      14.128  46.943   5.611  1.00  0.00    +0.000 F 
ATOM     61  C42 UNL A   1      12.283  47.958   4.508  1.00  0.00    +0.000 C 
ATOM     62  C43 UNL A   1      10.911  47.910   4.225  1.00  0.00    +0.000 C 
ATOM     63  F11 UNL A   1      10.350  48.870   3.474  1.00  0.00    +0.000 F 
ATOM     64  C44 UNL A   1      10.104  46.904   4.747  1.00  0.00    +0.000 C 
ENDBRANCH   60   61
TORSDOF 17
ENDMDL
MODEL 6
REMARK VINA RESULT:     -10.4     46.424     51.670
ROOT
ATOM     24  C18 UNL A   1      15.051  54.866   4.434  1.00  0.00    +0.000 C 
ATOM     25  C19 UNL A   1      15.760  55.140   3.137  1.00  0.00    +0.000 C 
ATOM     26  N4  UNL A   1      16.091  54.307   2.184  1.00  0.00    +0.000 N 
ATOM     27  C20 UNL A   1      16.680  55.083   1.193  1.00  0.00    +0.000 C 
ATOM     28  C21 UNL A   1      17.234  54.681   0.024  1.00  0.00    +0.000 C 
ATOM     40  C28 UNL A   1      17.324  53.309  -0.402  1.00  0.00    +0.000 C 
ATOM     41  C29 UNL A   1      17.928  52.796  -1.537  1.00  0.00    +0.000 C 
ATOM     42  C30 UNL A   1      17.732  51.411  -1.547  1.00  0.00    +0.000 C 
ATOM     43  C31 UNL A   1      17.042  51.057  -0.399  1.00  0.00    +0.000 C 
ATOM     44  N5  UNL A   1      16.794  52.232   0.293  1.00  0.00    +0.000 N 
ATOM     45  C32 UNL A   1      16.637  49.746   0.036  1.00  0.00    +0.000 C 
ATOM     57  C39 UNL A   1      15.967  49.479   1.183  1.00  0.00    +0.000 C 
ATOM     58  N6  UNL A   1      15.541  50.358   2.169  1.00  0.00    +0.000 N 
ATOM     59  C40 UNL A   1      14.932  49.623   3.068  1.00  0.00    +0.000 C 
ATOM     60  C41 UNL A   1      14.300  50.043   4.367  1.00  0.00    +0.000 C 
ATOM     72  C48 UNL A   1      14.340  51.338   4.730  1.00  0.00    +0.000 C 
ATOM     73  C49 UNL A   1      13.776  51.891   5.958  1.00  0.00    +0.000 C 
ATOM     74  C50 UNL A   1      13.963  53.221   5.966  1.00  0.00    +0.000 C 
ATOM     75  C51 UNL A   1      14.692  53.609   4.758  1.00  0.00    +0.000 C 
ATOM     76  N7  UNL A   1      14.880  52.425   4.088  1.00  0.00    +0.000 N 
ATOM     77  C52 UNL A   1      14.877  48.192   2.736  1.00  0.00    +0.000 C 
ATOM     78  C53 UNL A   1      15.555  48.154   1.598  1.00  0.00    +0.000 C 
ATOM     79  C54 UNL A   1      16.624  56.457   1.642  1.00  0.00    +0.000 C 
ATOM     80  C55 UNL A   1      16.121  56.540   2.865  1.00  0.00    +0.000 C 
ATOM    105  H22 UNL A   1      18.434  53.341  -2.251  1.00  0.00    +0.000 H 
ATOM    106  H23 UNL A   1      18.048  50.762  -2.285  1.00  0.00    +0.000 H 
ATOM    107  H24 UNL A   1      16.314  52.293   1.150  1.00  0.00    +0.000 H 
ATOM    108  H25 UNL A   1      13.308  51.349   6.701  1.00  0.00    +0.000 H 
ATOM    109  H26 UNL A   1      13.645  53.867   6.705  1.00  0.00    +0.000 H 
ATOM    110  H27 UNL A   1      15.356  52.361   3.229  1.00  0.00    +0.000 H 
ATOM    111  H28 UNL A   1      14.428  47.421   3.253  1.00  0.00    +0.000 H 
ATOM    112  H29 UNL A   1      15.765  47.289   1.074  1.00  0.00    +0.000 H 
ATOM    113  H30 UNL A   1      16.935  57.267   1.083  1.00  0.00    +0.000 H 
ATOM    114  H31 UNL A   1      16.012  57.369   3.469  1.00  0.00    +0.000 H 
ENDROOT
BRANCH   24   23
ATOM    103  H20 UNL A   1      12.206  58.178   5.961  1.00  0.00    +0.000 H 
ATOM    104  H21 UNL A   1      12.739  56.280   4.544  1.00  0.00    +0.000 H 
ATOM     81  C56 UNL A   1      15.592  56.425   6.306  1.00  0.00    +0.000 C 
ATOM     82  C57 UNL A   1      15.255  57.467   7.168  1.00  0.00    +0.000 C 
ATOM    115  H32 UNL A   1      16.516  55.972   6.385  1.00  0.00    +0.000 H 
ATOM     20  C14 UNL A   1      14.043  58.143   7.006  1.00  0.00    +0.000 C 
ATOM     21  C15 UNL A   1      13.117  57.703   6.054  1.00  0.00    +0.000 C 
ATOM    116  H33 UNL A   1      15.901  57.739   7.925  1.00  0.00    +0.000 H 
ATOM     22  C16 UNL A   1      13.430  56.619   5.230  1.00  0.00    +0.000 C 
ATOM     23  C17 UNL A   1      14.680  55.988   5.332  1.00  0.00    +0.000 C 
BRANCH   20   18
ATOM     18  C13 UNL A   1      13.696  59.306   7.854  1.00  0.00    +0.000 C 
ATOM     19  O3  UNL A   1      14.113  60.418   7.561  1.00  0.00    +0.000 O 
BRANCH   18   17
ATOM     17  N3  UNL A   1      12.911  59.133   8.969  1.00  0.00    +0.000 N 
ATOM    102  H19 UNL A   1      13.391  59.125   9.827  1.00  0.00    +0.000 H 
BRANCH   17   16
ATOM    100  H17 UNL A   1      11.136  59.314  10.008  1.00  0.00    +0.000 H 
ATOM    101  H18 UNL A   1      11.020  59.514   8.258  1.00  0.00    +0.000 H 
ATOM     16  C12 UNL A   1      11.470  58.959   9.055  1.00  0.00    +0.000 C 
BRANCH   16   15
ATOM     98  H15 UNL A   1      10.055  57.393   9.251  1.00  0.00    +0.000 H 
ATOM     99  H16 UNL A   1      11.172  57.257   7.865  1.00  0.00    +0.000 H 
ATOM     15  C11 UNL A   1      11.062  57.497   8.903  1.00  0.00    +0.000 C 
BRANCH   15   14
ATOM     97  H14 UNL A   1      11.312  56.071  10.420  1.00  0.00    +0.000 H 
ATOM     14  C10 UNL A   1      11.941  56.507   9.673  1.00  0.00    +0.000 C 
ATOM     96  H13 UNL A   1      12.773  57.047  10.075  1.00  0.00    +0.000 H 
BRANCH   14   13
ATOM     13  C9  UNL A   1      12.490  55.339   8.844  1.00  0.00    +0.000 C 
ATOM     94  H11 UNL A   1      11.799  54.525   8.920  1.00  0.00    +0.000 H 
ATOM     95  H12 UNL A   1      12.603  55.709   7.846  1.00  0.00    +0.000 H 
BRANCH   13   12
ATOM     92  H9  UNL A   1      14.242  54.166   8.515  1.00  0.00    +0.000 H 
ATOM     12  C8  UNL A   1      13.876  54.829   9.271  1.00  0.00    +0.000 C 
ATOM     93  H10 UNL A   1      14.503  55.686   9.396  1.00  0.00    +0.000 H 
BRANCH   12   11
ATOM     90  H7  UNL A   1      14.865  53.914  10.931  1.00  0.00    +0.000 H 
ATOM     11  C7  UNL A   1      13.859  54.080  10.606  1.00  0.00    +0.000 C 
ATOM     91  H8  UNL A   1      13.336  54.666  11.332  1.00  0.00    +0.000 H 
BRANCH   11   10
ATOM     89  H6  UNL A   1      12.389  52.716  11.019  1.00  0.00    +0.000 H 
ATOM     10  N2  UNL A   1      13.188  52.804  10.451  1.00  0.00    +0.000 N 
BRANCH   10    8
ATOM      9  O2  UNL A   1      12.480  51.275   9.007  1.00  0.00    +0.000 O 
ATOM      8  C6  UNL A   1      13.425  51.696   9.683  1.00  0.00    +0.000 C 
BRANCH    8    7
ATOM      2  C1  UNL A   1      17.057  50.610   9.111  1.00  0.00    +0.000 C 
ATOM      3  C2  UNL A   1      17.045  49.374   9.758  1.00  0.00    +0.000 C 
ATOM      4  C3  UNL A   1      15.885  48.910  10.372  1.00  0.00    +0.000 C 
ATOM      5  C4  UNL A   1      14.727  49.682  10.332  1.00  0.00    +0.000 C 
ATOM      7  C5  UNL A   1      14.697  50.920   9.663  1.00  0.00    +0.000 C 
ATOM     83  C58 UNL A   1      15.856  51.326   8.991  1.00  0.00    +0.000 C 
ATOM    117  H34 UNL A   1      15.828  52.170   8.396  1.00  0.00    +0.000 H 
ATOM     86  H3  UNL A   1      17.902  48.800   9.780  1.00  0.00    +0.000 H 
ATOM     87  H4  UNL A   1      15.884  47.999  10.856  1.00  0.00    +0.000 H 
BRANCH    2    1
ATOM      1  N1  UNL A   1      18.195  51.017   8.403  1.00  0.00    +0.000 N 
ATOM     84  H1  UNL A   1      19.082  50.673   8.656  1.00  0.00    +0.000 H 
ATOM     85  H2  UNL A   1      18.108  51.647   7.651  1.00  0.00    +0.000 H 
ENDBRANCH    2    1
BRANCH    5    6
ATOM      6  O1  UNL A   1      13.637  49.136  10.963  1.00  0.00    +0.000 O 
ATOM     88  H5  UNL A   1      13.664  48.249  11.261  1.00  0.00    +0.000 H 
ENDBRANCH    5    6
ENDBRANCH    8    7
ENDBRANCH   10    8
ENDBRANCH   11   10
ENDBRANCH   12   11
ENDBRANCH   13   12
ENDBRANCH   14   13
ENDBRANCH   15   14
ENDBRANCH   16   15
ENDBRANCH   17   16
ENDBRANCH   18   17
ENDBRANCH   20   18
ENDBRANCH   24   23
BRANCH   28   29
ATOM     33  F2  UNL A   1      16.764  57.941  -3.604  1.00  0.00    +0.000 F 
ATOM     34  C25 UNL A   1      18.847  57.777  -2.504  1.00  0.00    +0.000 C 
ATOM     35  F3  UNL A   1      19.350  58.744  -3.283  1.00  0.00    +0.000 F 
ATOM     36  C26 UNL A   1      19.645  57.171  -1.544  1.00  0.00    +0.000 C 
ATOM     37  F4  UNL A   1      20.916  57.567  -1.385  1.00  0.00    +0.000 F 
ATOM     38  C27 UNL A   1      19.128  56.154  -0.747  1.00  0.00    +0.000 C 
ATOM     39  F5  UNL A   1      19.927  55.581   0.165  1.00  0.00    +0.000 F 
ATOM     29  C22 UNL A   1      17.795  55.739  -0.880  1.00  0.00    +0.000 C 
ATOM     30  C23 UNL A   1      17.001  56.376  -1.846  1.00  0.00    +0.000 C 
ATOM     31  F1  UNL A   1      15.724  56.006  -2.021  1.00  0.00    +0.000 F 
ATOM     32  C24 UNL A   1      17.529  57.374  -2.660  1.00  0.00    +0.000 C 
ENDBRANCH   28   29
BRANCH   45   46
ATOM     46  C33 UNL A   1      17.001  48.579  -0.834  1.00  0.00    +0.000 C 
ATOM     47  C34 UNL A   1      16.224  48.220  -1.944  1.00  0.00    +0.000 C 
ATOM     48  F6  UNL A   1      15.096  48.890  -2.223  1.00  0.00    +0.000 F 
ATOM     49  C35 UNL A   1      16.587  47.146  -2.752  1.00  0.00    +0.000 C 
ATOM     50  F7  UNL A   1      15.807  46.793  -3.784  1.00  0.00    +0.000 F 
ATOM     51  C36 UNL A   1      17.744  46.431  -2.482  1.00  0.00    +0.000 C 
ATOM     52  F8  UNL A   1      18.094  45.401  -3.265  1.00  0.00    +0.000 F 
ATOM     53  C37 UNL A   1      18.536  46.780  -1.398  1.00  0.00    +0.000 C 
ATOM     54  F9  UNL A   1      19.661  46.098  -1.144  1.00  0.00    +0.000 F 
ATOM     55  C38 UNL A   1      18.163  47.837  -0.573  1.00  0.00    +0.000 C 
ATOM     56  F10 UNL A   1      18.942  48.145   0.474  1.00  0.00    +0.000 F 
ENDBRANCH   45   46
BRANCH   60   61
ATOM     65  F12 UNL A   1      14.508  46.950   8.128  1.00  0.00    +0.000 F 
ATOM     66  C45 UNL A   1      12.478  47.116   6.933  1.00  0.00    +0.000 C 
ATOM     67  F13 UNL A   1      11.918  46.191   7.725  1.00  0.00    +0.000 F 
ATOM     68  C46 UNL A   1      11.748  47.679   5.897  1.00  0.00    +0.000 C 
ATOM     69  F14 UNL A   1      10.476  47.311   5.697  1.00  0.00    +0.000 F 
ATOM     70  C47 UNL A   1      12.337  48.623   5.059  1.00  0.00    +0.000 C 
ATOM     71  F15 UNL A   1      11.613  49.140   4.055  1.00  0.00    +0.000 F 
ATOM     61  C42 UNL A   1      13.661  49.040   5.257  1.00  0.00    +0.000 C 
ATOM     62  C43 UNL A   1      14.372  48.472   6.323  1.00  0.00    +0.000 C 
ATOM     63  F11 UNL A   1      15.648  48.825   6.539  1.00  0.00    +0.000 F 
ATOM     64  C44 UNL A   1      13.791  47.509   7.144  1.00  0.00    +0.000 C 
ENDBRANCH   60   61
TORSDOF 17
ENDMDL
MODEL 7
REMARK VINA RESULT:     -10.4      0.899      7.696
ROOT
ATOM     24  C18 UNL A   1      52.923  20.217  11.442  1.00  0.00    +0.000 C 
ATOM     25  C19 UNL A   1      52.727  20.801  12.813  1.00  0.00    +0.000 C 
ATOM     26  N4  UNL A   1      53.580  20.898  13.801  1.00  0.00    +0.000 N 
ATOM     27  C20 UNL A   1      52.905  21.561  14.818  1.00  0.00    +0.000 C 
ATOM     28  C21 UNL A   1      53.340  21.859  16.066  1.00  0.00    +0.000 C 
ATOM     40  C28 UNL A   1      54.639  21.507  16.578  1.00  0.00    +0.000 C 
ATOM     41  C29 UNL A   1      55.148  21.704  17.850  1.00  0.00    +0.000 C 
ATOM     42  C30 UNL A   1      56.464  21.231  17.872  1.00  0.00    +0.000 C 
ATOM     43  C31 UNL A   1      56.760  20.702  16.626  1.00  0.00    +0.000 C 
ATOM     44  N5  UNL A   1      55.634  20.882  15.840  1.00  0.00    +0.000 N 
ATOM     45  C32 UNL A   1      57.981  20.081  16.183  1.00  0.00    +0.000 C 
ATOM     57  C39 UNL A   1      58.194  19.580  14.942  1.00  0.00    +0.000 C 
ATOM     58  N6  UNL A   1      57.327  19.536  13.859  1.00  0.00    +0.000 N 
ATOM     59  C40 UNL A   1      57.995  18.966  12.886  1.00  0.00    +0.000 C 
ATOM     60  C41 UNL A   1      57.542  18.633  11.491  1.00  0.00    +0.000 C 
ATOM     72  C48 UNL A   1      56.278  18.918  11.124  1.00  0.00    +0.000 C 
ATOM     73  C49 UNL A   1      55.696  18.651   9.812  1.00  0.00    +0.000 C 
ATOM     74  C50 UNL A   1      54.433  19.107   9.792  1.00  0.00    +0.000 C 
ATOM     75  C51 UNL A   1      54.106  19.668  11.103  1.00  0.00    +0.000 C 
ATOM     76  N7  UNL A   1      55.258  19.505  11.832  1.00  0.00    +0.000 N 
ATOM     77  C52 UNL A   1      59.378  18.610  13.236  1.00  0.00    +0.000 C 
ATOM     78  C53 UNL A   1      59.434  18.970  14.510  1.00  0.00    +0.000 C 
ATOM     79  C54 UNL A   1      51.586  21.878  14.315  1.00  0.00    +0.000 C 
ATOM     80  C55 UNL A   1      51.404  21.375  13.102  1.00  0.00    +0.000 C 
ATOM    105  H22 UNL A   1      54.643  22.126  18.644  1.00  0.00    +0.000 H 
ATOM    106  H23 UNL A   1      57.105  21.269  18.680  1.00  0.00    +0.000 H 
ATOM    107  H24 UNL A   1      55.551  20.607  14.898  1.00  0.00    +0.000 H 
ATOM    108  H25 UNL A   1      56.177  18.187   9.026  1.00  0.00    +0.000 H 
ATOM    109  H26 UNL A   1      53.795  19.068   8.982  1.00  0.00    +0.000 H 
ATOM    110  H27 UNL A   1      55.345  19.783  12.772  1.00  0.00    +0.000 H 
ATOM    111  H28 UNL A   1      60.112  18.191  12.644  1.00  0.00    +0.000 H 
ATOM    112  H29 UNL A   1      60.257  18.833  15.118  1.00  0.00    +0.000 H 
ATOM    113  H30 UNL A   1      50.879  22.424  14.833  1.00  0.00    +0.000 H 
ATOM    114  H31 UNL A   1      50.556  21.384  12.515  1.00  0.00    +0.000 H 
ENDROOT
BRANCH   24   23
ATOM    103  H20 UNL A   1      49.371  18.507   9.024  1.00  0.00    +0.000 H 
ATOM    104  H21 UNL A   1      51.067  18.362  10.754  1.00  0.00    +0.000 H 
ATOM     81  C56 UNL A   1      51.670  21.492   9.702  1.00  0.00    +0.000 C 
ATOM     82  C57 UNL A   1      50.649  21.599   8.761  1.00  0.00    +0.000 C 
ATOM    115  H32 UNL A   1      52.304  22.290   9.863  1.00  0.00    +0.000 H 
ATOM     20  C14 UNL A   1      49.845  20.492   8.473  1.00  0.00    +0.000 C 
ATOM     21  C15 UNL A   1      49.990  19.312   9.209  1.00  0.00    +0.000 C 
ATOM    116  H33 UNL A   1      50.485  22.495   8.275  1.00  0.00    +0.000 H 
ATOM     22  C16 UNL A   1      50.975  19.224  10.196  1.00  0.00    +0.000 C 
ATOM     23  C17 UNL A   1      51.840  20.305  10.432  1.00  0.00    +0.000 C 
BRANCH   20   18
ATOM     18  C13 UNL A   1      48.807  20.552   7.419  1.00  0.00    +0.000 C 
ATOM     19  O3  UNL A   1      48.201  21.596   7.222  1.00  0.00    +0.000 O 
BRANCH   18   17
ATOM     17  N3  UNL A   1      48.524  19.435   6.669  1.00  0.00    +0.000 N 
ATOM    102  H19 UNL A   1      49.232  19.153   6.047  1.00  0.00    +0.000 H 
BRANCH   17   16
ATOM    100  H17 UNL A   1      47.575  17.636   7.024  1.00  0.00    +0.000 H 
ATOM    101  H18 UNL A   1      46.601  19.082   7.303  1.00  0.00    +0.000 H 
ATOM     16  C12 UNL A   1      47.324  18.614   6.668  1.00  0.00    +0.000 C 
BRANCH   16   15
ATOM     98  H15 UNL A   1      47.359  17.864   4.686  1.00  0.00    +0.000 H 
ATOM     99  H16 UNL A   1      45.738  18.084   5.401  1.00  0.00    +0.000 H 
ATOM     15  C11 UNL A   1      46.720  18.491   5.272  1.00  0.00    +0.000 C 
BRANCH   15   14
ATOM     97  H14 UNL A   1      47.490  20.037   4.083  1.00  0.00    +0.000 H 
ATOM     14  C10 UNL A   1      46.546  19.821   4.534  1.00  0.00    +0.000 C 
ATOM     96  H13 UNL A   1      46.235  20.557   5.248  1.00  0.00    +0.000 H 
BRANCH   14   13
ATOM     13  C9  UNL A   1      45.521  19.805   3.392  1.00  0.00    +0.000 C 
ATOM     94  H11 UNL A   1      46.042  20.001   2.478  1.00  0.00    +0.000 H 
ATOM     95  H12 UNL A   1      45.059  18.840   3.421  1.00  0.00    +0.000 H 
BRANCH   13   12
ATOM     92  H9  UNL A   1      43.498  20.317   3.838  1.00  0.00    +0.000 H 
ATOM     12  C8  UNL A   1      44.382  20.830   3.521  1.00  0.00    +0.000 C 
ATOM     93  H10 UNL A   1      44.698  21.566   4.230  1.00  0.00    +0.000 H 
BRANCH   12   11
ATOM     90  H7  UNL A   1      43.240  22.213   2.358  1.00  0.00    +0.000 H 
ATOM     11  C7  UNL A   1      44.076  21.562   2.212  1.00  0.00    +0.000 C 
ATOM     91  H8  UNL A   1      44.932  22.132   1.920  1.00  0.00    +0.000 H 
BRANCH   11   10
ATOM     89  H6  UNL A   1      44.553  20.321   0.655  1.00  0.00    +0.000 H 
ATOM     10  N2  UNL A   1      43.763  20.604   1.170  1.00  0.00    +0.000 N 
BRANCH   10    8
ATOM      9  O2  UNL A   1      42.587  19.590  -0.414  1.00  0.00    +0.000 O 
ATOM      8  C6  UNL A   1      42.606  20.007   0.748  1.00  0.00    +0.000 C 
BRANCH    8    7
ATOM      2  C1  UNL A   1      39.034  20.467   2.063  1.00  0.00    +0.000 C 
ATOM      3  C2  UNL A   1      39.038  19.540   3.106  1.00  0.00    +0.000 C 
ATOM      4  C3  UNL A   1      40.174  18.778   3.368  1.00  0.00    +0.000 C 
ATOM      5  C4  UNL A   1      41.315  18.949   2.590  1.00  0.00    +0.000 C 
ATOM      7  C5  UNL A   1      41.354  19.897   1.550  1.00  0.00    +0.000 C 
ATOM     83  C58 UNL A   1      40.223  20.701   1.357  1.00  0.00    +0.000 C 
ATOM    117  H34 UNL A   1      40.265  21.481   0.682  1.00  0.00    +0.000 H 
ATOM     86  H3  UNL A   1      38.194  19.418   3.687  1.00  0.00    +0.000 H 
ATOM     87  H4  UNL A   1      40.169  18.087   4.135  1.00  0.00    +0.000 H 
BRANCH    2    1
ATOM      1  N1  UNL A   1      37.927  21.306   1.879  1.00  0.00    +0.000 N 
ATOM     84  H1  UNL A   1      37.911  22.198   2.293  1.00  0.00    +0.000 H 
ATOM     85  H2  UNL A   1      37.165  21.002   1.335  1.00  0.00    +0.000 H 
ENDBRANCH    2    1
BRANCH    5    6
ATOM      6  O1  UNL A   1      42.382  18.155   2.930  1.00  0.00    +0.000 O 
ATOM     88  H5  UNL A   1      43.171  18.192   2.428  1.00  0.00    +0.000 H 
ENDBRANCH    5    6
ENDBRANCH    8    7
ENDBRANCH   10    8
ENDBRANCH   11   10
ENDBRANCH   12   11
ENDBRANCH   13   12
ENDBRANCH   14   13
ENDBRANCH   15   14
ENDBRANCH   16   15
ENDBRANCH   17   16
ENDBRANCH   18   17
ENDBRANCH   20   18
ENDBRANCH   24   23
BRANCH   28   29
ATOM     33  F2  UNL A   1      50.059  21.975  19.704  1.00  0.00    +0.000 F 
ATOM     34  C25 UNL A   1      50.714  24.017  18.715  1.00  0.00    +0.000 C 
ATOM     35  F3  UNL A   1      49.904  24.693  19.542  1.00  0.00    +0.000 F 
ATOM     36  C26 UNL A   1      51.462  24.697  17.765  1.00  0.00    +0.000 C 
ATOM     37  F4  UNL A   1      51.388  26.034  17.687  1.00  0.00    +0.000 F 
ATOM     38  C27 UNL A   1      52.290  23.995  16.895  1.00  0.00    +0.000 C 
ATOM     39  F5  UNL A   1      52.994  24.679  15.980  1.00  0.00    +0.000 F 
ATOM     29  C22 UNL A   1      52.402  22.599  16.972  1.00  0.00    +0.000 C 
ATOM     30  C23 UNL A   1      51.648  21.933  17.951  1.00  0.00    +0.000 C 
ATOM     31  F1  UNL A   1      51.710  20.597  18.058  1.00  0.00    +0.000 F 
ATOM     32  C24 UNL A   1      50.800  22.636  18.803  1.00  0.00    +0.000 C 
ENDBRANCH   28   29
BRANCH   45   46
ATOM     46  C33 UNL A   1      59.101  19.958  17.174  1.00  0.00    +0.000 C 
ATOM     47  C34 UNL A   1      59.386  18.744  17.813  1.00  0.00    +0.000 C 
ATOM     48  F6  UNL A   1      58.617  17.667  17.590  1.00  0.00    +0.000 F 
ATOM     49  C35 UNL A   1      60.441  18.642  18.716  1.00  0.00    +0.000 C 
ATOM     50  F7  UNL A   1      60.669  17.483  19.349  1.00  0.00    +0.000 F 
ATOM     51  C36 UNL A   1      61.247  19.742  18.971  1.00  0.00    +0.000 C 
ATOM     52  F8  UNL A   1      62.267  19.639  19.836  1.00  0.00    +0.000 F 
ATOM     53  C37 UNL A   1      60.993  20.948  18.336  1.00  0.00    +0.000 C 
ATOM     54  F9  UNL A   1      61.779  22.007  18.573  1.00  0.00    +0.000 F 
ATOM     55  C38 UNL A   1      59.924  21.060  17.454  1.00  0.00    +0.000 C 
ATOM     56  F10 UNL A   1      59.695  22.242  16.862  1.00  0.00    +0.000 F 
ENDBRANCH   45   46
BRANCH   60   61
ATOM     65  F12 UNL A   1      60.824  18.867   7.895  1.00  0.00    +0.000 F 
ATOM     66  C45 UNL A   1      60.191  16.735   8.689  1.00  0.00    +0.000 C 
ATOM     67  F13 UNL A   1      61.005  16.146   7.803  1.00  0.00    +0.000 F 
ATOM     68  C46 UNL A   1      59.425  15.964   9.551  1.00  0.00    +0.000 C 
ATOM     69  F14 UNL A   1      59.514  14.627   9.511  1.00  0.00    +0.000 F 
ATOM     70  C47 UNL A   1      58.561  16.575  10.456  1.00  0.00    +0.000 C 
ATOM     71  F15 UNL A   1      57.822  15.804  11.268  1.00  0.00    +0.000 F 
ATOM     61  C42 UNL A   1      58.463  17.972  10.533  1.00  0.00    +0.000 C 
ATOM     62  C43 UNL A   1      59.261  18.731   9.666  1.00  0.00    +0.000 C 
ATOM     63  F11 UNL A   1      59.186  20.070   9.687  1.00  0.00    +0.000 F 
ATOM     64  C44 UNL A   1      60.105  18.118   8.743  1.00  0.00    +0.000 C 
ENDBRANCH   60   61
TORSDOF 17
ENDMDL
MODEL 8
REMARK VINA RESULT:     -10.4     46.378     51.063
ROOT
ATOM     24  C18 UNL A   1      13.124  50.128   3.136  1.00  0.00    +0.000 C 
ATOM     25  C19 UNL A   1      14.062  49.670   2.054  1.00  0.00    +0.000 C 
ATOM     26  N4  UNL A   1      14.985  50.346   1.419  1.00  0.00    +0.000 N 
ATOM     27  C20 UNL A   1      15.592  49.440   0.558  1.00  0.00    +0.000 C 
ATOM     28  C21 UNL A   1      16.573  49.663  -0.349  1.00  0.00    +0.000 C 
ATOM     40  C28 UNL A   1      17.172  50.949  -0.596  1.00  0.00    +0.000 C 
ATOM     41  C29 UNL A   1      18.123  51.290  -1.541  1.00  0.00    +0.000 C 
ATOM     42  C30 UNL A   1      18.427  52.646  -1.385  1.00  0.00    +0.000 C 
ATOM     43  C31 UNL A   1      17.635  53.159  -0.370  1.00  0.00    +0.000 C 
ATOM     44  N5  UNL A   1      16.873  52.106   0.108  1.00  0.00    +0.000 N 
ATOM     45  C32 UNL A   1      17.579  54.508   0.128  1.00  0.00    +0.000 C 
ATOM     57  C39 UNL A   1      16.768  54.936   1.126  1.00  0.00    +0.000 C 
ATOM     58  N6  UNL A   1      15.837  54.216   1.862  1.00  0.00    +0.000 N 
ATOM     59  C40 UNL A   1      15.315  55.066   2.713  1.00  0.00    +0.000 C 
ATOM     60  C41 UNL A   1      14.236  54.844   3.736  1.00  0.00    +0.000 C 
ATOM     72  C48 UNL A   1      13.667  53.628   3.839  1.00  0.00    +0.000 C 
ATOM     73  C49 UNL A   1      12.608  53.265   4.777  1.00  0.00    +0.000 C 
ATOM     74  C50 UNL A   1      12.318  51.962   4.626  1.00  0.00    +0.000 C 
ATOM     75  C51 UNL A   1      13.148  51.407   3.556  1.00  0.00    +0.000 C 
ATOM     76  N7  UNL A   1      13.912  52.471   3.142  1.00  0.00    +0.000 N 
ATOM     77  C52 UNL A   1      15.883  56.420   2.632  1.00  0.00    +0.000 C 
ATOM     78  C53 UNL A   1      16.735  56.295   1.624  1.00  0.00    +0.000 C 
ATOM     79  C54 UNL A   1      14.961  48.157   0.781  1.00  0.00    +0.000 C 
ATOM     80  C55 UNL A   1      13.966  48.258   1.651  1.00  0.00    +0.000 C 
ATOM    105  H22 UNL A   1      18.536  50.654  -2.240  1.00  0.00    +0.000 H 
ATOM    106  H23 UNL A   1      19.124  53.176  -1.933  1.00  0.00    +0.000 H 
ATOM    107  H24 UNL A   1      16.217  52.169   0.839  1.00  0.00    +0.000 H 
ATOM    108  H25 UNL A   1      12.156  53.905   5.448  1.00  0.00    +0.000 H 
ATOM    109  H26 UNL A   1      11.622  51.436   5.177  1.00  0.00    +0.000 H 
ATOM    110  H27 UNL A   1      14.571  52.410   2.414  1.00  0.00    +0.000 H 
ATOM    111  H28 UNL A   1      15.673  57.249   3.209  1.00  0.00    +0.000 H 
ATOM    112  H29 UNL A   1      17.302  57.069   1.242  1.00  0.00    +0.000 H 
ATOM    113  H30 UNL A   1      15.247  47.278   0.322  1.00  0.00    +0.000 H 
ATOM    114  H31 UNL A   1      13.299  47.536   1.963  1.00  0.00    +0.000 H 
ENDROOT
BRANCH   24   23
ATOM    103  H20 UNL A   1       9.046  48.036   3.756  1.00  0.00    +0.000 H 
ATOM    104  H21 UNL A   1      10.529  49.562   2.587  1.00  0.00    +0.000 H 
ATOM     81  C56 UNL A   1      12.701  48.362   4.847  1.00  0.00    +0.000 C 
ATOM     82  C57 UNL A   1      11.868  47.434   5.468  1.00  0.00    +0.000 C 
ATOM    115  H32 UNL A   1      13.678  48.466   5.162  1.00  0.00    +0.000 H 
ATOM     20  C14 UNL A   1      10.520  47.354   5.108  1.00  0.00    +0.000 C 
ATOM     21  C15 UNL A   1      10.032  48.123   4.047  1.00  0.00    +0.000 C 
ATOM    116  H33 UNL A   1      12.246  46.806   6.195  1.00  0.00    +0.000 H 
ATOM     22  C16 UNL A   1      10.882  49.011   3.384  1.00  0.00    +0.000 C 
ATOM     23  C17 UNL A   1      12.217  49.156   3.796  1.00  0.00    +0.000 C 
BRANCH   20   18
ATOM     18  C13 UNL A   1       9.594  46.435   5.808  1.00  0.00    +0.000 C 
ATOM     19  O3  UNL A   1       9.050  45.532   5.190  1.00  0.00    +0.000 O 
BRANCH   18   17
ATOM     17  N3  UNL A   1       9.345  46.603   7.150  1.00  0.00    +0.000 N 
ATOM    102  H19 UNL A   1       8.678  47.290   7.374  1.00  0.00    +0.000 H 
BRANCH   17   16
ATOM    100  H17 UNL A   1       9.201  45.243   8.697  1.00  0.00    +0.000 H 
ATOM    101  H18 UNL A   1      10.789  45.369   7.936  1.00  0.00    +0.000 H 
ATOM     16  C12 UNL A   1       9.932  45.907   8.284  1.00  0.00    +0.000 C 
BRANCH   16   15
ATOM     98  H15 UNL A   1       9.655  47.648   9.461  1.00  0.00    +0.000 H 
ATOM     99  H16 UNL A   1      10.499  46.296  10.266  1.00  0.00    +0.000 H 
ATOM     15  C11 UNL A   1      10.389  46.874   9.372  1.00  0.00    +0.000 C 
BRANCH   15   14
ATOM     97  H14 UNL A   1      11.809  48.364   9.777  1.00  0.00    +0.000 H 
ATOM     14  C10 UNL A   1      11.748  47.531   9.110  1.00  0.00    +0.000 C 
ATOM     96  H13 UNL A   1      11.788  47.807   8.076  1.00  0.00    +0.000 H 
BRANCH   14   13
ATOM     13  C9  UNL A   1      12.968  46.651   9.413  1.00  0.00    +0.000 C 
ATOM     94  H11 UNL A   1      13.167  46.713  10.463  1.00  0.00    +0.000 H 
ATOM     95  H12 UNL A   1      12.712  45.665   9.086  1.00  0.00    +0.000 H 
BRANCH   13   12
ATOM     92  H9  UNL A   1      14.842  46.151   8.525  1.00  0.00    +0.000 H 
ATOM     12  C8  UNL A   1      14.253  47.033   8.660  1.00  0.00    +0.000 C 
ATOM     93  H10 UNL A   1      13.956  47.467   7.729  1.00  0.00    +0.000 H 
BRANCH   12   11
ATOM     90  H7  UNL A   1      14.470  48.644  10.049  1.00  0.00    +0.000 H 
ATOM     11  C7  UNL A   1      15.099  48.074   9.397  1.00  0.00    +0.000 C 
ATOM     91  H8  UNL A   1      15.853  47.573   9.968  1.00  0.00    +0.000 H 
BRANCH   11   10
ATOM     89  H6  UNL A   1      16.673  49.159   8.665  1.00  0.00    +0.000 H 
ATOM     10  N2  UNL A   1      15.734  48.962   8.444  1.00  0.00    +0.000 N 
BRANCH   10    8
ATOM      9  O2  UNL A   1      14.205  50.137   7.346  1.00  0.00    +0.000 O 
ATOM      8  C6  UNL A   1      15.310  49.585   7.302  1.00  0.00    +0.000 C 
BRANCH    8    7
ATOM      2  C1  UNL A   1      17.267  50.648   4.182  1.00  0.00    +0.000 C 
ATOM      3  C2  UNL A   1      17.436  49.407   3.566  1.00  0.00    +0.000 C 
ATOM      4  C3  UNL A   1      16.931  48.252   4.158  1.00  0.00    +0.000 C 
ATOM      5  C4  UNL A   1      16.246  48.338   5.367  1.00  0.00    +0.000 C 
ATOM      7  C5  UNL A   1      16.034  49.578   5.999  1.00  0.00    +0.000 C 
ATOM     83  C58 UNL A   1      16.487  50.730   5.344  1.00  0.00    +0.000 C 
ATOM    117  H34 UNL A   1      16.242  51.658   5.725  1.00  0.00    +0.000 H 
ATOM     86  H3  UNL A   1      17.937  49.345   2.667  1.00  0.00    +0.000 H 
ATOM     87  H4  UNL A   1      17.065  47.336   3.703  1.00  0.00    +0.000 H 
BRANCH    2    1
ATOM      1  N1  UNL A   1      17.681  51.815   3.525  1.00  0.00    +0.000 N 
ATOM     84  H1  UNL A   1      17.255  52.676   3.736  1.00  0.00    +0.000 H 
ATOM     85  H2  UNL A   1      18.398  51.772   2.852  1.00  0.00    +0.000 H 
ENDBRANCH    2    1
BRANCH    5    6
ATOM      6  O1  UNL A   1      15.785  47.146   5.866  1.00  0.00    +0.000 O 
ATOM     88  H5  UNL A   1      16.136  46.338   5.547  1.00  0.00    +0.000 H 
ENDBRANCH    5    6
ENDBRANCH    8    7
ENDBRANCH   10    8
ENDBRANCH   11   10
ENDBRANCH   12   11
ENDBRANCH   13   12
ENDBRANCH   14   13
ENDBRANCH   15   14
ENDBRANCH   16   15
ENDBRANCH   17   16
ENDBRANCH   18   17
ENDBRANCH   20   18
ENDBRANCH   24   23
BRANCH   28   29
ATOM     33  F2  UNL A   1      19.627  45.897  -1.056  1.00  0.00    +0.000 F 
ATOM     34  C25 UNL A   1      17.900  46.253  -2.627  1.00  0.00    +0.000 C 
ATOM     35  F3  UNL A   1      18.304  45.190  -3.334  1.00  0.00    +0.000 F 
ATOM     36  C26 UNL A   1      16.817  47.006  -3.059  1.00  0.00    +0.000 C 
ATOM     37  F4  UNL A   1      16.166  46.656  -4.178  1.00  0.00    +0.000 F 
ATOM     38  C27 UNL A   1      16.407  48.121  -2.335  1.00  0.00    +0.000 C 
ATOM     39  F5  UNL A   1      15.364  48.834  -2.785  1.00  0.00    +0.000 F 
ATOM     29  C22 UNL A   1      17.060  48.493  -1.150  1.00  0.00    +0.000 C 
ATOM     30  C23 UNL A   1      18.142  47.708  -0.722  1.00  0.00    +0.000 C 
ATOM     31  F1  UNL A   1      18.806  48.029   0.398  1.00  0.00    +0.000 F 
ATOM     32  C24 UNL A   1      18.566  46.609  -1.463  1.00  0.00    +0.000 C 
ENDBRANCH   28   29
BRANCH   45   46
ATOM     46  C33 UNL A   1      18.470  55.529  -0.517  1.00  0.00    +0.000 C 
ATOM     47  C34 UNL A   1      19.668  55.941   0.083  1.00  0.00    +0.000 C 
ATOM     48  F6  UNL A   1      20.019  55.465   1.287  1.00  0.00    +0.000 F 
ATOM     49  C35 UNL A   1      20.493  56.876  -0.539  1.00  0.00    +0.000 C 
ATOM     50  F7  UNL A   1      21.612  57.288   0.072  1.00  0.00    +0.000 F 
ATOM     51  C36 UNL A   1      20.150  57.390  -1.780  1.00  0.00    +0.000 C 
ATOM     52  F8  UNL A   1      20.948  58.285  -2.379  1.00  0.00    +0.000 F 
ATOM     53  C37 UNL A   1      18.977  56.983  -2.398  1.00  0.00    +0.000 C 
ATOM     54  F9  UNL A   1      18.651  57.470  -3.603  1.00  0.00    +0.000 F 
ATOM     55  C38 UNL A   1      18.138  56.069  -1.768  1.00  0.00    +0.000 C 
ATOM     56  F10 UNL A   1      17.005  55.701  -2.384  1.00  0.00    +0.000 F 
ENDBRANCH   45   46
BRANCH   60   61
ATOM     65  F12 UNL A   1      14.468  57.349   7.911  1.00  0.00    +0.000 F 
ATOM     66  C45 UNL A   1      12.900  58.037   6.284  1.00  0.00    +0.000 C 
ATOM     67  F13 UNL A   1      12.474  59.021   7.088  1.00  0.00    +0.000 F 
ATOM     68  C46 UNL A   1      12.318  57.855   5.038  1.00  0.00    +0.000 C 
ATOM     69  F14 UNL A   1      11.341  58.675   4.630  1.00  0.00    +0.000 F 
ATOM     70  C47 UNL A   1      12.744  56.817   4.212  1.00  0.00    +0.000 C 
ATOM     71  F15 UNL A   1      12.153  56.655   3.019  1.00  0.00    +0.000 F 
ATOM     61  C42 UNL A   1      13.777  55.955   4.607  1.00  0.00    +0.000 C 
ATOM     62  C43 UNL A   1      14.364  56.172   5.862  1.00  0.00    +0.000 C 
ATOM     63  F11 UNL A   1      15.342  55.360   6.292  1.00  0.00    +0.000 F 
ATOM     64  C44 UNL A   1      13.919  57.193   6.698  1.00  0.00    +0.000 C 
ENDBRANCH   60   61
TORSDOF 17
ENDMDL
MODEL 9
REMARK VINA RESULT:     -10.4     19.432     25.699
ROOT
ATOM     24  C18 UNL A   1      38.128  29.762  29.927  1.00  0.00    +0.000 C 
ATOM     25  C19 UNL A   1      38.383  30.317  31.300  1.00  0.00    +0.000 C 
ATOM     26  N4  UNL A   1      39.437  30.185  32.063  1.00  0.00    +0.000 N 
ATOM     27  C20 UNL A   1      39.175  30.936  33.202  1.00  0.00    +0.000 C 
ATOM     28  C21 UNL A   1      39.937  31.080  34.313  1.00  0.00    +0.000 C 
ATOM     40  C28 UNL A   1      41.207  30.432  34.515  1.00  0.00    +0.000 C 
ATOM     41  C29 UNL A   1      42.021  30.460  35.634  1.00  0.00    +0.000 C 
ATOM     42  C30 UNL A   1      43.169  29.711  35.357  1.00  0.00    +0.000 C 
ATOM     43  C31 UNL A   1      43.051  29.182  34.081  1.00  0.00    +0.000 C 
ATOM     44  N5  UNL A   1      41.844  29.636  33.575  1.00  0.00    +0.000 N 
ATOM     45  C32 UNL A   1      43.970  28.329  33.376  1.00  0.00    +0.000 C 
ATOM     57  C39 UNL A   1      43.779  27.845  32.124  1.00  0.00    +0.000 C 
ATOM     58  N6  UNL A   1      42.701  28.036  31.271  1.00  0.00    +0.000 N 
ATOM     59  C40 UNL A   1      42.987  27.375  30.176  1.00  0.00    +0.000 C 
ATOM     60  C41 UNL A   1      42.167  27.208  28.926  1.00  0.00    +0.000 C 
ATOM     72  C48 UNL A   1      40.949  27.777  28.857  1.00  0.00    +0.000 C 
ATOM     73  C49 UNL A   1      40.040  27.697  27.717  1.00  0.00    +0.000 C 
ATOM     74  C50 UNL A   1      38.939  28.418  27.984  1.00  0.00    +0.000 C 
ATOM     75  C51 UNL A   1      39.050  28.983  29.330  1.00  0.00    +0.000 C 
ATOM     76  N7  UNL A   1      40.273  28.542  29.775  1.00  0.00    +0.000 N 
ATOM     77  C52 UNL A   1      44.299  26.712  30.201  1.00  0.00    +0.000 C 
ATOM     78  C53 UNL A   1      44.721  26.998  31.424  1.00  0.00    +0.000 C 
ATOM     79  C54 UNL A   1      37.881  31.554  33.014  1.00  0.00    +0.000 C 
ATOM     80  C55 UNL A   1      37.321  31.155  31.880  1.00  0.00    +0.000 C 
ATOM    105  H22 UNL A   1      41.817  30.949  36.518  1.00  0.00    +0.000 H 
ATOM    106  H23 UNL A   1      43.970  29.574  35.995  1.00  0.00    +0.000 H 
ATOM    107  H24 UNL A   1      41.491  29.426  32.680  1.00  0.00    +0.000 H 
ATOM    108  H25 UNL A   1      40.215  27.173  26.846  1.00  0.00    +0.000 H 
ATOM    109  H26 UNL A   1      38.141  28.553  27.344  1.00  0.00    +0.000 H 
ATOM    110  H27 UNL A   1      40.630  28.755  30.667  1.00  0.00    +0.000 H 
ATOM    111  H28 UNL A   1      44.767  26.168  29.461  1.00  0.00    +0.000 H 
ATOM    112  H29 UNL A   1      45.609  26.659  31.827  1.00  0.00    +0.000 H 
ATOM    113  H30 UNL A   1      37.449  32.219  33.674  1.00  0.00    +0.000 H 
ATOM    114  H31 UNL A   1      36.385  31.373  31.505  1.00  0.00    +0.000 H 
ENDROOT
BRANCH   24   23
ATOM    103  H20 UNL A   1      33.896  28.907  28.267  1.00  0.00    +0.000 H 
ATOM    104  H21 UNL A   1      35.863  28.314  29.561  1.00  0.00    +0.000 H 
ATOM     81  C56 UNL A   1      36.790  31.392  28.593  1.00  0.00    +0.000 C 
ATOM     82  C57 UNL A   1      35.630  31.758  27.913  1.00  0.00    +0.000 C 
ATOM    115  H32 UNL A   1      37.578  32.055  28.657  1.00  0.00    +0.000 H 
ATOM     20  C14 UNL A   1      34.597  30.832  27.746  1.00  0.00    +0.000 C 
ATOM     21  C15 UNL A   1      34.676  29.576  28.358  1.00  0.00    +0.000 C 
ATOM    116  H33 UNL A   1      35.534  32.712  27.532  1.00  0.00    +0.000 H 
ATOM     22  C16 UNL A   1      35.814  29.231  29.091  1.00  0.00    +0.000 C 
ATOM     23  C17 UNL A   1      36.891  30.127  29.193  1.00  0.00    +0.000 C 
BRANCH   20   18
ATOM     18  C13 UNL A   1      33.390  31.166  26.958  1.00  0.00    +0.000 C 
ATOM     19  O3  UNL A   1      32.753  32.177  27.218  1.00  0.00    +0.000 O 
BRANCH   18   17
ATOM     17  N3  UNL A   1      32.984  30.337  25.938  1.00  0.00    +0.000 N 
ATOM    102  H19 UNL A   1      33.664  30.146  25.253  1.00  0.00    +0.000 H 
BRANCH   17   16
ATOM    100  H17 UNL A   1      30.980  30.148  26.398  1.00  0.00    +0.000 H 
ATOM    101  H18 UNL A   1      31.408  29.855  24.710  1.00  0.00    +0.000 H 
ATOM     16  C12 UNL A   1      31.691  29.706  25.732  1.00  0.00    +0.000 C 
BRANCH   16   15
ATOM     98  H15 UNL A   1      31.425  28.028  27.000  1.00  0.00    +0.000 H 
ATOM     99  H16 UNL A   1      31.102  27.746  25.268  1.00  0.00    +0.000 H 
ATOM     15  C11 UNL A   1      31.742  28.203  25.993  1.00  0.00    +0.000 C 
BRANCH   15   14
ATOM     97  H14 UNL A   1      33.738  27.967  26.594  1.00  0.00    +0.000 H 
ATOM     14  C10 UNL A   1      33.126  27.572  25.811  1.00  0.00    +0.000 C 
ATOM     96  H13 UNL A   1      33.475  27.819  24.829  1.00  0.00    +0.000 H 
BRANCH   14   13
ATOM     13  C9  UNL A   1      33.172  26.046  25.962  1.00  0.00    +0.000 C 
ATOM     94  H11 UNL A   1      33.109  25.814  27.005  1.00  0.00    +0.000 H 
ATOM     95  H12 UNL A   1      32.351  25.665  25.390  1.00  0.00    +0.000 H 
BRANCH   13   12
ATOM     92  H9  UNL A   1      35.134  26.133  25.127  1.00  0.00    +0.000 H 
ATOM     12  C8  UNL A   1      34.434  25.371  25.399  1.00  0.00    +0.000 C 
ATOM     93  H10 UNL A   1      34.815  24.727  26.163  1.00  0.00    +0.000 H 
BRANCH   12   11
ATOM     90  H7  UNL A   1      35.033  23.933  23.935  1.00  0.00    +0.000 H 
ATOM     11  C7  UNL A   1      34.159  24.504  24.169  1.00  0.00    +0.000 C 
ATOM     91  H8  UNL A   1      33.342  23.845  24.379  1.00  0.00    +0.000 H 
BRANCH   11   10
ATOM     89  H6  UNL A   1      34.553  25.930  22.754  1.00  0.00    +0.000 H 
ATOM     10  N2  UNL A   1      33.816  25.342  23.037  1.00  0.00    +0.000 N 
BRANCH   10    8
ATOM      9  O2  UNL A   1      32.723  25.024  21.132  1.00  0.00    +0.000 O 
ATOM      8  C6  UNL A   1      32.688  25.491  22.275  1.00  0.00    +0.000 C 
BRANCH    8    7
ATOM      2  C1  UNL A   1      29.991  28.185  22.677  1.00  0.00    +0.000 C 
ATOM      3  C2  UNL A   1      29.085  27.503  23.490  1.00  0.00    +0.000 C 
ATOM      4  C3  UNL A   1      29.343  26.194  23.889  1.00  0.00    +0.000 C 
ATOM      5  C4  UNL A   1      30.518  25.566  23.482  1.00  0.00    +0.000 C 
ATOM      7  C5  UNL A   1      31.466  26.237  22.687  1.00  0.00    +0.000 C 
ATOM     83  C58 UNL A   1      31.215  27.577  22.363  1.00  0.00    +0.000 C 
ATOM    117  H34 UNL A   1      31.945  28.127  21.882  1.00  0.00    +0.000 H 
ATOM     86  H3  UNL A   1      28.219  27.971  23.797  1.00  0.00    +0.000 H 
ATOM     87  H4  UNL A   1      28.666  25.691  24.483  1.00  0.00    +0.000 H 
BRANCH    2    1
ATOM      1  N1  UNL A   1      29.775  29.536  22.373  1.00  0.00    +0.000 N 
ATOM     84  H1  UNL A   1      30.021  29.887  21.487  1.00  0.00    +0.000 H 
ATOM     85  H2  UNL A   1      29.377  30.134  23.046  1.00  0.00    +0.000 H 
ENDBRANCH    2    1
BRANCH    5    6
ATOM      6  O1  UNL A   1      30.681  24.280  23.931  1.00  0.00    +0.000 O 
ATOM     88  H5  UNL A   1      30.767  24.112  24.848  1.00  0.00    +0.000 H 
ENDBRANCH    5    6
ENDBRANCH    8    7
ENDBRANCH   10    8
ENDBRANCH   11   10
ENDBRANCH   12   11
ENDBRANCH   13   12
ENDBRANCH   14   13
ENDBRANCH   15   14
ENDBRANCH   16   15
ENDBRANCH   17   16
ENDBRANCH   18   17
ENDBRANCH   20   18
ENDBRANCH   24   23
BRANCH   28   29
ATOM     33  F2  UNL A   1      37.224  31.845  38.321  1.00  0.00    +0.000 F 
ATOM     34  C25 UNL A   1      38.523  33.632  37.486  1.00  0.00    +0.000 C 
ATOM     35  F3  UNL A   1      38.092  34.426  38.475  1.00  0.00    +0.000 F 
ATOM     36  C26 UNL A   1      39.399  34.124  36.530  1.00  0.00    +0.000 C 
ATOM     37  F4  UNL A   1      39.828  35.393  36.606  1.00  0.00    +0.000 F 
ATOM     38  C27 UNL A   1      39.834  33.305  35.492  1.00  0.00    +0.000 C 
ATOM     39  F5  UNL A   1      40.673  33.814  34.577  1.00  0.00    +0.000 F 
ATOM     29  C22 UNL A   1      39.417  31.969  35.404  1.00  0.00    +0.000 C 
ATOM     30  C23 UNL A   1      38.544  31.486  36.391  1.00  0.00    +0.000 C 
ATOM     31  F1  UNL A   1      38.107  30.219  36.344  1.00  0.00    +0.000 F 
ATOM     32  C24 UNL A   1      38.090  32.316  37.412  1.00  0.00    +0.000 C 
ENDBRANCH   28   29
BRANCH   45   46
ATOM     46  C33 UNL A   1      45.230  27.923  34.083  1.00  0.00    +0.000 C 
ATOM     47  C34 UNL A   1      46.396  28.696  34.006  1.00  0.00    +0.000 C 
ATOM     48  F6  UNL A   1      46.425  29.801  33.244  1.00  0.00    +0.000 F 
ATOM     49  C35 UNL A   1      47.551  28.315  34.683  1.00  0.00    +0.000 C 
ATOM     50  F7  UNL A   1      48.669  29.046  34.562  1.00  0.00    +0.000 F 
ATOM     51  C36 UNL A   1      47.551  27.174  35.472  1.00  0.00    +0.000 C 
ATOM     52  F8  UNL A   1      48.663  26.813  36.128  1.00  0.00    +0.000 F 
ATOM     53  C37 UNL A   1      46.403  26.404  35.575  1.00  0.00    +0.000 C 
ATOM     54  F9  UNL A   1      46.399  25.309  36.346  1.00  0.00    +0.000 F 
ATOM     55  C38 UNL A   1      45.254  26.768  34.878  1.00  0.00    +0.000 C 
ATOM     56  F10 UNL A   1      44.161  25.998  34.988  1.00  0.00    +0.000 F 
ENDBRANCH   45   46
BRANCH   60   61
ATOM     65  F12 UNL A   1      42.540  22.971  26.546  1.00  0.00    +0.000 F 
ATOM     66  C45 UNL A   1      43.657  24.851  25.656  1.00  0.00    +0.000 C 
ATOM     67  F13 UNL A   1      44.135  24.109  24.647  1.00  0.00    +0.000 F 
ATOM     68  C46 UNL A   1      43.986  26.196  25.747  1.00  0.00    +0.000 C 
ATOM     69  F14 UNL A   1      44.766  26.759  24.815  1.00  0.00    +0.000 F 
ATOM     70  C47 UNL A   1      43.510  26.961  26.809  1.00  0.00    +0.000 C 
ATOM     71  F15 UNL A   1      43.855  28.255  26.880  1.00  0.00    +0.000 F 
ATOM     61  C42 UNL A   1      42.676  26.402  27.788  1.00  0.00    +0.000 C 
ATOM     62  C43 UNL A   1      42.342  25.046  27.663  1.00  0.00    +0.000 C 
ATOM     63  F11 UNL A   1      41.564  24.462  28.587  1.00  0.00    +0.000 F 
ATOM     64  C44 UNL A   1      42.840  24.275  26.615  1.00  0.00    +0.000 C 
ENDBRANCH   60   61
TORSDOF 17
ENDMDL
MODEL 10
REMARK VINA RESULT:     -10.4     46.559     51.653
ROOT
ATOM     24  C18 UNL A   1      13.803  54.093   5.216  1.00  0.00    +0.000 C 
ATOM     25  C19 UNL A   1      13.421  52.646   5.355  1.00  0.00    +0.000 C 
ATOM     26  N4  UNL A   1      13.800  51.617   4.642  1.00  0.00    +0.000 N 
ATOM     27  C20 UNL A   1      13.193  50.511   5.222  1.00  0.00    +0.000 C 
ATOM     28  C21 UNL A   1      13.234  49.217   4.820  1.00  0.00    +0.000 C 
ATOM     40  C28 UNL A   1      13.939  48.752   3.654  1.00  0.00    +0.000 C 
ATOM     41  C29 UNL A   1      13.983  47.473   3.126  1.00  0.00    +0.000 C 
ATOM     42  C30 UNL A   1      14.822  47.492   2.007  1.00  0.00    +0.000 C 
ATOM     43  C31 UNL A   1      15.266  48.790   1.814  1.00  0.00    +0.000 C 
ATOM     44  N5  UNL A   1      14.721  49.552   2.834  1.00  0.00    +0.000 N 
ATOM     45  C32 UNL A   1      16.127  49.299   0.779  1.00  0.00    +0.000 C 
ATOM     57  C39 UNL A   1      16.514  50.591   0.653  1.00  0.00    +0.000 C 
ATOM     58  N6  UNL A   1      16.182  51.682   1.445  1.00  0.00    +0.000 N 
ATOM     59  C40 UNL A   1      16.810  52.709   0.925  1.00  0.00    +0.000 C 
ATOM     60  C41 UNL A   1      16.792  54.150   1.356  1.00  0.00    +0.000 C 
ATOM     72  C48 UNL A   1      16.033  54.513   2.407  1.00  0.00    +0.000 C 
ATOM     73  C49 UNL A   1      15.911  55.868   2.935  1.00  0.00    +0.000 C 
ATOM     74  C50 UNL A   1      15.106  55.849   4.010  1.00  0.00    +0.000 C 
ATOM     75  C51 UNL A   1      14.628  54.482   4.225  1.00  0.00    +0.000 C 
ATOM     76  N7  UNL A   1      15.224  53.760   3.221  1.00  0.00    +0.000 N 
ATOM     77  C52 UNL A   1      17.639  52.376  -0.243  1.00  0.00    +0.000 C 
ATOM     78  C53 UNL A   1      17.392  51.083  -0.389  1.00  0.00    +0.000 C 
ATOM     79  C54 UNL A   1      12.454  50.987   6.370  1.00  0.00    +0.000 C 
ATOM     80  C55 UNL A   1      12.510  52.308   6.461  1.00  0.00    +0.000 C 
ATOM    105  H22 UNL A   1      13.484  46.650   3.495  1.00  0.00    +0.000 H 
ATOM    106  H23 UNL A   1      15.068  46.677   1.423  1.00  0.00    +0.000 H 
ATOM    107  H24 UNL A   1      14.866  50.518   2.959  1.00  0.00    +0.000 H 
ATOM    108  H25 UNL A   1      16.369  56.707   2.546  1.00  0.00    +0.000 H 
ATOM    109  H26 UNL A   1      14.863  56.666   4.592  1.00  0.00    +0.000 H 
ATOM    110  H27 UNL A   1      15.084  52.793   3.096  1.00  0.00    +0.000 H 
ATOM    111  H28 UNL A   1      18.252  52.989  -0.801  1.00  0.00    +0.000 H 
ATOM    112  H29 UNL A   1      17.776  50.499  -1.149  1.00  0.00    +0.000 H 
ATOM    113  H30 UNL A   1      11.948  50.378   7.033  1.00  0.00    +0.000 H 
ATOM    114  H31 UNL A   1      12.039  52.935   7.131  1.00  0.00    +0.000 H 
ENDROOT
BRANCH   24   23
ATOM    103  H20 UNL A   1      10.738  57.112   6.914  1.00  0.00    +0.000 H 
ATOM    104  H21 UNL A   1      11.436  55.414   5.326  1.00  0.00    +0.000 H 
ATOM     81  C56 UNL A   1      14.157  55.432   7.291  1.00  0.00    +0.000 C 
ATOM     82  C57 UNL A   1      13.725  56.353   8.242  1.00  0.00    +0.000 C 
ATOM    115  H32 UNL A   1      15.090  55.001   7.382  1.00  0.00    +0.000 H 
ATOM     20  C14 UNL A   1      12.501  57.007   8.075  1.00  0.00    +0.000 C 
ATOM     21  C15 UNL A   1      11.658  56.657   7.015  1.00  0.00    +0.000 C 
ATOM    116  H33 UNL A   1      14.307  56.553   9.070  1.00  0.00    +0.000 H 
ATOM     22  C16 UNL A   1      12.066  55.689   6.094  1.00  0.00    +0.000 C 
ATOM     23  C17 UNL A   1      13.330  55.088   6.210  1.00  0.00    +0.000 C 
BRANCH   20   18
ATOM     18  C13 UNL A   1      12.054  58.050   9.026  1.00  0.00    +0.000 C 
ATOM     19  O3  UNL A   1      12.650  59.117   9.084  1.00  0.00    +0.000 O 
BRANCH   18   17
ATOM     17  N3  UNL A   1      10.975  57.816   9.845  1.00  0.00    +0.000 N 
ATOM    102  H19 UNL A   1      10.129  58.227   9.558  1.00  0.00    +0.000 H 
BRANCH   17   16
ATOM    100  H17 UNL A   1      11.871  57.073  11.551  1.00  0.00    +0.000 H 
ATOM    101  H18 UNL A   1      10.160  57.482  11.702  1.00  0.00    +0.000 H 
ATOM     16  C12 UNL A   1      10.912  57.046  11.077  1.00  0.00    +0.000 C 
BRANCH   16   15
ATOM     98  H15 UNL A   1       9.681  55.356  11.430  1.00  0.00    +0.000 H 
ATOM     99  H16 UNL A   1      10.326  55.510   9.773  1.00  0.00    +0.000 H 
ATOM     15  C11 UNL A   1      10.529  55.591  10.821  1.00  0.00    +0.000 C 
BRANCH   15   14
ATOM     97  H14 UNL A   1      11.247  53.936  11.889  1.00  0.00    +0.000 H 
ATOM     14  C10 UNL A   1      11.636  54.578  11.128  1.00  0.00    +0.000 C 
ATOM     96  H13 UNL A   1      12.507  55.122  11.432  1.00  0.00    +0.000 H 
BRANCH   14   13
ATOM     13  C9  UNL A   1      12.029  53.666   9.959  1.00  0.00    +0.000 C 
ATOM     94  H11 UNL A   1      11.317  52.869   9.907  1.00  0.00    +0.000 H 
ATOM     95  H12 UNL A   1      12.039  54.287   9.087  1.00  0.00    +0.000 H 
BRANCH   13   12
ATOM     92  H9  UNL A   1      13.635  52.517   9.151  1.00  0.00    +0.000 H 
ATOM     12  C8  UNL A   1      13.432  53.045  10.058  1.00  0.00    +0.000 C 
ATOM     93  H10 UNL A   1      14.122  53.846  10.223  1.00  0.00    +0.000 H 
BRANCH   12   11
ATOM     90  H7  UNL A   1      14.550  52.187  11.667  1.00  0.00    +0.000 H 
ATOM     11  C7  UNL A   1      13.581  52.070  11.230  1.00  0.00    +0.000 C 
ATOM     91  H8  UNL A   1      12.826  52.280  11.959  1.00  0.00    +0.000 H 
BRANCH   11   10
ATOM     89  H6  UNL A   1      12.506  50.368  10.857  1.00  0.00    +0.000 H 
ATOM     10  N2  UNL A   1      13.426  50.707  10.763  1.00  0.00    +0.000 N 
BRANCH   10    8
ATOM      9  O2  UNL A   1      14.011  48.597  10.401  1.00  0.00    +0.000 O 
ATOM      8  C6  UNL A   1      14.283  49.789  10.218  1.00  0.00    +0.000 C 
BRANCH    8    7
ATOM      2  C1  UNL A   1      16.843  50.679   7.507  1.00  0.00    +0.000 C 
ATOM      3  C2  UNL A   1      17.996  50.782   8.286  1.00  0.00    +0.000 C 
ATOM      4  C3  UNL A   1      17.938  50.575   9.662  1.00  0.00    +0.000 C 
ATOM      5  C4  UNL A   1      16.723  50.254  10.262  1.00  0.00    +0.000 C 
ATOM      7  C5  UNL A   1      15.548  50.114   9.500  1.00  0.00    +0.000 C 
ATOM     83  C58 UNL A   1      15.650  50.254   8.111  1.00  0.00    +0.000 C 
ATOM    117  H34 UNL A   1      14.832  50.041   7.518  1.00  0.00    +0.000 H 
ATOM     86  H3  UNL A   1      18.897  51.013   7.840  1.00  0.00    +0.000 H 
ATOM     87  H4  UNL A   1      18.792  50.661  10.235  1.00  0.00    +0.000 H 
BRANCH    2    1
ATOM      1  N1  UNL A   1      16.932  50.780   6.112  1.00  0.00    +0.000 N 
ATOM     84  H1  UNL A   1      16.273  51.315   5.615  1.00  0.00    +0.000 H 
ATOM     85  H2  UNL A   1      17.654  50.316   5.631  1.00  0.00    +0.000 H 
ENDBRANCH    2    1
BRANCH    5    6
ATOM      6  O1  UNL A   1      16.772  50.066  11.621  1.00  0.00    +0.000 O 
ATOM     88  H5  UNL A   1      16.793  49.198  11.972  1.00  0.00    +0.000 H 
ENDBRANCH    5    6
ENDBRANCH    8    7
ENDBRANCH   10    8
ENDBRANCH   11   10
ENDBRANCH   12   11
ENDBRANCH   13   12
ENDBRANCH   14   13
ENDBRANCH   15   14
ENDBRANCH   16   15
ENDBRANCH   17   16
ENDBRANCH   18   17
ENDBRANCH   20   18
ENDBRANCH   24   23
BRANCH   28   29
ATOM     33  F2  UNL A   1      13.028  45.915   8.435  1.00  0.00    +0.000 F 
ATOM     34  C25 UNL A   1      11.053  46.385   7.229  1.00  0.00    +0.000 C 
ATOM     35  F3  UNL A   1      10.370  45.511   7.980  1.00  0.00    +0.000 F 
ATOM     36  C26 UNL A   1      10.414  47.075   6.208  1.00  0.00    +0.000 C 
ATOM     37  F4  UNL A   1       9.107  46.878   5.986  1.00  0.00    +0.000 F 
ATOM     38  C27 UNL A   1      11.127  47.970   5.416  1.00  0.00    +0.000 C 
ATOM     39  F5  UNL A   1      10.484  48.613   4.431  1.00  0.00    +0.000 F 
ATOM     29  C22 UNL A   1      12.490  48.209   5.644  1.00  0.00    +0.000 C 
ATOM     30  C23 UNL A   1      13.113  47.513   6.692  1.00  0.00    +0.000 C 
ATOM     31  F1  UNL A   1      14.418  47.697   6.943  1.00  0.00    +0.000 F 
ATOM     32  C24 UNL A   1      12.403  46.598   7.465  1.00  0.00    +0.000 C 
ENDBRANCH   28   29
BRANCH   45   46
ATOM     46  C33 UNL A   1      16.620  48.331  -0.257  1.00  0.00    +0.000 C 
ATOM     47  C34 UNL A   1      15.818  47.941  -1.338  1.00  0.00    +0.000 C 
ATOM     48  F6  UNL A   1      14.557  48.389  -1.439  1.00  0.00    +0.000 F 
ATOM     49  C35 UNL A   1      16.298  47.057  -2.301  1.00  0.00    +0.000 C 
ATOM     50  F7  UNL A   1      15.500  46.663  -3.303  1.00  0.00    +0.000 F 
ATOM     51  C36 UNL A   1      17.595  46.573  -2.216  1.00  0.00    +0.000 C 
ATOM     52  F8  UNL A   1      18.057  45.726  -3.148  1.00  0.00    +0.000 F 
ATOM     53  C37 UNL A   1      18.411  46.959  -1.164  1.00  0.00    +0.000 C 
ATOM     54  F9  UNL A   1      19.667  46.501  -1.088  1.00  0.00    +0.000 F 
ATOM     55  C38 UNL A   1      17.926  47.822  -0.186  1.00  0.00    +0.000 C 
ATOM     56  F10 UNL A   1      18.733  48.171   0.827  1.00  0.00    +0.000 F 
ENDBRANCH   45   46
BRANCH   60   61
ATOM     65  F12 UNL A   1      17.318  57.215  -2.397  1.00  0.00    +0.000 F 
ATOM     66  C45 UNL A   1      19.064  57.084  -0.812  1.00  0.00    +0.000 C 
ATOM     67  F13 UNL A   1      19.777  57.986  -1.500  1.00  0.00    +0.000 F 
ATOM     68  C46 UNL A   1      19.580  56.527   0.349  1.00  0.00    +0.000 C 
ATOM     69  F14 UNL A   1      20.785  56.905   0.794  1.00  0.00    +0.000 F 
ATOM     70  C47 UNL A   1      18.849  55.571   1.051  1.00  0.00    +0.000 C 
ATOM     71  F15 UNL A   1      19.379  55.038   2.162  1.00  0.00    +0.000 F 
ATOM     61  C42 UNL A   1      17.577  55.171   0.617  1.00  0.00    +0.000 C 
ATOM     62  C43 UNL A   1      17.068  55.763  -0.547  1.00  0.00    +0.000 C 
ATOM     63  F11 UNL A   1      15.864  55.396  -1.012  1.00  0.00    +0.000 F 
ATOM     64  C44 UNL A   1      17.811  56.699  -1.262  1.00  0.00    +0.000 C 
ENDBRANCH   60   61
TORSDOF 17
ENDMDL
