MODEL 1
REMARK VINA RESULT:     -11.1      0.000      0.000
ROOT
ATOM     19  C15 UNL A   1      38.344  30.912  30.352  1.00  0.00    +0.000 C 
ATOM     20  C16 UNL A   1      38.623  31.197  31.800  1.00  0.00    +0.000 C 
ATOM     21  N3  UNL A   1      39.561  30.709  32.574  1.00  0.00    +0.000 N 
ATOM     22  C17 UNL A   1      39.391  31.322  33.808  1.00  0.00    +0.000 C 
ATOM     23  C18 UNL A   1      40.075  31.109  34.958  1.00  0.00    +0.000 C 
ATOM     35  C25 UNL A   1      41.153  30.167  35.104  1.00  0.00    +0.000 C 
ATOM     36  C26 UNL A   1      41.875  29.848  36.241  1.00  0.00    +0.000 C 
ATOM     37  C27 UNL A   1      42.844  28.900  35.894  1.00  0.00    +0.000 C 
ATOM     38  C28 UNL A   1      42.700  28.599  34.550  1.00  0.00    +0.000 C 
ATOM     39  N4  UNL A   1      41.663  29.388  34.076  1.00  0.00    +0.000 N 
ATOM     40  C29 UNL A   1      43.450  27.663  33.755  1.00  0.00    +0.000 C 
ATOM     52  C36 UNL A   1      43.241  27.420  32.438  1.00  0.00    +0.000 C 
ATOM     53  N5  UNL A   1      42.305  27.987  31.585  1.00  0.00    +0.000 N 
ATOM     54  C37 UNL A   1      42.515  27.446  30.410  1.00  0.00    +0.000 C 
ATOM     55  C38 UNL A   1      41.780  27.667  29.116  1.00  0.00    +0.000 C 
ATOM     67  C45 UNL A   1      40.734  28.514  29.090  1.00  0.00    +0.000 C 
ATOM     68  C46 UNL A   1      39.917  28.814  27.918  1.00  0.00    +0.000 C 
ATOM     69  C47 UNL A   1      38.985  29.719  28.253  1.00  0.00    +0.000 C 
ATOM     70  C48 UNL A   1      39.121  30.044  29.674  1.00  0.00    +0.000 C 
ATOM     71  N6  UNL A   1      40.186  29.283  30.088  1.00  0.00    +0.000 N 
ATOM     72  C49 UNL A   1      43.629  26.488  30.382  1.00  0.00    +0.000 C 
ATOM     73  C50 UNL A   1      44.009  26.478  31.651  1.00  0.00    +0.000 C 
ATOM     74  C51 UNL A   1      38.292  32.253  33.670  1.00  0.00    +0.000 C 
ATOM     75  C52 UNL A   1      37.747  32.176  32.464  1.00  0.00    +0.000 C 
ATOM    112  H21 UNL A   1      41.724  30.242  37.183  1.00  0.00    +0.000 H 
ATOM    113  H22 UNL A   1      43.547  28.494  36.532  1.00  0.00    +0.000 H 
ATOM    114  H23 UNL A   1      41.338  29.394  33.147  1.00  0.00    +0.000 H 
ATOM    115  H24 UNL A   1      40.037  28.396  26.982  1.00  0.00    +0.000 H 
ATOM    116  H25 UNL A   1      38.285  30.123  27.612  1.00  0.00    +0.000 H 
ATOM    117  H26 UNL A   1      40.524  29.285  31.013  1.00  0.00    +0.000 H 
ATOM    118  H27 UNL A   1      44.016  25.961  29.583  1.00  0.00    +0.000 H 
ATOM    119  H28 UNL A   1      44.755  25.876  32.032  1.00  0.00    +0.000 H 
ATOM    120  H29 UNL A   1      37.975  32.895  34.413  1.00  0.00    +0.000 H 
ATOM    121  H30 UNL A   1      36.923  32.670  32.089  1.00  0.00    +0.000 H 
ENDROOT
BRANCH   19   18
ATOM     76  C53 UNL A   1      35.982  31.023  29.534  1.00  0.00    +0.000 C 
ATOM     77  C54 UNL A   1      34.942  31.689  28.886  1.00  0.00    +0.000 C 
ATOM    110  H19 UNL A   1      36.551  34.525  28.099  1.00  0.00    +0.000 H 
ATOM     15  C11 UNL A   1      35.132  32.992  28.416  1.00  0.00    +0.000 C 
ATOM     16  C12 UNL A   1      36.398  33.580  28.486  1.00  0.00    +0.000 C 
ATOM     17  C13 UNL A   1      37.456  32.889  29.082  1.00  0.00    +0.000 C 
ATOM    111  H20 UNL A   1      38.395  33.315  29.111  1.00  0.00    +0.000 H 
ATOM     18  C14 UNL A   1      37.247  31.617  29.641  1.00  0.00    +0.000 C 
ATOM    122  H31 UNL A   1      35.818  30.087  29.938  1.00  0.00    +0.000 H 
ATOM    123  H32 UNL A   1      34.032  31.220  28.753  1.00  0.00    +0.000 H 
BRANCH   15   13
ATOM     13  C10 UNL A   1      34.022  33.768  27.818  1.00  0.00    +0.000 C 
ATOM     14  O2  UNL A   1      34.236  34.899  27.390  1.00  0.00    +0.000 O 
BRANCH   13   12
ATOM     12  N2  UNL A   1      32.758  33.240  27.761  1.00  0.00    +0.000 N 
ATOM    109  H18 UNL A   1      32.431  32.839  28.600  1.00  0.00    +0.000 H 
BRANCH   12   11
ATOM     11  C9  UNL A   1      31.828  33.186  26.645  1.00  0.00    +0.000 C 
ATOM    108  H17 UNL A   1      32.371  33.435  25.758  1.00  0.00    +0.000 H 
ATOM    107  H16 UNL A   1      31.033  33.880  26.827  1.00  0.00    +0.000 H 
BRANCH   11   10
ATOM    105  H14 UNL A   1      30.413  31.688  27.132  1.00  0.00    +0.000 H 
ATOM     10  C8  UNL A   1      31.229  31.795  26.449  1.00  0.00    +0.000 C 
ATOM    106  H15 UNL A   1      30.937  31.742  25.421  1.00  0.00    +0.000 H 
BRANCH   10    9
ATOM      9  C7  UNL A   1      32.194  30.631  26.677  1.00  0.00    +0.000 C 
ATOM    103  H12 UNL A   1      32.987  30.713  25.963  1.00  0.00    +0.000 H 
ATOM    104  H13 UNL A   1      32.522  30.712  27.693  1.00  0.00    +0.000 H 
BRANCH    9    8
ATOM    101  H10 UNL A   1      30.627  29.247  27.029  1.00  0.00    +0.000 H 
ATOM    102  H11 UNL A   1      31.526  29.040  25.491  1.00  0.00    +0.000 H 
ATOM      8  C6  UNL A   1      31.580  29.237  26.542  1.00  0.00    +0.000 C 
BRANCH    8    7
ATOM     99  H8  UNL A   1      32.340  28.157  28.208  1.00  0.00    +0.000 H 
ATOM    100  H9  UNL A   1      31.989  27.187  26.746  1.00  0.00    +0.000 H 
ATOM      7  C5  UNL A   1      32.404  28.089  27.142  1.00  0.00    +0.000 C 
BRANCH    7    6
ATOM     97  H6  UNL A   1      34.179  29.073  26.475  1.00  0.00    +0.000 H 
ATOM     98  H7  UNL A   1      34.452  27.743  27.600  1.00  0.00    +0.000 H 
ATOM      6  C4  UNL A   1      33.889  28.082  26.756  1.00  0.00    +0.000 C 
BRANCH    6    5
ATOM      5  N1  UNL A   1      34.149  27.183  25.646  1.00  0.00    +0.000 N 
ATOM     96  H5  UNL A   1      34.582  26.322  25.850  1.00  0.00    +0.000 H 
BRANCH    5    3
ATOM      3  C3  UNL A   1      33.838  27.444  24.337  1.00  0.00    +0.000 C 
ATOM      4  O1  UNL A   1      34.482  28.339  23.790  1.00  0.00    +0.000 O 
BRANCH    3    2
ATOM      2  C2  UNL A   1      32.755  26.598  23.639  1.00  0.00    +0.000 C 
ATOM     95  H4  UNL A   1      32.528  25.782  24.295  1.00  0.00    +0.000 H 
BRANCH    2    1
ATOM      1  C1  UNL A   1      33.335  26.129  22.298  1.00  0.00    +0.000 C 
ATOM     92  H1  UNL A   1      32.607  26.269  21.527  1.00  0.00    +0.000 H 
ATOM     93  H2  UNL A   1      33.589  25.092  22.363  1.00  0.00    +0.000 H 
ATOM     94  H3  UNL A   1      34.212  26.698  22.069  1.00  0.00    +0.000 H 
ENDBRANCH    2    1
BRANCH    2   78
ATOM    137  H46 UNL A   1      28.118  26.958  24.284  1.00  0.00    +0.000 H 
ATOM     78  C55 UNL A   1      31.380  27.263  23.450  1.00  0.00    +0.000 C 
ATOM     79  C56 UNL A   1      31.215  28.380  22.609  1.00  0.00    +0.000 C 
ATOM     80  C57 UNL A   1      29.967  28.964  22.378  1.00  0.00    +0.000 C 
ATOM     81  C58 UNL A   1      28.823  28.465  22.994  1.00  0.00    +0.000 C 
ATOM     89  C65 UNL A   1      28.957  27.358  23.836  1.00  0.00    +0.000 C 
ATOM     90  C66 UNL A   1      30.214  26.781  24.083  1.00  0.00    +0.000 C 
ATOM     91 Br1  UNL A   1      30.224  25.377  25.373  1.00  0.00    +0.000 Br
ATOM    124  H33 UNL A   1      32.046  28.783  22.147  1.00  0.00    +0.000 H 
ATOM    125  H34 UNL A   1      29.892  29.774  21.744  1.00  0.00    +0.000 H 
BRANCH   81   82
ATOM     82  C59 UNL A   1      27.484  29.127  22.780  1.00  0.00    +0.000 C 
ATOM    126  H35 UNL A   1      26.866  28.896  23.621  1.00  0.00    +0.000 H 
ATOM    127  H36 UNL A   1      27.116  28.745  21.850  1.00  0.00    +0.000 H 
BRANCH   82   83
ATOM    129  H38 UNL A   1      28.659  30.848  24.438  1.00  0.00    +0.000 H 
ATOM    130  H39 UNL A   1      27.199  31.762  24.462  1.00  0.00    +0.000 H 
ATOM    131  H40 UNL A   1      29.825  32.544  23.447  1.00  0.00    +0.000 H 
ATOM    132  H41 UNL A   1      28.474  33.568  23.742  1.00  0.00    +0.000 H 
ATOM    133  H42 UNL A   1      29.283  33.111  21.235  1.00  0.00    +0.000 H 
ATOM    134  H43 UNL A   1      27.610  33.230  21.527  1.00  0.00    +0.000 H 
ATOM    135  H44 UNL A   1      29.297  30.692  21.347  1.00  0.00    +0.000 H 
ATOM     83  C60 UNL A   1      27.514  30.656  22.622  1.00  0.00    +0.000 C 
ATOM     84  C61 UNL A   1      28.011  31.452  23.839  1.00  0.00    +0.000 C 
ATOM     85  C62 UNL A   1      28.775  32.654  23.275  1.00  0.00    +0.000 C 
ATOM     86  C63 UNL A   1      28.480  32.663  21.783  1.00  0.00    +0.000 C 
ATOM     87  C64 UNL A   1      28.352  31.184  21.454  1.00  0.00    +0.000 C 
ATOM    128  H37 UNL A   1      26.469  30.817  22.459  1.00  0.00    +0.000 H 
BRANCH   87   88
ATOM    136  H45 UNL A   1      28.196  31.408  19.509  1.00  0.00    +0.000 H 
ATOM     88  O3  UNL A   1      27.694  30.976  20.218  1.00  0.00    +0.000 O 
ENDBRANCH   87   88
ENDBRANCH   82   83
ENDBRANCH   81   82
ENDBRANCH    2   78
ENDBRANCH    3    2
ENDBRANCH    5    3
ENDBRANCH    6    5
ENDBRANCH    7    6
ENDBRANCH    8    7
ENDBRANCH    9    8
ENDBRANCH   10    9
ENDBRANCH   11   10
ENDBRANCH   12   11
ENDBRANCH   13   12
ENDBRANCH   15   13
ENDBRANCH   19   18
BRANCH   23   24
ATOM     33  C24 UNL A   1      38.538  31.534  36.915  1.00  0.00    +0.000 C 
ATOM     34  F5  UNL A   1      37.837  30.438  36.588  1.00  0.00    +0.000 F 
ATOM     24  C19 UNL A   1      39.667  31.901  36.165  1.00  0.00    +0.000 C 
ATOM     25  C20 UNL A   1      40.361  33.059  36.548  1.00  0.00    +0.000 C 
ATOM     26  F1  UNL A   1      41.453  33.445  35.871  1.00  0.00    +0.000 F 
ATOM     27  C21 UNL A   1      39.951  33.811  37.646  1.00  0.00    +0.000 C 
ATOM     28  F2  UNL A   1      40.649  34.894  38.013  1.00  0.00    +0.000 F 
ATOM     29  C22 UNL A   1      38.825  33.436  38.364  1.00  0.00    +0.000 C 
ATOM     30  F3  UNL A   1      38.424  34.168  39.413  1.00  0.00    +0.000 F 
ATOM     31  C23 UNL A   1      38.116  32.302  37.997  1.00  0.00    +0.000 C 
ATOM     32  F4  UNL A   1      37.021  31.946  38.683  1.00  0.00    +0.000 F 
ENDBRANCH   23   24
BRANCH   40   41
ATOM     41  C30 UNL A   1      44.536  26.878  34.429  1.00  0.00    +0.000 C 
ATOM     42  C31 UNL A   1      45.844  27.375  34.531  1.00  0.00    +0.000 C 
ATOM     43  F6  UNL A   1      46.160  28.559  33.986  1.00  0.00    +0.000 F 
ATOM     44  C32 UNL A   1      46.844  26.633  35.153  1.00  0.00    +0.000 C 
ATOM     45  F7  UNL A   1      48.098  27.103  35.194  1.00  0.00    +0.000 F 
ATOM     46  C33 UNL A   1      46.548  25.399  35.714  1.00  0.00    +0.000 C 
ATOM     47  F8  UNL A   1      47.511  24.686  36.314  1.00  0.00    +0.000 F 
ATOM     48  C34 UNL A   1      45.256  24.899  35.644  1.00  0.00    +0.000 C 
ATOM     49  F9  UNL A   1      44.967  23.712  36.195  1.00  0.00    +0.000 F 
ATOM     50  C35 UNL A   1      44.260  25.626  34.999  1.00  0.00    +0.000 C 
ATOM     51  F10 UNL A   1      43.024  25.110  34.933  1.00  0.00    +0.000 F 
ENDBRANCH   40   41
BRANCH   55   56
ATOM     65  C44 UNL A   1      43.114  27.495  26.988  1.00  0.00    +0.000 C 
ATOM     66  F15 UNL A   1      43.638  28.707  27.224  1.00  0.00    +0.000 F 
ATOM     56  C39 UNL A   1      42.186  26.945  27.883  1.00  0.00    +0.000 C 
ATOM     57  C40 UNL A   1      41.664  25.678  27.586  1.00  0.00    +0.000 C 
ATOM     58  F11 UNL A   1      40.789  25.103  28.424  1.00  0.00    +0.000 F 
ATOM     59  C41 UNL A   1      42.074  24.978  26.455  1.00  0.00    +0.000 C 
ATOM     60  F12 UNL A   1      41.599  23.747  26.222  1.00  0.00    +0.000 F 
ATOM     61  C42 UNL A   1      42.991  25.543  25.582  1.00  0.00    +0.000 C 
ATOM     62  F13 UNL A   1      43.387  24.868  24.494  1.00  0.00    +0.000 F 
ATOM     63  C43 UNL A   1      43.504  26.805  25.842  1.00  0.00    +0.000 C 
ATOM     64  F14 UNL A   1      44.380  27.360  24.994  1.00  0.00    +0.000 F 
ENDBRANCH   55   56
TORSDOF 20
ENDMDL
MODEL 2
REMARK VINA RESULT:     -10.9      3.352      4.642
ROOT
ATOM     19  C15 UNL A   1      39.624  28.883  29.477  1.00  0.00    +0.000 C 
ATOM     20  C16 UNL A   1      40.418  29.737  30.426  1.00  0.00    +0.000 C 
ATOM     21  N3  UNL A   1      41.624  29.545  30.901  1.00  0.00    +0.000 N 
ATOM     22  C17 UNL A   1      41.892  30.641  31.709  1.00  0.00    +0.000 C 
ATOM     23  C18 UNL A   1      42.986  30.882  32.471  1.00  0.00    +0.000 C 
ATOM     35  C25 UNL A   1      44.118  30.000  32.573  1.00  0.00    +0.000 C 
ATOM     36  C26 UNL A   1      45.253  30.135  33.355  1.00  0.00    +0.000 C 
ATOM     37  C27 UNL A   1      46.094  29.047  33.101  1.00  0.00    +0.000 C 
ATOM     38  C28 UNL A   1      45.466  28.213  32.191  1.00  0.00    +0.000 C 
ATOM     39  N4  UNL A   1      44.259  28.812  31.871  1.00  0.00    +0.000 N 
ATOM     40  C29 UNL A   1      45.931  26.962  31.653  1.00  0.00    +0.000 C 
ATOM     52  C36 UNL A   1      45.249  26.197  30.765  1.00  0.00    +0.000 C 
ATOM     53  N5  UNL A   1      44.007  26.424  30.192  1.00  0.00    +0.000 N 
ATOM     54  C37 UNL A   1      43.793  25.415  29.385  1.00  0.00    +0.000 C 
ATOM     55  C38 UNL A   1      42.594  25.125  28.523  1.00  0.00    +0.000 C 
ATOM     67  C45 UNL A   1      41.547  25.970  28.546  1.00  0.00    +0.000 C 
ATOM     68  C46 UNL A   1      40.314  25.810  27.782  1.00  0.00    +0.000 C 
ATOM     69  C47 UNL A   1      39.505  26.852  28.029  1.00  0.00    +0.000 C 
ATOM     70  C48 UNL A   1      40.154  27.742  28.995  1.00  0.00    +0.000 C 
ATOM     71  N6  UNL A   1      41.361  27.139  29.244  1.00  0.00    +0.000 N 
ATOM     72  C49 UNL A   1      44.892  24.441  29.339  1.00  0.00    +0.000 C 
ATOM     73  C50 UNL A   1      45.735  24.942  30.230  1.00  0.00    +0.000 C 
ATOM     74  C51 UNL A   1      40.744  31.519  31.625  1.00  0.00    +0.000 C 
ATOM     75  C52 UNL A   1      39.782  30.981  30.889  1.00  0.00    +0.000 C 
ATOM    112  H21 UNL A   1      45.444  30.908  34.012  1.00  0.00    +0.000 H 
ATOM    113  H22 UNL A   1      47.024  28.892  33.521  1.00  0.00    +0.000 H 
ATOM    114  H23 UNL A   1      43.598  28.448  31.238  1.00  0.00    +0.000 H 
ATOM    115  H24 UNL A   1      40.098  25.021  27.151  1.00  0.00    +0.000 H 
ATOM    116  H25 UNL A   1      38.576  27.003  27.607  1.00  0.00    +0.000 H 
ATOM    117  H26 UNL A   1      42.031  27.507  29.864  1.00  0.00    +0.000 H 
ATOM    118  H27 UNL A   1      44.984  23.589  28.763  1.00  0.00    +0.000 H 
ATOM    119  H28 UNL A   1      46.623  24.497  30.507  1.00  0.00    +0.000 H 
ATOM    120  H29 UNL A   1      40.683  32.444  32.079  1.00  0.00    +0.000 H 
ATOM    121  H30 UNL A   1      38.835  31.339  30.692  1.00  0.00    +0.000 H 
ENDROOT
BRANCH   19   18
ATOM     76  C53 UNL A   1      38.102  29.836  27.735  1.00  0.00    +0.000 C 
ATOM     77  C54 UNL A   1      36.835  30.220  27.295  1.00  0.00    +0.000 C 
ATOM    110  H19 UNL A   1      35.064  29.390  30.021  1.00  0.00    +0.000 H 
ATOM     15  C11 UNL A   1      35.717  30.000  28.106  1.00  0.00    +0.000 C 
ATOM     16  C12 UNL A   1      35.884  29.511  29.404  1.00  0.00    +0.000 C 
ATOM     17  C13 UNL A   1      37.160  29.182  29.867  1.00  0.00    +0.000 C 
ATOM    111  H20 UNL A   1      37.284  28.843  30.834  1.00  0.00    +0.000 H 
ATOM     18  C14 UNL A   1      38.276  29.311  29.023  1.00  0.00    +0.000 C 
ATOM    122  H31 UNL A   1      38.915  29.938  27.107  1.00  0.00    +0.000 H 
ATOM    123  H32 UNL A   1      36.723  30.666  26.371  1.00  0.00    +0.000 H 
BRANCH   15   13
ATOM     13  C10 UNL A   1      34.347  30.298  27.632  1.00  0.00    +0.000 C 
ATOM     14  O2  UNL A   1      33.767  31.297  28.046  1.00  0.00    +0.000 O 
BRANCH   13   12
ATOM     12  N2  UNL A   1      33.718  29.453  26.754  1.00  0.00    +0.000 N 
ATOM    109  H18 UNL A   1      33.413  29.869  25.915  1.00  0.00    +0.000 H 
BRANCH   12   11
ATOM     11  C9  UNL A   1      33.435  28.033  26.880  1.00  0.00    +0.000 C 
ATOM    108  H17 UNL A   1      32.375  27.919  26.972  1.00  0.00    +0.000 H 
ATOM    107  H16 UNL A   1      33.948  27.657  27.741  1.00  0.00    +0.000 H 
BRANCH   11   10
ATOM    105  H14 UNL A   1      33.258  27.514  24.834  1.00  0.00    +0.000 H 
ATOM     10  C8  UNL A   1      33.883  27.236  25.657  1.00  0.00    +0.000 C 
ATOM    106  H15 UNL A   1      34.916  27.476  25.510  1.00  0.00    +0.000 H 
BRANCH   10    9
ATOM      9  C7  UNL A   1      33.818  25.715  25.809  1.00  0.00    +0.000 C 
ATOM    103  H12 UNL A   1      34.061  25.473  26.822  1.00  0.00    +0.000 H 
ATOM    104  H13 UNL A   1      32.825  25.432  25.527  1.00  0.00    +0.000 H 
BRANCH    9    8
ATOM    101  H10 UNL A   1      34.178  24.191  24.380  1.00  0.00    +0.000 H 
ATOM    102  H11 UNL A   1      35.215  25.647  24.251  1.00  0.00    +0.000 H 
ATOM      8  C6  UNL A   1      34.759  24.926  24.897  1.00  0.00    +0.000 C 
BRANCH    8    7
ATOM     99  H8  UNL A   1      36.735  24.888  25.678  1.00  0.00    +0.000 H 
ATOM    100  H9  UNL A   1      35.534  23.889  26.550  1.00  0.00    +0.000 H 
ATOM      7  C5  UNL A   1      35.915  24.205  25.603  1.00  0.00    +0.000 C 
BRANCH    7    6
ATOM     97  H6  UNL A   1      35.888  22.817  23.979  1.00  0.00    +0.000 H 
ATOM     98  H7  UNL A   1      37.468  23.046  24.726  1.00  0.00    +0.000 H 
ATOM      6  C4  UNL A   1      36.418  22.937  24.901  1.00  0.00    +0.000 C 
BRANCH    6    5
ATOM      5  N1  UNL A   1      36.214  21.755  25.718  1.00  0.00    +0.000 N 
ATOM     96  H5  UNL A   1      36.384  21.837  26.685  1.00  0.00    +0.000 H 
BRANCH    5    3
ATOM      3  C3  UNL A   1      35.802  20.536  25.245  1.00  0.00    +0.000 C 
ATOM      4  O1  UNL A   1      36.686  19.782  24.837  1.00  0.00    +0.000 O 
BRANCH    3    2
ATOM      2  C2  UNL A   1      34.304  20.180  25.287  1.00  0.00    +0.000 C 
ATOM     95  H4  UNL A   1      34.039  20.071  26.319  1.00  0.00    +0.000 H 
BRANCH    2    1
ATOM      1  C1  UNL A   1      34.120  18.880  24.494  1.00  0.00    +0.000 C 
ATOM     92  H1  UNL A   1      34.899  18.192  24.751  1.00  0.00    +0.000 H 
ATOM     93  H2  UNL A   1      34.165  19.092  23.446  1.00  0.00    +0.000 H 
ATOM     94  H3  UNL A   1      33.170  18.448  24.730  1.00  0.00    +0.000 H 
ENDBRANCH    2    1
BRANCH    2   78
ATOM    137  H46 UNL A   1      31.251  23.689  25.931  1.00  0.00    +0.000 H 
ATOM     78  C55 UNL A   1      33.326  21.268  24.808  1.00  0.00    +0.000 C 
ATOM     79  C56 UNL A   1      33.009  21.420  23.444  1.00  0.00    +0.000 C 
ATOM     80  C57 UNL A   1      32.081  22.362  22.993  1.00  0.00    +0.000 C 
ATOM     81  C58 UNL A   1      31.437  23.211  23.888  1.00  0.00    +0.000 C 
ATOM     89  C65 UNL A   1      31.734  23.085  25.248  1.00  0.00    +0.000 C 
ATOM     90  C66 UNL A   1      32.680  22.150  25.701  1.00  0.00    +0.000 C 
ATOM     91 Br1  UNL A   1      33.066  22.223  27.566  1.00  0.00    +0.000 Br
ATOM    124  H33 UNL A   1      33.480  20.814  22.753  1.00  0.00    +0.000 H 
ATOM    125  H34 UNL A   1      31.871  22.430  21.986  1.00  0.00    +0.000 H 
BRANCH   81   82
ATOM     82  C59 UNL A   1      30.472  24.260  23.394  1.00  0.00    +0.000 C 
ATOM    126  H35 UNL A   1      29.551  24.134  23.921  1.00  0.00    +0.000 H 
ATOM    127  H36 UNL A   1      30.393  24.108  22.337  1.00  0.00    +0.000 H 
BRANCH   82   83
ATOM    129  H38 UNL A   1      30.507  26.128  21.496  1.00  0.00    +0.000 H 
ATOM    130  H39 UNL A   1      32.129  26.498  21.945  1.00  0.00    +0.000 H 
ATOM    131  H40 UNL A   1      29.755  28.192  22.119  1.00  0.00    +0.000 H 
ATOM    132  H41 UNL A   1      31.397  28.680  22.280  1.00  0.00    +0.000 H 
ATOM    133  H42 UNL A   1      29.774  28.731  24.404  1.00  0.00    +0.000 H 
ATOM    134  H43 UNL A   1      31.393  28.261  24.644  1.00  0.00    +0.000 H 
ATOM    135  H44 UNL A   1      28.967  26.455  24.236  1.00  0.00    +0.000 H 
ATOM     83  C60 UNL A   1      30.923  25.719  23.572  1.00  0.00    +0.000 C 
ATOM     84  C61 UNL A   1      31.114  26.530  22.280  1.00  0.00    +0.000 C 
ATOM     85  C62 UNL A   1      30.677  27.961  22.609  1.00  0.00    +0.000 C 
ATOM     86  C63 UNL A   1      30.499  27.997  24.119  1.00  0.00    +0.000 C 
ATOM     87  C64 UNL A   1      30.009  26.592  24.436  1.00  0.00    +0.000 C 
ATOM    128  H37 UNL A   1      31.861  25.537  24.052  1.00  0.00    +0.000 H 
BRANCH   87   88
ATOM    136  H45 UNL A   1      30.844  25.606  25.916  1.00  0.00    +0.000 H 
ATOM     88  O3  UNL A   1      30.157  26.283  25.809  1.00  0.00    +0.000 O 
ENDBRANCH   87   88
ENDBRANCH   82   83
ENDBRANCH   81   82
ENDBRANCH    2   78
ENDBRANCH    3    2
ENDBRANCH    5    3
ENDBRANCH    6    5
ENDBRANCH    7    6
ENDBRANCH    8    7
ENDBRANCH    9    8
ENDBRANCH   10    9
ENDBRANCH   11   10
ENDBRANCH   12   11
ENDBRANCH   13   12
ENDBRANCH   15   13
ENDBRANCH   19   18
BRANCH   23   24
ATOM     33  C24 UNL A   1      42.455  32.190  34.562  1.00  0.00    +0.000 C 
ATOM     34  F5  UNL A   1      41.942  31.080  35.114  1.00  0.00    +0.000 F 
ATOM     24  C19 UNL A   1      43.009  32.149  33.273  1.00  0.00    +0.000 C 
ATOM     25  C20 UNL A   1      43.527  33.341  32.743  1.00  0.00    +0.000 C 
ATOM     26  F1  UNL A   1      44.077  33.350  31.520  1.00  0.00    +0.000 F 
ATOM     27  C21 UNL A   1      43.507  34.522  33.480  1.00  0.00    +0.000 C 
ATOM     28  F2  UNL A   1      44.038  35.640  32.967  1.00  0.00    +0.000 F 
ATOM     29  C22 UNL A   1      42.943  34.542  34.748  1.00  0.00    +0.000 C 
ATOM     30  F3  UNL A   1      42.913  35.682  35.451  1.00  0.00    +0.000 F 
ATOM     31  C23 UNL A   1      42.414  33.379  35.287  1.00  0.00    +0.000 C 
ATOM     32  F4  UNL A   1      41.859  33.399  36.507  1.00  0.00    +0.000 F 
ENDBRANCH   23   24
BRANCH   40   41
ATOM     41  C30 UNL A   1      47.263  26.447  32.115  1.00  0.00    +0.000 C 
ATOM     42  C31 UNL A   1      48.452  26.801  31.462  1.00  0.00    +0.000 C 
ATOM     43  F6  UNL A   1      48.417  27.585  30.373  1.00  0.00    +0.000 F 
ATOM     44  C32 UNL A   1      49.680  26.310  31.897  1.00  0.00    +0.000 C 
ATOM     45  F7  UNL A   1      50.799  26.619  31.228  1.00  0.00    +0.000 F 
ATOM     46  C33 UNL A   1      49.745  25.487  33.012  1.00  0.00    +0.000 C 
ATOM     47  F8  UNL A   1      50.928  25.017  33.431  1.00  0.00    +0.000 F 
ATOM     48  C34 UNL A   1      48.583  25.144  33.687  1.00  0.00    +0.000 C 
ATOM     49  F9  UNL A   1      48.645  24.357  34.770  1.00  0.00    +0.000 F 
ATOM     50  C35 UNL A   1      47.351  25.610  33.237  1.00  0.00    +0.000 C 
ATOM     51  F10 UNL A   1      46.242  25.247  33.900  1.00  0.00    +0.000 F 
ENDBRANCH   40   41
BRANCH   55   56
ATOM     65  C44 UNL A   1      42.896  23.960  26.312  1.00  0.00    +0.000 C 
ATOM     66  F15 UNL A   1      43.247  25.126  25.751  1.00  0.00    +0.000 F 
ATOM     56  C39 UNL A   1      42.553  23.909  27.670  1.00  0.00    +0.000 C 
ATOM     57  C40 UNL A   1      42.187  22.667  28.205  1.00  0.00    +0.000 C 
ATOM     58  F11 UNL A   1      41.872  22.565  29.505  1.00  0.00    +0.000 F 
ATOM     59  C41 UNL A   1      42.190  21.516  27.421  1.00  0.00    +0.000 C 
ATOM     60  F12 UNL A   1      41.886  20.332  27.970  1.00  0.00    +0.000 F 
ATOM     61  C42 UNL A   1      42.529  21.590  26.078  1.00  0.00    +0.000 C 
ATOM     62  F13 UNL A   1      42.533  20.483  25.324  1.00  0.00    +0.000 F 
ATOM     63  C43 UNL A   1      42.872  22.813  25.521  1.00  0.00    +0.000 C 
ATOM     64  F14 UNL A   1      43.187  22.891  24.221  1.00  0.00    +0.000 F 
ENDBRANCH   55   56
TORSDOF 20
ENDMDL
MODEL 3
REMARK VINA RESULT:     -10.8      1.742      2.684
ROOT
ATOM     19  C15 UNL A   1      38.274  29.900  29.996  1.00  0.00    +0.000 C 
ATOM     20  C16 UNL A   1      38.558  30.419  31.377  1.00  0.00    +0.000 C 
ATOM     21  N3  UNL A   1      39.595  30.196  32.147  1.00  0.00    +0.000 N 
ATOM     22  C17 UNL A   1      39.374  30.935  33.302  1.00  0.00    +0.000 C 
ATOM     23  C18 UNL A   1      40.128  30.992  34.426  1.00  0.00    +0.000 C 
ATOM     35  C25 UNL A   1      41.354  30.263  34.623  1.00  0.00    +0.000 C 
ATOM     36  C26 UNL A   1      42.163  30.221  35.745  1.00  0.00    +0.000 C 
ATOM     37  C27 UNL A   1      43.263  29.403  35.462  1.00  0.00    +0.000 C 
ATOM     38  C28 UNL A   1      43.118  28.904  34.178  1.00  0.00    +0.000 C 
ATOM     39  N4  UNL A   1      41.946  29.445  33.673  1.00  0.00    +0.000 N 
ATOM     40  C29 UNL A   1      43.982  28.003  33.464  1.00  0.00    +0.000 C 
ATOM     52  C36 UNL A   1      43.764  27.554  32.203  1.00  0.00    +0.000 C 
ATOM     53  N5  UNL A   1      42.714  27.842  31.344  1.00  0.00    +0.000 N 
ATOM     54  C37 UNL A   1      42.965  27.189  30.237  1.00  0.00    +0.000 C 
ATOM     55  C38 UNL A   1      42.153  27.113  28.972  1.00  0.00    +0.000 C 
ATOM     67  C45 UNL A   1      40.980  27.770  28.903  1.00  0.00    +0.000 C 
ATOM     68  C46 UNL A   1      40.078  27.773  27.756  1.00  0.00    +0.000 C 
ATOM     69  C47 UNL A   1      39.021  28.554  28.030  1.00  0.00    +0.000 C 
ATOM     70  C48 UNL A   1      39.158  29.085  29.388  1.00  0.00    +0.000 C 
ATOM     71  N6  UNL A   1      40.350  28.567  29.828  1.00  0.00    +0.000 N 
ATOM     72  C49 UNL A   1      44.222  26.427  30.262  1.00  0.00    +0.000 C 
ATOM     73  C50 UNL A   1      44.647  26.650  31.497  1.00  0.00    +0.000 C 
ATOM     74  C51 UNL A   1      38.130  31.651  33.115  1.00  0.00    +0.000 C 
ATOM     75  C52 UNL A   1      37.558  31.325  31.964  1.00  0.00    +0.000 C 
ATOM    112  H21 UNL A   1      41.986  30.709  36.637  1.00  0.00    +0.000 H 
ATOM    113  H22 UNL A   1      44.048  29.205  36.102  1.00  0.00    +0.000 H 
ATOM    114  H23 UNL A   1      41.587  29.273  32.772  1.00  0.00    +0.000 H 
ATOM    115  H24 UNL A   1      40.229  27.257  26.874  1.00  0.00    +0.000 H 
ATOM    116  H25 UNL A   1      38.239  28.750  27.387  1.00  0.00    +0.000 H 
ATOM    117  H26 UNL A   1      40.719  28.748  30.723  1.00  0.00    +0.000 H 
ATOM    118  H27 UNL A   1      44.659  25.866  29.513  1.00  0.00    +0.000 H 
ATOM    119  H28 UNL A   1      45.499  26.232  31.904  1.00  0.00    +0.000 H 
ATOM    120  H29 UNL A   1      37.740  32.328  33.789  1.00  0.00    +0.000 H 
ATOM    121  H30 UNL A   1      36.649  31.625  31.580  1.00  0.00    +0.000 H 
ENDROOT
BRANCH   19   18
ATOM     76  C53 UNL A   1      35.996  29.408  29.084  1.00  0.00    +0.000 C 
ATOM     77  C54 UNL A   1      34.833  29.800  28.421  1.00  0.00    +0.000 C 
ATOM    110  H19 UNL A   1      35.628  33.005  27.828  1.00  0.00    +0.000 H 
ATOM     15  C11 UNL A   1      34.673  31.129  28.017  1.00  0.00    +0.000 C 
ATOM     16  C12 UNL A   1      35.727  32.035  28.167  1.00  0.00    +0.000 C 
ATOM     17  C13 UNL A   1      36.916  31.626  28.776  1.00  0.00    +0.000 C 
ATOM    111  H20 UNL A   1      37.702  32.289  28.864  1.00  0.00    +0.000 H 
ATOM     18  C14 UNL A   1      37.047  30.317  29.270  1.00  0.00    +0.000 C 
ATOM    122  H31 UNL A   1      36.083  28.443  29.439  1.00  0.00    +0.000 H 
ATOM    123  H32 UNL A   1      34.091  29.109  28.229  1.00  0.00    +0.000 H 
BRANCH   15   13
ATOM     13  C10 UNL A   1      33.412  31.605  27.406  1.00  0.00    +0.000 C 
ATOM     14  O2  UNL A   1      33.225  32.810  27.264  1.00  0.00    +0.000 O 
BRANCH   13   12
ATOM     12  N2  UNL A   1      32.446  30.711  27.022  1.00  0.00    +0.000 N 
ATOM    109  H18 UNL A   1      31.863  30.385  27.746  1.00  0.00    +0.000 H 
BRANCH   12   11
ATOM     11  C9  UNL A   1      32.157  30.173  25.703  1.00  0.00    +0.000 C 
ATOM    108  H17 UNL A   1      32.133  30.993  25.016  1.00  0.00    +0.000 H 
ATOM    107  H16 UNL A   1      31.216  29.662  25.740  1.00  0.00    +0.000 H 
BRANCH   11   10
ATOM    105  H14 UNL A   1      33.100  29.060  24.168  1.00  0.00    +0.000 H 
ATOM     10  C8  UNL A   1      33.226  29.195  25.222  1.00  0.00    +0.000 C 
ATOM    106  H15 UNL A   1      34.167  29.631  25.488  1.00  0.00    +0.000 H 
BRANCH   10    9
ATOM      9  C7  UNL A   1      33.195  27.816  25.883  1.00  0.00    +0.000 C 
ATOM    103  H12 UNL A   1      33.654  27.901  26.846  1.00  0.00    +0.000 H 
ATOM    104  H13 UNL A   1      32.164  27.530  25.923  1.00  0.00    +0.000 H 
BRANCH    9    8
ATOM    101  H10 UNL A   1      33.314  26.452  24.265  1.00  0.00    +0.000 H 
ATOM    102  H11 UNL A   1      34.876  27.098  24.862  1.00  0.00    +0.000 H 
ATOM      8  C6  UNL A   1      33.913  26.706  25.114  1.00  0.00    +0.000 C 
BRANCH    8    7
ATOM     99  H8  UNL A   1      34.889  25.643  26.674  1.00  0.00    +0.000 H 
ATOM    100  H9  UNL A   1      33.231  25.098  26.281  1.00  0.00    +0.000 H 
ATOM      7  C5  UNL A   1      34.179  25.418  25.906  1.00  0.00    +0.000 C 
BRANCH    7    6
ATOM     97  H6  UNL A   1      34.618  24.474  24.040  1.00  0.00    +0.000 H 
ATOM     98  H7  UNL A   1      35.758  24.113  25.334  1.00  0.00    +0.000 H 
ATOM      6  C4  UNL A   1      34.728  24.247  25.080  1.00  0.00    +0.000 C 
BRANCH    6    5
ATOM      5  N1  UNL A   1      34.024  23.012  25.370  1.00  0.00    +0.000 N 
ATOM     96  H5  UNL A   1      33.872  22.786  26.316  1.00  0.00    +0.000 H 
BRANCH    5    3
ATOM      3  C3  UNL A   1      33.555  22.136  24.424  1.00  0.00    +0.000 C 
ATOM      4  O1  UNL A   1      34.307  21.210  24.117  1.00  0.00    +0.000 O 
BRANCH    3    2
ATOM      2  C2  UNL A   1      32.141  22.340  23.846  1.00  0.00    +0.000 C 
ATOM     95  H4  UNL A   1      31.478  21.734  24.430  1.00  0.00    +0.000 H 
BRANCH    2    1
ATOM      1  C1  UNL A   1      32.183  21.913  22.373  1.00  0.00    +0.000 C 
ATOM     92  H1  UNL A   1      33.103  22.239  21.934  1.00  0.00    +0.000 H 
ATOM     93  H2  UNL A   1      31.362  22.357  21.850  1.00  0.00    +0.000 H 
ATOM     94  H3  UNL A   1      32.115  20.847  22.308  1.00  0.00    +0.000 H 
ENDBRANCH    2    1
BRANCH    2   78
ATOM    137  H46 UNL A   1      29.627  25.624  26.069  1.00  0.00    +0.000 H 
ATOM     78  C55 UNL A   1      31.531  23.744  24.003  1.00  0.00    +0.000 C 
ATOM     79  C56 UNL A   1      31.657  24.715  22.990  1.00  0.00    +0.000 C 
ATOM     80  C57 UNL A   1      31.062  25.976  23.087  1.00  0.00    +0.000 C 
ATOM     81  C58 UNL A   1      30.327  26.332  24.213  1.00  0.00    +0.000 C 
ATOM     89  C65 UNL A   1      30.188  25.389  25.235  1.00  0.00    +0.000 C 
ATOM     90  C66 UNL A   1      30.800  24.127  25.147  1.00  0.00    +0.000 C 
ATOM     91 Br1  UNL A   1      30.628  23.031  26.698  1.00  0.00    +0.000 Br
ATOM    124  H33 UNL A   1      32.207  24.487  22.147  1.00  0.00    +0.000 H 
ATOM    125  H34 UNL A   1      31.170  26.652  22.315  1.00  0.00    +0.000 H 
BRANCH   81   82
ATOM     82  C59 UNL A   1      29.727  27.710  24.335  1.00  0.00    +0.000 C 
ATOM    126  H35 UNL A   1      30.450  28.343  24.805  1.00  0.00    +0.000 H 
ATOM    127  H36 UNL A   1      28.825  27.587  24.899  1.00  0.00    +0.000 H 
BRANCH   82   83
ATOM    129  H38 UNL A   1      27.417  28.953  23.878  1.00  0.00    +0.000 H 
ATOM    130  H39 UNL A   1      27.243  28.019  22.441  1.00  0.00    +0.000 H 
ATOM    131  H40 UNL A   1      27.555  30.911  22.711  1.00  0.00    +0.000 H 
ATOM    132  H41 UNL A   1      27.078  30.042  21.305  1.00  0.00    +0.000 H 
ATOM    133  H42 UNL A   1      29.452  31.269  21.377  1.00  0.00    +0.000 H 
ATOM    134  H43 UNL A   1      29.353  29.765  20.585  1.00  0.00    +0.000 H 
ATOM    135  H44 UNL A   1      30.239  30.309  23.455  1.00  0.00    +0.000 H 
ATOM     83  C60 UNL A   1      29.306  28.375  23.015  1.00  0.00    +0.000 C 
ATOM     84  C61 UNL A   1      27.828  28.785  22.905  1.00  0.00    +0.000 C 
ATOM     85  C62 UNL A   1      27.807  30.080  22.087  1.00  0.00    +0.000 C 
ATOM     86  C63 UNL A   1      29.215  30.238  21.535  1.00  0.00    +0.000 C 
ATOM     87  C64 UNL A   1      30.079  29.641  22.635  1.00  0.00    +0.000 C 
ATOM    128  H37 UNL A   1      29.529  27.565  22.353  1.00  0.00    +0.000 H 
BRANCH   87   88
ATOM    136  H45 UNL A   1      31.319  28.629  21.496  1.00  0.00    +0.000 H 
ATOM     88  O3  UNL A   1      31.378  29.324  22.169  1.00  0.00    +0.000 O 
ENDBRANCH   87   88
ENDBRANCH   82   83
ENDBRANCH   81   82
ENDBRANCH    2   78
ENDBRANCH    3    2
ENDBRANCH    5    3
ENDBRANCH    6    5
ENDBRANCH    7    6
ENDBRANCH    8    7
ENDBRANCH    9    8
ENDBRANCH   10    9
ENDBRANCH   11   10
ENDBRANCH   12   11
ENDBRANCH   13   12
ENDBRANCH   15   13
ENDBRANCH   19   18
BRANCH   23   24
ATOM     33  C24 UNL A   1      38.658  31.405  36.435  1.00  0.00    +0.000 C 
ATOM     34  F5  UNL A   1      38.175  30.157  36.324  1.00  0.00    +0.000 F 
ATOM     24  C19 UNL A   1      39.642  31.864  35.546  1.00  0.00    +0.000 C 
ATOM     25  C20 UNL A   1      40.109  33.178  35.704  1.00  0.00    +0.000 C 
ATOM     26  F1  UNL A   1      41.056  33.659  34.886  1.00  0.00    +0.000 F 
ATOM     27  C21 UNL A   1      39.621  33.993  36.722  1.00  0.00    +0.000 C 
ATOM     28  F2  UNL A   1      40.106  35.233  36.875  1.00  0.00    +0.000 F 
ATOM     29  C22 UNL A   1      38.640  33.522  37.582  1.00  0.00    +0.000 C 
ATOM     30  F3  UNL A   1      38.163  34.313  38.553  1.00  0.00    +0.000 F 
ATOM     31  C23 UNL A   1      38.155  32.231  37.436  1.00  0.00    +0.000 C 
ATOM     32  F4  UNL A   1      37.199  31.779  38.259  1.00  0.00    +0.000 F 
ENDBRANCH   23   24
BRANCH   40   41
ATOM     41  C30 UNL A   1      45.210  27.501  34.163  1.00  0.00    +0.000 C 
ATOM     42  C31 UNL A   1      45.191  26.323  34.924  1.00  0.00    +0.000 C 
ATOM     43  F6  UNL A   1      44.048  25.635  35.074  1.00  0.00    +0.000 F 
ATOM     44  C32 UNL A   1      46.336  25.872  35.574  1.00  0.00    +0.000 C 
ATOM     45  F7  UNL A   1      46.283  24.772  36.337  1.00  0.00    +0.000 F 
ATOM     46  C33 UNL A   1      47.528  26.570  35.447  1.00  0.00    +0.000 C 
ATOM     47  F8  UNL A   1      48.631  26.134  36.071  1.00  0.00    +0.000 F 
ATOM     48  C34 UNL A   1      47.575  27.725  34.680  1.00  0.00    +0.000 C 
ATOM     49  F9  UNL A   1      48.729  28.395  34.549  1.00  0.00    +0.000 F 
ATOM     50  C35 UNL A   1      46.425  28.193  34.052  1.00  0.00    +0.000 C 
ATOM     51  F10 UNL A   1      46.497  29.323  33.332  1.00  0.00    +0.000 F 
ENDBRANCH   40   41
BRANCH   55   56
ATOM     65  C44 UNL A   1      42.213  24.977  27.641  1.00  0.00    +0.000 C 
ATOM     66  F15 UNL A   1      41.397  24.402  28.536  1.00  0.00    +0.000 F 
ATOM     56  C39 UNL A   1      42.624  26.306  27.818  1.00  0.00    +0.000 C 
ATOM     57  C40 UNL A   1      43.482  26.857  26.857  1.00  0.00    +0.000 C 
ATOM     58  F11 UNL A   1      43.885  28.131  26.973  1.00  0.00    +0.000 F 
ATOM     59  C41 UNL A   1      43.891  26.119  25.749  1.00  0.00    +0.000 C 
ATOM     60  F12 UNL A   1      44.670  26.687  24.819  1.00  0.00    +0.000 F 
ATOM     61  C42 UNL A   1      43.475  24.805  25.596  1.00  0.00    +0.000 C 
ATOM     62  F13 UNL A   1      43.867  24.096  24.530  1.00  0.00    +0.000 F 
ATOM     63  C43 UNL A   1      42.644  24.231  26.547  1.00  0.00    +0.000 C 
ATOM     64  F14 UNL A   1      42.250  22.957  26.410  1.00  0.00    +0.000 F 
ENDBRANCH   55   56
TORSDOF 20
ENDMDL
MODEL 4
REMARK VINA RESULT:     -10.8     26.131     34.050
ROOT
ATOM     19  C15 UNL A   1      21.510  18.978   5.723  1.00  0.00    +0.000 C 
ATOM     20  C16 UNL A   1      21.277  19.967   4.616  1.00  0.00    +0.000 C 
ATOM     21  N3  UNL A   1      20.173  20.587   4.279  1.00  0.00    +0.000 N 
ATOM     22  C17 UNL A   1      20.510  21.407   3.210  1.00  0.00    +0.000 C 
ATOM     23  C18 UNL A   1      19.704  22.205   2.470  1.00  0.00    +0.000 C 
ATOM     35  C25 UNL A   1      18.287  22.352   2.680  1.00  0.00    +0.000 C 
ATOM     36  C26 UNL A   1      17.378  23.101   1.953  1.00  0.00    +0.000 C 
ATOM     37  C27 UNL A   1      16.119  22.962   2.546  1.00  0.00    +0.000 C 
ATOM     38  C28 UNL A   1      16.236  22.094   3.620  1.00  0.00    +0.000 C 
ATOM     39  N4  UNL A   1      17.572  21.733   3.694  1.00  0.00    +0.000 N 
ATOM     40  C29 UNL A   1      15.208  21.629   4.512  1.00  0.00    +0.000 C 
ATOM     52  C36 UNL A   1      15.404  20.768   5.541  1.00  0.00    +0.000 C 
ATOM     53  N5  UNL A   1      16.580  20.164   5.961  1.00  0.00    +0.000 N 
ATOM     54  C37 UNL A   1      16.261  19.443   7.007  1.00  0.00    +0.000 C 
ATOM     55  C38 UNL A   1      17.133  18.555   7.851  1.00  0.00    +0.000 C 
ATOM     67  C45 UNL A   1      18.435  18.419   7.536  1.00  0.00    +0.000 C 
ATOM     68  C46 UNL A   1      19.395  17.582   8.248  1.00  0.00    +0.000 C 
ATOM     69  C47 UNL A   1      20.602  17.712   7.675  1.00  0.00    +0.000 C 
ATOM     70  C48 UNL A   1      20.493  18.624   6.534  1.00  0.00    +0.000 C 
ATOM     71  N6  UNL A   1      19.172  18.994   6.529  1.00  0.00    +0.000 N 
ATOM     72  C49 UNL A   1      14.843  19.527   7.383  1.00  0.00    +0.000 C 
ATOM     73  C50 UNL A   1      14.358  20.313   6.433  1.00  0.00    +0.000 C 
ATOM     74  C51 UNL A   1      21.930  21.242   2.983  1.00  0.00    +0.000 C 
ATOM     75  C52 UNL A   1      22.441  20.323   3.789  1.00  0.00    +0.000 C 
ATOM    112  H21 UNL A   1      17.594  23.666   1.116  1.00  0.00    +0.000 H 
ATOM    113  H22 UNL A   1      15.251  23.426   2.237  1.00  0.00    +0.000 H 
ATOM    114  H23 UNL A   1      17.956  21.126   4.368  1.00  0.00    +0.000 H 
ATOM    115  H24 UNL A   1      19.181  16.984   9.063  1.00  0.00    +0.000 H 
ATOM    116  H25 UNL A   1      21.467  17.246   7.988  1.00  0.00    +0.000 H 
ATOM    117  H26 UNL A   1      18.787  19.612   5.866  1.00  0.00    +0.000 H 
ATOM    118  H27 UNL A   1      14.353  19.089   8.179  1.00  0.00    +0.000 H 
ATOM    119  H28 UNL A   1      13.362  20.569   6.340  1.00  0.00    +0.000 H 
ATOM    120  H29 UNL A   1      22.474  21.773   2.285  1.00  0.00    +0.000 H 
ATOM    121  H30 UNL A   1      23.403  19.951   3.827  1.00  0.00    +0.000 H 
ENDROOT
BRANCH   19   18
ATOM     76  C53 UNL A   1      23.840  19.200   6.606  1.00  0.00    +0.000 C 
ATOM     77  C54 UNL A   1      25.108  18.676   6.856  1.00  0.00    +0.000 C 
ATOM    110  H19 UNL A   1      24.652  15.593   5.614  1.00  0.00    +0.000 H 
ATOM     15  C11 UNL A   1      25.386  17.340   6.550  1.00  0.00    +0.000 C 
ATOM     16  C12 UNL A   1      24.433  16.566   5.882  1.00  0.00    +0.000 C 
ATOM     17  C13 UNL A   1      23.183  17.109   5.577  1.00  0.00    +0.000 C 
ATOM    111  H20 UNL A   1      22.490  16.545   5.062  1.00  0.00    +0.000 H 
ATOM     18  C14 UNL A   1      22.865  18.421   5.966  1.00  0.00    +0.000 C 
ATOM    122  H31 UNL A   1      23.619  20.166   6.894  1.00  0.00    +0.000 H 
ATOM    123  H32 UNL A   1      25.842  19.274   7.268  1.00  0.00    +0.000 H 
BRANCH   15   13
ATOM     13  C10 UNL A   1      26.685  16.720   6.897  1.00  0.00    +0.000 C 
ATOM     14  O2  UNL A   1      26.769  15.499   6.985  1.00  0.00    +0.000 O 
BRANCH   13   12
ATOM     12  N2  UNL A   1      27.784  17.504   7.142  1.00  0.00    +0.000 N 
ATOM    109  H18 UNL A   1      28.062  18.084   6.396  1.00  0.00    +0.000 H 
BRANCH   12   11
ATOM     11  C9  UNL A   1      28.598  17.603   8.342  1.00  0.00    +0.000 C 
ATOM    108  H17 UNL A   1      29.624  17.604   8.039  1.00  0.00    +0.000 H 
ATOM    107  H16 UNL A   1      28.375  16.771   8.978  1.00  0.00    +0.000 H 
BRANCH   11   10
ATOM    105  H14 UNL A   1      29.220  19.117   9.686  1.00  0.00    +0.000 H 
ATOM     10  C8  UNL A   1      28.342  18.894   9.118  1.00  0.00    +0.000 C 
ATOM    106  H15 UNL A   1      28.106  19.638   8.385  1.00  0.00    +0.000 H 
BRANCH   10    9
ATOM      9  C7  UNL A   1      27.153  18.853  10.079  1.00  0.00    +0.000 C 
ATOM    103  H12 UNL A   1      26.333  19.355   9.612  1.00  0.00    +0.000 H 
ATOM    104  H13 UNL A   1      26.966  17.817  10.275  1.00  0.00    +0.000 H 
BRANCH    9    8
ATOM    101  H10 UNL A   1      27.002  18.851  12.194  1.00  0.00    +0.000 H 
ATOM    102  H11 UNL A   1      28.448  19.661  11.512  1.00  0.00    +0.000 H 
ATOM      8  C6  UNL A   1      27.392  19.505  11.442  1.00  0.00    +0.000 C 
BRANCH    8    7
ATOM     99  H8  UNL A   1      26.828  21.143  12.673  1.00  0.00    +0.000 H 
ATOM    100  H9  UNL A   1      27.277  21.552  10.989  1.00  0.00    +0.000 H 
ATOM      7  C5  UNL A   1      26.749  20.885  11.637  1.00  0.00    +0.000 C 
BRANCH    7    6
ATOM     97  H6  UNL A   1      25.088  21.945  10.814  1.00  0.00    +0.000 H 
ATOM     98  H7  UNL A   1      25.069  20.207  10.523  1.00  0.00    +0.000 H 
ATOM      6  C4  UNL A   1      25.272  20.979  11.236  1.00  0.00    +0.000 C 
BRANCH    6    5
ATOM      5  N1  UNL A   1      24.394  20.788  12.376  1.00  0.00    +0.000 N 
ATOM     96  H5  UNL A   1      24.577  21.319  13.184  1.00  0.00    +0.000 H 
BRANCH    5    3
ATOM      3  C3  UNL A   1      23.331  19.922  12.410  1.00  0.00    +0.000 C 
ATOM      4  O1  UNL A   1      22.261  20.355  11.982  1.00  0.00    +0.000 O 
BRANCH    3    2
ATOM      2  C2  UNL A   1      23.546  18.489  12.933  1.00  0.00    +0.000 C 
ATOM     95  H4  UNL A   1      22.672  18.230  13.496  1.00  0.00    +0.000 H 
BRANCH    2    1
ATOM      1  C1  UNL A   1      24.815  18.502  13.795  1.00  0.00    +0.000 C 
ATOM     92  H1  UNL A   1      25.650  18.187  13.204  1.00  0.00    +0.000 H 
ATOM     93  H2  UNL A   1      24.692  17.834  14.621  1.00  0.00    +0.000 H 
ATOM     94  H3  UNL A   1      24.990  19.493  14.160  1.00  0.00    +0.000 H 
ENDBRANCH    2    1
BRANCH    2   78
ATOM    137  H46 UNL A   1      23.550  14.011  11.521  1.00  0.00    +0.000 H 
ATOM     78  C55 UNL A   1      23.602  17.373  11.875  1.00  0.00    +0.000 C 
ATOM     79  C56 UNL A   1      23.806  17.663  10.512  1.00  0.00    +0.000 C 
ATOM     80  C57 UNL A   1      23.917  16.663   9.544  1.00  0.00    +0.000 C 
ATOM     81  C58 UNL A   1      23.813  15.320   9.892  1.00  0.00    +0.000 C 
ATOM     89  C65 UNL A   1      23.607  15.001  11.237  1.00  0.00    +0.000 C 
ATOM     90  C66 UNL A   1      23.477  16.007  12.210  1.00  0.00    +0.000 C 
ATOM     91 Br1  UNL A   1      23.052  15.391  13.963  1.00  0.00    +0.000 Br
ATOM    124  H33 UNL A   1      23.874  18.651  10.219  1.00  0.00    +0.000 H 
ATOM    125  H34 UNL A   1      24.078  16.922   8.558  1.00  0.00    +0.000 H 
BRANCH   81   82
ATOM     82  C59 UNL A   1      23.885  14.244   8.837  1.00  0.00    +0.000 C 
ATOM    126  H35 UNL A   1      24.614  13.526   9.149  1.00  0.00    +0.000 H 
ATOM    127  H36 UNL A   1      24.133  14.747   7.925  1.00  0.00    +0.000 H 
BRANCH   82   83
ATOM    129  H38 UNL A   1      21.682  15.294   7.773  1.00  0.00    +0.000 H 
ATOM    130  H39 UNL A   1      20.775  14.598   9.063  1.00  0.00    +0.000 H 
ATOM    131  H40 UNL A   1      20.628  14.012   6.204  1.00  0.00    +0.000 H 
ATOM    132  H41 UNL A   1      19.511  13.537   7.424  1.00  0.00    +0.000 H 
ATOM    133  H42 UNL A   1      21.031  11.700   6.215  1.00  0.00    +0.000 H 
ATOM    134  H43 UNL A   1      20.718  11.511   7.878  1.00  0.00    +0.000 H 
ATOM    135  H44 UNL A   1      23.169  12.777   6.573  1.00  0.00    +0.000 H 
ATOM     83  C60 UNL A   1      22.573  13.494   8.557  1.00  0.00    +0.000 C 
ATOM     84  C61 UNL A   1      21.359  14.366   8.198  1.00  0.00    +0.000 C 
ATOM     85  C62 UNL A   1      20.550  13.565   7.173  1.00  0.00    +0.000 C 
ATOM     86  C63 UNL A   1      21.163  12.173   7.166  1.00  0.00    +0.000 C 
ATOM     87  C64 UNL A   1      22.634  12.449   7.439  1.00  0.00    +0.000 C 
ATOM    128  H37 UNL A   1      22.445  13.036   9.516  1.00  0.00    +0.000 H 
BRANCH   87   88
ATOM    136  H45 UNL A   1      24.177  11.532   8.236  1.00  0.00    +0.000 H 
ATOM     88  O3  UNL A   1      23.315  11.284   7.866  1.00  0.00    +0.000 O 
ENDBRANCH   87   88
ENDBRANCH   82   83
ENDBRANCH   81   82
ENDBRANCH    2   78
ENDBRANCH    3    2
ENDBRANCH    5    3
ENDBRANCH    6    5
ENDBRANCH    7    6
ENDBRANCH    8    7
ENDBRANCH    9    8
ENDBRANCH   10    9
ENDBRANCH   11   10
ENDBRANCH   12   11
ENDBRANCH   13   12
ENDBRANCH   15   13
ENDBRANCH   19   18
BRANCH   23   24
ATOM     33  C24 UNL A   1      20.957  24.208   1.585  1.00  0.00    +0.000 C 
ATOM     34  F5  UNL A   1      21.048  24.690   2.834  1.00  0.00    +0.000 F 
ATOM     24  C19 UNL A   1      20.330  22.976   1.346  1.00  0.00    +0.000 C 
ATOM     25  C20 UNL A   1      20.260  22.521   0.020  1.00  0.00    +0.000 C 
ATOM     26  F1  UNL A   1      19.680  21.344  -0.258  1.00  0.00    +0.000 F 
ATOM     27  C21 UNL A   1      20.808  23.264  -1.022  1.00  0.00    +0.000 C 
ATOM     28  F2  UNL A   1      20.759  22.793  -2.276  1.00  0.00    +0.000 F 
ATOM     29  C22 UNL A   1      21.412  24.485  -0.764  1.00  0.00    +0.000 C 
ATOM     30  F3  UNL A   1      21.929  25.204  -1.769  1.00  0.00    +0.000 F 
ATOM     31  C23 UNL A   1      21.483  24.960   0.537  1.00  0.00    +0.000 C 
ATOM     32  F4  UNL A   1      22.056  26.145   0.787  1.00  0.00    +0.000 F 
ENDBRANCH   23   24
BRANCH   40   41
ATOM     41  C30 UNL A   1      13.806  22.111   4.284  1.00  0.00    +0.000 C 
ATOM     42  C31 UNL A   1      13.298  23.232   4.957  1.00  0.00    +0.000 C 
ATOM     43  F6  UNL A   1      14.054  23.879   5.857  1.00  0.00    +0.000 F 
ATOM     44  C32 UNL A   1      11.993  23.665   4.741  1.00  0.00    +0.000 C 
ATOM     45  F7  UNL A   1      11.511  24.707   5.432  1.00  0.00    +0.000 F 
ATOM     46  C33 UNL A   1      11.184  23.007   3.826  1.00  0.00    +0.000 C 
ATOM     47  F8  UNL A   1       9.928  23.426   3.617  1.00  0.00    +0.000 F 
ATOM     48  C34 UNL A   1      11.674  21.910   3.133  1.00  0.00    +0.000 C 
ATOM     49  F9  UNL A   1      10.897  21.280   2.240  1.00  0.00    +0.000 F 
ATOM     50  C35 UNL A   1      12.969  21.458   3.366  1.00  0.00    +0.000 C 
ATOM     51  F10 UNL A   1      13.410  20.384   2.694  1.00  0.00    +0.000 F 
ENDBRANCH   40   41
BRANCH   55   56
ATOM     65  C44 UNL A   1      16.261  18.468  10.211  1.00  0.00    +0.000 C 
ATOM     66  F15 UNL A   1      16.503  19.780  10.344  1.00  0.00    +0.000 F 
ATOM     56  C39 UNL A   1      16.566  17.816   9.008  1.00  0.00    +0.000 C 
ATOM     57  C40 UNL A   1      16.299  16.442   8.924  1.00  0.00    +0.000 C 
ATOM     58  F11 UNL A   1      16.554  15.780   7.786  1.00  0.00    +0.000 F 
ATOM     59  C41 UNL A   1      15.725  15.754   9.990  1.00  0.00    +0.000 C 
ATOM     60  F12 UNL A   1      15.433  14.452   9.865  1.00  0.00    +0.000 F 
ATOM     61  C42 UNL A   1      15.435  16.419  11.172  1.00  0.00    +0.000 C 
ATOM     62  F13 UNL A   1      14.882  15.757  12.197  1.00  0.00    +0.000 F 
ATOM     63  C43 UNL A   1      15.712  17.773  11.287  1.00  0.00    +0.000 C 
ATOM     64  F14 UNL A   1      15.446  18.416  12.432  1.00  0.00    +0.000 F 
ENDBRANCH   55   56
TORSDOF 20
ENDMDL
MODEL 5
REMARK VINA RESULT:     -10.7     26.177     34.200
ROOT
ATOM     19  C15 UNL A   1      22.382  19.844   4.701  1.00  0.00    +0.000 C 
ATOM     20  C16 UNL A   1      22.067  20.890   3.670  1.00  0.00    +0.000 C 
ATOM     21  N3  UNL A   1      20.903  21.362   3.299  1.00  0.00    +0.000 N 
ATOM     22  C17 UNL A   1      21.173  22.327   2.338  1.00  0.00    +0.000 C 
ATOM     23  C18 UNL A   1      20.300  23.060   1.607  1.00  0.00    +0.000 C 
ATOM     35  C25 UNL A   1      18.867  22.964   1.711  1.00  0.00    +0.000 C 
ATOM     36  C26 UNL A   1      17.900  23.631   0.980  1.00  0.00    +0.000 C 
ATOM     37  C27 UNL A   1      16.643  23.239   1.453  1.00  0.00    +0.000 C 
ATOM     38  C28 UNL A   1      16.827  22.298   2.452  1.00  0.00    +0.000 C 
ATOM     39  N4  UNL A   1      18.195  22.143   2.605  1.00  0.00    +0.000 N 
ATOM     40  C29 UNL A   1      15.830  21.591   3.212  1.00  0.00    +0.000 C 
ATOM     52  C36 UNL A   1      16.093  20.673   4.174  1.00  0.00    +0.000 C 
ATOM     53  N5  UNL A   1      17.321  20.221   4.634  1.00  0.00    +0.000 N 
ATOM     54  C37 UNL A   1      17.053  19.357   5.583  1.00  0.00    +0.000 C 
ATOM     55  C38 UNL A   1      17.999  18.535   6.416  1.00  0.00    +0.000 C 
ATOM     67  C45 UNL A   1      19.324  18.636   6.199  1.00  0.00    +0.000 C 
ATOM     68  C46 UNL A   1      20.357  17.891   6.911  1.00  0.00    +0.000 C 
ATOM     69  C47 UNL A   1      21.562  18.264   6.453  1.00  0.00    +0.000 C 
ATOM     70  C48 UNL A   1      21.384  19.257   5.392  1.00  0.00    +0.000 C 
ATOM     71  N6  UNL A   1      20.024  19.416   5.310  1.00  0.00    +0.000 N 
ATOM     72  C49 UNL A   1      15.618  19.183   5.847  1.00  0.00    +0.000 C 
ATOM     73  C50 UNL A   1      15.077  19.975   4.933  1.00  0.00    +0.000 C 
ATOM     74  C51 UNL A   1      22.613  22.408   2.215  1.00  0.00    +0.000 C 
ATOM     75  C52 UNL A   1      23.211  21.503   2.977  1.00  0.00    +0.000 C 
ATOM    112  H21 UNL A   1      18.077  24.303   0.217  1.00  0.00    +0.000 H 
ATOM    113  H22 UNL A   1      15.734  23.592   1.115  1.00  0.00    +0.000 H 
ATOM    114  H23 UNL A   1      18.627  21.539   3.252  1.00  0.00    +0.000 H 
ATOM    115  H24 UNL A   1      20.188  17.189   7.649  1.00  0.00    +0.000 H 
ATOM    116  H25 UNL A   1      22.469  17.909   6.795  1.00  0.00    +0.000 H 
ATOM    117  H26 UNL A   1      19.589  20.030   4.675  1.00  0.00    +0.000 H 
ATOM    118  H27 UNL A   1      15.153  18.597   6.558  1.00  0.00    +0.000 H 
ATOM    119  H28 UNL A   1      14.062  20.081   4.781  1.00  0.00    +0.000 H 
ATOM    120  H29 UNL A   1      23.110  23.085   1.614  1.00  0.00    +0.000 H 
ATOM    121  H30 UNL A   1      24.216  21.284   3.061  1.00  0.00    +0.000 H 
ENDROOT
BRANCH   19   18
ATOM     76  C53 UNL A   1      24.430  20.032   6.127  1.00  0.00    +0.000 C 
ATOM     77  C54 UNL A   1      25.745  19.681   6.430  1.00  0.00    +0.000 C 
ATOM    110  H19 UNL A   1      26.290  17.501   3.939  1.00  0.00    +0.000 H 
ATOM     15  C11 UNL A   1      26.404  18.711   5.668  1.00  0.00    +0.000 C 
ATOM     16  C12 UNL A   1      25.788  18.184   4.529  1.00  0.00    +0.000 C 
ATOM     17  C13 UNL A   1      24.493  18.580   4.190  1.00  0.00    +0.000 C 
ATOM    111  H20 UNL A   1      24.049  18.208   3.336  1.00  0.00    +0.000 H 
ATOM     18  C14 UNL A   1      23.790  19.483   5.006  1.00  0.00    +0.000 C 
ATOM    122  H31 UNL A   1      23.925  20.699   6.731  1.00  0.00    +0.000 H 
ATOM    123  H32 UNL A   1      26.233  20.137   7.217  1.00  0.00    +0.000 H 
BRANCH   15   13
ATOM     13  C10 UNL A   1      27.761  18.238   6.023  1.00  0.00    +0.000 C 
ATOM     14  O2  UNL A   1      28.742  18.814   5.564  1.00  0.00    +0.000 O 
BRANCH   13   12
ATOM     12  N2  UNL A   1      27.924  17.149   6.840  1.00  0.00    +0.000 N 
ATOM    109  H18 UNL A   1      28.301  16.349   6.406  1.00  0.00    +0.000 H 
BRANCH   12   11
ATOM     11  C9  UNL A   1      27.623  17.002   8.255  1.00  0.00    +0.000 C 
ATOM    108  H17 UNL A   1      28.019  16.061   8.576  1.00  0.00    +0.000 H 
ATOM    107  H16 UNL A   1      26.561  17.047   8.385  1.00  0.00    +0.000 H 
BRANCH   11   10
ATOM    105  H14 UNL A   1      28.745  17.621   9.940  1.00  0.00    +0.000 H 
ATOM     10  C8  UNL A   1      28.267  18.092   9.107  1.00  0.00    +0.000 C 
ATOM    106  H15 UNL A   1      28.946  18.611   8.461  1.00  0.00    +0.000 H 
BRANCH   10    9
ATOM      9  C7  UNL A   1      27.306  19.151   9.649  1.00  0.00    +0.000 C 
ATOM    103  H12 UNL A   1      27.510  20.073   9.146  1.00  0.00    +0.000 H 
ATOM    104  H13 UNL A   1      26.320  18.775   9.471  1.00  0.00    +0.000 H 
BRANCH    9    8
ATOM    101  H10 UNL A   1      26.754  18.706  11.647  1.00  0.00    +0.000 H 
ATOM    102  H11 UNL A   1      28.429  19.299  11.410  1.00  0.00    +0.000 H 
ATOM      8  C6  UNL A   1      27.395  19.406  11.155  1.00  0.00    +0.000 C 
BRANCH    8    7
ATOM     99  H8  UNL A   1      27.224  20.903  12.654  1.00  0.00    +0.000 H 
ATOM    100  H9  UNL A   1      27.544  21.495  10.996  1.00  0.00    +0.000 H 
ATOM      7  C5  UNL A   1      26.995  20.816  11.612  1.00  0.00    +0.000 C 
BRANCH    7    6
ATOM     97  H6  UNL A   1      25.432  22.206  11.179  1.00  0.00    +0.000 H 
ATOM     98  H7  UNL A   1      25.125  20.559  10.632  1.00  0.00    +0.000 H 
ATOM      6  C4  UNL A   1      25.514  21.167  11.422  1.00  0.00    +0.000 C 
BRANCH    6    5
ATOM      5  N1  UNL A   1      24.742  20.901  12.622  1.00  0.00    +0.000 N 
ATOM     96  H5  UNL A   1      25.034  21.336  13.455  1.00  0.00    +0.000 H 
BRANCH    5    3
ATOM      3  C3  UNL A   1      23.638  20.089  12.680  1.00  0.00    +0.000 C 
ATOM      4  O1  UNL A   1      22.569  20.597  12.342  1.00  0.00    +0.000 O 
BRANCH    3    2
ATOM      2  C2  UNL A   1      23.807  18.621  13.118  1.00  0.00    +0.000 C 
ATOM     95  H4  UNL A   1      22.952  18.375  13.713  1.00  0.00    +0.000 H 
BRANCH    2    1
ATOM      1  C1  UNL A   1      25.119  18.528  13.908  1.00  0.00    +0.000 C 
ATOM     92  H1  UNL A   1      25.841  19.192  13.480  1.00  0.00    +0.000 H 
ATOM     93  H2  UNL A   1      25.490  17.525  13.865  1.00  0.00    +0.000 H 
ATOM     94  H3  UNL A   1      24.943  18.801  14.927  1.00  0.00    +0.000 H 
ENDBRANCH    2    1
BRANCH    2   78
ATOM    137  H46 UNL A   1      23.308  14.253  11.472  1.00  0.00    +0.000 H 
ATOM     78  C55 UNL A   1      23.752  17.562  12.003  1.00  0.00    +0.000 C 
ATOM     79  C56 UNL A   1      24.015  17.895  10.661  1.00  0.00    +0.000 C 
ATOM     80  C57 UNL A   1      24.026  16.939   9.642  1.00  0.00    +0.000 C 
ATOM     81  C58 UNL A   1      23.756  15.601   9.918  1.00  0.00    +0.000 C 
ATOM     89  C65 UNL A   1      23.488  15.242  11.241  1.00  0.00    +0.000 C 
ATOM     90  C66 UNL A   1      23.459  16.206  12.264  1.00  0.00    +0.000 C 
ATOM     91 Br1  UNL A   1      22.929  15.557  13.976  1.00  0.00    +0.000 Br
ATOM    124  H33 UNL A   1      24.206  18.880  10.421  1.00  0.00    +0.000 H 
ATOM    125  H34 UNL A   1      24.236  17.226   8.674  1.00  0.00    +0.000 H 
BRANCH   81   82
ATOM     82  C59 UNL A   1      23.721  14.580   8.809  1.00  0.00    +0.000 C 
ATOM    126  H35 UNL A   1      22.932  13.890   9.021  1.00  0.00    +0.000 H 
ATOM    127  H36 UNL A   1      24.694  14.135   8.792  1.00  0.00    +0.000 H 
BRANCH   82   83
ATOM    129  H38 UNL A   1      25.485  14.550   6.814  1.00  0.00    +0.000 H 
ATOM    130  H39 UNL A   1      25.178  16.228   6.570  1.00  0.00    +0.000 H 
ATOM    131  H40 UNL A   1      24.654  13.995   4.761  1.00  0.00    +0.000 H 
ATOM    132  H41 UNL A   1      24.628  15.672   4.380  1.00  0.00    +0.000 H 
ATOM    133  H42 UNL A   1      22.353  14.268   4.390  1.00  0.00    +0.000 H 
ATOM    134  H43 UNL A   1      22.308  15.870   4.967  1.00  0.00    +0.000 H 
ATOM    135  H44 UNL A   1      22.589  13.305   6.599  1.00  0.00    +0.000 H 
ATOM     83  C60 UNL A   1      23.493  15.137   7.394  1.00  0.00    +0.000 C 
ATOM     84  C61 UNL A   1      24.741  15.254   6.504  1.00  0.00    +0.000 C 
ATOM     85  C62 UNL A   1      24.276  14.943   5.078  1.00  0.00    +0.000 C 
ATOM     86  C63 UNL A   1      22.757  14.914   5.142  1.00  0.00    +0.000 C 
ATOM     87  C64 UNL A   1      22.485  14.369   6.535  1.00  0.00    +0.000 C 
ATOM    128  H37 UNL A   1      23.123  16.104   7.664  1.00  0.00    +0.000 H 
BRANCH   87   88
ATOM    136  H45 UNL A   1      20.909  15.530   6.693  1.00  0.00    +0.000 H 
ATOM     88  O3  UNL A   1      21.158  14.628   6.951  1.00  0.00    +0.000 O 
ENDBRANCH   87   88
ENDBRANCH   82   83
ENDBRANCH   81   82
ENDBRANCH    2   78
ENDBRANCH    3    2
ENDBRANCH    5    3
ENDBRANCH    6    5
ENDBRANCH    7    6
ENDBRANCH    8    7
ENDBRANCH    9    8
ENDBRANCH   10    9
ENDBRANCH   11   10
ENDBRANCH   12   11
ENDBRANCH   13   12
ENDBRANCH   15   13
ENDBRANCH   19   18
BRANCH   23   24
ATOM     33  C24 UNL A   1      21.238  25.323   1.001  1.00  0.00    +0.000 C 
ATOM     34  F5  UNL A   1      21.134  25.698   2.286  1.00  0.00    +0.000 F 
ATOM     24  C19 UNL A   1      20.867  24.027   0.610  1.00  0.00    +0.000 C 
ATOM     25  C20 UNL A   1      20.991  23.690  -0.746  1.00  0.00    +0.000 C 
ATOM     26  F1  UNL A   1      20.661  22.460  -1.167  1.00  0.00    +0.000 F 
ATOM     27  C21 UNL A   1      21.481  24.608  -1.671  1.00  0.00    +0.000 C 
ATOM     28  F2  UNL A   1      21.622  24.253  -2.956  1.00  0.00    +0.000 F 
ATOM     29  C22 UNL A   1      21.829  25.888  -1.264  1.00  0.00    +0.000 C 
ATOM     30  F3  UNL A   1      22.288  26.774  -2.158  1.00  0.00    +0.000 F 
ATOM     31  C23 UNL A   1      21.703  26.247   0.069  1.00  0.00    +0.000 C 
ATOM     32  F4  UNL A   1      22.028  27.486   0.462  1.00  0.00    +0.000 F 
ENDBRANCH   23   24
BRANCH   40   41
ATOM     41  C30 UNL A   1      14.387  21.870   2.912  1.00  0.00    +0.000 C 
ATOM     42  C31 UNL A   1      13.719  21.230   1.859  1.00  0.00    +0.000 C 
ATOM     43  F6  UNL A   1      14.378  20.372   1.064  1.00  0.00    +0.000 F 
ATOM     44  C32 UNL A   1      12.381  21.503   1.589  1.00  0.00    +0.000 C 
ATOM     45  F7  UNL A   1      11.777  20.918   0.546  1.00  0.00    +0.000 F 
ATOM     46  C33 UNL A   1      11.678  22.394   2.385  1.00  0.00    +0.000 C 
ATOM     47  F8  UNL A   1      10.390  22.656   2.125  1.00  0.00    +0.000 F 
ATOM     48  C34 UNL A   1      12.313  23.023   3.447  1.00  0.00    +0.000 C 
ATOM     49  F9  UNL A   1      11.632  23.876   4.224  1.00  0.00    +0.000 F 
ATOM     50  C35 UNL A   1      13.658  22.772   3.703  1.00  0.00    +0.000 C 
ATOM     51  F10 UNL A   1      14.250  23.407   4.726  1.00  0.00    +0.000 F 
ENDBRANCH   40   41
BRANCH   55   56
ATOM     65  C44 UNL A   1      17.465  16.220   7.245  1.00  0.00    +0.000 C 
ATOM     66  F15 UNL A   1      17.898  15.709   6.083  1.00  0.00    +0.000 F 
ATOM     56  C39 UNL A   1      17.482  17.606   7.452  1.00  0.00    +0.000 C 
ATOM     57  C40 UNL A   1      17.012  18.088   8.681  1.00  0.00    +0.000 C 
ATOM     58  F11 UNL A   1      17.029  19.405   8.934  1.00  0.00    +0.000 F 
ATOM     59  C41 UNL A   1      16.568  17.218   9.674  1.00  0.00    +0.000 C 
ATOM     60  F12 UNL A   1      16.172  17.702  10.859  1.00  0.00    +0.000 F 
ATOM     61  C42 UNL A   1      16.556  15.850   9.445  1.00  0.00    +0.000 C 
ATOM     62  F13 UNL A   1      16.131  15.013  10.400  1.00  0.00    +0.000 F 
ATOM     63  C43 UNL A   1      16.995  15.351   8.227  1.00  0.00    +0.000 C 
ATOM     64  F14 UNL A   1      16.973  14.031   7.998  1.00  0.00    +0.000 F 
ENDBRANCH   55   56
TORSDOF 20
ENDMDL
MODEL 6
REMARK VINA RESULT:     -10.7     19.105     27.015
ROOT
ATOM     19  C15 UNL A   1      46.529  11.605  47.251  1.00  0.00    +0.000 C 
ATOM     20  C16 UNL A   1      46.688  10.617  48.372  1.00  0.00    +0.000 C 
ATOM     21  N3  UNL A   1      47.517  10.645  49.387  1.00  0.00    +0.000 N 
ATOM     22  C17 UNL A   1      47.232   9.513  50.139  1.00  0.00    +0.000 C 
ATOM     23  C18 UNL A   1      47.855   9.060  51.254  1.00  0.00    +0.000 C 
ATOM     35  C25 UNL A   1      48.972   9.713  51.885  1.00  0.00    +0.000 C 
ATOM     36  C26 UNL A   1      49.699   9.306  52.991  1.00  0.00    +0.000 C 
ATOM     37  C27 UNL A   1      50.672  10.275  53.258  1.00  0.00    +0.000 C 
ATOM     38  C28 UNL A   1      50.577  11.266  52.295  1.00  0.00    +0.000 C 
ATOM     39  N4  UNL A   1      49.526  10.912  51.463  1.00  0.00    +0.000 N 
ATOM     40  C29 UNL A   1      51.383  12.448  52.143  1.00  0.00    +0.000 C 
ATOM     52  C36 UNL A   1      51.229  13.372  51.163  1.00  0.00    +0.000 C 
ATOM     53  N5  UNL A   1      50.306  13.399  50.127  1.00  0.00    +0.000 N 
ATOM     54  C37 UNL A   1      50.545  14.503  49.462  1.00  0.00    +0.000 C 
ATOM     55  C38 UNL A   1      49.867  15.034  48.228  1.00  0.00    +0.000 C 
ATOM     67  C45 UNL A   1      48.877  14.319  47.661  1.00  0.00    +0.000 C 
ATOM     68  C46 UNL A   1      48.144  14.696  46.457  1.00  0.00    +0.000 C 
ATOM     69  C47 UNL A   1      47.214  13.763  46.199  1.00  0.00    +0.000 C 
ATOM     70  C48 UNL A   1      47.306  12.705  47.207  1.00  0.00    +0.000 C 
ATOM     71  N6  UNL A   1      48.319  13.120  48.034  1.00  0.00    +0.000 N 
ATOM     72  C49 UNL A   1      51.636  15.314  50.018  1.00  0.00    +0.000 C 
ATOM     73  C50 UNL A   1      52.046  14.560  51.027  1.00  0.00    +0.000 C 
ATOM     74  C51 UNL A   1      46.125   8.843  49.492  1.00  0.00    +0.000 C 
ATOM     75  C52 UNL A   1      45.786   9.455  48.366  1.00  0.00    +0.000 C 
ATOM    112  H21 UNL A   1      49.548   8.436  53.526  1.00  0.00    +0.000 H 
ATOM    113  H22 UNL A   1      51.346  10.255  54.039  1.00  0.00    +0.000 H 
ATOM    114  H23 UNL A   1      49.219  11.435  50.688  1.00  0.00    +0.000 H 
ATOM    115  H24 UNL A   1      48.313  15.545  45.894  1.00  0.00    +0.000 H 
ATOM    116  H25 UNL A   1      46.542  13.788  45.417  1.00  0.00    +0.000 H 
ATOM    117  H26 UNL A   1      48.619  12.608  48.819  1.00  0.00    +0.000 H 
ATOM    118  H27 UNL A   1      51.991  16.232  49.705  1.00  0.00    +0.000 H 
ATOM    119  H28 UNL A   1      52.846  14.788  51.638  1.00  0.00    +0.000 H 
ATOM    120  H29 UNL A   1      45.658   8.000  49.860  1.00  0.00    +0.000 H 
ATOM    121  H30 UNL A   1      45.077   9.186  47.666  1.00  0.00    +0.000 H 
ENDROOT
BRANCH   19   18
ATOM     76  C53 UNL A   1      45.775  10.675  45.054  1.00  0.00    +0.000 C 
ATOM     77  C54 UNL A   1      44.792  10.468  44.086  1.00  0.00    +0.000 C 
ATOM    110  H19 UNL A   1      42.240  12.044  45.589  1.00  0.00    +0.000 H 
ATOM     15  C11 UNL A   1      43.486  10.914  44.309  1.00  0.00    +0.000 C 
ATOM     16  C12 UNL A   1      43.194  11.675  45.445  1.00  0.00    +0.000 C 
ATOM     17  C13 UNL A   1      44.193  11.933  46.386  1.00  0.00    +0.000 C 
ATOM    111  H20 UNL A   1      43.982  12.515  47.212  1.00  0.00    +0.000 H 
ATOM     18  C14 UNL A   1      45.484  11.407  46.214  1.00  0.00    +0.000 C 
ATOM    122  H31 UNL A   1      46.721  10.287  44.915  1.00  0.00    +0.000 H 
ATOM    123  H32 UNL A   1      45.029   9.986  43.204  1.00  0.00    +0.000 H 
BRANCH   15   13
ATOM     13  C10 UNL A   1      42.394  10.622  43.353  1.00  0.00    +0.000 C 
ATOM     14  O2  UNL A   1      41.681   9.639  43.531  1.00  0.00    +0.000 O 
BRANCH   13   12
ATOM     12  N2  UNL A   1      42.194  11.427  42.261  1.00  0.00    +0.000 N 
ATOM    109  H18 UNL A   1      42.770  11.236  41.485  1.00  0.00    +0.000 H 
BRANCH   12   11
ATOM     11  C9  UNL A   1      41.254  12.521  42.080  1.00  0.00    +0.000 C 
ATOM    108  H17 UNL A   1      40.338  12.246  42.559  1.00  0.00    +0.000 H 
ATOM    107  H16 UNL A   1      41.117  12.686  41.031  1.00  0.00    +0.000 H 
BRANCH   11   10
ATOM    105  H14 UNL A   1      41.132  14.012  43.580  1.00  0.00    +0.000 H 
ATOM     10  C8  UNL A   1      41.739  13.820  42.720  1.00  0.00    +0.000 C 
ATOM    106  H15 UNL A   1      42.773  13.669  42.951  1.00  0.00    +0.000 H 
BRANCH   10    9
ATOM      9  C7  UNL A   1      41.683  15.054  41.817  1.00  0.00    +0.000 C 
ATOM    103  H12 UNL A   1      40.719  15.082  41.355  1.00  0.00    +0.000 H 
ATOM    104  H13 UNL A   1      41.880  15.894  42.450  1.00  0.00    +0.000 H 
BRANCH    9    8
ATOM    101  H10 UNL A   1      43.695  14.938  41.159  1.00  0.00    +0.000 H 
ATOM    102  H11 UNL A   1      42.457  14.349  40.004  1.00  0.00    +0.000 H 
ATOM      8  C6  UNL A   1      42.738  15.102  40.710  1.00  0.00    +0.000 C 
BRANCH    8    7
ATOM     99  H8  UNL A   1      41.847  16.585  39.475  1.00  0.00    +0.000 H 
ATOM    100  H9  UNL A   1      43.093  17.170  40.618  1.00  0.00    +0.000 H 
ATOM      7  C5  UNL A   1      42.806  16.415  39.918  1.00  0.00    +0.000 C 
BRANCH    7    6
ATOM     97  H6  UNL A   1      43.741  15.578  38.190  1.00  0.00    +0.000 H 
ATOM     98  H7  UNL A   1      43.707  17.339  38.227  1.00  0.00    +0.000 H 
ATOM      6  C4  UNL A   1      43.857  16.448  38.800  1.00  0.00    +0.000 C 
BRANCH    6    5
ATOM      5  N1  UNL A   1      45.206  16.473  39.335  1.00  0.00    +0.000 N 
ATOM     96  H5  UNL A   1      45.636  15.607  39.521  1.00  0.00    +0.000 H 
BRANCH    5    3
ATOM      3  C3  UNL A   1      45.924  17.611  39.598  1.00  0.00    +0.000 C 
ATOM      4  O1  UNL A   1      46.065  18.397  38.661  1.00  0.00    +0.000 O 
BRANCH    3    2
ATOM      2  C2  UNL A   1      46.463  17.846  41.023  1.00  0.00    +0.000 C 
ATOM     95  H4  UNL A   1      46.346  18.890  41.230  1.00  0.00    +0.000 H 
BRANCH    2    1
ATOM      1  C1  UNL A   1      47.933  17.407  41.033  1.00  0.00    +0.000 C 
ATOM     92  H1  UNL A   1      47.986  16.339  40.989  1.00  0.00    +0.000 H 
ATOM     93  H2  UNL A   1      48.400  17.749  41.933  1.00  0.00    +0.000 H 
ATOM     94  H3  UNL A   1      48.437  17.826  40.187  1.00  0.00    +0.000 H 
ENDBRANCH    2    1
BRANCH    2   78
ATOM    137  H46 UNL A   1      43.314  17.822  44.506  1.00  0.00    +0.000 H 
ATOM     78  C55 UNL A   1      45.677  17.190  42.172  1.00  0.00    +0.000 C 
ATOM     79  C56 UNL A   1      45.944  15.870  42.583  1.00  0.00    +0.000 C 
ATOM     80  C57 UNL A   1      45.282  15.274  43.660  1.00  0.00    +0.000 C 
ATOM     81  C58 UNL A   1      44.306  15.970  44.368  1.00  0.00    +0.000 C 
ATOM     89  C65 UNL A   1      44.018  17.281  43.980  1.00  0.00    +0.000 C 
ATOM     90  C66 UNL A   1      44.670  17.874  42.886  1.00  0.00    +0.000 C 
ATOM     91 Br1  UNL A   1      44.042  19.610  42.411  1.00  0.00    +0.000 Br
ATOM    124  H33 UNL A   1      46.653  15.322  42.070  1.00  0.00    +0.000 H 
ATOM    125  H34 UNL A   1      45.519  14.309  43.934  1.00  0.00    +0.000 H 
BRANCH   81   82
ATOM     82  C59 UNL A   1      43.560  15.308  45.499  1.00  0.00    +0.000 C 
ATOM    126  H35 UNL A   1      43.542  14.255  45.311  1.00  0.00    +0.000 H 
ATOM    127  H36 UNL A   1      42.591  15.763  45.515  1.00  0.00    +0.000 H 
BRANCH   82   83
ATOM    129  H38 UNL A   1      44.851  17.482  46.333  1.00  0.00    +0.000 H 
ATOM    130  H39 UNL A   1      46.104  16.461  46.930  1.00  0.00    +0.000 H 
ATOM    131  H40 UNL A   1      44.312  18.216  48.427  1.00  0.00    +0.000 H 
ATOM    132  H41 UNL A   1      45.742  17.452  49.003  1.00  0.00    +0.000 H 
ATOM    133  H42 UNL A   1      43.352  16.682  49.922  1.00  0.00    +0.000 H 
ATOM    134  H43 UNL A   1      44.538  15.486  49.675  1.00  0.00    +0.000 H 
ATOM    135  H44 UNL A   1      42.295  16.312  47.776  1.00  0.00    +0.000 H 
ATOM     83  C60 UNL A   1      44.146  15.525  46.904  1.00  0.00    +0.000 C 
ATOM     84  C61 UNL A   1      45.080  16.736  47.066  1.00  0.00    +0.000 C 
ATOM     85  C62 UNL A   1      44.828  17.280  48.475  1.00  0.00    +0.000 C 
ATOM     86  C63 UNL A   1      43.967  16.236  49.168  1.00  0.00    +0.000 C 
ATOM     87  C64 UNL A   1      43.122  15.683  48.031  1.00  0.00    +0.000 C 
ATOM    128  H37 UNL A   1      44.690  14.608  46.991  1.00  0.00    +0.000 H 
BRANCH   87   88
ATOM    136  H45 UNL A   1      41.951  14.553  49.130  1.00  0.00    +0.000 H 
ATOM     88  O3  UNL A   1      42.539  14.438  48.368  1.00  0.00    +0.000 O 
ENDBRANCH   87   88
ENDBRANCH   82   83
ENDBRANCH   81   82
ENDBRANCH    2   78
ENDBRANCH    3    2
ENDBRANCH    5    3
ENDBRANCH    6    5
ENDBRANCH    7    6
ENDBRANCH    8    7
ENDBRANCH    9    8
ENDBRANCH   10    9
ENDBRANCH   11   10
ENDBRANCH   12   11
ENDBRANCH   13   12
ENDBRANCH   15   13
ENDBRANCH   19   18
BRANCH   23   24
ATOM     33  C24 UNL A   1      47.984   6.561  51.580  1.00  0.00    +0.000 C 
ATOM     34  F5  UNL A   1      49.078   6.528  50.803  1.00  0.00    +0.000 F 
ATOM     24  C19 UNL A   1      47.354   7.783  51.860  1.00  0.00    +0.000 C 
ATOM     25  C20 UNL A   1      46.211   7.761  52.675  1.00  0.00    +0.000 C 
ATOM     26  F1  UNL A   1      45.579   8.904  52.980  1.00  0.00    +0.000 F 
ATOM     27  C21 UNL A   1      45.729   6.565  53.199  1.00  0.00    +0.000 C 
ATOM     28  F2  UNL A   1      44.655   6.571  54.002  1.00  0.00    +0.000 F 
ATOM     29  C22 UNL A   1      46.361   5.367  52.899  1.00  0.00    +0.000 C 
ATOM     30  F3  UNL A   1      45.889   4.216  53.395  1.00  0.00    +0.000 F 
ATOM     31  C23 UNL A   1      47.485   5.364  52.087  1.00  0.00    +0.000 C 
ATOM     32  F4  UNL A   1      48.091   4.207  51.786  1.00  0.00    +0.000 F 
ENDBRANCH   23   24
BRANCH   40   41
ATOM     41  C30 UNL A   1      52.491  12.677  53.127  1.00  0.00    +0.000 C 
ATOM     42  C31 UNL A   1      53.773  12.148  52.924  1.00  0.00    +0.000 C 
ATOM     43  F6  UNL A   1      54.025  11.384  51.850  1.00  0.00    +0.000 F 
ATOM     44  C32 UNL A   1      54.791  12.363  53.849  1.00  0.00    +0.000 C 
ATOM     45  F7  UNL A   1      55.995  11.805  53.661  1.00  0.00    +0.000 F 
ATOM     46  C33 UNL A   1      54.556  13.138  54.975  1.00  0.00    +0.000 C 
ATOM     47  F8  UNL A   1      55.536  13.345  55.865  1.00  0.00    +0.000 F 
ATOM     48  C34 UNL A   1      53.300  13.690  55.185  1.00  0.00    +0.000 C 
ATOM     49  F9  UNL A   1      53.074  14.448  56.267  1.00  0.00    +0.000 F 
ATOM     50  C35 UNL A   1      52.274  13.454  54.275  1.00  0.00    +0.000 C 
ATOM     51  F10 UNL A   1      51.065  13.987  54.513  1.00  0.00    +0.000 F 
ENDBRANCH   40   41
BRANCH   55   56
ATOM     65  C44 UNL A   1      51.335  16.379  46.688  1.00  0.00    +0.000 C 
ATOM     66  F15 UNL A   1      51.982  15.259  46.335  1.00  0.00    +0.000 F 
ATOM     56  C39 UNL A   1      50.295  16.323  47.626  1.00  0.00    +0.000 C 
ATOM     57  C40 UNL A   1      49.656  17.523  47.965  1.00  0.00    +0.000 C 
ATOM     58  F11 UNL A   1      48.641  17.516  48.842  1.00  0.00    +0.000 F 
ATOM     59  C41 UNL A   1      50.023  18.727  47.370  1.00  0.00    +0.000 C 
ATOM     60  F12 UNL A   1      49.361  19.852  47.674  1.00  0.00    +0.000 F 
ATOM     61  C42 UNL A   1      51.057  18.760  46.447  1.00  0.00    +0.000 C 
ATOM     62  F13 UNL A   1      51.410  19.918  45.873  1.00  0.00    +0.000 F 
ATOM     63  C43 UNL A   1      51.720  17.588  46.113  1.00  0.00    +0.000 C 
ATOM     64  F14 UNL A   1      52.729  17.618  45.232  1.00  0.00    +0.000 F 
ENDBRANCH   55   56
TORSDOF 20
ENDMDL
MODEL 7
REMARK VINA RESULT:     -10.5     20.462     26.453
ROOT
ATOM     19  C15 UNL A   1      53.185  19.865  11.745  1.00  0.00    +0.000 C 
ATOM     20  C16 UNL A   1      54.537  19.229  11.588  1.00  0.00    +0.000 C 
ATOM     21  N3  UNL A   1      55.545  19.209  12.425  1.00  0.00    +0.000 N 
ATOM     22  C17 UNL A   1      56.539  18.466  11.804  1.00  0.00    +0.000 C 
ATOM     23  C18 UNL A   1      57.797  18.208  12.238  1.00  0.00    +0.000 C 
ATOM     35  C25 UNL A   1      58.342  18.679  13.484  1.00  0.00    +0.000 C 
ATOM     36  C26 UNL A   1      59.620  18.508  13.988  1.00  0.00    +0.000 C 
ATOM     37  C27 UNL A   1      59.680  19.115  15.247  1.00  0.00    +0.000 C 
ATOM     38  C28 UNL A   1      58.452  19.699  15.510  1.00  0.00    +0.000 C 
ATOM     39  N4  UNL A   1      57.639  19.418  14.423  1.00  0.00    +0.000 N 
ATOM     40  C29 UNL A   1      58.048  20.456  16.664  1.00  0.00    +0.000 C 
ATOM     52  C36 UNL A   1      56.821  21.004  16.844  1.00  0.00    +0.000 C 
ATOM     53  N5  UNL A   1      55.719  20.966  16.003  1.00  0.00    +0.000 N 
ATOM     54  C37 UNL A   1      54.768  21.618  16.627  1.00  0.00    +0.000 C 
ATOM     55  C38 UNL A   1      53.364  21.913  16.176  1.00  0.00    +0.000 C 
ATOM     67  C45 UNL A   1      52.961  21.496  14.961  1.00  0.00    +0.000 C 
ATOM     68  C46 UNL A   1      51.641  21.725  14.382  1.00  0.00    +0.000 C 
ATOM     69  C47 UNL A   1      51.586  21.146  13.172  1.00  0.00    +0.000 C 
ATOM     70  C48 UNL A   1      52.880  20.528  12.878  1.00  0.00    +0.000 C 
ATOM     71  N6  UNL A   1      53.633  20.785  13.996  1.00  0.00    +0.000 N 
ATOM     72  C49 UNL A   1      55.158  22.124  17.950  1.00  0.00    +0.000 C 
ATOM     73  C50 UNL A   1      56.430  21.760  18.015  1.00  0.00    +0.000 C 
ATOM     74  C51 UNL A   1      56.000  18.011  10.540  1.00  0.00    +0.000 C 
ATOM     75  C52 UNL A   1      54.786  18.500  10.334  1.00  0.00    +0.000 C 
ATOM    112  H21 UNL A   1      60.395  18.016  13.516  1.00  0.00    +0.000 H 
ATOM    113  H22 UNL A   1      60.501  19.126  15.873  1.00  0.00    +0.000 H 
ATOM    114  H23 UNL A   1      56.700  19.702  14.332  1.00  0.00    +0.000 H 
ATOM    115  H24 UNL A   1      50.873  22.248  14.831  1.00  0.00    +0.000 H 
ATOM    116  H25 UNL A   1      50.763  21.137  12.550  1.00  0.00    +0.000 H 
ATOM    117  H26 UNL A   1      54.567  20.491  14.097  1.00  0.00    +0.000 H 
ATOM    118  H27 UNL A   1      54.589  22.630  18.648  1.00  0.00    +0.000 H 
ATOM    119  H28 UNL A   1      57.062  21.986  18.799  1.00  0.00    +0.000 H 
ATOM    120  H29 UNL A   1      56.496  17.386   9.886  1.00  0.00    +0.000 H 
ATOM    121  H30 UNL A   1      54.174  18.399   9.509  1.00  0.00    +0.000 H 
ENDROOT
BRANCH   19   18
ATOM     76  C53 UNL A   1      51.900  20.795   9.809  1.00  0.00    +0.000 C 
ATOM     77  C54 UNL A   1      50.952  20.664   8.795  1.00  0.00    +0.000 C 
ATOM    110  H19 UNL A   1      50.035  17.484   9.346  1.00  0.00    +0.000 H 
ATOM     15  C11 UNL A   1      50.315  19.436   8.587  1.00  0.00    +0.000 C 
ATOM     16  C12 UNL A   1      50.538  18.377   9.471  1.00  0.00    +0.000 C 
ATOM     17  C13 UNL A   1      51.444  18.527  10.524  1.00  0.00    +0.000 C 
ATOM    111  H20 UNL A   1      51.589  17.752  11.190  1.00  0.00    +0.000 H 
ATOM     18  C14 UNL A   1      52.157  19.727  10.681  1.00  0.00    +0.000 C 
ATOM    122  H31 UNL A   1      52.416  21.682   9.918  1.00  0.00    +0.000 H 
ATOM    123  H32 UNL A   1      50.720  21.474   8.198  1.00  0.00    +0.000 H 
BRANCH   15   13
ATOM     13  C10 UNL A   1      49.381  19.231   7.456  1.00  0.00    +0.000 C 
ATOM     14  O2  UNL A   1      48.569  20.107   7.176  1.00  0.00    +0.000 O 
BRANCH   13   12
ATOM     12  N2  UNL A   1      49.405  18.062   6.740  1.00  0.00    +0.000 N 
ATOM    109  H18 UNL A   1      50.081  17.406   7.028  1.00  0.00    +0.000 H 
BRANCH   12   11
ATOM     11  C9  UNL A   1      48.578  17.649   5.618  1.00  0.00    +0.000 C 
ATOM    108  H17 UNL A   1      49.153  16.971   5.023  1.00  0.00    +0.000 H 
ATOM    107  H16 UNL A   1      48.296  18.519   5.062  1.00  0.00    +0.000 H 
BRANCH   11   10
ATOM    105  H14 UNL A   1      47.443  15.877   5.856  1.00  0.00    +0.000 H 
ATOM     10  C8  UNL A   1      47.312  16.919   6.061  1.00  0.00    +0.000 C 
ATOM    106  H15 UNL A   1      47.193  17.139   7.102  1.00  0.00    +0.000 H 
BRANCH   10    9
ATOM      9  C7  UNL A   1      46.022  17.378   5.380  1.00  0.00    +0.000 C 
ATOM    103  H12 UNL A   1      45.197  17.008   5.952  1.00  0.00    +0.000 H 
ATOM    104  H13 UNL A   1      46.071  18.446   5.341  1.00  0.00    +0.000 H 
BRANCH    9    8
ATOM    101  H10 UNL A   1      46.808  16.892   3.472  1.00  0.00    +0.000 H 
ATOM    102  H11 UNL A   1      45.375  15.949   3.993  1.00  0.00    +0.000 H 
ATOM      8  C6  UNL A   1      45.843  16.909   3.935  1.00  0.00    +0.000 C 
BRANCH    8    7
ATOM     99  H8  UNL A   1      45.341  17.829   2.086  1.00  0.00    +0.000 H 
ATOM    100  H9  UNL A   1      43.959  17.303   3.094  1.00  0.00    +0.000 H 
ATOM      7  C5  UNL A   1      44.918  17.775   3.068  1.00  0.00    +0.000 C 
BRANCH    7    6
ATOM     97  H6  UNL A   1      43.763  19.259   4.080  1.00  0.00    +0.000 H 
ATOM     98  H7  UNL A   1      45.508  19.453   4.234  1.00  0.00    +0.000 H 
ATOM      6  C4  UNL A   1      44.704  19.207   3.573  1.00  0.00    +0.000 C 
BRANCH    6    5
ATOM      5  N1  UNL A   1      44.704  20.165   2.482  1.00  0.00    +0.000 N 
ATOM     96  H5  UNL A   1      45.578  20.454   2.132  1.00  0.00    +0.000 H 
BRANCH    5    3
ATOM      3  C3  UNL A   1      43.580  20.696   1.904  1.00  0.00    +0.000 C 
ATOM      4  O1  UNL A   1      43.458  21.919   1.970  1.00  0.00    +0.000 O 
BRANCH    3    2
ATOM      2  C2  UNL A   1      42.584  19.757   1.196  1.00  0.00    +0.000 C 
ATOM     95  H4  UNL A   1      42.473  18.894   1.820  1.00  0.00    +0.000 H 
BRANCH    2    1
ATOM      1  C1  UNL A   1      43.176  19.416  -0.178  1.00  0.00    +0.000 C 
ATOM     92  H1  UNL A   1      42.497  18.785  -0.712  1.00  0.00    +0.000 H 
ATOM     93  H2  UNL A   1      44.108  18.906  -0.048  1.00  0.00    +0.000 H 
ATOM     94  H3  UNL A   1      43.337  20.317  -0.732  1.00  0.00    +0.000 H 
ENDBRANCH    2    1
BRANCH    2   78
ATOM    137  H46 UNL A   1      38.046  19.900   2.390  1.00  0.00    +0.000 H 
ATOM     78  C55 UNL A   1      41.136  20.262   1.068  1.00  0.00    +0.000 C 
ATOM     79  C56 UNL A   1      40.759  21.160   0.051  1.00  0.00    +0.000 C 
ATOM     80  C57 UNL A   1      39.439  21.586  -0.118  1.00  0.00    +0.000 C 
ATOM     81  C58 UNL A   1      38.434  21.146   0.738  1.00  0.00    +0.000 C 
ATOM     89  C65 UNL A   1      38.780  20.257   1.759  1.00  0.00    +0.000 C 
ATOM     90  C66 UNL A   1      40.109  19.841   1.940  1.00  0.00    +0.000 C 
ATOM     91 Br1  UNL A   1      40.417  18.749   3.472  1.00  0.00    +0.000 Br
ATOM    124  H33 UNL A   1      41.484  21.516  -0.593  1.00  0.00    +0.000 H 
ATOM    125  H34 UNL A   1      39.207  22.235  -0.885  1.00  0.00    +0.000 H 
BRANCH   81   82
ATOM     82  C59 UNL A   1      37.019  21.646   0.582  1.00  0.00    +0.000 C 
ATOM    126  H35 UNL A   1      36.908  22.515   1.195  1.00  0.00    +0.000 H 
ATOM    127  H36 UNL A   1      36.389  20.829   0.868  1.00  0.00    +0.000 H 
BRANCH   82   83
ATOM    129  H38 UNL A   1      34.692  21.048  -0.565  1.00  0.00    +0.000 H 
ATOM    130  H39 UNL A   1      35.561  20.445  -1.924  1.00  0.00    +0.000 H 
ATOM    131  H40 UNL A   1      33.731  22.718  -1.792  1.00  0.00    +0.000 H 
ATOM    132  H41 UNL A   1      34.340  21.952  -3.207  1.00  0.00    +0.000 H 
ATOM    133  H42 UNL A   1      35.115  24.436  -2.593  1.00  0.00    +0.000 H 
ATOM    134  H43 UNL A   1      36.268  23.382  -3.270  1.00  0.00    +0.000 H 
ATOM    135  H44 UNL A   1      35.807  23.994  -0.315  1.00  0.00    +0.000 H 
ATOM     83  C60 UNL A   1      36.596  22.019  -0.848  1.00  0.00    +0.000 C 
ATOM     84  C61 UNL A   1      35.327  21.333  -1.378  1.00  0.00    +0.000 C 
ATOM     85  C62 UNL A   1      34.624  22.367  -2.263  1.00  0.00    +0.000 C 
ATOM     86  C63 UNL A   1      35.618  23.506  -2.429  1.00  0.00    +0.000 C 
ATOM     87  C64 UNL A   1      36.354  23.510  -1.098  1.00  0.00    +0.000 C 
ATOM    128  H37 UNL A   1      37.464  21.670  -1.365  1.00  0.00    +0.000 H 
BRANCH   87   88
ATOM    136  H45 UNL A   1      38.108  24.034  -0.386  1.00  0.00    +0.000 H 
ATOM     88  O3  UNL A   1      37.576  24.220  -1.176  1.00  0.00    +0.000 O 
ENDBRANCH   87   88
ENDBRANCH   82   83
ENDBRANCH   81   82
ENDBRANCH    2   78
ENDBRANCH    3    2
ENDBRANCH    5    3
ENDBRANCH    6    5
ENDBRANCH    7    6
ENDBRANCH    8    7
ENDBRANCH    9    8
ENDBRANCH   10    9
ENDBRANCH   11   10
ENDBRANCH   12   11
ENDBRANCH   13   12
ENDBRANCH   15   13
ENDBRANCH   19   18
BRANCH   23   24
ATOM     33  C24 UNL A   1      59.459  17.997  10.351  1.00  0.00    +0.000 C 
ATOM     34  F5  UNL A   1      59.454  19.332  10.212  1.00  0.00    +0.000 F 
ATOM     24  C19 UNL A   1      58.683  17.387  11.349  1.00  0.00    +0.000 C 
ATOM     25  C20 UNL A   1      58.722  15.987  11.447  1.00  0.00    +0.000 C 
ATOM     26  F1  UNL A   1      58.007  15.358  12.392  1.00  0.00    +0.000 F 
ATOM     27  C21 UNL A   1      59.517  15.231  10.590  1.00  0.00    +0.000 C 
ATOM     28  F2  UNL A   1      59.564  13.898  10.725  1.00  0.00    +0.000 F 
ATOM     29  C22 UNL A   1      60.266  15.854   9.603  1.00  0.00    +0.000 C 
ATOM     30  F3  UNL A   1      61.021  15.124   8.772  1.00  0.00    +0.000 F 
ATOM     31  C23 UNL A   1      60.234  17.235   9.480  1.00  0.00    +0.000 C 
ATOM     32  F4  UNL A   1      60.947  17.838   8.519  1.00  0.00    +0.000 F 
ENDBRANCH   23   24
BRANCH   40   41
ATOM     41  C30 UNL A   1      59.059  20.678  17.750  1.00  0.00    +0.000 C 
ATOM     42  C31 UNL A   1      59.800  21.866  17.831  1.00  0.00    +0.000 C 
ATOM     43  F6  UNL A   1      59.645  22.822  16.903  1.00  0.00    +0.000 F 
ATOM     44  C32 UNL A   1      60.740  22.055  18.841  1.00  0.00    +0.000 C 
ATOM     45  F7  UNL A   1      61.473  23.176  18.869  1.00  0.00    +0.000 F 
ATOM     46  C33 UNL A   1      60.931  21.078  19.806  1.00  0.00    +0.000 C 
ATOM     47  F8  UNL A   1      61.834  21.262  20.779  1.00  0.00    +0.000 F 
ATOM     48  C34 UNL A   1      60.191  19.905  19.759  1.00  0.00    +0.000 C 
ATOM     49  F9  UNL A   1      60.367  18.964  20.697  1.00  0.00    +0.000 F 
ATOM     50  C35 UNL A   1      59.271  19.701  18.735  1.00  0.00    +0.000 C 
ATOM     51  F10 UNL A   1      58.583  18.550  18.705  1.00  0.00    +0.000 F 
ENDBRANCH   40   41
BRANCH   55   56
ATOM     65  C44 UNL A   1      51.640  22.031  18.006  1.00  0.00    +0.000 C 
ATOM     66  F15 UNL A   1      51.692  20.697  18.135  1.00  0.00    +0.000 F 
ATOM     56  C39 UNL A   1      52.434  22.676  17.048  1.00  0.00    +0.000 C 
ATOM     57  C40 UNL A   1      52.337  24.071  16.950  1.00  0.00    +0.000 C 
ATOM     58  F11 UNL A   1      53.093  24.733  16.062  1.00  0.00    +0.000 F 
ATOM     59  C41 UNL A   1      51.500  24.795  17.795  1.00  0.00    +0.000 C 
ATOM     60  F12 UNL A   1      51.465  26.132  17.716  1.00  0.00    +0.000 F 
ATOM     61  C42 UNL A   1      50.721  24.136  18.734  1.00  0.00    +0.000 C 
ATOM     62  F13 UNL A   1      49.917  24.833  19.549  1.00  0.00    +0.000 F 
ATOM     63  C43 UNL A   1      50.783  22.754  18.834  1.00  0.00    +0.000 C 
ATOM     64  F14 UNL A   1      50.021  22.112  19.730  1.00  0.00    +0.000 F 
ENDBRANCH   55   56
TORSDOF 20
ENDMDL
MODEL 8
REMARK VINA RESULT:     -10.5     37.796     43.238
ROOT
ATOM     19  C15 UNL A   1      13.291  49.632   3.291  1.00  0.00    +0.000 C 
ATOM     20  C16 UNL A   1      14.167  49.231   2.138  1.00  0.00    +0.000 C 
ATOM     21  N3  UNL A   1      14.979  49.968   1.421  1.00  0.00    +0.000 N 
ATOM     22  C17 UNL A   1      15.567  49.105   0.507  1.00  0.00    +0.000 C 
ATOM     23  C18 UNL A   1      16.435  49.395  -0.493  1.00  0.00    +0.000 C 
ATOM     35  C25 UNL A   1      16.925  50.716  -0.789  1.00  0.00    +0.000 C 
ATOM     36  C26 UNL A   1      17.770  51.116  -1.809  1.00  0.00    +0.000 C 
ATOM     37  C27 UNL A   1      17.994  52.491  -1.681  1.00  0.00    +0.000 C 
ATOM     38  C28 UNL A   1      17.257  52.955  -0.604  1.00  0.00    +0.000 C 
ATOM     39  N4  UNL A   1      16.611  51.855  -0.062  1.00  0.00    +0.000 N 
ATOM     40  C29 UNL A   1      17.148  54.300  -0.105  1.00  0.00    +0.000 C 
ATOM     52  C36 UNL A   1      16.395  54.675   0.958  1.00  0.00    +0.000 C 
ATOM     53  N5  UNL A   1      15.592  53.895   1.777  1.00  0.00    +0.000 N 
ATOM     54  C37 UNL A   1      15.092  54.709   2.673  1.00  0.00    +0.000 C 
ATOM     55  C38 UNL A   1      14.135  54.416   3.796  1.00  0.00    +0.000 C 
ATOM     67  C45 UNL A   1      13.669  53.163   3.954  1.00  0.00    +0.000 C 
ATOM     68  C46 UNL A   1      12.726  52.734   4.981  1.00  0.00    +0.000 C 
ATOM     69  C47 UNL A   1      12.508  51.415   4.853  1.00  0.00    +0.000 C 
ATOM     70  C48 UNL A   1      13.277  50.911   3.715  1.00  0.00    +0.000 C 
ATOM     71  N6  UNL A   1      13.937  52.018   3.242  1.00  0.00    +0.000 N 
ATOM     72  C49 UNL A   1      15.543  56.101   2.535  1.00  0.00    +0.000 C 
ATOM     73  C50 UNL A   1      16.300  56.034   1.450  1.00  0.00    +0.000 C 
ATOM     74  C51 UNL A   1      15.056  47.780   0.787  1.00  0.00    +0.000 C 
ATOM     75  C52 UNL A   1      14.147  47.812   1.751  1.00  0.00    +0.000 C 
ATOM    112  H21 UNL A   1      18.167  50.504  -2.539  1.00  0.00    +0.000 H 
ATOM    113  H22 UNL A   1      18.604  53.062  -2.286  1.00  0.00    +0.000 H 
ATOM    114  H23 UNL A   1      16.017  51.879   0.723  1.00  0.00    +0.000 H 
ATOM    115  H24 UNL A   1      12.294  53.346   5.691  1.00  0.00    +0.000 H 
ATOM    116  H25 UNL A   1      11.897  50.848   5.461  1.00  0.00    +0.000 H 
ATOM    117  H26 UNL A   1      14.543  51.995   2.467  1.00  0.00    +0.000 H 
ATOM    118  H27 UNL A   1      15.327  56.918   3.128  1.00  0.00    +0.000 H 
ATOM    119  H28 UNL A   1      16.764  56.845   1.011  1.00  0.00    +0.000 H 
ATOM    120  H29 UNL A   1      15.362  46.922   0.302  1.00  0.00    +0.000 H 
ATOM    121  H30 UNL A   1      13.573  47.043   2.130  1.00  0.00    +0.000 H 
ENDROOT
BRANCH   19   18
ATOM     76  C53 UNL A   1      13.066  47.781   4.961  1.00  0.00    +0.000 C 
ATOM     77  C54 UNL A   1      12.299  46.842   5.650  1.00  0.00    +0.000 C 
ATOM    110  H19 UNL A   1       9.303  47.528   4.303  1.00  0.00    +0.000 H 
ATOM     15  C11 UNL A   1      10.915  46.792   5.455  1.00  0.00    +0.000 C 
ATOM     16  C12 UNL A   1      10.319  47.597   4.481  1.00  0.00    +0.000 C 
ATOM     17  C13 UNL A   1      11.096  48.496   3.747  1.00  0.00    +0.000 C 
ATOM    111  H20 UNL A   1      10.659  49.072   3.012  1.00  0.00    +0.000 H 
ATOM     18  C14 UNL A   1      12.472  48.618   4.005  1.00  0.00    +0.000 C 
ATOM    122  H31 UNL A   1      14.076  47.860   5.156  1.00  0.00    +0.000 H 
ATOM    123  H32 UNL A   1      12.752  46.185   6.303  1.00  0.00    +0.000 H 
BRANCH   15   13
ATOM     13  C10 UNL A   1      10.055  45.881   6.244  1.00  0.00    +0.000 C 
ATOM     14  O2  UNL A   1      10.223  44.667   6.161  1.00  0.00    +0.000 O 
BRANCH   13   12
ATOM     12  N2  UNL A   1       9.063  46.384   7.046  1.00  0.00    +0.000 N 
ATOM    109  H18 UNL A   1       8.278  46.742   6.570  1.00  0.00    +0.000 H 
BRANCH   12   11
ATOM     11  C9  UNL A   1       8.999  46.466   8.496  1.00  0.00    +0.000 C 
ATOM    108  H17 UNL A   1       9.080  45.471   8.881  1.00  0.00    +0.000 H 
ATOM    107  H16 UNL A   1       8.070  46.921   8.772  1.00  0.00    +0.000 H 
BRANCH   11   10
ATOM    105  H14 UNL A   1      10.514  47.935   8.320  1.00  0.00    +0.000 H 
ATOM     10  C8  UNL A   1      10.141  47.288   9.087  1.00  0.00    +0.000 C 
ATOM    106  H15 UNL A   1       9.727  47.812   9.924  1.00  0.00    +0.000 H 
BRANCH   10    9
ATOM      9  C7  UNL A   1      11.317  46.476   9.633  1.00  0.00    +0.000 C 
ATOM    103  H12 UNL A   1      11.236  46.453  10.700  1.00  0.00    +0.000 H 
ATOM    104  H13 UNL A   1      11.246  45.510   9.178  1.00  0.00    +0.000 H 
BRANCH    9    8
ATOM    101  H10 UNL A   1      13.214  46.258   8.712  1.00  0.00    +0.000 H 
ATOM    102  H11 UNL A   1      12.538  47.918   8.733  1.00  0.00    +0.000 H 
ATOM      8  C6  UNL A   1      12.704  47.011   9.276  1.00  0.00    +0.000 C 
BRANCH    8    7
ATOM     99  H8  UNL A   1      14.076  46.504  10.818  1.00  0.00    +0.000 H 
ATOM    100  H9  UNL A   1      14.274  48.133  10.105  1.00  0.00    +0.000 H 
ATOM      7  C5  UNL A   1      13.593  47.392  10.467  1.00  0.00    +0.000 C 
BRANCH    7    6
ATOM     97  H6  UNL A   1      11.883  47.597  11.730  1.00  0.00    +0.000 H 
ATOM     98  H7  UNL A   1      13.428  47.848  12.538  1.00  0.00    +0.000 H 
ATOM      6  C4  UNL A   1      12.857  48.031  11.652  1.00  0.00    +0.000 C 
BRANCH    6    5
ATOM      5  N1  UNL A   1      12.722  49.466  11.487  1.00  0.00    +0.000 N 
ATOM     96  H5  UNL A   1      11.901  49.799  11.057  1.00  0.00    +0.000 H 
BRANCH    5    3
ATOM      3  C3  UNL A   1      13.652  50.392  11.885  1.00  0.00    +0.000 C 
ATOM      4  O1  UNL A   1      13.931  50.406  13.085  1.00  0.00    +0.000 O 
BRANCH    3    2
ATOM      2  C2  UNL A   1      14.300  51.308  10.829  1.00  0.00    +0.000 C 
ATOM     95  H4  UNL A   1      15.166  51.744  11.285  1.00  0.00    +0.000 H 
BRANCH    2    1
ATOM      1  C1  UNL A   1      13.255  52.359  10.432  1.00  0.00    +0.000 C 
ATOM     92  H1  UNL A   1      13.030  52.976  11.277  1.00  0.00    +0.000 H 
ATOM     93  H2  UNL A   1      12.363  51.867  10.103  1.00  0.00    +0.000 H 
ATOM     94  H3  UNL A   1      13.641  52.965   9.639  1.00  0.00    +0.000 H 
ENDBRANCH    2    1
BRANCH    2   78
ATOM    137  H46 UNL A   1      17.760  49.311   8.362  1.00  0.00    +0.000 H 
ATOM     78  C55 UNL A   1      14.892  50.615   9.589  1.00  0.00    +0.000 C 
ATOM     79  C56 UNL A   1      14.128  50.420   8.423  1.00  0.00    +0.000 C 
ATOM     80  C57 UNL A   1      14.663  49.845   7.267  1.00  0.00    +0.000 C 
ATOM     81  C58 UNL A   1      15.988  49.420   7.231  1.00  0.00    +0.000 C 
ATOM     89  C65 UNL A   1      16.769  49.598   8.375  1.00  0.00    +0.000 C 
ATOM     90  C66 UNL A   1      16.228  50.160   9.544  1.00  0.00    +0.000 C 
ATOM     91 Br1  UNL A   1      17.397  50.186  11.049  1.00  0.00    +0.000 Br
ATOM    124  H33 UNL A   1      13.138  50.712   8.422  1.00  0.00    +0.000 H 
ATOM    125  H34 UNL A   1      14.069  49.733   6.431  1.00  0.00    +0.000 H 
BRANCH   81   82
ATOM     82  C59 UNL A   1      16.548  48.756   5.998  1.00  0.00    +0.000 C 
ATOM    126  H35 UNL A   1      15.923  47.922   5.761  1.00  0.00    +0.000 H 
ATOM    127  H36 UNL A   1      17.555  48.489   6.243  1.00  0.00    +0.000 H 
BRANCH   82   83
ATOM    129  H38 UNL A   1      17.169  51.345   5.963  1.00  0.00    +0.000 H 
ATOM    130  H39 UNL A   1      15.785  51.624   4.974  1.00  0.00    +0.000 H 
ATOM    131  H40 UNL A   1      18.606  52.001   4.314  1.00  0.00    +0.000 H 
ATOM    132  H41 UNL A   1      17.244  52.572   3.431  1.00  0.00    +0.000 H 
ATOM    133  H42 UNL A   1      18.789  50.646   2.406  1.00  0.00    +0.000 H 
ATOM    134  H43 UNL A   1      17.111  50.551   2.140  1.00  0.00    +0.000 H 
ATOM    135  H44 UNL A   1      18.737  49.154   4.312  1.00  0.00    +0.000 H 
ATOM     83  C60 UNL A   1      16.645  49.644   4.746  1.00  0.00    +0.000 C 
ATOM     84  C61 UNL A   1      16.747  51.157   4.997  1.00  0.00    +0.000 C 
ATOM     85  C62 UNL A   1      17.664  51.708   3.901  1.00  0.00    +0.000 C 
ATOM     86  C63 UNL A   1      17.850  50.567   2.913  1.00  0.00    +0.000 C 
ATOM     87  C64 UNL A   1      17.812  49.336   3.805  1.00  0.00    +0.000 C 
ATOM    128  H37 UNL A   1      15.705  49.392   4.302  1.00  0.00    +0.000 H 
BRANCH   87   88
ATOM    136  H45 UNL A   1      18.356  47.939   2.535  1.00  0.00    +0.000 H 
ATOM     88  O3  UNL A   1      17.571  48.156   3.061  1.00  0.00    +0.000 O 
ENDBRANCH   87   88
ENDBRANCH   82   83
ENDBRANCH   81   82
ENDBRANCH    2   78
ENDBRANCH    3    2
ENDBRANCH    5    3
ENDBRANCH    6    5
ENDBRANCH    7    6
ENDBRANCH    8    7
ENDBRANCH    9    8
ENDBRANCH   10    9
ENDBRANCH   11   10
ENDBRANCH   12   11
ENDBRANCH   13   12
ENDBRANCH   15   13
ENDBRANCH   19   18
BRANCH   23   24
ATOM     33  C24 UNL A   1      18.094  47.582  -1.065  1.00  0.00    +0.000 C 
ATOM     34  F5  UNL A   1      18.807  47.906   0.026  1.00  0.00    +0.000 F 
ATOM     24  C19 UNL A   1      16.902  48.263  -1.358  1.00  0.00    +0.000 C 
ATOM     25  C20 UNL A   1      16.199  47.887  -2.513  1.00  0.00    +0.000 C 
ATOM     26  F1  UNL A   1      15.049  48.500  -2.830  1.00  0.00    +0.000 F 
ATOM     27  C21 UNL A   1      16.663  46.862  -3.333  1.00  0.00    +0.000 C 
ATOM     28  F2  UNL A   1      15.957  46.498  -4.412  1.00  0.00    +0.000 F 
ATOM     29  C22 UNL A   1      17.850  46.212  -3.030  1.00  0.00    +0.000 C 
ATOM     30  F3  UNL A   1      18.302  45.233  -3.827  1.00  0.00    +0.000 F 
ATOM     31  C23 UNL A   1      18.568  46.574  -1.900  1.00  0.00    +0.000 C 
ATOM     32  F4  UNL A   1      19.721  45.955  -1.613  1.00  0.00    +0.000 F 
ENDBRANCH   23   24
BRANCH   40   41
ATOM     41  C30 UNL A   1      17.907  55.379  -0.817  1.00  0.00    +0.000 C 
ATOM     42  C31 UNL A   1      19.229  55.697  -0.471  1.00  0.00    +0.000 C 
ATOM     43  F6  UNL A   1      19.832  55.059   0.543  1.00  0.00    +0.000 F 
ATOM     44  C32 UNL A   1      19.919  56.706  -1.137  1.00  0.00    +0.000 C 
ATOM     45  F7  UNL A   1      21.163  57.028  -0.756  1.00  0.00    +0.000 F 
ATOM     46  C33 UNL A   1      19.316  57.391  -2.181  1.00  0.00    +0.000 C 
ATOM     47  F8  UNL A   1      19.982  58.361  -2.822  1.00  0.00    +0.000 F 
ATOM     48  C34 UNL A   1      18.017  57.077  -2.555  1.00  0.00    +0.000 C 
ATOM     49  F9  UNL A   1      17.436  57.731  -3.570  1.00  0.00    +0.000 F 
ATOM     50  C35 UNL A   1      17.315  56.088  -1.874  1.00  0.00    +0.000 C 
ATOM     51  F10 UNL A   1      16.054  55.817  -2.247  1.00  0.00    +0.000 F 
ENDBRANCH   40   41
BRANCH   55   56
ATOM     65  C44 UNL A   1      14.365  55.763   5.911  1.00  0.00    +0.000 C 
ATOM     66  F15 UNL A   1      15.423  55.019   6.264  1.00  0.00    +0.000 F 
ATOM     56  C39 UNL A   1      13.689  55.497   4.711  1.00  0.00    +0.000 C 
ATOM     57  C40 UNL A   1      12.585  56.300   4.392  1.00  0.00    +0.000 C 
ATOM     58  F11 UNL A   1      11.921  56.098   3.245  1.00  0.00    +0.000 F 
ATOM     59  C41 UNL A   1      12.190  57.344   5.224  1.00  0.00    +0.000 C 
ATOM     60  F12 UNL A   1      11.164  58.129   4.870  1.00  0.00    +0.000 F 
ATOM     61  C42 UNL A   1      12.871  57.586   6.408  1.00  0.00    +0.000 C 
ATOM     62  F13 UNL A   1      12.492  58.592   7.208  1.00  0.00    +0.000 F 
ATOM     63  C43 UNL A   1      13.952  56.790   6.756  1.00  0.00    +0.000 C 
ATOM     64  F14 UNL A   1      14.605  57.012   7.905  1.00  0.00    +0.000 F 
ENDBRANCH   55   56
TORSDOF 20
ENDMDL
MODEL 9
REMARK VINA RESULT:     -10.4      0.803      2.144
ROOT
ATOM     19  C15 UNL A   1      38.211  31.040  30.462  1.00  0.00    +0.000 C 
ATOM     20  C16 UNL A   1      38.501  31.364  31.900  1.00  0.00    +0.000 C 
ATOM     21  N3  UNL A   1      39.449  30.900  32.677  1.00  0.00    +0.000 N 
ATOM     22  C17 UNL A   1      39.287  31.543  33.897  1.00  0.00    +0.000 C 
ATOM     23  C18 UNL A   1      39.982  31.363  35.046  1.00  0.00    +0.000 C 
ATOM     35  C25 UNL A   1      41.067  30.431  35.205  1.00  0.00    +0.000 C 
ATOM     36  C26 UNL A   1      41.801  30.144  36.342  1.00  0.00    +0.000 C 
ATOM     37  C27 UNL A   1      42.772  29.193  36.011  1.00  0.00    +0.000 C 
ATOM     38  C28 UNL A   1      42.618  28.858  34.676  1.00  0.00    +0.000 C 
ATOM     39  N4  UNL A   1      41.573  29.629  34.192  1.00  0.00    +0.000 N 
ATOM     40  C29 UNL A   1      43.366  27.907  33.898  1.00  0.00    +0.000 C 
ATOM     52  C36 UNL A   1      43.146  27.630  32.589  1.00  0.00    +0.000 C 
ATOM     53  N5  UNL A   1      42.199  28.169  31.731  1.00  0.00    +0.000 N 
ATOM     54  C37 UNL A   1      42.402  27.600  30.568  1.00  0.00    +0.000 C 
ATOM     55  C38 UNL A   1      41.654  27.785  29.276  1.00  0.00    +0.000 C 
ATOM     67  C45 UNL A   1      40.603  28.626  29.238  1.00  0.00    +0.000 C 
ATOM     68  C46 UNL A   1      39.773  28.891  28.067  1.00  0.00    +0.000 C 
ATOM     69  C47 UNL A   1      38.839  29.799  28.388  1.00  0.00    +0.000 C 
ATOM     70  C48 UNL A   1      38.987  30.160  29.799  1.00  0.00    +0.000 C 
ATOM     71  N6  UNL A   1      40.059  29.415  30.222  1.00  0.00    +0.000 N 
ATOM     72  C49 UNL A   1      43.521  26.648  30.554  1.00  0.00    +0.000 C 
ATOM     73  C50 UNL A   1      43.912  26.672  31.820  1.00  0.00    +0.000 C 
ATOM     74  C51 UNL A   1      38.181  32.465  33.746  1.00  0.00    +0.000 C 
ATOM     75  C52 UNL A   1      37.626  32.354  32.547  1.00  0.00    +0.000 C 
ATOM    112  H21 UNL A   1      41.657  30.561  37.276  1.00  0.00    +0.000 H 
ATOM    113  H22 UNL A   1      43.483  28.807  36.652  1.00  0.00    +0.000 H 
ATOM    114  H23 UNL A   1      41.238  29.610  33.266  1.00  0.00    +0.000 H 
ATOM    115  H24 UNL A   1      39.887  28.450  27.140  1.00  0.00    +0.000 H 
ATOM    116  H25 UNL A   1      38.131  30.183  27.743  1.00  0.00    +0.000 H 
ATOM    117  H26 UNL A   1      40.406  29.443  31.143  1.00  0.00    +0.000 H 
ATOM    118  H27 UNL A   1      43.903  26.104  29.765  1.00  0.00    +0.000 H 
ATOM    119  H28 UNL A   1      44.666  26.084  32.208  1.00  0.00    +0.000 H 
ATOM    120  H29 UNL A   1      37.868  33.124  34.475  1.00  0.00    +0.000 H 
ATOM    121  H30 UNL A   1      36.796  32.834  32.167  1.00  0.00    +0.000 H 
ENDROOT
BRANCH   19   18
ATOM     76  C53 UNL A   1      35.788  31.253  29.873  1.00  0.00    +0.000 C 
ATOM     77  C54 UNL A   1      34.741  31.901  29.217  1.00  0.00    +0.000 C 
ATOM    110  H19 UNL A   1      36.485  34.373  27.767  1.00  0.00    +0.000 H 
ATOM     15  C11 UNL A   1      34.986  33.076  28.499  1.00  0.00    +0.000 C 
ATOM     16  C12 UNL A   1      36.297  33.531  28.335  1.00  0.00    +0.000 C 
ATOM     17  C13 UNL A   1      37.353  32.848  28.942  1.00  0.00    +0.000 C 
ATOM    111  H20 UNL A   1      38.323  33.172  28.800  1.00  0.00    +0.000 H 
ATOM     18  C14 UNL A   1      37.103  31.721  29.743  1.00  0.00    +0.000 C 
ATOM    122  H31 UNL A   1      35.593  30.424  30.456  1.00  0.00    +0.000 H 
ATOM    123  H32 UNL A   1      33.785  31.513  29.263  1.00  0.00    +0.000 H 
BRANCH   15   13
ATOM     13  C10 UNL A   1      33.885  33.847  27.879  1.00  0.00    +0.000 C 
ATOM     14  O2  UNL A   1      34.107  34.969  27.435  1.00  0.00    +0.000 O 
BRANCH   13   12
ATOM     12  N2  UNL A   1      32.619  33.324  27.821  1.00  0.00    +0.000 N 
ATOM    109  H18 UNL A   1      32.176  33.195  28.691  1.00  0.00    +0.000 H 
BRANCH   12   11
ATOM     11  C9  UNL A   1      31.834  32.932  26.662  1.00  0.00    +0.000 C 
ATOM    108  H17 UNL A   1      32.410  33.155  25.788  1.00  0.00    +0.000 H 
ATOM    107  H16 UNL A   1      30.910  33.475  26.674  1.00  0.00    +0.000 H 
BRANCH   11   10
ATOM    105  H14 UNL A   1      31.130  31.170  27.602  1.00  0.00    +0.000 H 
ATOM     10  C8  UNL A   1      31.522  31.437  26.643  1.00  0.00    +0.000 C 
ATOM    106  H15 UNL A   1      30.829  31.289  25.841  1.00  0.00    +0.000 H 
BRANCH   10    9
ATOM      9  C7  UNL A   1      32.714  30.525  26.348  1.00  0.00    +0.000 C 
ATOM    103  H12 UNL A   1      32.491  29.966  25.464  1.00  0.00    +0.000 H 
ATOM    104  H13 UNL A   1      33.562  31.171  26.244  1.00  0.00    +0.000 H 
BRANCH    9    8
ATOM    101  H10 UNL A   1      33.692  30.041  28.165  1.00  0.00    +0.000 H 
ATOM    102  H11 UNL A   1      32.138  29.199  27.862  1.00  0.00    +0.000 H 
ATOM      8  C6  UNL A   1      33.070  29.535  27.457  1.00  0.00    +0.000 C 
BRANCH    8    7
ATOM     99  H8  UNL A   1      34.848  28.508  26.907  1.00  0.00    +0.000 H 
ATOM    100  H9  UNL A   1      33.608  27.524  27.742  1.00  0.00    +0.000 H 
ATOM      7  C5  UNL A   1      33.809  28.268  27.001  1.00  0.00    +0.000 C 
BRANCH    7    6
ATOM     97  H6  UNL A   1      32.301  27.923  25.529  1.00  0.00    +0.000 H 
ATOM     98  H7  UNL A   1      33.932  28.102  24.885  1.00  0.00    +0.000 H 
ATOM      6  C4  UNL A   1      33.335  27.681  25.666  1.00  0.00    +0.000 C 
BRANCH    6    5
ATOM      5  N1  UNL A   1      33.490  26.239  25.630  1.00  0.00    +0.000 N 
ATOM     96  H5  UNL A   1      33.520  25.763  26.492  1.00  0.00    +0.000 H 
BRANCH    5    3
ATOM      3  C3  UNL A   1      33.598  25.490  24.486  1.00  0.00    +0.000 C 
ATOM      4  O1  UNL A   1      34.741  25.211  24.123  1.00  0.00    +0.000 O 
BRANCH    3    2
ATOM      2  C2  UNL A   1      32.317  25.026  23.768  1.00  0.00    +0.000 C 
ATOM     95  H4  UNL A   1      31.832  24.327  24.419  1.00  0.00    +0.000 H 
BRANCH    2    1
ATOM      1  C1  UNL A   1      32.743  24.390  22.438  1.00  0.00    +0.000 C 
ATOM     92  H1  UNL A   1      33.776  24.116  22.489  1.00  0.00    +0.000 H 
ATOM     93  H2  UNL A   1      32.601  25.094  21.645  1.00  0.00    +0.000 H 
ATOM     94  H3  UNL A   1      32.151  23.519  22.252  1.00  0.00    +0.000 H 
ENDBRANCH    2    1
BRANCH    2   78
ATOM    137  H46 UNL A   1      28.216  27.112  24.700  1.00  0.00    +0.000 H 
ATOM     78  C55 UNL A   1      31.226  26.090  23.552  1.00  0.00    +0.000 C 
ATOM     79  C56 UNL A   1      31.313  27.027  22.505  1.00  0.00    +0.000 C 
ATOM     80  C57 UNL A   1      30.307  27.965  22.256  1.00  0.00    +0.000 C 
ATOM     81  C58 UNL A   1      29.171  28.020  23.058  1.00  0.00    +0.000 C 
ATOM     89  C65 UNL A   1      29.060  27.104  24.108  1.00  0.00    +0.000 C 
ATOM     90  C66 UNL A   1      30.079  26.172  24.370  1.00  0.00    +0.000 C 
ATOM     91 Br1  UNL A   1      29.823  25.106  25.929  1.00  0.00    +0.000 Br
ATOM    124  H33 UNL A   1      32.149  27.021  21.899  1.00  0.00    +0.000 H 
ATOM    125  H34 UNL A   1      30.407  28.624  21.469  1.00  0.00    +0.000 H 
BRANCH   81   82
ATOM     82  C59 UNL A   1      28.110  29.064  22.817  1.00  0.00    +0.000 C 
ATOM    126  H35 UNL A   1      27.633  29.270  23.752  1.00  0.00    +0.000 H 
ATOM    127  H36 UNL A   1      27.457  28.650  22.077  1.00  0.00    +0.000 H 
BRANCH   82   83
ATOM    129  H38 UNL A   1      27.075  30.338  20.720  1.00  0.00    +0.000 H 
ATOM    130  H39 UNL A   1      28.663  30.476  20.069  1.00  0.00    +0.000 H 
ATOM    131  H40 UNL A   1      26.857  32.600  20.940  1.00  0.00    +0.000 H 
ATOM    132  H41 UNL A   1      28.298  32.772  20.015  1.00  0.00    +0.000 H 
ATOM    133  H42 UNL A   1      28.203  33.690  22.524  1.00  0.00    +0.000 H 
ATOM    134  H43 UNL A   1      29.654  32.982  21.986  1.00  0.00    +0.000 H 
ATOM    135  H44 UNL A   1      27.407  31.658  23.572  1.00  0.00    +0.000 H 
ATOM     83  C60 UNL A   1      28.606  30.399  22.237  1.00  0.00    +0.000 C 
ATOM     84  C61 UNL A   1      28.030  30.797  20.868  1.00  0.00    +0.000 C 
ATOM     85  C62 UNL A   1      27.889  32.322  20.895  1.00  0.00    +0.000 C 
ATOM     86  C63 UNL A   1      28.617  32.777  22.150  1.00  0.00    +0.000 C 
ATOM     87  C64 UNL A   1      28.375  31.630  23.118  1.00  0.00    +0.000 C 
ATOM    128  H37 UNL A   1      29.646  30.160  22.160  1.00  0.00    +0.000 H 
BRANCH   87   88
ATOM    136  H45 UNL A   1      29.780  30.825  24.230  1.00  0.00    +0.000 H 
ATOM     88  O3  UNL A   1      29.284  31.658  24.202  1.00  0.00    +0.000 O 
ENDBRANCH   87   88
ENDBRANCH   82   83
ENDBRANCH   81   82
ENDBRANCH    2   78
ENDBRANCH    3    2
ENDBRANCH    5    3
ENDBRANCH    6    5
ENDBRANCH    7    6
ENDBRANCH    8    7
ENDBRANCH    9    8
ENDBRANCH   10    9
ENDBRANCH   11   10
ENDBRANCH   12   11
ENDBRANCH   13   12
ENDBRANCH   15   13
ENDBRANCH   19   18
BRANCH   23   24
ATOM     33  C24 UNL A   1      40.314  33.324  36.600  1.00  0.00    +0.000 C 
ATOM     34  F5  UNL A   1      41.356  33.724  35.855  1.00  0.00    +0.000 F 
ATOM     24  C19 UNL A   1      39.581  32.183  36.236  1.00  0.00    +0.000 C 
ATOM     25  C20 UNL A   1      38.504  31.806  37.053  1.00  0.00    +0.000 C 
ATOM     26  F1  UNL A   1      37.767  30.730  36.742  1.00  0.00    +0.000 F 
ATOM     27  C21 UNL A   1      38.165  32.550  38.180  1.00  0.00    +0.000 C 
ATOM     28  F2  UNL A   1      37.112  32.191  38.927  1.00  0.00    +0.000 F 
ATOM     29  C22 UNL A   1      38.911  33.667  38.528  1.00  0.00    +0.000 C 
ATOM     30  F3  UNL A   1      38.591  34.375  39.619  1.00  0.00    +0.000 F 
ATOM     31  C23 UNL A   1      39.987  34.051  37.741  1.00  0.00    +0.000 C 
ATOM     32  F4  UNL A   1      40.716  35.123  38.082  1.00  0.00    +0.000 F 
ENDBRANCH   23   24
BRANCH   40   41
ATOM     41  C30 UNL A   1      44.463  27.145  34.581  1.00  0.00    +0.000 C 
ATOM     42  C31 UNL A   1      44.228  25.899  35.179  1.00  0.00    +0.000 C 
ATOM     43  F6  UNL A   1      42.993  25.375  35.184  1.00  0.00    +0.000 F 
ATOM     44  C32 UNL A   1      45.254  25.206  35.815  1.00  0.00    +0.000 C 
ATOM     45  F7  UNL A   1      44.997  24.040  36.423  1.00  0.00    +0.000 F 
ATOM     46  C33 UNL A   1      46.539  25.729  35.836  1.00  0.00    +0.000 C 
ATOM     47  F8  UNL A   1      47.527  25.060  36.447  1.00  0.00    +0.000 F 
ATOM     48  C34 UNL A   1      46.798  26.950  35.231  1.00  0.00    +0.000 C 
ATOM     49  F9  UNL A   1      48.041  27.452  35.241  1.00  0.00    +0.000 F 
ATOM     50  C35 UNL A   1      45.769  27.658  34.618  1.00  0.00    +0.000 C 
ATOM     51  F10 UNL A   1      46.046  28.845  34.056  1.00  0.00    +0.000 F 
ENDBRANCH   40   41
BRANCH   55   56
ATOM     65  C44 UNL A   1      41.506  25.777  27.765  1.00  0.00    +0.000 C 
ATOM     66  F15 UNL A   1      40.623  25.216  28.605  1.00  0.00    +0.000 F 
ATOM     56  C39 UNL A   1      42.052  27.034  28.058  1.00  0.00    +0.000 C 
ATOM     57  C40 UNL A   1      42.976  27.573  27.151  1.00  0.00    +0.000 C 
ATOM     58  F11 UNL A   1      43.508  28.782  27.378  1.00  0.00    +0.000 F 
ATOM     59  C41 UNL A   1      43.319  26.893  25.985  1.00  0.00    +0.000 C 
ATOM     60  F12 UNL A   1      44.164  27.453  25.109  1.00  0.00    +0.000 F 
ATOM     61  C42 UNL A   1      42.769  25.649  25.717  1.00  0.00    +0.000 C 
ATOM     62  F13 UNL A   1      43.097  24.996  24.595  1.00  0.00    +0.000 F 
ATOM     63  C43 UNL A   1      41.870  25.086  26.612  1.00  0.00    +0.000 C 
ATOM     64  F14 UNL A   1      41.347  23.877  26.364  1.00  0.00    +0.000 F 
ENDBRANCH   55   56
TORSDOF 20
ENDMDL
MODEL 10
REMARK VINA RESULT:     -10.4      2.121      3.050
ROOT
ATOM     19  C15 UNL A   1      38.458  29.745  29.869  1.00  0.00    +0.000 C 
ATOM     20  C16 UNL A   1      38.743  30.312  31.231  1.00  0.00    +0.000 C 
ATOM     21  N3  UNL A   1      39.781  30.117  32.007  1.00  0.00    +0.000 N 
ATOM     22  C17 UNL A   1      39.561  30.895  33.136  1.00  0.00    +0.000 C 
ATOM     23  C18 UNL A   1      40.316  30.992  34.256  1.00  0.00    +0.000 C 
ATOM     35  C25 UNL A   1      41.543  30.271  34.477  1.00  0.00    +0.000 C 
ATOM     36  C26 UNL A   1      42.354  30.268  35.598  1.00  0.00    +0.000 C 
ATOM     37  C27 UNL A   1      43.454  29.442  35.343  1.00  0.00    +0.000 C 
ATOM     38  C28 UNL A   1      43.308  28.899  34.076  1.00  0.00    +0.000 C 
ATOM     39  N4  UNL A   1      42.135  29.421  33.554  1.00  0.00    +0.000 N 
ATOM     40  C29 UNL A   1      44.172  27.974  33.393  1.00  0.00    +0.000 C 
ATOM     52  C36 UNL A   1      43.953  27.482  32.148  1.00  0.00    +0.000 C 
ATOM     53  N5  UNL A   1      42.901  27.740  31.282  1.00  0.00    +0.000 N 
ATOM     54  C37 UNL A   1      43.152  27.049  30.197  1.00  0.00    +0.000 C 
ATOM     55  C38 UNL A   1      42.338  26.928  28.937  1.00  0.00    +0.000 C 
ATOM     67  C45 UNL A   1      41.164  27.581  28.847  1.00  0.00    +0.000 C 
ATOM     68  C46 UNL A   1      40.261  27.544  27.701  1.00  0.00    +0.000 C 
ATOM     69  C47 UNL A   1      39.204  28.333  27.949  1.00  0.00    +0.000 C 
ATOM     70  C48 UNL A   1      39.342  28.911  29.288  1.00  0.00    +0.000 C 
ATOM     71  N6  UNL A   1      40.535  28.410  29.745  1.00  0.00    +0.000 N 
ATOM     72  C49 UNL A   1      44.409  26.290  30.247  1.00  0.00    +0.000 C 
ATOM     73  C50 UNL A   1      44.836  26.555  31.472  1.00  0.00    +0.000 C 
ATOM     74  C51 UNL A   1      38.316  31.603  32.926  1.00  0.00    +0.000 C 
ATOM     75  C52 UNL A   1      37.743  31.237  31.788  1.00  0.00    +0.000 C 
ATOM    112  H21 UNL A   1      42.177  30.786  36.473  1.00  0.00    +0.000 H 
ATOM    113  H22 UNL A   1      44.240  29.266  35.988  1.00  0.00    +0.000 H 
ATOM    114  H23 UNL A   1      41.775  29.218  32.660  1.00  0.00    +0.000 H 
ATOM    115  H24 UNL A   1      40.411  26.999  26.837  1.00  0.00    +0.000 H 
ATOM    116  H25 UNL A   1      38.420  28.506  27.301  1.00  0.00    +0.000 H 
ATOM    117  H26 UNL A   1      40.905  28.622  30.632  1.00  0.00    +0.000 H 
ATOM    118  H27 UNL A   1      44.846  25.704  29.517  1.00  0.00    +0.000 H 
ATOM    119  H28 UNL A   1      45.688  26.152  31.892  1.00  0.00    +0.000 H 
ATOM    120  H29 UNL A   1      37.926  32.302  33.576  1.00  0.00    +0.000 H 
ATOM    121  H30 UNL A   1      36.833  31.523  31.395  1.00  0.00    +0.000 H 
ENDROOT
BRANCH   19   18
ATOM     76  C53 UNL A   1      36.248  29.178  28.840  1.00  0.00    +0.000 C 
ATOM     77  C54 UNL A   1      35.084  29.543  28.165  1.00  0.00    +0.000 C 
ATOM    110  H19 UNL A   1      35.680  32.828  27.837  1.00  0.00    +0.000 H 
ATOM     15  C11 UNL A   1      34.848  30.886  27.854  1.00  0.00    +0.000 C 
ATOM     16  C12 UNL A   1      35.834  31.843  28.108  1.00  0.00    +0.000 C 
ATOM     17  C13 UNL A   1      37.027  31.468  28.729  1.00  0.00    +0.000 C 
ATOM    111  H20 UNL A   1      37.763  32.171  28.894  1.00  0.00    +0.000 H 
ATOM     18  C14 UNL A   1      37.230  30.136  29.131  1.00  0.00    +0.000 C 
ATOM    122  H31 UNL A   1      36.388  28.196  29.127  1.00  0.00    +0.000 H 
ATOM    123  H32 UNL A   1      34.395  28.822  27.896  1.00  0.00    +0.000 H 
BRANCH   15   13
ATOM     13  C10 UNL A   1      33.577  31.324  27.233  1.00  0.00    +0.000 C 
ATOM     14  O2  UNL A   1      33.201  32.484  27.378  1.00  0.00    +0.000 O 
BRANCH   13   12
ATOM     12  N2  UNL A   1      32.811  30.438  26.520  1.00  0.00    +0.000 N 
ATOM    109  H18 UNL A   1      33.075  30.316  25.579  1.00  0.00    +0.000 H 
BRANCH   12   11
ATOM     11  C9  UNL A   1      31.667  29.652  26.950  1.00  0.00    +0.000 C 
ATOM    108  H17 UNL A   1      31.021  29.530  26.107  1.00  0.00    +0.000 H 
ATOM    107  H16 UNL A   1      31.178  30.168  27.751  1.00  0.00    +0.000 H 
BRANCH   11   10
ATOM    105  H14 UNL A   1      33.074  28.080  27.136  1.00  0.00    +0.000 H 
ATOM     10  C8  UNL A   1      32.064  28.259  27.436  1.00  0.00    +0.000 C 
ATOM    106  H15 UNL A   1      31.928  28.267  28.498  1.00  0.00    +0.000 H 
BRANCH   10    9
ATOM      9  C7  UNL A   1      31.201  27.112  26.906  1.00  0.00    +0.000 C 
ATOM    103  H12 UNL A   1      30.633  26.721  27.724  1.00  0.00    +0.000 H 
ATOM    104  H13 UNL A   1      30.599  27.531  26.127  1.00  0.00    +0.000 H 
BRANCH    9    8
ATOM    101  H10 UNL A   1      32.176  26.214  25.253  1.00  0.00    +0.000 H 
ATOM    102  H11 UNL A   1      32.850  25.823  26.867  1.00  0.00    +0.000 H 
ATOM      8  C6  UNL A   1      31.972  25.955  26.270  1.00  0.00    +0.000 C 
BRANCH    8    7
ATOM     99  H8  UNL A   1      30.235  24.764  26.562  1.00  0.00    +0.000 H 
ATOM    100  H9  UNL A   1      31.361  24.200  25.291  1.00  0.00    +0.000 H 
ATOM      7  C5  UNL A   1      31.253  24.598  26.277  1.00  0.00    +0.000 C 
BRANCH    7    6
ATOM     97  H6  UNL A   1      32.758  23.932  27.638  1.00  0.00    +0.000 H 
ATOM     98  H7  UNL A   1      31.132  23.356  27.999  1.00  0.00    +0.000 H 
ATOM      6  C4  UNL A   1      31.847  23.550  27.227  1.00  0.00    +0.000 C 
BRANCH    6    5
ATOM      5  N1  UNL A   1      32.125  22.302  26.541  1.00  0.00    +0.000 N 
ATOM     96  H5  UNL A   1      31.370  21.845  26.106  1.00  0.00    +0.000 H 
BRANCH    5    3
ATOM      3  C3  UNL A   1      33.361  21.714  26.456  1.00  0.00    +0.000 C 
ATOM      4  O1  UNL A   1      33.768  21.147  27.470  1.00  0.00    +0.000 O 
BRANCH    3    2
ATOM      2  C2  UNL A   1      34.127  21.765  25.120  1.00  0.00    +0.000 C 
ATOM     95  H4  UNL A   1      33.718  20.995  24.498  1.00  0.00    +0.000 H 
BRANCH    2    1
ATOM      1  C1  UNL A   1      35.611  21.540  25.434  1.00  0.00    +0.000 C 
ATOM     92  H1  UNL A   1      36.177  21.575  24.527  1.00  0.00    +0.000 H 
ATOM     93  H2  UNL A   1      35.736  20.582  25.895  1.00  0.00    +0.000 H 
ATOM     94  H3  UNL A   1      35.955  22.304  26.100  1.00  0.00    +0.000 H 
ENDBRANCH    2    1
BRANCH    2   78
ATOM    137  H46 UNL A   1      32.495  24.117  21.398  1.00  0.00    +0.000 H 
ATOM     78  C55 UNL A   1      33.925  23.026  24.260  1.00  0.00    +0.000 C 
ATOM     79  C56 UNL A   1      34.531  24.250  24.601  1.00  0.00    +0.000 C 
ATOM     80  C57 UNL A   1      34.408  25.392  23.804  1.00  0.00    +0.000 C 
ATOM     81  C58 UNL A   1      33.654  25.366  22.634  1.00  0.00    +0.000 C 
ATOM     89  C65 UNL A   1      33.038  24.164  22.273  1.00  0.00    +0.000 C 
ATOM     90  C66 UNL A   1      33.147  23.021  23.082  1.00  0.00    +0.000 C 
ATOM     91 Br1  UNL A   1      32.120  21.521  22.510  1.00  0.00    +0.000 Br
ATOM    124  H33 UNL A   1      35.085  24.307  25.469  1.00  0.00    +0.000 H 
ATOM    125  H34 UNL A   1      34.879  26.265  24.086  1.00  0.00    +0.000 H 
BRANCH   81   82
ATOM     82  C59 UNL A   1      33.483  26.612  21.802  1.00  0.00    +0.000 C 
ATOM    126  H35 UNL A   1      33.414  26.316  20.777  1.00  0.00    +0.000 H 
ATOM    127  H36 UNL A   1      34.332  27.227  22.021  1.00  0.00    +0.000 H 
BRANCH   82   83
ATOM    129  H38 UNL A   1      31.076  25.696  22.476  1.00  0.00    +0.000 H 
ATOM    130  H39 UNL A   1      30.389  26.738  21.289  1.00  0.00    +0.000 H 
ATOM    131  H40 UNL A   1      30.038  26.794  24.188  1.00  0.00    +0.000 H 
ATOM    132  H41 UNL A   1      29.111  27.638  23.011  1.00  0.00    +0.000 H 
ATOM    133  H42 UNL A   1      30.719  28.989  24.665  1.00  0.00    +0.000 H 
ATOM    134  H43 UNL A   1      30.593  29.527  23.055  1.00  0.00    +0.000 H 
ATOM    135  H44 UNL A   1      32.735  27.713  24.255  1.00  0.00    +0.000 H 
ATOM     83  C60 UNL A   1      32.251  27.470  22.130  1.00  0.00    +0.000 C 
ATOM     84  C61 UNL A   1      30.911  26.722  22.222  1.00  0.00    +0.000 C 
ATOM     85  C62 UNL A   1      30.110  27.421  23.325  1.00  0.00    +0.000 C 
ATOM     86  C63 UNL A   1      30.884  28.688  23.652  1.00  0.00    +0.000 C 
ATOM     87  C64 UNL A   1      32.329  28.268  23.435  1.00  0.00    +0.000 C 
ATOM    128  H37 UNL A   1      32.273  28.112  21.275  1.00  0.00    +0.000 H 
BRANCH   87   88
ATOM    136  H45 UNL A   1      34.101  29.083  23.200  1.00  0.00    +0.000 H 
ATOM     88  O3  UNL A   1      33.186  29.387  23.298  1.00  0.00    +0.000 O 
ENDBRANCH   87   88
ENDBRANCH   82   83
ENDBRANCH   81   82
ENDBRANCH    2   78
ENDBRANCH    3    2
ENDBRANCH    5    3
ENDBRANCH    6    5
ENDBRANCH    7    6
ENDBRANCH    8    7
ENDBRANCH    9    8
ENDBRANCH   10    9
ENDBRANCH   11   10
ENDBRANCH   12   11
ENDBRANCH   13   12
ENDBRANCH   15   13
ENDBRANCH   19   18
BRANCH   23   24
ATOM     33  C24 UNL A   1      38.842  31.474  36.247  1.00  0.00    +0.000 C 
ATOM     34  F5  UNL A   1      38.354  30.226  36.174  1.00  0.00    +0.000 F 
ATOM     24  C19 UNL A   1      39.831  31.901  35.346  1.00  0.00    +0.000 C 
ATOM     25  C20 UNL A   1      40.303  33.217  35.464  1.00  0.00    +0.000 C 
ATOM     26  F1  UNL A   1      41.255  33.668  34.634  1.00  0.00    +0.000 F 
ATOM     27  C21 UNL A   1      39.816  34.067  36.453  1.00  0.00    +0.000 C 
ATOM     28  F2  UNL A   1      40.306  35.309  36.568  1.00  0.00    +0.000 F 
ATOM     29  C22 UNL A   1      38.830  33.628  37.325  1.00  0.00    +0.000 C 
ATOM     30  F3  UNL A   1      38.354  34.451  38.269  1.00  0.00    +0.000 F 
ATOM     31  C23 UNL A   1      38.340  32.335  37.219  1.00  0.00    +0.000 C 
ATOM     32  F4  UNL A   1      37.379  31.913  38.053  1.00  0.00    +0.000 F 
ENDBRANCH   23   24
BRANCH   40   41
ATOM     41  C30 UNL A   1      45.401  27.498  34.108  1.00  0.00    +0.000 C 
ATOM     42  C31 UNL A   1      46.621  28.181  34.003  1.00  0.00    +0.000 C 
ATOM     43  F6  UNL A   1      46.722  29.265  33.219  1.00  0.00    +0.000 F 
ATOM     44  C32 UNL A   1      47.756  27.723  34.667  1.00  0.00    +0.000 C 
ATOM     45  F7  UNL A   1      48.924  28.362  34.512  1.00  0.00    +0.000 F 
ATOM     46  C33 UNL A   1      47.685  26.597  35.473  1.00  0.00    +0.000 C 
ATOM     47  F8  UNL A   1      48.777  26.159  36.113  1.00  0.00    +0.000 F 
ATOM     48  C34 UNL A   1      46.482  25.919  35.609  1.00  0.00    +0.000 C 
ATOM     49  F9  UNL A   1      46.409  24.837  36.396  1.00  0.00    +0.000 F 
ATOM     50  C35 UNL A   1      45.352  26.358  34.925  1.00  0.00    +0.000 C 
ATOM     51  F10 UNL A   1      44.207  25.673  35.062  1.00  0.00    +0.000 F 
ENDBRANCH   40   41
BRANCH   55   56
ATOM     65  C44 UNL A   1      43.679  26.586  26.834  1.00  0.00    +0.000 C 
ATOM     66  F15 UNL A   1      44.085  27.863  26.891  1.00  0.00    +0.000 F 
ATOM     56  C39 UNL A   1      42.808  26.082  27.811  1.00  0.00    +0.000 C 
ATOM     57  C40 UNL A   1      42.409  24.743  27.701  1.00  0.00    +0.000 C 
ATOM     58  F11 UNL A   1      41.595  24.211  28.624  1.00  0.00    +0.000 F 
ATOM     59  C41 UNL A   1      42.883  23.933  26.672  1.00  0.00    +0.000 C 
ATOM     60  F12 UNL A   1      42.527  22.642  26.620  1.00  0.00    +0.000 F 
ATOM     61  C42 UNL A   1      43.741  24.454  25.715  1.00  0.00    +0.000 C 
ATOM     62  F13 UNL A   1      44.198  23.674  24.727  1.00  0.00    +0.000 F 
ATOM     63  C43 UNL A   1      44.131  25.783  25.790  1.00  0.00    +0.000 C 
ATOM     64  F14 UNL A   1      44.949  26.294  24.860  1.00  0.00    +0.000 F 
ENDBRANCH   55   56
TORSDOF 20
ENDMDL
