MODEL 1
REMARK VINA RESULT:     -10.5      0.000      0.000
ROOT
ATOM     28  C20 UNL A   1      41.597  25.989  27.970  1.00  0.00    +0.000 C 
ATOM     29  C21 UNL A   1      42.970  26.338  27.460  1.00  0.00    +0.000 C 
ATOM     30  N4  UNL A   1      43.656  27.443  27.619  1.00  0.00    +0.000 N 
ATOM     31  C22 UNL A   1      44.864  27.239  26.965  1.00  0.00    +0.000 C 
ATOM     32  C23 UNL A   1      45.900  28.099  26.814  1.00  0.00    +0.000 C 
ATOM     44  C30 UNL A   1      45.923  29.446  27.322  1.00  0.00    +0.000 C 
ATOM     45  C31 UNL A   1      46.924  30.395  27.203  1.00  0.00    +0.000 C 
ATOM     46  C32 UNL A   1      46.513  31.551  27.874  1.00  0.00    +0.000 C 
ATOM     47  C33 UNL A   1      45.243  31.334  28.381  1.00  0.00    +0.000 C 
ATOM     48  N5  UNL A   1      44.895  30.037  28.039  1.00  0.00    +0.000 N 
ATOM     49  C34 UNL A   1      44.407  32.237  29.130  1.00  0.00    +0.000 C 
ATOM     61  C41 UNL A   1      43.149  31.964  29.550  1.00  0.00    +0.000 C 
ATOM     62  N6  UNL A   1      42.411  30.802  29.386  1.00  0.00    +0.000 N 
ATOM     63  C42 UNL A   1      41.269  31.012  29.993  1.00  0.00    +0.000 C 
ATOM     64  C43 UNL A   1      40.089  30.094  30.138  1.00  0.00    +0.000 C 
ATOM     76  C50 UNL A   1      40.163  28.840  29.654  1.00  0.00    +0.000 C 
ATOM     77  C51 UNL A   1      39.103  27.839  29.736  1.00  0.00    +0.000 C 
ATOM     78  C52 UNL A   1      39.535  26.697  29.179  1.00  0.00    +0.000 C 
ATOM     79  C53 UNL A   1      40.885  26.903  28.655  1.00  0.00    +0.000 C 
ATOM     80  N7  UNL A   1      41.186  28.196  29.004  1.00  0.00    +0.000 N 
ATOM     81  C54 UNL A   1      41.154  32.339  30.615  1.00  0.00    +0.000 C 
ATOM     82  C55 UNL A   1      42.317  32.889  30.292  1.00  0.00    +0.000 C 
ATOM     83  C56 UNL A   1      44.833  25.897  26.426  1.00  0.00    +0.000 C 
ATOM     84  C57 UNL A   1      43.667  25.312  26.667  1.00  0.00    +0.000 C 
ATOM    109  H23 UNL A   1      47.819  30.272  26.704  1.00  0.00    +0.000 H 
ATOM    110  H24 UNL A   1      47.062  32.419  27.975  1.00  0.00    +0.000 H 
ATOM    111  H25 UNL A   1      44.043  29.600  28.269  1.00  0.00    +0.000 H 
ATOM    112  H26 UNL A   1      38.171  27.986  30.154  1.00  0.00    +0.000 H 
ATOM    113  H27 UNL A   1      39.001  25.816  29.130  1.00  0.00    +0.000 H 
ATOM    114  H28 UNL A   1      42.053  28.620  28.808  1.00  0.00    +0.000 H 
ATOM    115  H29 UNL A   1      40.374  32.739  31.160  1.00  0.00    +0.000 H 
ATOM    116  H30 UNL A   1      42.594  33.852  30.538  1.00  0.00    +0.000 H 
ATOM    117  H31 UNL A   1      45.616  25.453  25.921  1.00  0.00    +0.000 H 
ATOM    118  H32 UNL A   1      43.336  24.380  26.375  1.00  0.00    +0.000 H 
ENDROOT
BRANCH   28   27
ATOM     27  C19 UNL A   1      40.991  24.668  27.656  1.00  0.00    +0.000 C 
ATOM    107  H21 UNL A   1      38.592  23.311  25.732  1.00  0.00    +0.000 H 
ATOM    108  H22 UNL A   1      39.529  25.461  26.348  1.00  0.00    +0.000 H 
ATOM     85  C58 UNL A   1      41.493  23.485  28.218  1.00  0.00    +0.000 C 
ATOM     86  C59 UNL A   1      41.025  22.244  27.777  1.00  0.00    +0.000 C 
ATOM    120  H34 UNL A   1      41.418  21.373  28.169  1.00  0.00    +0.000 H 
ATOM     24  C16 UNL A   1      40.025  22.187  26.804  1.00  0.00    +0.000 C 
ATOM     25  C17 UNL A   1      39.416  23.359  26.350  1.00  0.00    +0.000 C 
ATOM     26  C18 UNL A   1      39.931  24.594  26.738  1.00  0.00    +0.000 C 
ATOM    119  H33 UNL A   1      42.210  23.531  28.960  1.00  0.00    +0.000 H 
BRANCH   24   22
ATOM     22  C15 UNL A   1      39.671  20.877  26.215  1.00  0.00    +0.000 C 
ATOM     23  O3  UNL A   1      40.274  19.867  26.563  1.00  0.00    +0.000 O 
BRANCH   22   21
ATOM    106  H20 UNL A   1      38.747  21.512  24.547  1.00  0.00    +0.000 H 
ATOM     21  N3  UNL A   1      38.700  20.816  25.241  1.00  0.00    +0.000 N 
BRANCH   21   20
ATOM    105  H19 UNL A   1      37.582  19.282  25.999  1.00  0.00    +0.000 H 
ATOM     20  C14 UNL A   1      37.613  19.858  25.098  1.00  0.00    +0.000 C 
ATOM    104  H18 UNL A   1      37.804  19.254  24.237  1.00  0.00    +0.000 H 
BRANCH   20   19
ATOM     19  C13 UNL A   1      36.245  20.510  24.937  1.00  0.00    +0.000 C 
ATOM    102  H16 UNL A   1      36.102  20.724  23.898  1.00  0.00    +0.000 H 
ATOM    103  H17 UNL A   1      35.538  19.813  25.335  1.00  0.00    +0.000 H 
BRANCH   19   18
ATOM     18  C12 UNL A   1      36.036  21.809  25.717  1.00  0.00    +0.000 C 
ATOM    100  H14 UNL A   1      35.189  21.675  26.357  1.00  0.00    +0.000 H 
ATOM    101  H15 UNL A   1      36.952  21.985  26.240  1.00  0.00    +0.000 H 
BRANCH   18   17
ATOM     17  C11 UNL A   1      35.792  23.061  24.869  1.00  0.00    +0.000 C 
ATOM     98  H12 UNL A   1      35.055  23.655  25.369  1.00  0.00    +0.000 H 
ATOM     99  H13 UNL A   1      36.746  23.534  24.774  1.00  0.00    +0.000 H 
BRANCH   17   16
ATOM     97  H11 UNL A   1      35.006  21.791  23.393  1.00  0.00    +0.000 H 
ATOM     96  H10 UNL A   1      36.105  23.059  22.768  1.00  0.00    +0.000 H 
ATOM     16  C10 UNL A   1      35.304  22.818  23.435  1.00  0.00    +0.000 C 
BRANCH   16   15
ATOM     95  H9  UNL A   1      33.624  23.138  22.182  1.00  0.00    +0.000 H 
ATOM     94  H8  UNL A   1      34.392  24.619  22.755  1.00  0.00    +0.000 H 
ATOM     15  C9  UNL A   1      34.080  23.629  23.016  1.00  0.00    +0.000 C 
BRANCH   15   14
ATOM     93  H7  UNL A   1      33.290  24.297  24.850  1.00  0.00    +0.000 H 
ATOM     14  N2  UNL A   1      33.102  23.712  24.081  1.00  0.00    +0.000 N 
BRANCH   14    2
ATOM      1  O1  UNL A   1      31.012  23.208  23.258  1.00  0.00    +0.000 O 
ATOM      2  C1  UNL A   1      31.916  23.005  24.061  1.00  0.00    +0.000 C 
BRANCH    2    3
ATOM      3  C2  UNL A   1      31.807  21.951  25.163  1.00  0.00    +0.000 C 
ATOM     87  H1  UNL A   1      30.789  21.910  25.487  1.00  0.00    +0.000 H 
ATOM     88  H2  UNL A   1      32.479  22.248  25.940  1.00  0.00    +0.000 H 
BRANCH    3    4
ATOM      4  C3  UNL A   1      32.225  20.563  24.733  1.00  0.00    +0.000 C 
ATOM      5  C4  UNL A   1      32.824  19.717  25.747  1.00  0.00    +0.000 C 
ATOM      6  C5  UNL A   1      33.274  18.496  25.433  1.00  0.00    +0.000 C 
ATOM      7  N1  UNL A   1      33.174  18.005  24.144  1.00  0.00    +0.000 N 
ATOM     11  C7  UNL A   1      32.606  18.735  23.113  1.00  0.00    +0.000 C 
ATOM     12  O2  UNL A   1      32.515  18.375  21.945  1.00  0.00    +0.000 O 
ATOM     13  C8  UNL A   1      32.095  20.084  23.483  1.00  0.00    +0.000 C 
ATOM     89  H3  UNL A   1      32.903  20.058  26.718  1.00  0.00    +0.000 H 
ATOM     90  H4  UNL A   1      33.703  17.909  26.166  1.00  0.00    +0.000 H 
ATOM     92  H6  UNL A   1      31.631  20.664  22.766  1.00  0.00    +0.000 H 
BRANCH    7    8
ATOM      9  F1  UNL A   1      34.918  16.514  24.393  1.00  0.00    +0.000 F 
ATOM     10  F2  UNL A   1      32.880  15.725  24.214  1.00  0.00    +0.000 F 
ATOM     91  H5  UNL A   1      33.824  16.690  22.744  1.00  0.00    +0.000 H 
ATOM      8  C6  UNL A   1      33.713  16.713  23.808  1.00  0.00    +0.000 C 
ENDBRANCH    7    8
ENDBRANCH    3    4
ENDBRANCH    2    3
ENDBRANCH   14    2
ENDBRANCH   15   14
ENDBRANCH   16   15
ENDBRANCH   17   16
ENDBRANCH   18   17
ENDBRANCH   19   18
ENDBRANCH   20   19
ENDBRANCH   21   20
ENDBRANCH   22   21
ENDBRANCH   24   22
ENDBRANCH   28   27
BRANCH   32   33
ATOM     33  C24 UNL A   1      47.108  27.613  26.070  1.00  0.00    +0.000 C 
ATOM     34  C25 UNL A   1      47.191  27.700  24.673  1.00  0.00    +0.000 C 
ATOM     35  F3  UNL A   1      46.149  28.157  23.963  1.00  0.00    +0.000 F 
ATOM     36  C26 UNL A   1      48.341  27.296  23.999  1.00  0.00    +0.000 C 
ATOM     37  F4  UNL A   1      48.389  27.364  22.661  1.00  0.00    +0.000 F 
ATOM     38  C27 UNL A   1      49.434  26.821  24.708  1.00  0.00    +0.000 C 
ATOM     39  F5  UNL A   1      50.544  26.446  24.057  1.00  0.00    +0.000 F 
ATOM     40  C28 UNL A   1      49.376  26.734  26.091  1.00  0.00    +0.000 C 
ATOM     41  F6  UNL A   1      50.436  26.284  26.777  1.00  0.00    +0.000 F 
ATOM     42  C29 UNL A   1      48.220  27.117  26.766  1.00  0.00    +0.000 C 
ATOM     43  F7  UNL A   1      48.193  27.019  28.103  1.00  0.00    +0.000 F 
ENDBRANCH   32   33
BRANCH   49   50
ATOM     50  C35 UNL A   1      44.966  33.587  29.465  1.00  0.00    +0.000 C 
ATOM     51  C36 UNL A   1      45.721  33.791  30.628  1.00  0.00    +0.000 C 
ATOM     52  F8  UNL A   1      45.902  32.788  31.499  1.00  0.00    +0.000 F 
ATOM     53  C37 UNL A   1      46.270  35.038  30.914  1.00  0.00    +0.000 C 
ATOM     54  F9  UNL A   1      46.960  35.221  32.047  1.00  0.00    +0.000 F 
ATOM     55  C38 UNL A   1      46.094  36.094  30.031  1.00  0.00    +0.000 C 
ATOM     56  F10 UNL A   1      46.630  37.291  30.303  1.00  0.00    +0.000 F 
ATOM     57  C39 UNL A   1      45.360  35.910  28.869  1.00  0.00    +0.000 C 
ATOM     58  F11 UNL A   1      45.198  36.927  28.011  1.00  0.00    +0.000 F 
ATOM     59  C40 UNL A   1      44.792  34.670  28.591  1.00  0.00    +0.000 C 
ATOM     60  F12 UNL A   1      44.081  34.521  27.463  1.00  0.00    +0.000 F 
ENDBRANCH   49   50
BRANCH   64   65
ATOM     65  C44 UNL A   1      38.846  30.548  30.807  1.00  0.00    +0.000 C 
ATOM     66  C45 UNL A   1      38.713  30.483  32.200  1.00  0.00    +0.000 C 
ATOM     67  F13 UNL A   1      39.702  29.963  32.942  1.00  0.00    +0.000 F 
ATOM     68  C46 UNL A   1      37.555  30.929  32.833  1.00  0.00    +0.000 C 
ATOM     69  F14 UNL A   1      37.442  30.832  34.164  1.00  0.00    +0.000 F 
ATOM     70  C47 UNL A   1      36.518  31.468  32.085  1.00  0.00    +0.000 C 
ATOM     71  F15 UNL A   1      35.409  31.908  32.696  1.00  0.00    +0.000 F 
ATOM     72  C48 UNL A   1      36.628  31.546  30.706  1.00  0.00    +0.000 C 
ATOM     73  F16 UNL A   1      35.634  32.076  29.982  1.00  0.00    +0.000 F 
ATOM     74  C49 UNL A   1      37.776  31.078  30.070  1.00  0.00    +0.000 C 
ATOM     75  F17 UNL A   1      37.856  31.159  28.735  1.00  0.00    +0.000 F 
ENDBRANCH   64   65
TORSDOF 17
ENDMDL
MODEL 2
REMARK VINA RESULT:     -10.5      5.244     10.476
ROOT
ATOM     28  C20 UNL A   1      38.212  30.589  29.844  1.00  0.00    +0.000 C 
ATOM     29  C21 UNL A   1      38.447  30.977  31.280  1.00  0.00    +0.000 C 
ATOM     30  N4  UNL A   1      39.409  30.608  32.090  1.00  0.00    +0.000 N 
ATOM     31  C22 UNL A   1      39.169  31.263  33.291  1.00  0.00    +0.000 C 
ATOM     32  C23 UNL A   1      39.864  31.185  34.451  1.00  0.00    +0.000 C 
ATOM     44  C30 UNL A   1      41.026  30.358  34.652  1.00  0.00    +0.000 C 
ATOM     45  C31 UNL A   1      41.785  30.203  35.799  1.00  0.00    +0.000 C 
ATOM     46  C32 UNL A   1      42.828  29.315  35.517  1.00  0.00    +0.000 C 
ATOM     47  C33 UNL A   1      42.697  28.891  34.205  1.00  0.00    +0.000 C 
ATOM     48  N5  UNL A   1      41.590  29.542  33.685  1.00  0.00    +0.000 N 
ATOM     49  C34 UNL A   1      43.524  27.966  33.474  1.00  0.00    +0.000 C 
ATOM     61  C41 UNL A   1      43.299  27.562  32.201  1.00  0.00    +0.000 C 
ATOM     62  N6  UNL A   1      42.284  27.939  31.335  1.00  0.00    +0.000 N 
ATOM     63  C42 UNL A   1      42.514  27.304  30.212  1.00  0.00    +0.000 C 
ATOM     64  C43 UNL A   1      41.736  27.340  28.928  1.00  0.00    +0.000 C 
ATOM     76  C50 UNL A   1      40.676  28.161  28.818  1.00  0.00    +0.000 C 
ATOM     77  C51 UNL A   1      39.840  28.308  27.630  1.00  0.00    +0.000 C 
ATOM     78  C52 UNL A   1      38.898  29.235  27.867  1.00  0.00    +0.000 C 
ATOM     79  C53 UNL A   1      39.034  29.709  29.245  1.00  0.00    +0.000 C 
ATOM     80  N7  UNL A   1      40.130  29.036  29.724  1.00  0.00    +0.000 N 
ATOM     81  C54 UNL A   1      43.708  26.448  30.239  1.00  0.00    +0.000 C 
ATOM     82  C55 UNL A   1      44.135  26.620  31.483  1.00  0.00    +0.000 C 
ATOM     83  C56 UNL A   1      37.984  32.072  33.102  1.00  0.00    +0.000 C 
ATOM     84  C57 UNL A   1      37.474  31.897  31.891  1.00  0.00    +0.000 C 
ATOM    109  H23 UNL A   1      41.612  30.663  36.707  1.00  0.00    +0.000 H 
ATOM    110  H24 UNL A   1      43.569  29.025  36.174  1.00  0.00    +0.000 H 
ATOM    111  H25 UNL A   1      41.253  29.439  32.766  1.00  0.00    +0.000 H 
ATOM    112  H26 UNL A   1      39.954  27.783  26.748  1.00  0.00    +0.000 H 
ATOM    113  H27 UNL A   1      38.194  29.560  27.189  1.00  0.00    +0.000 H 
ATOM    114  H28 UNL A   1      40.490  29.168  30.631  1.00  0.00    +0.000 H 
ATOM    115  H29 UNL A   1      44.108  25.865  29.488  1.00  0.00    +0.000 H 
ATOM    116  H30 UNL A   1      44.956  26.145  31.888  1.00  0.00    +0.000 H 
ATOM    117  H31 UNL A   1      37.589  32.702  33.818  1.00  0.00    +0.000 H 
ATOM    118  H32 UNL A   1      36.618  32.302  31.482  1.00  0.00    +0.000 H 
ENDROOT
BRANCH   28   27
ATOM     27  C19 UNL A   1      37.033  31.116  29.107  1.00  0.00    +0.000 C 
ATOM    107  H21 UNL A   1      33.987  30.148  28.064  1.00  0.00    +0.000 H 
ATOM    108  H22 UNL A   1      35.968  29.288  29.166  1.00  0.00    +0.000 H 
ATOM     85  C58 UNL A   1      36.981  32.449  28.674  1.00  0.00    +0.000 C 
ATOM     86  C59 UNL A   1      35.798  32.969  28.140  1.00  0.00    +0.000 C 
ATOM    120  H34 UNL A   1      35.751  33.959  27.851  1.00  0.00    +0.000 H 
ATOM     24  C16 UNL A   1      34.679  32.143  28.001  1.00  0.00    +0.000 C 
ATOM     25  C17 UNL A   1      34.771  30.780  28.290  1.00  0.00    +0.000 C 
ATOM     26  C18 UNL A   1      35.926  30.281  28.886  1.00  0.00    +0.000 C 
ATOM    119  H33 UNL A   1      37.818  33.048  28.749  1.00  0.00    +0.000 H 
BRANCH   24   22
ATOM     22  C15 UNL A   1      33.387  32.747  27.610  1.00  0.00    +0.000 C 
ATOM     23  O3  UNL A   1      33.042  33.821  28.093  1.00  0.00    +0.000 O 
BRANCH   22   21
ATOM    106  H20 UNL A   1      32.520  32.417  25.827  1.00  0.00    +0.000 H 
ATOM     21  N3  UNL A   1      32.559  32.067  26.746  1.00  0.00    +0.000 N 
BRANCH   21   20
ATOM    105  H19 UNL A   1      30.714  31.198  26.883  1.00  0.00    +0.000 H 
ATOM     20  C14 UNL A   1      31.733  30.897  27.008  1.00  0.00    +0.000 C 
ATOM    104  H18 UNL A   1      31.937  30.553  28.000  1.00  0.00    +0.000 H 
BRANCH   20   19
ATOM     19  C13 UNL A   1      31.982  29.747  26.039  1.00  0.00    +0.000 C 
ATOM    102  H16 UNL A   1      31.055  29.516  25.556  1.00  0.00    +0.000 H 
ATOM    103  H17 UNL A   1      32.745  30.086  25.370  1.00  0.00    +0.000 H 
BRANCH   19   18
ATOM     18  C12 UNL A   1      32.518  28.460  26.666  1.00  0.00    +0.000 C 
ATOM    100  H14 UNL A   1      32.801  28.678  27.675  1.00  0.00    +0.000 H 
ATOM    101  H15 UNL A   1      31.729  27.743  26.582  1.00  0.00    +0.000 H 
BRANCH   18   17
ATOM     17  C11 UNL A   1      33.727  27.832  25.965  1.00  0.00    +0.000 C 
ATOM     98  H12 UNL A   1      34.611  28.231  26.418  1.00  0.00    +0.000 H 
ATOM     99  H13 UNL A   1      33.612  26.776  26.083  1.00  0.00    +0.000 H 
BRANCH   17   16
ATOM     97  H11 UNL A   1      34.769  28.556  24.291  1.00  0.00    +0.000 H 
ATOM     96  H10 UNL A   1      32.987  28.664  24.156  1.00  0.00    +0.000 H 
ATOM     16  C10 UNL A   1      33.828  28.073  24.453  1.00  0.00    +0.000 C 
BRANCH   16   15
ATOM     95  H9  UNL A   1      34.840  26.415  23.604  1.00  0.00    +0.000 H 
ATOM     94  H8  UNL A   1      33.546  27.067  22.596  1.00  0.00    +0.000 H 
ATOM     15  C9  UNL A   1      33.846  26.812  23.592  1.00  0.00    +0.000 C 
BRANCH   15   14
ATOM     93  H7  UNL A   1      33.250  25.240  24.860  1.00  0.00    +0.000 H 
ATOM     14  N2  UNL A   1      32.949  25.798  24.107  1.00  0.00    +0.000 N 
BRANCH   14    2
ATOM      1  O1  UNL A   1      31.479  25.006  22.522  1.00  0.00    +0.000 O 
ATOM      2  C1  UNL A   1      31.690  25.582  23.584  1.00  0.00    +0.000 C 
BRANCH    2    3
ATOM      3  C2  UNL A   1      30.560  26.160  24.436  1.00  0.00    +0.000 C 
ATOM     87  H1  UNL A   1      30.988  26.564  25.329  1.00  0.00    +0.000 H 
ATOM     88  H2  UNL A   1      29.879  25.358  24.629  1.00  0.00    +0.000 H 
BRANCH    3    4
ATOM      4  C3  UNL A   1      29.767  27.251  23.753  1.00  0.00    +0.000 C 
ATOM      5  C4  UNL A   1      30.526  28.303  23.104  1.00  0.00    +0.000 C 
ATOM      6  C5  UNL A   1      29.898  29.335  22.528  1.00  0.00    +0.000 C 
ATOM      7  N1  UNL A   1      28.518  29.425  22.527  1.00  0.00    +0.000 N 
ATOM     11  C7  UNL A   1      27.710  28.462  23.110  1.00  0.00    +0.000 C 
ATOM     12  O2  UNL A   1      26.487  28.495  23.172  1.00  0.00    +0.000 O 
ATOM     13  C8  UNL A   1      28.424  27.312  23.731  1.00  0.00    +0.000 C 
ATOM     89  H3  UNL A   1      31.556  28.255  23.086  1.00  0.00    +0.000 H 
ATOM     90  H4  UNL A   1      30.454  30.079  22.076  1.00  0.00    +0.000 H 
ATOM     92  H6  UNL A   1      27.876  26.545  24.153  1.00  0.00    +0.000 H 
BRANCH    7    8
ATOM      9  F1  UNL A   1      27.525  31.474  22.905  1.00  0.00    +0.000 F 
ATOM     10  F2  UNL A   1      28.661  31.184  21.051  1.00  0.00    +0.000 F 
ATOM     91  H5  UNL A   1      26.971  30.209  21.476  1.00  0.00    +0.000 H 
ATOM      8  C6  UNL A   1      27.858  30.569  21.954  1.00  0.00    +0.000 C 
ENDBRANCH    7    8
ENDBRANCH    3    4
ENDBRANCH    2    3
ENDBRANCH   14    2
ENDBRANCH   15   14
ENDBRANCH   16   15
ENDBRANCH   17   16
ENDBRANCH   18   17
ENDBRANCH   19   18
ENDBRANCH   20   19
ENDBRANCH   21   20
ENDBRANCH   22   21
ENDBRANCH   24   22
ENDBRANCH   28   27
BRANCH   32   33
ATOM     33  C24 UNL A   1      39.394  32.021  35.604  1.00  0.00    +0.000 C 
ATOM     34  C25 UNL A   1      39.840  33.338  35.783  1.00  0.00    +0.000 C 
ATOM     35  F3  UNL A   1      40.762  33.856  34.958  1.00  0.00    +0.000 F 
ATOM     36  C26 UNL A   1      39.353  34.122  36.827  1.00  0.00    +0.000 C 
ATOM     37  F4  UNL A   1      39.812  35.370  36.995  1.00  0.00    +0.000 F 
ATOM     38  C27 UNL A   1      38.398  33.612  37.694  1.00  0.00    +0.000 C 
ATOM     39  F5  UNL A   1      37.922  34.373  38.689  1.00  0.00    +0.000 F 
ATOM     40  C28 UNL A   1      37.938  32.314  37.530  1.00  0.00    +0.000 C 
ATOM     41  F6  UNL A   1      37.008  31.825  38.362  1.00  0.00    +0.000 F 
ATOM     42  C29 UNL A   1      38.438  31.521  36.501  1.00  0.00    +0.000 C 
ATOM     43  F7  UNL A   1      37.976  30.269  36.369  1.00  0.00    +0.000 F 
ENDBRANCH   32   33
BRANCH   49   50
ATOM     50  C35 UNL A   1      44.721  27.397  34.175  1.00  0.00    +0.000 C 
ATOM     51  C36 UNL A   1      44.629  26.216  34.925  1.00  0.00    +0.000 C 
ATOM     52  F8  UNL A   1      43.445  25.607  35.081  1.00  0.00    +0.000 F 
ATOM     53  C37 UNL A   1      45.753  25.673  35.541  1.00  0.00    +0.000 C 
ATOM     54  F9  UNL A   1      45.638  24.562  36.280  1.00  0.00    +0.000 F 
ATOM     55  C38 UNL A   1      46.990  26.286  35.398  1.00  0.00    +0.000 C 
ATOM     56  F10 UNL A   1      48.072  25.758  35.985  1.00  0.00    +0.000 F 
ATOM     57  C39 UNL A   1      47.104  27.450  34.651  1.00  0.00    +0.000 C 
ATOM     58  F11 UNL A   1      48.299  28.037  34.506  1.00  0.00    +0.000 F 
ATOM     59  C40 UNL A   1      45.978  28.007  34.052  1.00  0.00    +0.000 C 
ATOM     60  F12 UNL A   1      46.115  29.136  33.340  1.00  0.00    +0.000 F 
ENDBRANCH   49   50
BRANCH   64   65
ATOM     65  C44 UNL A   1      42.119  26.483  27.780  1.00  0.00    +0.000 C 
ATOM     66  C45 UNL A   1      43.037  26.932  26.822  1.00  0.00    +0.000 C 
ATOM     67  F13 UNL A   1      43.547  28.169  26.913  1.00  0.00    +0.000 F 
ATOM     68  C46 UNL A   1      43.416  26.121  25.754  1.00  0.00    +0.000 C 
ATOM     69  F14 UNL A   1      44.276  26.584  24.836  1.00  0.00    +0.000 F 
ATOM     70  C47 UNL A   1      42.900  24.839  25.638  1.00  0.00    +0.000 C 
ATOM     71  F15 UNL A   1      43.274  24.055  24.617  1.00  0.00    +0.000 F 
ATOM     72  C48 UNL A   1      41.993  24.371  26.576  1.00  0.00    +0.000 C 
ATOM     73  F16 UNL A   1      41.502  23.129  26.473  1.00  0.00    +0.000 F 
ATOM     74  C49 UNL A   1      41.595  25.190  27.630  1.00  0.00    +0.000 C 
ATOM     75  F17 UNL A   1      40.713  24.716  28.521  1.00  0.00    +0.000 F 
ENDBRANCH   64   65
TORSDOF 17
ENDMDL
MODEL 3
REMARK VINA RESULT:     -10.4      4.942      7.889
ROOT
ATOM     28  C20 UNL A   1      38.270  30.041  29.985  1.00  0.00    +0.000 C 
ATOM     29  C21 UNL A   1      39.320  29.124  29.416  1.00  0.00    +0.000 C 
ATOM     30  N4  UNL A   1      40.387  28.629  29.993  1.00  0.00    +0.000 N 
ATOM     31  C22 UNL A   1      41.004  27.833  29.037  1.00  0.00    +0.000 C 
ATOM     32  C23 UNL A   1      42.158  27.131  29.136  1.00  0.00    +0.000 C 
ATOM     44  C30 UNL A   1      42.994  27.098  30.308  1.00  0.00    +0.000 C 
ATOM     45  C31 UNL A   1      44.191  26.427  30.494  1.00  0.00    +0.000 C 
ATOM     46  C32 UNL A   1      44.630  26.670  31.799  1.00  0.00    +0.000 C 
ATOM     47  C33 UNL A   1      43.725  27.519  32.414  1.00  0.00    +0.000 C 
ATOM     48  N5  UNL A   1      42.724  27.770  31.489  1.00  0.00    +0.000 N 
ATOM     49  C34 UNL A   1      43.763  28.058  33.749  1.00  0.00    +0.000 C 
ATOM     61  C41 UNL A   1      42.859  28.926  34.262  1.00  0.00    +0.000 C 
ATOM     62  N6  UNL A   1      41.729  29.461  33.662  1.00  0.00    +0.000 N 
ATOM     63  C42 UNL A   1      41.166  30.221  34.569  1.00  0.00    +0.000 C 
ATOM     64  C43 UNL A   1      39.911  31.041  34.471  1.00  0.00    +0.000 C 
ATOM     76  C50 UNL A   1      39.175  30.994  33.345  1.00  0.00    +0.000 C 
ATOM     77  C51 UNL A   1      37.932  31.725  33.117  1.00  0.00    +0.000 C 
ATOM     78  C52 UNL A   1      37.458  31.415  31.900  1.00  0.00    +0.000 C 
ATOM     79  C53 UNL A   1      38.394  30.501  31.243  1.00  0.00    +0.000 C 
ATOM     80  N7  UNL A   1      39.369  30.287  32.184  1.00  0.00    +0.000 N 
ATOM     81  C54 UNL A   1      41.878  30.253  35.854  1.00  0.00    +0.000 C 
ATOM     82  C55 UNL A   1      42.919  29.469  35.605  1.00  0.00    +0.000 C 
ATOM     83  C56 UNL A   1      40.182  27.888  27.847  1.00  0.00    +0.000 C 
ATOM     84  C57 UNL A   1      39.152  28.706  28.014  1.00  0.00    +0.000 C 
ATOM    109  H23 UNL A   1      44.677  25.849  29.791  1.00  0.00    +0.000 H 
ATOM    110  H24 UNL A   1      45.483  26.283  32.232  1.00  0.00    +0.000 H 
ATOM    111  H25 UNL A   1      41.938  28.342  31.647  1.00  0.00    +0.000 H 
ATOM    112  H26 UNL A   1      37.489  32.377  33.783  1.00  0.00    +0.000 H 
ATOM    113  H27 UNL A   1      36.577  31.763  31.495  1.00  0.00    +0.000 H 
ATOM    114  H28 UNL A   1      40.135  29.685  32.040  1.00  0.00    +0.000 H 
ATOM    115  H29 UNL A   1      41.635  30.755  36.722  1.00  0.00    +0.000 H 
ATOM    116  H30 UNL A   1      43.673  29.269  36.280  1.00  0.00    +0.000 H 
ATOM    117  H31 UNL A   1      40.374  27.359  26.982  1.00  0.00    +0.000 H 
ATOM    118  H32 UNL A   1      38.423  28.980  27.338  1.00  0.00    +0.000 H 
ENDROOT
BRANCH   28   27
ATOM     27  C19 UNL A   1      37.136  30.501  29.140  1.00  0.00    +0.000 C 
ATOM    107  H21 UNL A   1      34.266  29.361  27.812  1.00  0.00    +0.000 H 
ATOM    108  H22 UNL A   1      36.182  28.613  29.096  1.00  0.00    +0.000 H 
ATOM     85  C58 UNL A   1      37.046  31.832  28.705  1.00  0.00    +0.000 C 
ATOM     86  C59 UNL A   1      35.890  32.284  28.062  1.00  0.00    +0.000 C 
ATOM    120  H34 UNL A   1      35.812  33.271  27.771  1.00  0.00    +0.000 H 
ATOM     24  C16 UNL A   1      34.841  31.395  27.817  1.00  0.00    +0.000 C 
ATOM     25  C17 UNL A   1      34.986  30.037  28.112  1.00  0.00    +0.000 C 
ATOM     26  C18 UNL A   1      36.107  29.603  28.814  1.00  0.00    +0.000 C 
ATOM    119  H33 UNL A   1      37.836  32.479  28.859  1.00  0.00    +0.000 H 
BRANCH   24   22
ATOM     22  C15 UNL A   1      33.557  31.923  27.306  1.00  0.00    +0.000 C 
ATOM     23  O3  UNL A   1      33.149  33.014  27.690  1.00  0.00    +0.000 O 
BRANCH   22   21
ATOM    106  H20 UNL A   1      33.114  31.145  25.507  1.00  0.00    +0.000 H 
ATOM     21  N3  UNL A   1      32.808  31.156  26.443  1.00  0.00    +0.000 N 
BRANCH   21   20
ATOM    105  H19 UNL A   1      30.794  30.853  26.269  1.00  0.00    +0.000 H 
ATOM     20  C14 UNL A   1      31.624  30.358  26.728  1.00  0.00    +0.000 C 
ATOM    104  H18 UNL A   1      31.515  30.281  27.789  1.00  0.00    +0.000 H 
BRANCH   20   19
ATOM     19  C13 UNL A   1      31.684  28.951  26.145  1.00  0.00    +0.000 C 
ATOM    102  H16 UNL A   1      30.708  28.704  25.779  1.00  0.00    +0.000 H 
ATOM    103  H17 UNL A   1      32.436  28.980  25.384  1.00  0.00    +0.000 H 
BRANCH   19   18
ATOM     18  C12 UNL A   1      32.114  27.852  27.116  1.00  0.00    +0.000 C 
ATOM    100  H14 UNL A   1      33.056  28.135  27.538  1.00  0.00    +0.000 H 
ATOM    101  H15 UNL A   1      31.324  27.771  27.833  1.00  0.00    +0.000 H 
BRANCH   18   17
ATOM     17  C11 UNL A   1      32.272  26.454  26.511  1.00  0.00    +0.000 C 
ATOM     98  H12 UNL A   1      32.202  25.742  27.307  1.00  0.00    +0.000 H 
ATOM     99  H13 UNL A   1      31.499  26.368  25.778  1.00  0.00    +0.000 H 
BRANCH   17   16
ATOM     97  H11 UNL A   1      34.367  26.550  26.396  1.00  0.00    +0.000 H 
ATOM     96  H10 UNL A   1      33.533  26.694  24.819  1.00  0.00    +0.000 H 
ATOM     16  C10 UNL A   1      33.585  26.190  25.761  1.00  0.00    +0.000 C 
BRANCH   16   15
ATOM     95  H9  UNL A   1      34.123  24.252  26.430  1.00  0.00    +0.000 H 
ATOM     94  H8  UNL A   1      34.734  24.660  24.825  1.00  0.00    +0.000 H 
ATOM     15  C9  UNL A   1      33.900  24.720  25.494  1.00  0.00    +0.000 C 
BRANCH   15   14
ATOM     93  H7  UNL A   1      32.216  23.457  25.475  1.00  0.00    +0.000 H 
ATOM     14  N2  UNL A   1      32.773  24.029  24.901  1.00  0.00    +0.000 N 
BRANCH   14    2
ATOM      1  O1  UNL A   1      33.269  24.083  22.654  1.00  0.00    +0.000 O 
ATOM      2  C1  UNL A   1      32.450  24.142  23.564  1.00  0.00    +0.000 C 
BRANCH    2    3
ATOM      3  C2  UNL A   1      30.962  24.385  23.307  1.00  0.00    +0.000 C 
ATOM     87  H1  UNL A   1      30.406  23.907  24.086  1.00  0.00    +0.000 H 
ATOM     88  H2  UNL A   1      30.748  23.983  22.339  1.00  0.00    +0.000 H 
BRANCH    3    4
ATOM      4  C3  UNL A   1      30.572  25.845  23.270  1.00  0.00    +0.000 C 
ATOM      5  C4  UNL A   1      29.241  26.178  23.741  1.00  0.00    +0.000 C 
ATOM      6  C5  UNL A   1      28.798  27.440  23.686  1.00  0.00    +0.000 C 
ATOM      7  N1  UNL A   1      29.593  28.457  23.189  1.00  0.00    +0.000 N 
ATOM     11  C7  UNL A   1      30.881  28.237  22.730  1.00  0.00    +0.000 C 
ATOM     12  O2  UNL A   1      31.625  29.084  22.250  1.00  0.00    +0.000 O 
ATOM     13  C8  UNL A   1      31.364  26.831  22.814  1.00  0.00    +0.000 C 
ATOM     89  H3  UNL A   1      28.632  25.438  24.122  1.00  0.00    +0.000 H 
ATOM     90  H4  UNL A   1      27.845  27.659  24.020  1.00  0.00    +0.000 H 
ATOM     92  H6  UNL A   1      32.328  26.609  22.518  1.00  0.00    +0.000 H 
BRANCH    7    8
ATOM      9  F1  UNL A   1      27.731  29.821  23.151  1.00  0.00    +0.000 F 
ATOM     10  F2  UNL A   1      29.567  30.577  24.083  1.00  0.00    +0.000 F 
ATOM     91  H5  UNL A   1      29.400  30.178  22.134  1.00  0.00    +0.000 H 
ATOM      8  C6  UNL A   1      29.084  29.800  23.083  1.00  0.00    +0.000 C 
ENDBRANCH    7    8
ENDBRANCH    3    4
ENDBRANCH    2    3
ENDBRANCH   14    2
ENDBRANCH   15   14
ENDBRANCH   16   15
ENDBRANCH   17   16
ENDBRANCH   18   17
ENDBRANCH   19   18
ENDBRANCH   20   19
ENDBRANCH   21   20
ENDBRANCH   22   21
ENDBRANCH   24   22
ENDBRANCH   28   27
BRANCH   32   33
ATOM     33  C24 UNL A   1      42.594  26.331  27.945  1.00  0.00    +0.000 C 
ATOM     34  C25 UNL A   1      42.094  25.043  27.706  1.00  0.00    +0.000 C 
ATOM     35  F3  UNL A   1      41.263  24.468  28.589  1.00  0.00    +0.000 F 
ATOM     36  C26 UNL A   1      42.464  24.332  26.567  1.00  0.00    +0.000 C 
ATOM     37  F4  UNL A   1      41.995  23.092  26.372  1.00  0.00    +0.000 F 
ATOM     38  C27 UNL A   1      43.320  24.904  25.637  1.00  0.00    +0.000 C 
ATOM     39  F5  UNL A   1      43.665  24.223  24.535  1.00  0.00    +0.000 F 
ATOM     40  C28 UNL A   1      43.821  26.179  25.850  1.00  0.00    +0.000 C 
ATOM     41  F6  UNL A   1      44.640  26.736  24.947  1.00  0.00    +0.000 F 
ATOM     42  C29 UNL A   1      43.469  26.884  26.999  1.00  0.00    +0.000 C 
ATOM     43  F7  UNL A   1      43.970  28.115  27.178  1.00  0.00    +0.000 F 
ENDBRANCH   32   33
BRANCH   49   50
ATOM     50  C35 UNL A   1      44.891  27.633  34.640  1.00  0.00    +0.000 C 
ATOM     51  C36 UNL A   1      46.076  28.378  34.714  1.00  0.00    +0.000 C 
ATOM     52  F8  UNL A   1      46.245  29.456  33.934  1.00  0.00    +0.000 F 
ATOM     53  C37 UNL A   1      47.105  27.999  35.572  1.00  0.00    +0.000 C 
ATOM     54  F9  UNL A   1      48.243  28.706  35.604  1.00  0.00    +0.000 F 
ATOM     55  C38 UNL A   1      46.957  26.886  36.387  1.00  0.00    +0.000 C 
ATOM     56  F10 UNL A   1      47.945  26.528  37.218  1.00  0.00    +0.000 F 
ATOM     57  C39 UNL A   1      45.788  26.141  36.336  1.00  0.00    +0.000 C 
ATOM     58  F11 UNL A   1      45.641  25.072  37.130  1.00  0.00    +0.000 F 
ATOM     59  C40 UNL A   1      44.766  26.505  35.464  1.00  0.00    +0.000 C 
ATOM     60  F12 UNL A   1      43.649  25.764  35.431  1.00  0.00    +0.000 F 
ENDBRANCH   49   50
BRANCH   64   65
ATOM     65  C44 UNL A   1      39.472  31.902  35.596  1.00  0.00    +0.000 C 
ATOM     66  C45 UNL A   1      39.957  33.208  35.734  1.00  0.00    +0.000 C 
ATOM     67  F13 UNL A   1      40.863  33.680  34.865  1.00  0.00    +0.000 F 
ATOM     68  C46 UNL A   1      39.530  34.027  36.777  1.00  0.00    +0.000 C 
ATOM     69  F14 UNL A   1      40.028  35.265  36.903  1.00  0.00    +0.000 F 
ATOM     70  C47 UNL A   1      38.595  33.560  37.689  1.00  0.00    +0.000 C 
ATOM     71  F15 UNL A   1      38.176  34.352  38.686  1.00  0.00    +0.000 F 
ATOM     72  C48 UNL A   1      38.099  32.271  37.571  1.00  0.00    +0.000 C 
ATOM     73  F16 UNL A   1      37.186  31.820  38.443  1.00  0.00    +0.000 F 
ATOM     74  C49 UNL A   1      38.542  31.444  36.543  1.00  0.00    +0.000 C 
ATOM     75  F17 UNL A   1      38.051  30.200  36.453  1.00  0.00    +0.000 F 
ENDBRANCH   64   65
TORSDOF 17
ENDMDL
MODEL 4
REMARK VINA RESULT:     -10.3     39.002     43.812
ROOT
ATOM     28  C20 UNL A   1      13.120  49.447   3.313  1.00  0.00    +0.000 C 
ATOM     29  C21 UNL A   1      13.155  50.817   3.937  1.00  0.00    +0.000 C 
ATOM     30  N4  UNL A   1      13.843  51.873   3.578  1.00  0.00    +0.000 N 
ATOM     31  C22 UNL A   1      13.499  52.876   4.475  1.00  0.00    +0.000 C 
ATOM     32  C23 UNL A   1      13.966  54.145   4.545  1.00  0.00    +0.000 C 
ATOM     44  C30 UNL A   1      14.960  54.699   3.662  1.00  0.00    +0.000 C 
ATOM     45  C31 UNL A   1      15.506  55.971   3.668  1.00  0.00    +0.000 C 
ATOM     46  C32 UNL A   1      16.417  56.062   2.611  1.00  0.00    +0.000 C 
ATOM     47  C33 UNL A   1      16.463  54.836   1.968  1.00  0.00    +0.000 C 
ATOM     48  N5  UNL A   1      15.562  54.010   2.621  1.00  0.00    +0.000 N 
ATOM     49  C34 UNL A   1      17.265  54.444   0.837  1.00  0.00    +0.000 C 
ATOM     61  C41 UNL A   1      17.290  53.204   0.295  1.00  0.00    +0.000 C 
ATOM     62  N6  UNL A   1      16.571  52.077   0.667  1.00  0.00    +0.000 N 
ATOM     63  C42 UNL A   1      16.916  51.136  -0.177  1.00  0.00    +0.000 C 
ATOM     64  C43 UNL A   1      16.446  49.711  -0.250  1.00  0.00    +0.000 C 
ATOM     76  C50 UNL A   1      15.494  49.283   0.600  1.00  0.00    +0.000 C 
ATOM     77  C51 UNL A   1      14.935  47.935   0.634  1.00  0.00    +0.000 C 
ATOM     78  C52 UNL A   1      13.989  47.875   1.584  1.00  0.00    +0.000 C 
ATOM     79  C53 UNL A   1      13.913  49.171   2.261  1.00  0.00    +0.000 C 
ATOM     80  N7  UNL A   1      14.823  49.951   1.594  1.00  0.00    +0.000 N 
ATOM     81  C54 UNL A   1      17.896  51.561  -1.185  1.00  0.00    +0.000 C 
ATOM     82  C55 UNL A   1      18.112  52.823  -0.836  1.00  0.00    +0.000 C 
ATOM     83  C56 UNL A   1      12.523  52.315   5.383  1.00  0.00    +0.000 C 
ATOM     84  C57 UNL A   1      12.308  51.033   5.121  1.00  0.00    +0.000 C 
ATOM    109  H23 UNL A   1      15.281  56.723   4.338  1.00  0.00    +0.000 H 
ATOM    110  H24 UNL A   1      16.962  56.899   2.353  1.00  0.00    +0.000 H 
ATOM    111  H25 UNL A   1      15.377  53.073   2.382  1.00  0.00    +0.000 H 
ATOM    112  H26 UNL A   1      15.222  47.152   0.026  1.00  0.00    +0.000 H 
ATOM    113  H27 UNL A   1      13.410  47.051   1.801  1.00  0.00    +0.000 H 
ATOM    114  H28 UNL A   1      14.980  50.899   1.809  1.00  0.00    +0.000 H 
ATOM    115  H29 UNL A   1      18.310  51.021  -1.961  1.00  0.00    +0.000 H 
ATOM    116  H30 UNL A   1      18.777  53.453  -1.310  1.00  0.00    +0.000 H 
ATOM    117  H31 UNL A   1      12.056  52.843   6.137  1.00  0.00    +0.000 H 
ATOM    118  H32 UNL A   1      11.703  50.361   5.618  1.00  0.00    +0.000 H 
ENDROOT
BRANCH   28   27
ATOM     27  C19 UNL A   1      12.272  48.376   3.899  1.00  0.00    +0.000 C 
ATOM    107  H21 UNL A   1      12.479  45.780   6.025  1.00  0.00    +0.000 H 
ATOM    108  H22 UNL A   1      13.858  47.472   4.969  1.00  0.00    +0.000 H 
ATOM     85  C58 UNL A   1      10.898  48.302   3.622  1.00  0.00    +0.000 C 
ATOM     86  C59 UNL A   1      10.089  47.398   4.316  1.00  0.00    +0.000 C 
ATOM    120  H34 UNL A   1       9.074  47.367   4.135  1.00  0.00    +0.000 H 
ATOM     24  C16 UNL A   1      10.661  46.538   5.258  1.00  0.00    +0.000 C 
ATOM     25  C17 UNL A   1      12.047  46.503   5.428  1.00  0.00    +0.000 C 
ATOM     26  C18 UNL A   1      12.842  47.451   4.788  1.00  0.00    +0.000 C 
ATOM    119  H33 UNL A   1      10.484  48.917   2.903  1.00  0.00    +0.000 H 
BRANCH   24   22
ATOM     22  C15 UNL A   1       9.775  45.720   6.114  1.00  0.00    +0.000 C 
ATOM     23  O3  UNL A   1       8.685  45.350   5.689  1.00  0.00    +0.000 O 
BRANCH   22   21
ATOM    106  H20 UNL A   1      10.586  44.548   7.530  1.00  0.00    +0.000 H 
ATOM     21  N3  UNL A   1      10.164  45.427   7.401  1.00  0.00    +0.000 N 
BRANCH   21   20
ATOM    105  H19 UNL A   1       9.261  45.808   9.196  1.00  0.00    +0.000 H 
ATOM     20  C14 UNL A   1      10.034  46.245   8.599  1.00  0.00    +0.000 C 
ATOM    104  H18 UNL A   1       9.802  47.246   8.303  1.00  0.00    +0.000 H 
BRANCH   20   19
ATOM     19  C13 UNL A   1      11.297  46.275   9.454  1.00  0.00    +0.000 C 
ATOM    102  H16 UNL A   1      11.014  46.552  10.449  1.00  0.00    +0.000 H 
ATOM    103  H17 UNL A   1      11.723  45.297   9.382  1.00  0.00    +0.000 H 
BRANCH   19   18
ATOM     18  C12 UNL A   1      12.386  47.241   8.989  1.00  0.00    +0.000 C 
ATOM    100  H14 UNL A   1      12.191  47.488   7.965  1.00  0.00    +0.000 H 
ATOM    101  H15 UNL A   1      12.338  48.078   9.654  1.00  0.00    +0.000 H 
BRANCH   18   17
ATOM     17  C11 UNL A   1      13.822  46.717   9.080  1.00  0.00    +0.000 C 
ATOM     98  H12 UNL A   1      14.009  46.451  10.100  1.00  0.00    +0.000 H 
ATOM     99  H13 UNL A   1      13.873  45.897   8.396  1.00  0.00    +0.000 H 
BRANCH   17   16
ATOM     97  H11 UNL A   1      15.733  47.555   9.328  1.00  0.00    +0.000 H 
ATOM     96  H10 UNL A   1      14.514  48.681   8.655  1.00  0.00    +0.000 H 
ATOM     16  C10 UNL A   1      14.923  47.693   8.641  1.00  0.00    +0.000 C 
BRANCH   16   15
ATOM     95  H9  UNL A   1      15.068  46.540   6.868  1.00  0.00    +0.000 H 
ATOM     94  H8  UNL A   1      16.566  47.351   7.328  1.00  0.00    +0.000 H 
ATOM     15  C9  UNL A   1      15.502  47.440   7.250  1.00  0.00    +0.000 C 
BRANCH   15   14
ATOM     93  H7  UNL A   1      14.245  48.782   6.224  1.00  0.00    +0.000 H 
ATOM     14  N2  UNL A   1      15.187  48.518   6.335  1.00  0.00    +0.000 N 
BRANCH   14    2
ATOM      1  O1  UNL A   1      16.863  48.661   4.764  1.00  0.00    +0.000 O 
ATOM      2  C1  UNL A   1      16.153  49.189   5.614  1.00  0.00    +0.000 C 
BRANCH    2    3
ATOM      3  C2  UNL A   1      16.292  50.664   5.989  1.00  0.00    +0.000 C 
ATOM     87  H1  UNL A   1      15.445  51.189   5.601  1.00  0.00    +0.000 H 
ATOM     88  H2  UNL A   1      17.217  51.002   5.571  1.00  0.00    +0.000 H 
BRANCH    3    4
ATOM      4  C3  UNL A   1      16.367  50.918   7.478  1.00  0.00    +0.000 C 
ATOM      5  C4  UNL A   1      17.603  50.551   8.142  1.00  0.00    +0.000 C 
ATOM      6  C5  UNL A   1      17.728  50.690   9.468  1.00  0.00    +0.000 C 
ATOM      7  N1  UNL A   1      16.693  51.192  10.236  1.00  0.00    +0.000 N 
ATOM     11  C7  UNL A   1      15.481  51.581   9.689  1.00  0.00    +0.000 C 
ATOM     12  O2  UNL A   1      14.515  52.002  10.313  1.00  0.00    +0.000 O 
ATOM     13  C8  UNL A   1      15.365  51.436   8.211  1.00  0.00    +0.000 C 
ATOM     89  H3  UNL A   1      18.392  50.181   7.590  1.00  0.00    +0.000 H 
ATOM     90  H4  UNL A   1      18.612  50.418   9.926  1.00  0.00    +0.000 H 
ATOM     92  H6  UNL A   1      14.499  51.740   7.739  1.00  0.00    +0.000 H 
BRANCH    7    8
ATOM      9  F1  UNL A   1      15.954  50.451  12.293  1.00  0.00    +0.000 F 
ATOM     10  F2  UNL A   1      18.076  50.955  12.060  1.00  0.00    +0.000 F 
ATOM     91  H5  UNL A   1      16.600  52.295  11.935  1.00  0.00    +0.000 H 
ATOM      8  C6  UNL A   1      16.820  51.283  11.667  1.00  0.00    +0.000 C 
ENDBRANCH    7    8
ENDBRANCH    3    4
ENDBRANCH    2    3
ENDBRANCH   14    2
ENDBRANCH   15   14
ENDBRANCH   16   15
ENDBRANCH   17   16
ENDBRANCH   18   17
ENDBRANCH   19   18
ENDBRANCH   20   19
ENDBRANCH   21   20
ENDBRANCH   22   21
ENDBRANCH   24   22
ENDBRANCH   28   27
BRANCH   32   33
ATOM     33  C24 UNL A   1      13.407  55.037   5.613  1.00  0.00    +0.000 C 
ATOM     34  C25 UNL A   1      12.304  55.868   5.369  1.00  0.00    +0.000 C 
ATOM     35  F3  UNL A   1      11.770  55.936   4.141  1.00  0.00    +0.000 F 
ATOM     36  C26 UNL A   1      11.761  56.650   6.385  1.00  0.00    +0.000 C 
ATOM     37  F4  UNL A   1      10.722  57.457   6.123  1.00  0.00    +0.000 F 
ATOM     38  C27 UNL A   1      12.293  56.599   7.665  1.00  0.00    +0.000 C 
ATOM     39  F5  UNL A   1      11.759  57.343   8.644  1.00  0.00    +0.000 F 
ATOM     40  C28 UNL A   1      13.379  55.779   7.929  1.00  0.00    +0.000 C 
ATOM     41  F6  UNL A   1      13.888  55.721   9.168  1.00  0.00    +0.000 F 
ATOM     42  C29 UNL A   1      13.939  55.011   6.911  1.00  0.00    +0.000 C 
ATOM     43  F7  UNL A   1      14.990  54.229   7.196  1.00  0.00    +0.000 F 
ENDBRANCH   32   33
BRANCH   49   50
ATOM     50  C35 UNL A   1      18.146  55.485   0.215  1.00  0.00    +0.000 C 
ATOM     51  C36 UNL A   1      19.364  55.852   0.805  1.00  0.00    +0.000 C 
ATOM     52  F8  UNL A   1      19.731  55.319   1.980  1.00  0.00    +0.000 F 
ATOM     53  C37 UNL A   1      20.196  56.791   0.202  1.00  0.00    +0.000 C 
ATOM     54  F9  UNL A   1      21.339  57.152   0.799  1.00  0.00    +0.000 F 
ATOM     55  C38 UNL A   1      19.837  57.360  -1.012  1.00  0.00    +0.000 C 
ATOM     56  F10 UNL A   1      20.643  58.257  -1.595  1.00  0.00    +0.000 F 
ATOM     57  C39 UNL A   1      18.642  57.002  -1.618  1.00  0.00    +0.000 C 
ATOM     58  F11 UNL A   1      18.300  57.544  -2.794  1.00  0.00    +0.000 F 
ATOM     59  C40 UNL A   1      17.797  56.080  -1.007  1.00  0.00    +0.000 C 
ATOM     60  F12 UNL A   1      16.645  55.757  -1.611  1.00  0.00    +0.000 F 
ENDBRANCH   49   50
BRANCH   64   65
ATOM     65  C44 UNL A   1      17.016  48.769  -1.244  1.00  0.00    +0.000 C 
ATOM     66  C45 UNL A   1      16.449  48.640  -2.518  1.00  0.00    +0.000 C 
ATOM     67  F13 UNL A   1      15.350  49.340  -2.836  1.00  0.00    +0.000 F 
ATOM     68  C46 UNL A   1      16.995  47.773  -3.462  1.00  0.00    +0.000 C 
ATOM     69  F14 UNL A   1      16.419  47.647  -4.666  1.00  0.00    +0.000 F 
ATOM     70  C47 UNL A   1      18.130  47.036  -3.155  1.00  0.00    +0.000 C 
ATOM     71  F15 UNL A   1      18.661  46.211  -4.068  1.00  0.00    +0.000 F 
ATOM     72  C48 UNL A   1      18.710  47.151  -1.901  1.00  0.00    +0.000 C 
ATOM     73  F16 UNL A   1      19.812  46.450  -1.605  1.00  0.00    +0.000 F 
ATOM     74  C49 UNL A   1      18.151  47.999  -0.949  1.00  0.00    +0.000 C 
ATOM     75  F17 UNL A   1      18.727  48.089   0.257  1.00  0.00    +0.000 F 
ENDBRANCH   64   65
TORSDOF 17
ENDMDL
MODEL 5
REMARK VINA RESULT:     -10.3      5.098      7.872
ROOT
ATOM     28  C20 UNL A   1      38.141  30.213  29.937  1.00  0.00    +0.000 C 
ATOM     29  C21 UNL A   1      39.213  29.335  29.347  1.00  0.00    +0.000 C 
ATOM     30  N4  UNL A   1      40.291  28.852  29.914  1.00  0.00    +0.000 N 
ATOM     31  C22 UNL A   1      40.927  28.094  28.939  1.00  0.00    +0.000 C 
ATOM     32  C23 UNL A   1      42.098  27.418  29.023  1.00  0.00    +0.000 C 
ATOM     44  C30 UNL A   1      42.934  27.376  30.194  1.00  0.00    +0.000 C 
ATOM     45  C31 UNL A   1      44.147  26.730  30.366  1.00  0.00    +0.000 C 
ATOM     46  C32 UNL A   1      44.579  26.952  31.677  1.00  0.00    +0.000 C 
ATOM     47  C33 UNL A   1      43.654  27.764  32.311  1.00  0.00    +0.000 C 
ATOM     48  N5  UNL A   1      42.648  28.013  31.391  1.00  0.00    +0.000 N 
ATOM     49  C34 UNL A   1      43.678  28.271  33.659  1.00  0.00    +0.000 C 
ATOM     61  C41 UNL A   1      42.754  29.106  34.191  1.00  0.00    +0.000 C 
ATOM     62  N6  UNL A   1      41.612  29.628  33.603  1.00  0.00    +0.000 N 
ATOM     63  C42 UNL A   1      41.030  30.352  34.527  1.00  0.00    +0.000 C 
ATOM     64  C43 UNL A   1      39.756  31.144  34.448  1.00  0.00    +0.000 C 
ATOM     76  C50 UNL A   1      39.022  31.107  33.320  1.00  0.00    +0.000 C 
ATOM     77  C51 UNL A   1      37.762  31.813  33.109  1.00  0.00    +0.000 C 
ATOM     78  C52 UNL A   1      37.296  31.521  31.884  1.00  0.00    +0.000 C 
ATOM     79  C53 UNL A   1      38.254  30.646  31.206  1.00  0.00    +0.000 C 
ATOM     80  N7  UNL A   1      39.234  30.433  32.143  1.00  0.00    +0.000 N 
ATOM     81  C54 UNL A   1      41.741  30.370  35.813  1.00  0.00    +0.000 C 
ATOM     82  C55 UNL A   1      42.800  29.617  35.547  1.00  0.00    +0.000 C 
ATOM     83  C56 UNL A   1      40.105  28.158  27.750  1.00  0.00    +0.000 C 
ATOM     84  C57 UNL A   1      39.056  28.947  27.936  1.00  0.00    +0.000 C 
ATOM    109  H23 UNL A   1      44.646  26.181  29.650  1.00  0.00    +0.000 H 
ATOM    110  H24 UNL A   1      45.441  26.575  32.101  1.00  0.00    +0.000 H 
ATOM    111  H25 UNL A   1      41.849  28.563  31.562  1.00  0.00    +0.000 H 
ATOM    112  H26 UNL A   1      37.303  32.438  33.790  1.00  0.00    +0.000 H 
ATOM    113  H27 UNL A   1      36.407  31.858  31.486  1.00  0.00    +0.000 H 
ATOM    114  H28 UNL A   1      40.013  29.852  31.986  1.00  0.00    +0.000 H 
ATOM    115  H29 UNL A   1      41.485  30.845  36.693  1.00  0.00    +0.000 H 
ATOM    116  H30 UNL A   1      43.558  29.419  36.218  1.00  0.00    +0.000 H 
ATOM    117  H31 UNL A   1      40.310  27.655  26.873  1.00  0.00    +0.000 H 
ATOM    118  H32 UNL A   1      38.321  29.220  27.265  1.00  0.00    +0.000 H 
ENDROOT
BRANCH   28   27
ATOM     27  C19 UNL A   1      36.997  30.666  29.102  1.00  0.00    +0.000 C 
ATOM    107  H21 UNL A   1      34.099  29.523  27.839  1.00  0.00    +0.000 H 
ATOM    108  H22 UNL A   1      36.031  28.784  29.106  1.00  0.00    +0.000 H 
ATOM     85  C58 UNL A   1      36.909  31.990  28.646  1.00  0.00    +0.000 C 
ATOM     86  C59 UNL A   1      35.746  32.439  28.014  1.00  0.00    +0.000 C 
ATOM    120  H34 UNL A   1      35.669  33.422  27.707  1.00  0.00    +0.000 H 
ATOM     24  C16 UNL A   1      34.687  31.552  27.800  1.00  0.00    +0.000 C 
ATOM     25  C17 UNL A   1      34.828  30.199  28.116  1.00  0.00    +0.000 C 
ATOM     26  C18 UNL A   1      35.957  29.770  28.808  1.00  0.00    +0.000 C 
ATOM    119  H33 UNL A   1      37.705  32.634  28.777  1.00  0.00    +0.000 H 
BRANCH   24   22
ATOM     22  C15 UNL A   1      33.399  32.080  27.301  1.00  0.00    +0.000 C 
ATOM     23  O3  UNL A   1      32.991  33.169  27.692  1.00  0.00    +0.000 O 
BRANCH   22   21
ATOM    106  H20 UNL A   1      32.854  31.419  25.483  1.00  0.00    +0.000 H 
ATOM     21  N3  UNL A   1      32.645  31.315  26.439  1.00  0.00    +0.000 N 
BRANCH   21   20
ATOM    105  H19 UNL A   1      30.664  30.811  26.418  1.00  0.00    +0.000 H 
ATOM     20  C14 UNL A   1      31.581  30.373  26.753  1.00  0.00    +0.000 C 
ATOM    104  H18 UNL A   1      31.584  30.196  27.808  1.00  0.00    +0.000 H 
BRANCH   20   19
ATOM     19  C13 UNL A   1      31.725  29.033  26.040  1.00  0.00    +0.000 C 
ATOM    102  H16 UNL A   1      30.787  28.803  25.578  1.00  0.00    +0.000 H 
ATOM    103  H17 UNL A   1      32.530  29.155  25.346  1.00  0.00    +0.000 H 
BRANCH   19   18
ATOM     18  C12 UNL A   1      32.114  27.851  26.928  1.00  0.00    +0.000 C 
ATOM    100  H14 UNL A   1      33.157  27.661  26.784  1.00  0.00    +0.000 H 
ATOM    101  H15 UNL A   1      31.858  28.139  27.925  1.00  0.00    +0.000 H 
BRANCH   18   17
ATOM     17  C11 UNL A   1      31.358  26.545  26.664  1.00  0.00    +0.000 C 
ATOM     98  H12 UNL A   1      30.730  26.353  27.509  1.00  0.00    +0.000 H 
ATOM     99  H13 UNL A   1      30.826  26.700  25.749  1.00  0.00    +0.000 H 
BRANCH   17   16
ATOM     97  H11 UNL A   1      31.647  24.645  25.815  1.00  0.00    +0.000 H 
ATOM     96  H10 UNL A   1      32.468  24.885  27.388  1.00  0.00    +0.000 H 
ATOM     16  C10 UNL A   1      32.226  25.300  26.433  1.00  0.00    +0.000 C 
BRANCH   16   15
ATOM     95  H9  UNL A   1      33.981  24.597  25.476  1.00  0.00    +0.000 H 
ATOM     94  H8  UNL A   1      34.172  26.153  26.285  1.00  0.00    +0.000 H 
ATOM     15  C9  UNL A   1      33.531  25.546  25.680  1.00  0.00    +0.000 C 
BRANCH   15   14
ATOM     93  H7  UNL A   1      33.305  27.202  24.399  1.00  0.00    +0.000 H 
ATOM     14  N2  UNL A   1      33.303  26.218  24.417  1.00  0.00    +0.000 N 
BRANCH   14    2
ATOM      1  O1  UNL A   1      33.972  25.236  22.445  1.00  0.00    +0.000 O 
ATOM      2  C1  UNL A   1      33.085  25.534  23.238  1.00  0.00    +0.000 C 
BRANCH    2    3
ATOM      3  C2  UNL A   1      31.615  25.201  22.980  1.00  0.00    +0.000 C 
ATOM     87  H1  UNL A   1      31.288  24.522  23.739  1.00  0.00    +0.000 H 
ATOM     88  H2  UNL A   1      31.563  24.782  21.998  1.00  0.00    +0.000 H 
BRANCH    3    4
ATOM      4  C3  UNL A   1      30.698  26.403  22.991  1.00  0.00    +0.000 C 
ATOM      5  C4  UNL A   1      29.419  26.244  23.656  1.00  0.00    +0.000 C 
ATOM      6  C5  UNL A   1      28.527  27.242  23.659  1.00  0.00    +0.000 C 
ATOM      7  N1  UNL A   1      28.800  28.448  23.040  1.00  0.00    +0.000 N 
ATOM     11  C7  UNL A   1      29.998  28.697  22.392  1.00  0.00    +0.000 C 
ATOM     12  O2  UNL A   1      30.291  29.728  21.797  1.00  0.00    +0.000 O 
ATOM     13  C8  UNL A   1      30.986  27.582  22.412  1.00  0.00    +0.000 C 
ATOM     89  H3  UNL A   1      29.196  25.356  24.131  1.00  0.00    +0.000 H 
ATOM     90  H4  UNL A   1      27.619  27.110  24.132  1.00  0.00    +0.000 H 
ATOM     92  H6  UNL A   1      31.911  27.718  21.975  1.00  0.00    +0.000 H 
BRANCH    7    8
ATOM      9  F1  UNL A   1      26.608  29.050  23.446  1.00  0.00    +0.000 F 
ATOM     10  F2  UNL A   1      28.185  30.539  23.777  1.00  0.00    +0.000 F 
ATOM     91  H5  UNL A   1      27.722  29.800  21.981  1.00  0.00    +0.000 H 
ATOM      8  C6  UNL A   1      27.810  29.492  23.002  1.00  0.00    +0.000 C 
ENDBRANCH    7    8
ENDBRANCH    3    4
ENDBRANCH    2    3
ENDBRANCH   14    2
ENDBRANCH   15   14
ENDBRANCH   16   15
ENDBRANCH   17   16
ENDBRANCH   18   17
ENDBRANCH   19   18
ENDBRANCH   20   19
ENDBRANCH   21   20
ENDBRANCH   22   21
ENDBRANCH   24   22
ENDBRANCH   28   27
BRANCH   32   33
ATOM     33  C24 UNL A   1      42.553  26.657  27.814  1.00  0.00    +0.000 C 
ATOM     34  C25 UNL A   1      43.418  27.231  26.870  1.00  0.00    +0.000 C 
ATOM     35  F3  UNL A   1      43.799  28.511  26.996  1.00  0.00    +0.000 F 
ATOM     36  C26 UNL A   1      43.877  26.495  25.781  1.00  0.00    +0.000 C 
ATOM     37  F4  UNL A   1      44.682  27.072  24.877  1.00  0.00    +0.000 F 
ATOM     38  C27 UNL A   1      43.500  25.169  25.627  1.00  0.00    +0.000 C 
ATOM     39  F5  UNL A   1      43.954  24.459  24.584  1.00  0.00    +0.000 F 
ATOM     40  C28 UNL A   1      42.651  24.580  26.552  1.00  0.00    +0.000 C 
ATOM     41  F6  UNL A   1      42.295  23.296  26.409  1.00  0.00    +0.000 F 
ATOM     42  C29 UNL A   1      42.174  25.319  27.631  1.00  0.00    +0.000 C 
ATOM     43  F7  UNL A   1      41.353  24.723  28.508  1.00  0.00    +0.000 F 
ENDBRANCH   32   33
BRANCH   49   50
ATOM     50  C35 UNL A   1      44.816  27.853  34.540  1.00  0.00    +0.000 C 
ATOM     51  C36 UNL A   1      44.748  26.678  35.303  1.00  0.00    +0.000 C 
ATOM     52  F8  UNL A   1      43.630  25.939  35.305  1.00  0.00    +0.000 F 
ATOM     53  C37 UNL A   1      45.824  26.275  36.090  1.00  0.00    +0.000 C 
ATOM     54  F9  UNL A   1      45.727  25.168  36.837  1.00  0.00    +0.000 F 
ATOM     55  C38 UNL A   1      46.991  27.025  36.109  1.00  0.00    +0.000 C 
ATOM     56  F10 UNL A   1      48.028  26.631  36.860  1.00  0.00    +0.000 F 
ATOM     57  C39 UNL A   1      47.082  28.184  35.353  1.00  0.00    +0.000 C 
ATOM     58  F11 UNL A   1      48.213  28.902  35.363  1.00  0.00    +0.000 F 
ATOM     59  C40 UNL A   1      46.001  28.601  34.582  1.00  0.00    +0.000 C 
ATOM     60  F12 UNL A   1      46.114  29.729  33.865  1.00  0.00    +0.000 F 
ENDBRANCH   49   50
BRANCH   64   65
ATOM     65  C44 UNL A   1      39.296  31.967  35.593  1.00  0.00    +0.000 C 
ATOM     66  C45 UNL A   1      38.414  31.443  36.546  1.00  0.00    +0.000 C 
ATOM     67  F13 UNL A   1      37.940  30.196  36.405  1.00  0.00    +0.000 F 
ATOM     68  C46 UNL A   1      37.998  32.205  37.635  1.00  0.00    +0.000 C 
ATOM     69  F14 UNL A   1      37.133  31.691  38.520  1.00  0.00    +0.000 F 
ATOM     70  C47 UNL A   1      38.473  33.498  37.801  1.00  0.00    +0.000 C 
ATOM     71  F15 UNL A   1      38.081  34.227  38.855  1.00  0.00    +0.000 F 
ATOM     72  C48 UNL A   1      39.349  34.037  36.872  1.00  0.00    +0.000 C 
ATOM     73  F16 UNL A   1      39.820  35.281  37.035  1.00  0.00    +0.000 F 
ATOM     74  C49 UNL A   1      39.748  33.284  35.770  1.00  0.00    +0.000 C 
ATOM     75  F17 UNL A   1      40.592  33.829  34.883  1.00  0.00    +0.000 F 
ENDBRANCH   64   65
TORSDOF 17
ENDMDL
MODEL 6
REMARK VINA RESULT:     -10.3     17.772     22.600
ROOT
ATOM     28  C20 UNL A   1      52.854  19.911  11.387  1.00  0.00    +0.000 C 
ATOM     29  C21 UNL A   1      54.212  19.330  11.098  1.00  0.00    +0.000 C 
ATOM     30  N4  UNL A   1      55.262  19.253  11.878  1.00  0.00    +0.000 N 
ATOM     31  C22 UNL A   1      56.245  18.614  11.132  1.00  0.00    +0.000 C 
ATOM     32  C23 UNL A   1      57.522  18.329  11.483  1.00  0.00    +0.000 C 
ATOM     44  C30 UNL A   1      58.114  18.666  12.751  1.00  0.00    +0.000 C 
ATOM     45  C31 UNL A   1      59.406  18.430  13.189  1.00  0.00    +0.000 C 
ATOM     46  C32 UNL A   1      59.520  18.912  14.496  1.00  0.00    +0.000 C 
ATOM     47  C33 UNL A   1      58.310  19.480  14.860  1.00  0.00    +0.000 C 
ATOM     48  N5  UNL A   1      57.455  19.317  13.782  1.00  0.00    +0.000 N 
ATOM     49  C34 UNL A   1      57.953  20.117  16.101  1.00  0.00    +0.000 C 
ATOM     61  C41 UNL A   1      56.757  20.694  16.363  1.00  0.00    +0.000 C 
ATOM     62  N6  UNL A   1      55.639  20.787  15.546  1.00  0.00    +0.000 N 
ATOM     63  C42 UNL A   1      54.726  21.404  16.255  1.00  0.00    +0.000 C 
ATOM     64  C43 UNL A   1      53.320  21.770  15.876  1.00  0.00    +0.000 C 
ATOM     76  C50 UNL A   1      52.837  21.393  14.677  1.00  0.00    +0.000 C 
ATOM     77  C51 UNL A   1      51.491  21.667  14.184  1.00  0.00    +0.000 C 
ATOM     78  C52 UNL A   1      51.349  21.117  12.968  1.00  0.00    +0.000 C 
ATOM     79  C53 UNL A   1      52.615  20.496  12.575  1.00  0.00    +0.000 C 
ATOM     80  N7  UNL A   1      53.432  20.686  13.661  1.00  0.00    +0.000 N 
ATOM     81  C54 UNL A   1      55.164  21.773  17.609  1.00  0.00    +0.000 C 
ATOM     82  C55 UNL A   1      56.418  21.342  17.614  1.00  0.00    +0.000 C 
ATOM     83  C56 UNL A   1      55.663  18.301   9.845  1.00  0.00    +0.000 C 
ATOM     84  C57 UNL A   1      54.422  18.761   9.757  1.00  0.00    +0.000 C 
ATOM    109  H23 UNL A   1      60.157  17.977  12.645  1.00  0.00    +0.000 H 
ATOM    110  H24 UNL A   1      60.363  18.856  15.090  1.00  0.00    +0.000 H 
ATOM    111  H25 UNL A   1      56.519  19.621  13.751  1.00  0.00    +0.000 H 
ATOM    112  H26 UNL A   1      50.765  22.200  14.688  1.00  0.00    +0.000 H 
ATOM    113  H27 UNL A   1      50.488  21.130  12.402  1.00  0.00    +0.000 H 
ATOM    114  H28 UNL A   1      54.356  20.349  13.707  1.00  0.00    +0.000 H 
ATOM    115  H29 UNL A   1      54.634  22.245  18.359  1.00  0.00    +0.000 H 
ATOM    116  H30 UNL A   1      57.069  21.453  18.406  1.00  0.00    +0.000 H 
ATOM    117  H31 UNL A   1      56.150  17.787   9.094  1.00  0.00    +0.000 H 
ATOM    118  H32 UNL A   1      53.773  18.727   8.956  1.00  0.00    +0.000 H 
ENDROOT
BRANCH   28   27
ATOM     27  C19 UNL A   1      51.797  19.911  10.341  1.00  0.00    +0.000 C 
ATOM    107  H21 UNL A   1      50.331  21.988   8.141  1.00  0.00    +0.000 H 
ATOM    108  H22 UNL A   1      51.970  21.980   9.928  1.00  0.00    +0.000 H 
ATOM     85  C58 UNL A   1      51.121  18.734   9.989  1.00  0.00    +0.000 C 
ATOM     86  C59 UNL A   1      50.260  18.720   8.888  1.00  0.00    +0.000 C 
ATOM    120  H34 UNL A   1      49.788  17.845   8.610  1.00  0.00    +0.000 H 
ATOM     24  C16 UNL A   1      50.044  19.895   8.163  1.00  0.00    +0.000 C 
ATOM     25  C17 UNL A   1      50.596  21.102   8.598  1.00  0.00    +0.000 C 
ATOM     26  C18 UNL A   1      51.506  21.100   9.651  1.00  0.00    +0.000 C 
ATOM    119  H33 UNL A   1      51.259  17.875  10.545  1.00  0.00    +0.000 H 
BRANCH   24   22
ATOM     22  C15 UNL A   1      49.281  19.827   6.898  1.00  0.00    +0.000 C 
ATOM     23  O3  UNL A   1      49.831  20.105   5.836  1.00  0.00    +0.000 O 
BRANCH   22   21
ATOM    106  H20 UNL A   1      47.438  19.859   7.696  1.00  0.00    +0.000 H 
ATOM     21  N3  UNL A   1      47.944  19.501   6.932  1.00  0.00    +0.000 N 
BRANCH   21   20
ATOM    105  H19 UNL A   1      46.400  18.219   6.545  1.00  0.00    +0.000 H 
ATOM     20  C14 UNL A   1      47.178  18.699   5.990  1.00  0.00    +0.000 C 
ATOM    104  H18 UNL A   1      47.839  17.996   5.527  1.00  0.00    +0.000 H 
BRANCH   20   19
ATOM     19  C13 UNL A   1      46.505  19.522   4.896  1.00  0.00    +0.000 C 
ATOM    102  H16 UNL A   1      45.605  19.934   5.302  1.00  0.00    +0.000 H 
ATOM    103  H17 UNL A   1      47.223  20.257   4.600  1.00  0.00    +0.000 H 
BRANCH   19   18
ATOM     18  C12 UNL A   1      46.141  18.756   3.624  1.00  0.00    +0.000 C 
ATOM    100  H14 UNL A   1      47.020  18.689   3.018  1.00  0.00    +0.000 H 
ATOM    101  H15 UNL A   1      45.765  17.809   3.951  1.00  0.00    +0.000 H 
BRANCH   18   17
ATOM     17  C11 UNL A   1      45.028  19.375   2.772  1.00  0.00    +0.000 C 
ATOM     98  H12 UNL A   1      44.641  20.219   3.303  1.00  0.00    +0.000 H 
ATOM     99  H13 UNL A   1      45.484  19.616   1.836  1.00  0.00    +0.000 H 
BRANCH   17   16
ATOM     97  H11 UNL A   1      44.048  17.523   2.925  1.00  0.00    +0.000 H 
ATOM     96  H10 UNL A   1      43.789  18.370   1.369  1.00  0.00    +0.000 H 
ATOM     16  C10 UNL A   1      43.849  18.453   2.434  1.00  0.00    +0.000 C 
BRANCH   16   15
ATOM     95  H9  UNL A   1      42.630  19.837   3.478  1.00  0.00    +0.000 H 
ATOM     94  H8  UNL A   1      42.083  18.164   3.590  1.00  0.00    +0.000 H 
ATOM     15  C9  UNL A   1      42.489  18.919   2.949  1.00  0.00    +0.000 C 
BRANCH   15   14
ATOM     93  H7  UNL A   1      40.837  18.511   1.709  1.00  0.00    +0.000 H 
ATOM     14  N2  UNL A   1      41.559  19.161   1.864  1.00  0.00    +0.000 N 
BRANCH   14    2
ATOM      1  O1  UNL A   1      42.222  21.304   1.348  1.00  0.00    +0.000 O 
ATOM      2  C1  UNL A   1      41.646  20.265   1.041  1.00  0.00    +0.000 C 
BRANCH    2    3
ATOM      3  C2  UNL A   1      40.925  20.098  -0.296  1.00  0.00    +0.000 C 
ATOM     87  H1  UNL A   1      40.788  19.052  -0.473  1.00  0.00    +0.000 H 
ATOM     88  H2  UNL A   1      41.537  20.567  -1.037  1.00  0.00    +0.000 H 
BRANCH    3    4
ATOM      4  C3  UNL A   1      39.573  20.772  -0.357  1.00  0.00    +0.000 C 
ATOM      5  C4  UNL A   1      38.766  20.729   0.847  1.00  0.00    +0.000 C 
ATOM      6  C5  UNL A   1      37.533  21.252   0.857  1.00  0.00    +0.000 C 
ATOM      7  N1  UNL A   1      37.000  21.850  -0.270  1.00  0.00    +0.000 N 
ATOM     11  C7  UNL A   1      37.700  21.949  -1.461  1.00  0.00    +0.000 C 
ATOM     12  O2  UNL A   1      37.277  22.437  -2.503  1.00  0.00    +0.000 O 
ATOM     13  C8  UNL A   1      39.076  21.379  -1.450  1.00  0.00    +0.000 C 
ATOM     89  H3  UNL A   1      39.144  20.294   1.703  1.00  0.00    +0.000 H 
ATOM     90  H4  UNL A   1      36.970  21.207   1.722  1.00  0.00    +0.000 H 
ATOM     92  H6  UNL A   1      39.661  21.452  -2.297  1.00  0.00    +0.000 H 
BRANCH    7    8
ATOM      9  F1  UNL A   1      34.981  21.958   0.845  1.00  0.00    +0.000 F 
ATOM     10  F2  UNL A   1      35.649  23.712  -0.290  1.00  0.00    +0.000 F 
ATOM     91  H5  UNL A   1      35.169  21.967  -1.134  1.00  0.00    +0.000 H 
ATOM      8  C6  UNL A   1      35.653  22.357  -0.262  1.00  0.00    +0.000 C 
ENDBRANCH    7    8
ENDBRANCH    3    4
ENDBRANCH    2    3
ENDBRANCH   14    2
ENDBRANCH   15   14
ENDBRANCH   16   15
ENDBRANCH   17   16
ENDBRANCH   18   17
ENDBRANCH   19   18
ENDBRANCH   20   19
ENDBRANCH   21   20
ENDBRANCH   22   21
ENDBRANCH   24   22
ENDBRANCH   28   27
BRANCH   32   33
ATOM     33  C24 UNL A   1      58.376  17.608  10.483  1.00  0.00    +0.000 C 
ATOM     34  C25 UNL A   1      58.411  16.207  10.425  1.00  0.00    +0.000 C 
ATOM     35  F3  UNL A   1      57.729  15.478  11.321  1.00  0.00    +0.000 F 
ATOM     36  C26 UNL A   1      59.166  15.551   9.456  1.00  0.00    +0.000 C 
ATOM     37  F4  UNL A   1      59.205  14.211   9.434  1.00  0.00    +0.000 F 
ATOM     38  C27 UNL A   1      59.878  16.280   8.515  1.00  0.00    +0.000 C 
ATOM     39  F5  UNL A   1      60.594  15.646   7.576  1.00  0.00    +0.000 F 
ATOM     40  C28 UNL A   1      59.852  17.666   8.551  1.00  0.00    +0.000 C 
ATOM     41  F6  UNL A   1      60.533  18.371   7.637  1.00  0.00    +0.000 F 
ATOM     42  C29 UNL A   1      59.115  18.325   9.532  1.00  0.00    +0.000 C 
ATOM     43  F7  UNL A   1      59.111  19.666   9.542  1.00  0.00    +0.000 F 
ENDBRANCH   32   33
BRANCH   49   50
ATOM     50  C35 UNL A   1      58.986  20.153  17.187  1.00  0.00    +0.000 C 
ATOM     51  C36 UNL A   1      59.244  19.026  17.981  1.00  0.00    +0.000 C 
ATOM     52  F8  UNL A   1      58.520  17.909  17.822  1.00  0.00    +0.000 F 
ATOM     53  C37 UNL A   1      60.231  19.056  18.963  1.00  0.00    +0.000 C 
ATOM     54  F9  UNL A   1      60.439  17.979  19.732  1.00  0.00    +0.000 F 
ATOM     55  C38 UNL A   1      60.992  20.200  19.150  1.00  0.00    +0.000 C 
ATOM     56  F10 UNL A   1      61.947  20.223  20.090  1.00  0.00    +0.000 F 
ATOM     57  C39 UNL A   1      60.760  21.322  18.368  1.00  0.00    +0.000 C 
ATOM     58  F11 UNL A   1      61.501  22.424  18.543  1.00  0.00    +0.000 F 
ATOM     59  C40 UNL A   1      59.759  21.304  17.401  1.00  0.00    +0.000 C 
ATOM     60  F12 UNL A   1      59.552  22.404  16.663  1.00  0.00    +0.000 F 
ENDBRANCH   49   50
BRANCH   64   65
ATOM     65  C44 UNL A   1      52.455  22.541  16.803  1.00  0.00    +0.000 C 
ATOM     66  C45 UNL A   1      52.298  23.925  16.655  1.00  0.00    +0.000 C 
ATOM     67  F13 UNL A   1      52.968  24.576  15.693  1.00  0.00    +0.000 F 
ATOM     68  C46 UNL A   1      51.469  24.649  17.510  1.00  0.00    +0.000 C 
ATOM     69  F14 UNL A   1      51.355  25.976  17.365  1.00  0.00    +0.000 F 
ATOM     70  C47 UNL A   1      50.768  23.997  18.515  1.00  0.00    +0.000 C 
ATOM     71  F15 UNL A   1      49.962  24.692  19.329  1.00  0.00    +0.000 F 
ATOM     72  C48 UNL A   1      50.906  22.628  18.677  1.00  0.00    +0.000 C 
ATOM     73  F16 UNL A   1      50.221  21.993  19.639  1.00  0.00    +0.000 F 
ATOM     74  C49 UNL A   1      51.752  21.907  17.838  1.00  0.00    +0.000 C 
ATOM     75  F17 UNL A   1      51.873  20.585  18.019  1.00  0.00    +0.000 F 
ENDBRANCH   64   65
TORSDOF 17
ENDMDL
MODEL 7
REMARK VINA RESULT:     -10.3     37.930     43.062
ROOT
ATOM     28  C20 UNL A   1      29.019 -14.125  30.661  1.00  0.00    +0.000 C 
ATOM     29  C21 UNL A   1      28.795 -14.206  32.148  1.00  0.00    +0.000 C 
ATOM     30  N4  UNL A   1      27.786 -13.764  32.857  1.00  0.00    +0.000 N 
ATOM     31  C22 UNL A   1      28.065 -14.109  34.174  1.00  0.00    +0.000 C 
ATOM     32  C23 UNL A   1      27.343 -13.845  35.289  1.00  0.00    +0.000 C 
ATOM     44  C30 UNL A   1      26.103 -13.113  35.304  1.00  0.00    +0.000 C 
ATOM     45  C31 UNL A   1      25.310 -12.783  36.390  1.00  0.00    +0.000 C 
ATOM     46  C32 UNL A   1      24.192 -12.086  35.920  1.00  0.00    +0.000 C 
ATOM     47  C33 UNL A   1      24.307 -11.952  34.546  1.00  0.00    +0.000 C 
ATOM     48  N5  UNL A   1      25.482 -12.590  34.181  1.00  0.00    +0.000 N 
ATOM     49  C34 UNL A   1      23.410 -11.298  33.630  1.00  0.00    +0.000 C 
ATOM     61  C41 UNL A   1      23.619 -11.167  32.298  1.00  0.00    +0.000 C 
ATOM     62  N6  UNL A   1      24.682 -11.625  31.535  1.00  0.00    +0.000 N 
ATOM     63  C42 UNL A   1      24.414 -11.280  30.300  1.00  0.00    +0.000 C 
ATOM     64  C43 UNL A   1      25.217 -11.523  29.053  1.00  0.00    +0.000 C 
ATOM     76  C50 UNL A   1      26.353 -12.240  29.126  1.00  0.00    +0.000 C 
ATOM     77  C51 UNL A   1      27.222 -12.563  27.998  1.00  0.00    +0.000 C 
ATOM     78  C52 UNL A   1      28.244 -13.317  28.434  1.00  0.00    +0.000 C 
ATOM     79  C53 UNL A   1      28.128 -13.485  29.883  1.00  0.00    +0.000 C 
ATOM     80  N7  UNL A   1      26.963 -12.833  30.203  1.00  0.00    +0.000 N 
ATOM     81  C54 UNL A   1      23.143 -10.561  30.139  1.00  0.00    +0.000 C 
ATOM     82  C55 UNL A   1      22.710 -10.494  31.391  1.00  0.00    +0.000 C 
ATOM     83  C56 UNL A   1      29.325 -14.819  34.167  1.00  0.00    +0.000 C 
ATOM     84  C57 UNL A   1      29.840 -14.868  32.945  1.00  0.00    +0.000 C 
ATOM    109  H23 UNL A   1      25.509 -13.010  37.377  1.00  0.00    +0.000 H 
ATOM    110  H24 UNL A   1      23.414 -11.732  36.498  1.00  0.00    +0.000 H 
ATOM    111  H25 UNL A   1      25.825 -12.661  33.261  1.00  0.00    +0.000 H 
ATOM    112  H26 UNL A   1      27.075 -12.260  27.023  1.00  0.00    +0.000 H 
ATOM    113  H27 UNL A   1      28.989 -13.713  27.843  1.00  0.00    +0.000 H 
ATOM    114  H28 UNL A   1      26.600 -12.796  31.118  1.00  0.00    +0.000 H 
ATOM    115  H29 UNL A   1      22.702 -10.201  29.278  1.00  0.00    +0.000 H 
ATOM    116  H30 UNL A   1      21.839 -10.025  31.682  1.00  0.00    +0.000 H 
ATOM    117  H31 UNL A   1      29.766 -15.232  35.003  1.00  0.00    +0.000 H 
ATOM    118  H32 UNL A   1      30.739 -15.267  32.635  1.00  0.00    +0.000 H 
ENDROOT
BRANCH   28   27
ATOM     27  C19 UNL A   1      30.258 -14.683  30.057  1.00  0.00    +0.000 C 
ATOM    107  H21 UNL A   1      31.323 -17.385  28.363  1.00  0.00    +0.000 H 
ATOM    108  H22 UNL A   1      29.348 -16.496  29.453  1.00  0.00    +0.000 H 
ATOM     85  C58 UNL A   1      31.459 -13.958  30.057  1.00  0.00    +0.000 C 
ATOM     86  C59 UNL A   1      32.561 -14.423  29.333  1.00  0.00    +0.000 C 
ATOM    120  H34 UNL A   1      33.434 -13.873  29.308  1.00  0.00    +0.000 H 
ATOM     24  C16 UNL A   1      32.475 -15.635  28.644  1.00  0.00    +0.000 C 
ATOM     25  C17 UNL A   1      31.335 -16.434  28.763  1.00  0.00    +0.000 C 
ATOM     26  C18 UNL A   1      30.216 -15.937  29.425  1.00  0.00    +0.000 C 
ATOM    119  H33 UNL A   1      31.529 -13.079  30.593  1.00  0.00    +0.000 H 
BRANCH   24   22
ATOM     22  C15 UNL A   1      33.577 -16.024  27.737  1.00  0.00    +0.000 C 
ATOM     23  O3  UNL A   1      34.516 -16.688  28.165  1.00  0.00    +0.000 O 
BRANCH   22   21
ATOM    106  H20 UNL A   1      34.149 -16.077  25.812  1.00  0.00    +0.000 H 
ATOM     21  N3  UNL A   1      33.560 -15.589  26.431  1.00  0.00    +0.000 N 
BRANCH   21   20
ATOM    105  H19 UNL A   1      31.924 -14.365  26.457  1.00  0.00    +0.000 H 
ATOM     20  C14 UNL A   1      32.788 -14.504  25.843  1.00  0.00    +0.000 C 
ATOM    104  H18 UNL A   1      32.535 -14.774  24.839  1.00  0.00    +0.000 H 
BRANCH   20   19
ATOM     19  C13 UNL A   1      33.534 -13.175  25.811  1.00  0.00    +0.000 C 
ATOM    102  H16 UNL A   1      34.154 -13.124  26.682  1.00  0.00    +0.000 H 
ATOM    103  H17 UNL A   1      34.079 -13.166  24.891  1.00  0.00    +0.000 H 
BRANCH   19   18
ATOM     18  C12 UNL A   1      32.654 -11.925  25.788  1.00  0.00    +0.000 C 
ATOM    100  H14 UNL A   1      33.296 -11.071  25.732  1.00  0.00    +0.000 H 
ATOM    101  H15 UNL A   1      32.008 -12.039  24.943  1.00  0.00    +0.000 H 
BRANCH   18   17
ATOM     17  C11 UNL A   1      31.730 -11.740  26.996  1.00  0.00    +0.000 C 
ATOM     98  H12 UNL A   1      30.838 -11.258  26.655  1.00  0.00    +0.000 H 
ATOM     99  H13 UNL A   1      31.575 -12.720  27.392  1.00  0.00    +0.000 H 
BRANCH   17   16
ATOM     97  H11 UNL A   1      33.172 -11.427  28.491  1.00  0.00    +0.000 H 
ATOM     96  H10 UNL A   1      31.538 -10.823  28.903  1.00  0.00    +0.000 H 
ATOM     16  C10 UNL A   1      32.298 -10.909  28.155  1.00  0.00    +0.000 C 
BRANCH   16   15
ATOM     95  H9  UNL A   1      33.471  -9.582  26.991  1.00  0.00    +0.000 H 
ATOM     94  H8  UNL A   1      33.193  -9.040  28.647  1.00  0.00    +0.000 H 
ATOM     15  C9  UNL A   1      32.758  -9.501  27.784  1.00  0.00    +0.000 C 
BRANCH   15   14
ATOM     93  H7  UNL A   1      31.538  -8.557  26.351  1.00  0.00    +0.000 H 
ATOM     14  N2  UNL A   1      31.657  -8.682  27.320  1.00  0.00    +0.000 N 
BRANCH   14    2
ATOM      1  O1  UNL A   1      31.058  -7.130  28.911  1.00  0.00    +0.000 O 
ATOM      2  C1  UNL A   1      30.768  -8.072  28.181  1.00  0.00    +0.000 C 
BRANCH    2    3
ATOM      3  C2  UNL A   1      29.373  -8.699  28.175  1.00  0.00    +0.000 C 
ATOM     87  H1  UNL A   1      29.424  -9.621  27.637  1.00  0.00    +0.000 H 
ATOM     88  H2  UNL A   1      28.718  -7.987  27.717  1.00  0.00    +0.000 H 
BRANCH    3    4
ATOM      4  C3  UNL A   1      28.816  -8.981  29.552  1.00  0.00    +0.000 C 
ATOM      5  C4  UNL A   1      29.520  -9.963  30.354  1.00  0.00    +0.000 C 
ATOM      6  C5  UNL A   1      29.058 -10.311  31.560  1.00  0.00    +0.000 C 
ATOM      7  N1  UNL A   1      27.908  -9.744  32.078  1.00  0.00    +0.000 N 
ATOM     11  C7  UNL A   1      27.176  -8.789  31.391  1.00  0.00    +0.000 C 
ATOM     12  O2  UNL A   1      26.135  -8.270  31.776  1.00  0.00    +0.000 O 
ATOM     13  C8  UNL A   1      27.714  -8.400  30.058  1.00  0.00    +0.000 C 
ATOM     89  H3  UNL A   1      30.384 -10.395  29.992  1.00  0.00    +0.000 H 
ATOM     90  H4  UNL A   1      29.568 -11.017  32.115  1.00  0.00    +0.000 H 
ATOM     92  H6  UNL A   1      27.232  -7.668  29.512  1.00  0.00    +0.000 H 
BRANCH    7    8
ATOM      9  F1  UNL A   1      28.341 -10.794  34.087  1.00  0.00    +0.000 F 
ATOM     10  F2  UNL A   1      26.937  -9.109  34.065  1.00  0.00    +0.000 F 
ATOM     91  H5  UNL A   1      26.589 -10.849  33.151  1.00  0.00    +0.000 H 
ATOM      8  C6  UNL A   1      27.390 -10.169  33.352  1.00  0.00    +0.000 C 
ENDBRANCH    7    8
ENDBRANCH    3    4
ENDBRANCH    2    3
ENDBRANCH   14    2
ENDBRANCH   15   14
ENDBRANCH   16   15
ENDBRANCH   17   16
ENDBRANCH   18   17
ENDBRANCH   19   18
ENDBRANCH   20   19
ENDBRANCH   21   20
ENDBRANCH   22   21
ENDBRANCH   24   22
ENDBRANCH   28   27
BRANCH   32   33
ATOM     33  C24 UNL A   1      27.869 -14.353  36.598  1.00  0.00    +0.000 C 
ATOM     34  C25 UNL A   1      28.861 -13.661  37.307  1.00  0.00    +0.000 C 
ATOM     35  F3  UNL A   1      29.416 -12.556  36.786  1.00  0.00    +0.000 F 
ATOM     36  C26 UNL A   1      29.301 -14.115  38.548  1.00  0.00    +0.000 C 
ATOM     37  F4  UNL A   1      30.268 -13.451  39.197  1.00  0.00    +0.000 F 
ATOM     38  C27 UNL A   1      28.743 -15.253  39.112  1.00  0.00    +0.000 C 
ATOM     39  F5  UNL A   1      29.160 -15.680  40.312  1.00  0.00    +0.000 F 
ATOM     40  C28 UNL A   1      27.757 -15.949  38.430  1.00  0.00    +0.000 C 
ATOM     41  F6  UNL A   1      27.211 -17.043  38.979  1.00  0.00    +0.000 F 
ATOM     42  C29 UNL A   1      27.329 -15.510  37.180  1.00  0.00    +0.000 C 
ATOM     43  F7  UNL A   1      26.375 -16.205  36.544  1.00  0.00    +0.000 F 
ENDBRANCH   32   33
BRANCH   49   50
ATOM     50  C35 UNL A   1      22.150 -10.709  34.189  1.00  0.00    +0.000 C 
ATOM     51  C36 UNL A   1      20.934 -11.404  34.127  1.00  0.00    +0.000 C 
ATOM     52  F8  UNL A   1      20.866 -12.589  33.503  1.00  0.00    +0.000 F 
ATOM     53  C37 UNL A   1      19.775 -10.868  34.682  1.00  0.00    +0.000 C 
ATOM     54  F9  UNL A   1      18.617 -11.533  34.583  1.00  0.00    +0.000 F 
ATOM     55  C38 UNL A   1      19.818  -9.642  35.330  1.00  0.00    +0.000 C 
ATOM     56  F10 UNL A   1      18.704  -9.131  35.872  1.00  0.00    +0.000 F 
ATOM     57  C39 UNL A   1      21.013  -8.943  35.412  1.00  0.00    +0.000 C 
ATOM     58  F11 UNL A   1      21.056  -7.763  36.046  1.00  0.00    +0.000 F 
ATOM     59  C40 UNL A   1      22.168  -9.466  34.839  1.00  0.00    +0.000 C 
ATOM     60  F12 UNL A   1      23.309  -8.767  34.928  1.00  0.00    +0.000 F 
ENDBRANCH   49   50
BRANCH   64   65
ATOM     65  C44 UNL A   1      24.774 -10.983  27.744  1.00  0.00    +0.000 C 
ATOM     66  C45 UNL A   1      25.310  -9.792  27.240  1.00  0.00    +0.000 C 
ATOM     67  F13 UNL A   1      26.203  -9.101  27.963  1.00  0.00    +0.000 F 
ATOM     68  C46 UNL A   1      24.914  -9.294  26.000  1.00  0.00    +0.000 C 
ATOM     69  F14 UNL A   1      25.421  -8.139  25.550  1.00  0.00    +0.000 F 
ATOM     70  C47 UNL A   1      23.989  -9.991  25.235  1.00  0.00    +0.000 C 
ATOM     71  F15 UNL A   1      23.616  -9.517  24.038  1.00  0.00    +0.000 F 
ATOM     72  C48 UNL A   1      23.447 -11.174  25.713  1.00  0.00    +0.000 C 
ATOM     73  F16 UNL A   1      22.564 -11.855  24.972  1.00  0.00    +0.000 F 
ATOM     74  C49 UNL A   1      23.826 -11.660  26.962  1.00  0.00    +0.000 C 
ATOM     75  F17 UNL A   1      23.284 -12.803  27.404  1.00  0.00    +0.000 F 
ENDBRANCH   64   65
TORSDOF 17
ENDMDL
MODEL 8
REMARK VINA RESULT:     -10.3      4.445      7.036
ROOT
ATOM     28  C20 UNL A   1      37.926  29.974  29.886  1.00  0.00    +0.000 C 
ATOM     29  C21 UNL A   1      38.985  29.082  29.296  1.00  0.00    +0.000 C 
ATOM     30  N4  UNL A   1      40.081  28.620  29.848  1.00  0.00    +0.000 N 
ATOM     31  C22 UNL A   1      40.693  27.834  28.881  1.00  0.00    +0.000 C 
ATOM     32  C23 UNL A   1      41.869  27.165  28.954  1.00  0.00    +0.000 C 
ATOM     44  C30 UNL A   1      42.736  27.163  30.104  1.00  0.00    +0.000 C 
ATOM     45  C31 UNL A   1      43.955  26.527  30.262  1.00  0.00    +0.000 C 
ATOM     46  C32 UNL A   1      44.422  26.791  31.554  1.00  0.00    +0.000 C 
ATOM     47  C33 UNL A   1      43.510  27.620  32.187  1.00  0.00    +0.000 C 
ATOM     48  N5  UNL A   1      42.479  27.837  31.287  1.00  0.00    +0.000 N 
ATOM     49  C34 UNL A   1      43.569  28.169  33.517  1.00  0.00    +0.000 C 
ATOM     61  C41 UNL A   1      42.656  29.017  34.047  1.00  0.00    +0.000 C 
ATOM     62  N6  UNL A   1      41.496  29.517  33.474  1.00  0.00    +0.000 N 
ATOM     63  C42 UNL A   1      40.936  30.268  34.390  1.00  0.00    +0.000 C 
ATOM     64  C43 UNL A   1      39.658  31.053  34.320  1.00  0.00    +0.000 C 
ATOM     76  C50 UNL A   1      38.894  30.977  33.214  1.00  0.00    +0.000 C 
ATOM     77  C51 UNL A   1      37.626  31.673  33.015  1.00  0.00    +0.000 C 
ATOM     78  C52 UNL A   1      37.128  31.340  31.813  1.00  0.00    +0.000 C 
ATOM     79  C53 UNL A   1      38.071  30.448  31.137  1.00  0.00    +0.000 C 
ATOM     80  N7  UNL A   1      39.077  30.268  32.054  1.00  0.00    +0.000 N 
ATOM     81  C54 UNL A   1      41.682  30.329  35.656  1.00  0.00    +0.000 C 
ATOM     82  C55 UNL A   1      42.736  29.571  35.384  1.00  0.00    +0.000 C 
ATOM     83  C56 UNL A   1      39.840  27.858  27.713  1.00  0.00    +0.000 C 
ATOM     84  C57 UNL A   1      38.793  28.649  27.902  1.00  0.00    +0.000 C 
ATOM    109  H23 UNL A   1      44.438  25.956  29.551  1.00  0.00    +0.000 H 
ATOM    110  H24 UNL A   1      45.297  26.430  31.966  1.00  0.00    +0.000 H 
ATOM    111  H25 UNL A   1      41.683  28.389  31.462  1.00  0.00    +0.000 H 
ATOM    112  H26 UNL A   1      37.183  32.317  33.688  1.00  0.00    +0.000 H 
ATOM    113  H27 UNL A   1      36.227  31.662  31.428  1.00  0.00    +0.000 H 
ATOM    114  H28 UNL A   1      39.854  29.685  31.894  1.00  0.00    +0.000 H 
ATOM    115  H29 UNL A   1      41.447  30.831  36.526  1.00  0.00    +0.000 H 
ATOM    116  H30 UNL A   1      43.512  29.397  36.040  1.00  0.00    +0.000 H 
ATOM    117  H31 UNL A   1      40.022  27.328  26.847  1.00  0.00    +0.000 H 
ATOM    118  H32 UNL A   1      38.039  28.898  27.243  1.00  0.00    +0.000 H 
ENDROOT
BRANCH   28   27
ATOM     27  C19 UNL A   1      36.759  30.398  29.069  1.00  0.00    +0.000 C 
ATOM    107  H21 UNL A   1      34.013  29.113  27.616  1.00  0.00    +0.000 H 
ATOM    108  H22 UNL A   1      35.984  28.440  28.857  1.00  0.00    +0.000 H 
ATOM     85  C58 UNL A   1      36.547  31.746  28.744  1.00  0.00    +0.000 C 
ATOM     86  C59 UNL A   1      35.358  32.142  28.127  1.00  0.00    +0.000 C 
ATOM    120  H34 UNL A   1      35.189  33.139  27.918  1.00  0.00    +0.000 H 
ATOM     24  C16 UNL A   1      34.396  31.183  27.796  1.00  0.00    +0.000 C 
ATOM     25  C17 UNL A   1      34.665  29.825  27.979  1.00  0.00    +0.000 C 
ATOM     26  C18 UNL A   1      35.818  29.439  28.657  1.00  0.00    +0.000 C 
ATOM    119  H33 UNL A   1      37.273  32.448  28.961  1.00  0.00    +0.000 H 
BRANCH   24   22
ATOM     22  C15 UNL A   1      33.072  31.632  27.315  1.00  0.00    +0.000 C 
ATOM     23  O3  UNL A   1      32.786  32.825  27.334  1.00  0.00    +0.000 O 
BRANCH   22   21
ATOM    106  H20 UNL A   1      31.848  30.062  27.589  1.00  0.00    +0.000 H 
ATOM     21  N3  UNL A   1      32.152  30.696  26.900  1.00  0.00    +0.000 N 
BRANCH   21   20
ATOM    105  H19 UNL A   1      32.161  31.087  24.894  1.00  0.00    +0.000 H 
ATOM     20  C14 UNL A   1      31.568  30.517  25.578  1.00  0.00    +0.000 C 
ATOM    104  H18 UNL A   1      30.552  30.849  25.609  1.00  0.00    +0.000 H 
BRANCH   20   19
ATOM     19  C13 UNL A   1      31.590  29.072  25.094  1.00  0.00    +0.000 C 
ATOM    102  H16 UNL A   1      30.599  28.815  24.778  1.00  0.00    +0.000 H 
ATOM    103  H17 UNL A   1      32.316  29.036  24.309  1.00  0.00    +0.000 H 
BRANCH   19   18
ATOM     18  C12 UNL A   1      32.037  28.036  26.126  1.00  0.00    +0.000 C 
ATOM    100  H14 UNL A   1      32.216  28.548  27.049  1.00  0.00    +0.000 H 
ATOM    101  H15 UNL A   1      31.249  27.315  26.176  1.00  0.00    +0.000 H 
BRANCH   18   17
ATOM     17  C11 UNL A   1      33.302  27.249  25.772  1.00  0.00    +0.000 C 
ATOM     98  H12 UNL A   1      33.643  27.589  24.816  1.00  0.00    +0.000 H 
ATOM     99  H13 UNL A   1      33.988  27.431  26.571  1.00  0.00    +0.000 H 
BRANCH   17   16
ATOM     97  H11 UNL A   1      33.011  25.391  26.707  1.00  0.00    +0.000 H 
ATOM     96  H10 UNL A   1      34.022  25.325  25.231  1.00  0.00    +0.000 H 
ATOM     16  C10 UNL A   1      33.147  25.724  25.699  1.00  0.00    +0.000 C 
BRANCH   16   15
ATOM     95  H9  UNL A   1      31.054  25.650  25.372  1.00  0.00    +0.000 H 
ATOM     94  H8  UNL A   1      31.903  24.159  24.962  1.00  0.00    +0.000 H 
ATOM     15  C9  UNL A   1      31.929  25.229  24.923  1.00  0.00    +0.000 C 
BRANCH   15   14
ATOM     93  H7  UNL A   1      31.230  26.191  23.186  1.00  0.00    +0.000 H 
ATOM     14  N2  UNL A   1      31.970  25.646  23.537  1.00  0.00    +0.000 N 
BRANCH   14    2
ATOM      1  O1  UNL A   1      33.798  26.122  22.220  1.00  0.00    +0.000 O 
ATOM      2  C1  UNL A   1      33.006  25.310  22.688  1.00  0.00    +0.000 C 
BRANCH    2    3
ATOM      3  C2  UNL A   1      33.067  23.821  22.347  1.00  0.00    +0.000 C 
ATOM     87  H1  UNL A   1      33.352  23.725  21.321  1.00  0.00    +0.000 H 
ATOM     88  H2  UNL A   1      32.096  23.420  22.548  1.00  0.00    +0.000 H 
BRANCH    3    4
ATOM      4  C3  UNL A   1      34.047  23.035  23.188  1.00  0.00    +0.000 C 
ATOM      5  C4  UNL A   1      35.453  23.349  23.021  1.00  0.00    +0.000 C 
ATOM      6  C5  UNL A   1      36.387  22.658  23.686  1.00  0.00    +0.000 C 
ATOM      7  N1  UNL A   1      36.041  21.637  24.551  1.00  0.00    +0.000 N 
ATOM     11  C7  UNL A   1      34.725  21.274  24.785  1.00  0.00    +0.000 C 
ATOM     12  O2  UNL A   1      34.351  20.361  25.513  1.00  0.00    +0.000 O 
ATOM     13  C8  UNL A   1      33.698  22.064  24.051  1.00  0.00    +0.000 C 
ATOM     89  H3  UNL A   1      35.735  24.112  22.386  1.00  0.00    +0.000 H 
ATOM     90  H4  UNL A   1      37.384  22.891  23.550  1.00  0.00    +0.000 H 
ATOM     92  H6  UNL A   1      32.697  21.864  24.208  1.00  0.00    +0.000 H 
BRANCH    7    8
ATOM      9  F1  UNL A   1      37.076  19.585  24.770  1.00  0.00    +0.000 F 
ATOM     10  F2  UNL A   1      38.284  21.400  25.005  1.00  0.00    +0.000 F 
ATOM     91  H5  UNL A   1      36.824  20.875  26.260  1.00  0.00    +0.000 H 
ATOM      8  C6  UNL A   1      37.058  20.864  25.216  1.00  0.00    +0.000 C 
ENDBRANCH    7    8
ENDBRANCH    3    4
ENDBRANCH    2    3
ENDBRANCH   14    2
ENDBRANCH   15   14
ENDBRANCH   16   15
ENDBRANCH   17   16
ENDBRANCH   18   17
ENDBRANCH   19   18
ENDBRANCH   20   19
ENDBRANCH   21   20
ENDBRANCH   22   21
ENDBRANCH   24   22
ENDBRANCH   28   27
BRANCH   32   33
ATOM     33  C24 UNL A   1      42.294  26.368  27.758  1.00  0.00    +0.000 C 
ATOM     34  C25 UNL A   1      43.163  26.901  26.794  1.00  0.00    +0.000 C 
ATOM     35  F3  UNL A   1      43.574  28.174  26.889  1.00  0.00    +0.000 F 
ATOM     36  C26 UNL A   1      43.594  26.131  25.717  1.00  0.00    +0.000 C 
ATOM     37  F4  UNL A   1      44.404  26.669  24.793  1.00  0.00    +0.000 F 
ATOM     38  C27 UNL A   1      43.185  24.811  25.595  1.00  0.00    +0.000 C 
ATOM     39  F5  UNL A   1      43.613  24.069  24.564  1.00  0.00    +0.000 F 
ATOM     40  C28 UNL A   1      42.332  24.262  26.541  1.00  0.00    +0.000 C 
ATOM     41  F6  UNL A   1      41.945  22.984  26.429  1.00  0.00    +0.000 F 
ATOM     42  C29 UNL A   1      41.883  25.035  27.608  1.00  0.00    +0.000 C 
ATOM     43  F7  UNL A   1      41.057  24.477  28.505  1.00  0.00    +0.000 F 
ENDBRANCH   32   33
BRANCH   49   50
ATOM     50  C35 UNL A   1      44.731  27.782  34.380  1.00  0.00    +0.000 C 
ATOM     51  C36 UNL A   1      44.687  26.635  35.185  1.00  0.00    +0.000 C 
ATOM     52  F8  UNL A   1      43.570  25.896  35.244  1.00  0.00    +0.000 F 
ATOM     53  C37 UNL A   1      45.785  26.261  35.955  1.00  0.00    +0.000 C 
ATOM     54  F9  UNL A   1      45.710  25.180  36.743  1.00  0.00    +0.000 F 
ATOM     55  C38 UNL A   1      46.951  27.011  35.915  1.00  0.00    +0.000 C 
ATOM     56  F10 UNL A   1      48.009  26.644  36.651  1.00  0.00    +0.000 F 
ATOM     57  C39 UNL A   1      47.019  28.144  35.117  1.00  0.00    +0.000 C 
ATOM     58  F11 UNL A   1      48.149  28.863  35.071  1.00  0.00    +0.000 F 
ATOM     59  C40 UNL A   1      45.916  28.533  34.363  1.00  0.00    +0.000 C 
ATOM     60  F12 UNL A   1      46.007  29.635  33.604  1.00  0.00    +0.000 F 
ENDBRANCH   49   50
BRANCH   64   65
ATOM     65  C44 UNL A   1      39.225  31.910  35.451  1.00  0.00    +0.000 C 
ATOM     66  C45 UNL A   1      39.645  33.243  35.544  1.00  0.00    +0.000 C 
ATOM     67  F13 UNL A   1      40.483  33.746  34.626  1.00  0.00    +0.000 F 
ATOM     68  C46 UNL A   1      39.223  34.057  36.593  1.00  0.00    +0.000 C 
ATOM     69  F14 UNL A   1      39.658  35.321  36.675  1.00  0.00    +0.000 F 
ATOM     70  C47 UNL A   1      38.357  33.558  37.556  1.00  0.00    +0.000 C 
ATOM     71  F15 UNL A   1      37.942  34.345  38.558  1.00  0.00    +0.000 F 
ATOM     72  C48 UNL A   1      37.927  32.242  37.482  1.00  0.00    +0.000 C 
ATOM     73  F16 UNL A   1      37.081  31.760  38.403  1.00  0.00    +0.000 F 
ATOM     74  C49 UNL A   1      38.366  31.421  36.447  1.00  0.00    +0.000 C 
ATOM     75  F17 UNL A   1      37.940  30.151  36.401  1.00  0.00    +0.000 F 
ENDBRANCH   64   65
TORSDOF 17
ENDMDL
MODEL 9
REMARK VINA RESULT:     -10.3      1.163      2.249
ROOT
ATOM     28  C20 UNL A   1      41.480  26.119  27.928  1.00  0.00    +0.000 C 
ATOM     29  C21 UNL A   1      42.863  26.425  27.417  1.00  0.00    +0.000 C 
ATOM     30  N4  UNL A   1      43.586  27.505  27.583  1.00  0.00    +0.000 N 
ATOM     31  C22 UNL A   1      44.786  27.266  26.924  1.00  0.00    +0.000 C 
ATOM     32  C23 UNL A   1      45.849  28.091  26.778  1.00  0.00    +0.000 C 
ATOM     44  C30 UNL A   1      45.920  29.433  27.297  1.00  0.00    +0.000 C 
ATOM     45  C31 UNL A   1      46.952  30.348  27.182  1.00  0.00    +0.000 C 
ATOM     46  C32 UNL A   1      46.581  31.512  27.864  1.00  0.00    +0.000 C 
ATOM     47  C33 UNL A   1      45.305  31.333  28.373  1.00  0.00    +0.000 C 
ATOM     48  N5  UNL A   1      44.913  30.052  28.021  1.00  0.00    +0.000 N 
ATOM     49  C34 UNL A   1      44.503  32.258  29.131  1.00  0.00    +0.000 C 
ATOM     61  C41 UNL A   1      43.237  32.025  29.552  1.00  0.00    +0.000 C 
ATOM     62  N6  UNL A   1      42.459  30.890  29.380  1.00  0.00    +0.000 N 
ATOM     63  C42 UNL A   1      41.327  31.134  29.993  1.00  0.00    +0.000 C 
ATOM     64  C43 UNL A   1      40.117  30.254  30.133  1.00  0.00    +0.000 C 
ATOM     76  C50 UNL A   1      40.147  29.003  29.639  1.00  0.00    +0.000 C 
ATOM     77  C51 UNL A   1      39.054  28.038  29.716  1.00  0.00    +0.000 C 
ATOM     78  C52 UNL A   1      39.446  26.886  29.148  1.00  0.00    +0.000 C 
ATOM     79  C53 UNL A   1      40.801  27.051  28.622  1.00  0.00    +0.000 C 
ATOM     80  N7  UNL A   1      41.147  28.330  28.981  1.00  0.00    +0.000 N 
ATOM     81  C54 UNL A   1      41.259  32.459  30.625  1.00  0.00    +0.000 C 
ATOM     82  C55 UNL A   1      42.439  32.972  30.304  1.00  0.00    +0.000 C 
ATOM     83  C56 UNL A   1      44.707  25.930  26.375  1.00  0.00    +0.000 C 
ATOM     84  C57 UNL A   1      43.523  25.383  26.615  1.00  0.00    +0.000 C 
ATOM    109  H23 UNL A   1      47.841  30.199  26.681  1.00  0.00    +0.000 H 
ATOM    110  H24 UNL A   1      47.160  32.360  27.970  1.00  0.00    +0.000 H 
ATOM    111  H25 UNL A   1      44.047  29.642  28.250  1.00  0.00    +0.000 H 
ATOM    112  H26 UNL A   1      38.129  28.213  30.137  1.00  0.00    +0.000 H 
ATOM    113  H27 UNL A   1      38.883  26.025  29.093  1.00  0.00    +0.000 H 
ATOM    114  H28 UNL A   1      42.027  28.726  28.786  1.00  0.00    +0.000 H 
ATOM    115  H29 UNL A   1      40.493  32.880  31.175  1.00  0.00    +0.000 H 
ATOM    116  H30 UNL A   1      42.749  33.923  30.557  1.00  0.00    +0.000 H 
ATOM    117  H31 UNL A   1      45.474  25.464  25.864  1.00  0.00    +0.000 H 
ATOM    118  H32 UNL A   1      43.159  24.465  26.315  1.00  0.00    +0.000 H 
ENDROOT
BRANCH   28   27
ATOM     27  C19 UNL A   1      40.829  24.822  27.605  1.00  0.00    +0.000 C 
ATOM    107  H21 UNL A   1      38.387  23.561  25.669  1.00  0.00    +0.000 H 
ATOM    108  H22 UNL A   1      39.397  25.673  26.300  1.00  0.00    +0.000 H 
ATOM     85  C58 UNL A   1      41.289  23.618  28.160  1.00  0.00    +0.000 C 
ATOM     86  C59 UNL A   1      40.779  22.397  27.711  1.00  0.00    +0.000 C 
ATOM    120  H34 UNL A   1      41.140  21.511  28.097  1.00  0.00    +0.000 H 
ATOM     24  C16 UNL A   1      39.778  22.381  26.736  1.00  0.00    +0.000 C 
ATOM     25  C17 UNL A   1      39.212  23.577  26.289  1.00  0.00    +0.000 C 
ATOM     26  C18 UNL A   1      39.768  24.790  26.685  1.00  0.00    +0.000 C 
ATOM    119  H33 UNL A   1      42.005  23.635  28.903  1.00  0.00    +0.000 H 
BRANCH   24   22
ATOM     22  C15 UNL A   1      39.380  21.088  26.139  1.00  0.00    +0.000 C 
ATOM     23  O3  UNL A   1      39.984  20.064  26.438  1.00  0.00    +0.000 O 
BRANCH   22   21
ATOM    106  H20 UNL A   1      38.532  20.508  24.412  1.00  0.00    +0.000 H 
ATOM     21  N3  UNL A   1      38.364  21.059  25.209  1.00  0.00    +0.000 N 
BRANCH   21   20
ATOM    105  H19 UNL A   1      37.117  22.444  26.047  1.00  0.00    +0.000 H 
ATOM     20  C14 UNL A   1      37.075  21.733  25.249  1.00  0.00    +0.000 C 
ATOM    104  H18 UNL A   1      36.312  20.999  25.399  1.00  0.00    +0.000 H 
BRANCH   20   19
ATOM     19  C13 UNL A   1      36.754  22.508  23.976  1.00  0.00    +0.000 C 
ATOM    102  H16 UNL A   1      37.440  23.327  23.907  1.00  0.00    +0.000 H 
ATOM    103  H17 UNL A   1      36.840  21.805  23.174  1.00  0.00    +0.000 H 
BRANCH   19   18
ATOM     18  C12 UNL A   1      35.337  23.074  23.886  1.00  0.00    +0.000 C 
ATOM    100  H14 UNL A   1      35.250  23.599  22.958  1.00  0.00    +0.000 H 
ATOM    101  H15 UNL A   1      34.681  22.233  23.972  1.00  0.00    +0.000 H 
BRANCH   18   17
ATOM     17  C11 UNL A   1      34.932  24.034  25.009  1.00  0.00    +0.000 C 
ATOM     98  H12 UNL A   1      34.242  23.521  25.646  1.00  0.00    +0.000 H 
ATOM     99  H13 UNL A   1      35.845  24.316  25.489  1.00  0.00    +0.000 H 
BRANCH   17   16
ATOM     97  H11 UNL A   1      33.378  25.071  24.050  1.00  0.00    +0.000 H 
ATOM     96  H10 UNL A   1      34.973  25.878  23.955  1.00  0.00    +0.000 H 
ATOM     16  C10 UNL A   1      34.274  25.348  24.566  1.00  0.00    +0.000 C 
BRANCH   16   15
ATOM     95  H9  UNL A   1      33.979  27.284  25.376  1.00  0.00    +0.000 H 
ATOM     94  H8  UNL A   1      34.429  26.062  26.567  1.00  0.00    +0.000 H 
ATOM     15  C9  UNL A   1      33.839  26.274  25.699  1.00  0.00    +0.000 C 
BRANCH   15   14
ATOM     93  H7  UNL A   1      32.199  25.875  26.958  1.00  0.00    +0.000 H 
ATOM     14  N2  UNL A   1      32.440  26.096  26.030  1.00  0.00    +0.000 N 
BRANCH   14    2
ATOM      1  O1  UNL A   1      31.322  27.180  24.334  1.00  0.00    +0.000 O 
ATOM      2  C1  UNL A   1      31.432  26.225  25.096  1.00  0.00    +0.000 C 
BRANCH    2    3
ATOM      3  C2  UNL A   1      30.424  25.075  25.112  1.00  0.00    +0.000 C 
ATOM     87  H1  UNL A   1      29.637  25.311  24.428  1.00  0.00    +0.000 H 
ATOM     88  H2  UNL A   1      30.083  24.980  26.121  1.00  0.00    +0.000 H 
BRANCH    3    4
ATOM      4  C3  UNL A   1      31.009  23.737  24.721  1.00  0.00    +0.000 C 
ATOM      5  C4  UNL A   1      31.234  22.784  25.791  1.00  0.00    +0.000 C 
ATOM      6  C5  UNL A   1      31.802  21.599  25.537  1.00  0.00    +0.000 C 
ATOM      7  N1  UNL A   1      32.181  21.247  24.254  1.00  0.00    +0.000 N 
ATOM     11  C7  UNL A   1      31.995  22.086  23.167  1.00  0.00    +0.000 C 
ATOM     12  O2  UNL A   1      32.334  21.851  22.013  1.00  0.00    +0.000 O 
ATOM     13  C8  UNL A   1      31.346  23.393  23.465  1.00  0.00    +0.000 C 
ATOM     89  H3  UNL A   1      30.953  23.020  26.756  1.00  0.00    +0.000 H 
ATOM     90  H4  UNL A   1      31.961  20.935  26.311  1.00  0.00    +0.000 H 
ATOM     92  H6  UNL A   1      31.148  24.048  22.692  1.00  0.00    +0.000 H 
BRANCH    7    8
ATOM      9  F1  UNL A   1      34.107  19.997  24.489  1.00  0.00    +0.000 F 
ATOM     10  F2  UNL A   1      32.171  18.971  24.587  1.00  0.00    +0.000 F 
ATOM     91  H5  UNL A   1      32.868  19.862  22.942  1.00  0.00    +0.000 H 
ATOM      8  C6  UNL A   1      32.843  19.994  24.003  1.00  0.00    +0.000 C 
ENDBRANCH    7    8
ENDBRANCH    3    4
ENDBRANCH    2    3
ENDBRANCH   14    2
ENDBRANCH   15   14
ENDBRANCH   16   15
ENDBRANCH   17   16
ENDBRANCH   18   17
ENDBRANCH   19   18
ENDBRANCH   20   19
ENDBRANCH   21   20
ENDBRANCH   22   21
ENDBRANCH   24   22
ENDBRANCH   28   27
BRANCH   32   33
ATOM     33  C24 UNL A   1      47.038  27.571  26.027  1.00  0.00    +0.000 C 
ATOM     34  C25 UNL A   1      47.139  27.701  24.634  1.00  0.00    +0.000 C 
ATOM     35  F3  UNL A   1      46.127  28.234  23.932  1.00  0.00    +0.000 F 
ATOM     36  C26 UNL A   1      48.274  27.263  23.955  1.00  0.00    +0.000 C 
ATOM     37  F4  UNL A   1      48.337  27.374  22.621  1.00  0.00    +0.000 F 
ATOM     38  C27 UNL A   1      49.335  26.710  24.656  1.00  0.00    +0.000 C 
ATOM     39  F5  UNL A   1      50.431  26.301  24.002  1.00  0.00    +0.000 F 
ATOM     40  C28 UNL A   1      49.259  26.578  26.035  1.00  0.00    +0.000 C 
ATOM     41  F6  UNL A   1      50.288  26.053  26.714  1.00  0.00    +0.000 F 
ATOM     42  C29 UNL A   1      48.118  26.996  26.714  1.00  0.00    +0.000 C 
ATOM     43  F7  UNL A   1      48.073  26.854  28.047  1.00  0.00    +0.000 F 
ENDBRANCH   32   33
BRANCH   49   50
ATOM     50  C35 UNL A   1      45.108  33.586  29.475  1.00  0.00    +0.000 C 
ATOM     51  C36 UNL A   1      44.933  34.701  28.643  1.00  0.00    +0.000 C 
ATOM     52  F8  UNL A   1      44.268  34.580  27.485  1.00  0.00    +0.000 F 
ATOM     53  C37 UNL A   1      45.466  35.940  28.989  1.00  0.00    +0.000 C 
ATOM     54  F9  UNL A   1      45.314  36.985  28.165  1.00  0.00    +0.000 F 
ATOM     55  C38 UNL A   1      46.160  36.091  30.180  1.00  0.00    +0.000 C 
ATOM     56  F10 UNL A   1      46.665  37.286  30.514  1.00  0.00    +0.000 F 
ATOM     57  C39 UNL A   1      46.336  35.003  31.022  1.00  0.00    +0.000 C 
ATOM     58  F11 UNL A   1      46.999  35.150  32.177  1.00  0.00    +0.000 F 
ATOM     59  C40 UNL A   1      45.824  33.758  30.669  1.00  0.00    +0.000 C 
ATOM     60  F12 UNL A   1      46.013  32.721  31.499  1.00  0.00    +0.000 F 
ENDBRANCH   49   50
BRANCH   64   65
ATOM     65  C44 UNL A   1      38.891  30.745  30.809  1.00  0.00    +0.000 C 
ATOM     66  C45 UNL A   1      37.840  31.304  30.072  1.00  0.00    +0.000 C 
ATOM     67  F13 UNL A   1      37.952  31.442  28.743  1.00  0.00    +0.000 F 
ATOM     68  C46 UNL A   1      36.677  31.746  30.701  1.00  0.00    +0.000 C 
ATOM     69  F14 UNL A   1      35.696  32.302  29.978  1.00  0.00    +0.000 F 
ATOM     70  C47 UNL A   1      36.539  31.617  32.076  1.00  0.00    +0.000 C 
ATOM     71  F15 UNL A   1      35.416  32.031  32.679  1.00  0.00    +0.000 F 
ATOM     72  C48 UNL A   1      37.566  31.064  32.825  1.00  0.00    +0.000 C 
ATOM     73  F16 UNL A   1      37.431  30.926  34.151  1.00  0.00    +0.000 F 
ATOM     74  C49 UNL A   1      38.737  30.644  32.200  1.00  0.00    +0.000 C 
ATOM     75  F17 UNL A   1      39.717  30.116  32.947  1.00  0.00    +0.000 F 
ENDBRANCH   64   65
TORSDOF 17
ENDMDL
MODEL 10
REMARK VINA RESULT:     -10.2     20.158     26.116
ROOT
ATOM     28  C20 UNL A   1      25.774  34.911  45.269  1.00  0.00    +0.000 C 
ATOM     29  C21 UNL A   1      25.486  35.970  46.300  1.00  0.00    +0.000 C 
ATOM     30  N4  UNL A   1      26.234  36.975  46.684  1.00  0.00    +0.000 N 
ATOM     31  C22 UNL A   1      25.494  37.656  47.644  1.00  0.00    +0.000 C 
ATOM     32  C23 UNL A   1      25.845  38.746  48.366  1.00  0.00    +0.000 C 
ATOM     44  C30 UNL A   1      27.115  39.417  48.267  1.00  0.00    +0.000 C 
ATOM     45  C31 UNL A   1      27.565  40.520  48.972  1.00  0.00    +0.000 C 
ATOM     46  C32 UNL A   1      28.853  40.831  48.524  1.00  0.00    +0.000 C 
ATOM     47  C33 UNL A   1      29.219  39.899  47.565  1.00  0.00    +0.000 C 
ATOM     48  N5  UNL A   1      28.142  39.041  47.414  1.00  0.00    +0.000 N 
ATOM     49  C34 UNL A   1      30.455  39.801  46.834  1.00  0.00    +0.000 C 
ATOM     61  C41 UNL A   1      30.756  38.826  45.944  1.00  0.00    +0.000 C 
ATOM     62  N6  UNL A   1      29.977  37.756  45.531  1.00  0.00    +0.000 N 
ATOM     63  C42 UNL A   1      30.692  37.115  44.638  1.00  0.00    +0.000 C 
ATOM     64  C43 UNL A   1      30.344  35.880  43.856  1.00  0.00    +0.000 C 
ATOM     76  C50 UNL A   1      29.123  35.332  43.991  1.00  0.00    +0.000 C 
ATOM     77  C51 UNL A   1      28.646  34.146  43.286  1.00  0.00    +0.000 C 
ATOM     78  C52 UNL A   1      27.374  33.906  43.642  1.00  0.00    +0.000 C 
ATOM     79  C53 UNL A   1      26.964  34.894  44.641  1.00  0.00    +0.000 C 
ATOM     80  N7  UNL A   1      28.057  35.715  44.767  1.00  0.00    +0.000 N 
ATOM     81  C54 UNL A   1      32.011  37.710  44.384  1.00  0.00    +0.000 C 
ATOM     82  C55 UNL A   1      32.011  38.735  45.225  1.00  0.00    +0.000 C 
ATOM     83  C56 UNL A   1      24.228  36.967  47.768  1.00  0.00    +0.000 C 
ATOM     84  C57 UNL A   1      24.189  35.893  46.991  1.00  0.00    +0.000 C 
ATOM    109  H23 UNL A   1      27.041  41.027  49.702  1.00  0.00    +0.000 H 
ATOM    110  H24 UNL A   1      29.433  41.619  48.851  1.00  0.00    +0.000 H 
ATOM    111  H25 UNL A   1      28.110  38.275  46.796  1.00  0.00    +0.000 H 
ATOM    112  H26 UNL A   1      29.198  33.581  42.622  1.00  0.00    +0.000 H 
ATOM    113  H27 UNL A   1      26.781  33.149  43.271  1.00  0.00    +0.000 H 
ATOM    114  H28 UNL A   1      28.074  36.503  45.358  1.00  0.00    +0.000 H 
ATOM    115  H29 UNL A   1      32.745  37.409  43.724  1.00  0.00    +0.000 H 
ATOM    116  H30 UNL A   1      32.802  39.385  45.351  1.00  0.00    +0.000 H 
ATOM    117  H31 UNL A   1      23.457  37.272  48.382  1.00  0.00    +0.000 H 
ATOM    118  H32 UNL A   1      23.443  35.187  46.896  1.00  0.00    +0.000 H 
ENDROOT
BRANCH   28   27
ATOM     27  C19 UNL A   1      24.782  33.838  44.996  1.00  0.00    +0.000 C 
ATOM    107  H21 UNL A   1      23.928  30.767  46.064  1.00  0.00    +0.000 H 
ATOM    108  H22 UNL A   1      25.598  32.491  46.409  1.00  0.00    +0.000 H 
ATOM     85  C58 UNL A   1      23.762  34.014  44.048  1.00  0.00    +0.000 C 
ATOM     86  C59 UNL A   1      22.740  33.067  43.932  1.00  0.00    +0.000 C 
ATOM    120  H34 UNL A   1      21.973  33.213  43.257  1.00  0.00    +0.000 H 
ATOM     24  C16 UNL A   1      22.761  31.924  44.735  1.00  0.00    +0.000 C 
ATOM     25  C17 UNL A   1      23.850  31.670  45.571  1.00  0.00    +0.000 C 
ATOM     26  C18 UNL A   1      24.830  32.646  45.737  1.00  0.00    +0.000 C 
ATOM    119  H33 UNL A   1      23.767  34.844  43.435  1.00  0.00    +0.000 H 
BRANCH   24   22
ATOM     22  C15 UNL A   1      21.585  31.026  44.735  1.00  0.00    +0.000 C 
ATOM     23  O3  UNL A   1      21.692  29.878  45.154  1.00  0.00    +0.000 O 
BRANCH   22   21
ATOM    106  H20 UNL A   1      20.430  31.803  43.286  1.00  0.00    +0.000 H 
ATOM     21  N3  UNL A   1      20.394  31.476  44.213  1.00  0.00    +0.000 N 
BRANCH   21   20
ATOM    105  H19 UNL A   1      18.980  32.512  45.266  1.00  0.00    +0.000 H 
ATOM     20  C14 UNL A   1      19.085  31.532  44.850  1.00  0.00    +0.000 C 
ATOM    104  H18 UNL A   1      19.037  30.766  45.595  1.00  0.00    +0.000 H 
BRANCH   20   19
ATOM     19  C13 UNL A   1      17.927  31.332  43.878  1.00  0.00    +0.000 C 
ATOM    102  H16 UNL A   1      17.773  32.254  43.355  1.00  0.00    +0.000 H 
ATOM    103  H17 UNL A   1      18.212  30.519  43.245  1.00  0.00    +0.000 H 
BRANCH   19   18
ATOM     18  C12 UNL A   1      16.597  30.923  44.511  1.00  0.00    +0.000 C 
ATOM    100  H14 UNL A   1      16.767  30.759  45.556  1.00  0.00    +0.000 H 
ATOM    101  H15 UNL A   1      15.917  31.721  44.303  1.00  0.00    +0.000 H 
BRANCH   18   17
ATOM     17  C11 UNL A   1      15.948  29.660  43.937  1.00  0.00    +0.000 C 
ATOM     98  H12 UNL A   1      15.194  29.338  44.624  1.00  0.00    +0.000 H 
ATOM     99  H13 UNL A   1      15.575  29.940  42.976  1.00  0.00    +0.000 H 
BRANCH   17   16
ATOM     97  H11 UNL A   1      17.007  27.983  44.630  1.00  0.00    +0.000 H 
ATOM     96  H10 UNL A   1      17.806  28.858  43.288  1.00  0.00    +0.000 H 
ATOM     16  C10 UNL A   1      16.890  28.474  43.686  1.00  0.00    +0.000 C 
BRANCH   16   15
ATOM     95  H9  UNL A   1      16.837  26.485  42.956  1.00  0.00    +0.000 H 
ATOM     94  H8  UNL A   1      16.584  27.717  41.719  1.00  0.00    +0.000 H 
ATOM     15  C9  UNL A   1      16.363  27.415  42.722  1.00  0.00    +0.000 C 
BRANCH   15   14
ATOM     93  H7  UNL A   1      14.339  27.987  42.622  1.00  0.00    +0.000 H 
ATOM     14  N2  UNL A   1      14.931  27.236  42.852  1.00  0.00    +0.000 N 
BRANCH   14    2
ATOM      1  O1  UNL A   1      13.299  25.988  43.890  1.00  0.00    +0.000 O 
ATOM      2  C1  UNL A   1      14.365  26.055  43.287  1.00  0.00    +0.000 C 
BRANCH    2    3
ATOM      3  C2  UNL A   1      15.205  24.816  42.977  1.00  0.00    +0.000 C 
ATOM     87  H1  UNL A   1      15.419  24.317  43.899  1.00  0.00    +0.000 H 
ATOM     88  H2  UNL A   1      16.087  25.160  42.478  1.00  0.00    +0.000 H 
BRANCH    3    4
ATOM      4  C3  UNL A   1      14.535  23.830  42.047  1.00  0.00    +0.000 C 
ATOM      5  C4  UNL A   1      13.806  22.739  42.666  1.00  0.00    +0.000 C 
ATOM      6  C5  UNL A   1      13.234  21.792  41.912  1.00  0.00    +0.000 C 
ATOM      7  N1  UNL A   1      13.312  21.830  40.532  1.00  0.00    +0.000 N 
ATOM     11  C7  UNL A   1      13.975  22.839  39.853  1.00  0.00    +0.000 C 
ATOM     12  O2  UNL A   1      14.109  22.917  38.637  1.00  0.00    +0.000 O 
ATOM     13  C8  UNL A   1      14.591  23.894  40.705  1.00  0.00    +0.000 C 
ATOM     89  H3  UNL A   1      13.728  22.693  43.693  1.00  0.00    +0.000 H 
ATOM     90  H4  UNL A   1      12.724  21.019  42.369  1.00  0.00    +0.000 H 
ATOM     92  H6  UNL A   1      15.070  24.691  40.257  1.00  0.00    +0.000 H 
BRANCH    7    8
ATOM      9  F1  UNL A   1      13.537  19.679  39.726  1.00  0.00    +0.000 F 
ATOM     10  F2  UNL A   1      11.529  20.411  40.221  1.00  0.00    +0.000 F 
ATOM     91  H5  UNL A   1      12.643  21.155  38.741  1.00  0.00    +0.000 H 
ATOM      8  C6  UNL A   1      12.741  20.776  39.736  1.00  0.00    +0.000 C 
ENDBRANCH    7    8
ENDBRANCH    3    4
ENDBRANCH    2    3
ENDBRANCH   14    2
ENDBRANCH   15   14
ENDBRANCH   16   15
ENDBRANCH   17   16
ENDBRANCH   18   17
ENDBRANCH   19   18
ENDBRANCH   20   19
ENDBRANCH   21   20
ENDBRANCH   22   21
ENDBRANCH   24   22
ENDBRANCH   28   27
BRANCH   32   33
ATOM     33  C24 UNL A   1      24.839  39.297  49.332  1.00  0.00    +0.000 C 
ATOM     34  C25 UNL A   1      23.900  40.262  48.941  1.00  0.00    +0.000 C 
ATOM     35  F3  UNL A   1      23.933  40.771  47.700  1.00  0.00    +0.000 F 
ATOM     36  C26 UNL A   1      22.936  40.724  49.834  1.00  0.00    +0.000 C 
ATOM     37  F4  UNL A   1      22.065  41.666  49.447  1.00  0.00    +0.000 F 
ATOM     38  C27 UNL A   1      22.878  40.214  51.123  1.00  0.00    +0.000 C 
ATOM     39  F5  UNL A   1      21.941  40.652  51.976  1.00  0.00    +0.000 F 
ATOM     40  C28 UNL A   1      23.793  39.254  51.528  1.00  0.00    +0.000 C 
ATOM     41  F6  UNL A   1      23.732  38.754  52.770  1.00  0.00    +0.000 F 
ATOM     42  C29 UNL A   1      24.772  38.805  50.644  1.00  0.00    +0.000 C 
ATOM     43  F7  UNL A   1      25.643  37.877  51.065  1.00  0.00    +0.000 F 
ENDBRANCH   32   33
BRANCH   49   50
ATOM     50  C35 UNL A   1      31.495  40.853  47.079  1.00  0.00    +0.000 C 
ATOM     51  C36 UNL A   1      32.622  40.588  47.870  1.00  0.00    +0.000 C 
ATOM     52  F8  UNL A   1      32.756  39.400  48.477  1.00  0.00    +0.000 F 
ATOM     53  C37 UNL A   1      33.603  41.558  48.063  1.00  0.00    +0.000 C 
ATOM     54  F9  UNL A   1      34.655  41.295  48.848  1.00  0.00    +0.000 F 
ATOM     55  C38 UNL A   1      33.486  42.797  47.449  1.00  0.00    +0.000 C 
ATOM     56  F10 UNL A   1      34.435  43.725  47.629  1.00  0.00    +0.000 F 
ATOM     57  C39 UNL A   1      32.384  43.075  46.654  1.00  0.00    +0.000 C 
ATOM     58  F11 UNL A   1      32.276  44.268  46.055  1.00  0.00    +0.000 F 
ATOM     59  C40 UNL A   1      31.391  42.116  46.478  1.00  0.00    +0.000 C 
ATOM     60  F12 UNL A   1      30.333  42.413  45.709  1.00  0.00    +0.000 F 
ENDBRANCH   49   50
BRANCH   64   65
ATOM     65  C44 UNL A   1      31.328  35.258  42.936  1.00  0.00    +0.000 C 
ATOM     66  C45 UNL A   1      32.158  34.217  43.370  1.00  0.00    +0.000 C 
ATOM     67  F13 UNL A   1      32.100  33.801  44.643  1.00  0.00    +0.000 F 
ATOM     68  C46 UNL A   1      33.067  33.615  42.503  1.00  0.00    +0.000 C 
ATOM     69  F14 UNL A   1      33.869  32.638  42.948  1.00  0.00    +0.000 F 
ATOM     70  C47 UNL A   1      33.147  34.030  41.181  1.00  0.00    +0.000 C 
ATOM     71  F15 UNL A   1      34.014  33.442  40.344  1.00  0.00    +0.000 F 
ATOM     72  C48 UNL A   1      32.333  35.057  40.729  1.00  0.00    +0.000 C 
ATOM     73  F16 UNL A   1      32.398  35.452  39.451  1.00  0.00    +0.000 F 
ATOM     74  C49 UNL A   1      31.440  35.674  41.601  1.00  0.00    +0.000 C 
ATOM     75  F17 UNL A   1      30.667  36.668  41.141  1.00  0.00    +0.000 F 
ENDBRANCH   64   65
TORSDOF 17
ENDMDL
