MODEL 1
REMARK VINA RESULT:      -9.3      0.000      0.000
ROOT
ATOM    134  H36 UNL A   1      46.283  29.670  30.198  1.00  0.00    +0.000 H 
ATOM    135  H37 UNL A   1      45.056  29.678  32.563  1.00  0.00    +0.000 H 
ATOM    136  H38 UNL A   1      43.906  32.904  30.460  1.00  0.00    +0.000 H 
ATOM    137  H39 UNL A   1      36.848  28.504  30.538  1.00  0.00    +0.000 H 
ATOM    138  H40 UNL A   1      38.421  26.771  29.528  1.00  0.00    +0.000 H 
ATOM    139  H41 UNL A   1      40.551  30.321  29.881  1.00  0.00    +0.000 H 
ATOM    140  H42 UNL A   1      39.473  33.300  29.539  1.00  0.00    +0.000 H 
ATOM    141  H43 UNL A   1      41.961  33.268  30.208  1.00  0.00    +0.000 H 
ATOM    142  H44 UNL A   1      43.676  30.122  25.695  1.00  0.00    +0.000 H 
ATOM    143  H45 UNL A   1      41.599  28.614  25.853  1.00  0.00    +0.000 H 
ATOM     40  C34 UNL A   1      40.899  27.938  28.542  1.00  0.00    +0.000 C 
ATOM     41  C35 UNL A   1      41.989  28.844  28.075  1.00  0.00    +0.000 C 
ATOM     42  N5  UNL A   1      42.891  29.446  28.786  1.00  0.00    +0.000 N 
ATOM     43  C36 UNL A   1      43.640  30.208  27.890  1.00  0.00    +0.000 C 
ATOM     44  C37 UNL A   1      44.438  31.233  28.299  1.00  0.00    +0.000 C 
ATOM     56  C44 UNL A   1      44.767  31.135  29.693  1.00  0.00    +0.000 C 
ATOM     57  C45 UNL A   1      45.463  30.233  30.472  1.00  0.00    +0.000 C 
ATOM     58  C46 UNL A   1      44.807  30.247  31.738  1.00  0.00    +0.000 C 
ATOM     59  C47 UNL A   1      43.765  31.171  31.655  1.00  0.00    +0.000 C 
ATOM     60  N6  UNL A   1      44.103  31.947  30.577  1.00  0.00    +0.000 N 
ATOM     61  C48 UNL A   1      42.513  31.289  32.361  1.00  0.00    +0.000 C 
ATOM     73  C55 UNL A   1      41.412  31.928  31.872  1.00  0.00    +0.000 C 
ATOM     74  N7  UNL A   1      40.139  31.574  32.293  1.00  0.00    +0.000 N 
ATOM     75  C56 UNL A   1      39.360  31.877  31.292  1.00  0.00    +0.000 C 
ATOM     76  C57 UNL A   1      38.147  31.105  30.927  1.00  0.00    +0.000 C 
ATOM     88  C64 UNL A   1      38.557  29.910  30.442  1.00  0.00    +0.000 C 
ATOM     89  C65 UNL A   1      37.829  28.669  30.266  1.00  0.00    +0.000 C 
ATOM     90  C66 UNL A   1      38.648  27.765  29.686  1.00  0.00    +0.000 C 
ATOM     91  C67 UNL A   1      39.904  28.415  29.316  1.00  0.00    +0.000 C 
ATOM     92  N8  UNL A   1      39.814  29.668  29.877  1.00  0.00    +0.000 N 
ATOM     93  C68 UNL A   1      39.927  32.784  30.309  1.00  0.00    +0.000 C 
ATOM     94  C69 UNL A   1      41.205  32.759  30.692  1.00  0.00    +0.000 C 
ATOM     95  C70 UNL A   1      43.217  29.818  26.569  1.00  0.00    +0.000 C 
ATOM     96  C71 UNL A   1      42.156  29.013  26.625  1.00  0.00    +0.000 C 
ENDROOT
BRANCH   40   39
ATOM     97  C72 UNL A   1      41.765  25.586  28.688  1.00  0.00    +0.000 C 
ATOM     98  C73 UNL A   1      41.833  24.310  28.132  1.00  0.00    +0.000 C 
ATOM     36  C30 UNL A   1      41.096  23.976  26.979  1.00  0.00    +0.000 C 
ATOM     37  C31 UNL A   1      40.220  24.926  26.461  1.00  0.00    +0.000 C 
ATOM    132  H34 UNL A   1      39.593  24.672  25.680  1.00  0.00    +0.000 H 
ATOM     38  C32 UNL A   1      40.183  26.213  26.981  1.00  0.00    +0.000 C 
ATOM    133  H35 UNL A   1      39.560  26.919  26.559  1.00  0.00    +0.000 H 
ATOM     39  C33 UNL A   1      40.982  26.557  28.073  1.00  0.00    +0.000 C 
ATOM    144  H46 UNL A   1      42.291  25.808  29.549  1.00  0.00    +0.000 H 
ATOM    145  H47 UNL A   1      42.435  23.597  28.572  1.00  0.00    +0.000 H 
BRANCH   36   34
ATOM     34  C29 UNL A   1      41.373  22.641  26.377  1.00  0.00    +0.000 C 
ATOM     35  O2  UNL A   1      40.418  21.949  26.014  1.00  0.00    +0.000 O 
BRANCH   34   33
ATOM     33  N4  UNL A   1      42.615  22.081  26.246  1.00  0.00    +0.000 N 
ATOM    131  H33 UNL A   1      42.772  21.349  26.886  1.00  0.00    +0.000 H 
BRANCH   33   32
ATOM    129  H31 UNL A   1      44.645  22.171  25.943  1.00  0.00    +0.000 H 
ATOM    130  H32 UNL A   1      43.664  21.641  24.556  1.00  0.00    +0.000 H 
ATOM     32  C28 UNL A   1      43.750  22.321  25.377  1.00  0.00    +0.000 C 
BRANCH   32   31
ATOM    127  H29 UNL A   1      44.346  23.699  23.873  1.00  0.00    +0.000 H 
ATOM     31  C27 UNL A   1      43.787  23.733  24.784  1.00  0.00    +0.000 C 
ATOM    128  H30 UNL A   1      42.769  24.029  24.638  1.00  0.00    +0.000 H 
BRANCH   31   30
ATOM    126  H28 UNL A   1      45.475  24.606  25.674  1.00  0.00    +0.000 H 
ATOM    125  H27 UNL A   1      43.992  24.684  26.671  1.00  0.00    +0.000 H 
ATOM     30  C26 UNL A   1      44.422  24.787  25.696  1.00  0.00    +0.000 C 
BRANCH   30   29
ATOM    123  H25 UNL A   1      44.097  26.239  24.180  1.00  0.00    +0.000 H 
ATOM    124  H26 UNL A   1      43.373  26.607  25.770  1.00  0.00    +0.000 H 
ATOM     29  C25 UNL A   1      44.227  26.236  25.242  1.00  0.00    +0.000 C 
BRANCH   29   28
ATOM    121  H23 UNL A   1      44.984  28.137  25.827  1.00  0.00    +0.000 H 
ATOM    122  H24 UNL A   1      45.916  26.732  26.402  1.00  0.00    +0.000 H 
ATOM     28  C24 UNL A   1      45.389  27.176  25.584  1.00  0.00    +0.000 C 
BRANCH   28   27
ATOM     27  C23 UNL A   1      46.400  27.355  24.453  1.00  0.00    +0.000 C 
ATOM    119  H21 UNL A   1      45.876  27.400  23.522  1.00  0.00    +0.000 H 
ATOM    120  H22 UNL A   1      46.941  28.261  24.629  1.00  0.00    +0.000 H 
BRANCH   27   26
ATOM     26  N3  UNL A   1      47.347  26.258  24.410  1.00  0.00    +0.000 N 
ATOM    118  H20 UNL A   1      46.957  25.371  24.238  1.00  0.00    +0.000 H 
BRANCH   26   24
ATOM     25  O1  UNL A   1      49.398  26.461  23.570  1.00  0.00    +0.000 O 
ATOM     24  C22 UNL A   1      48.703  26.280  24.573  1.00  0.00    +0.000 C 
BRANCH   24   23
ATOM    116  H18 UNL A   1      49.341  24.946  26.084  1.00  0.00    +0.000 H 
ATOM    117  H19 UNL A   1      50.318  26.424  25.898  1.00  0.00    +0.000 H 
ATOM     23  C21 UNL A   1      49.334  26.004  25.926  1.00  0.00    +0.000 C 
BRANCH   23   22
ATOM      2  C2  UNL A   1      48.871  30.452  28.672  1.00  0.00    +0.000 C 
ATOM      3  C3  UNL A   1      49.509  30.259  27.447  1.00  0.00    +0.000 C 
ATOM      4  C4  UNL A   1      49.461  29.027  26.789  1.00  0.00    +0.000 C 
ATOM      5  C5  UNL A   1      48.770  27.965  27.401  1.00  0.00    +0.000 C 
ATOM      6  C6  UNL A   1      48.086  28.140  28.605  1.00  0.00    +0.000 C 
ATOM      7  C7  UNL A   1      48.143  29.399  29.247  1.00  0.00    +0.000 C 
ATOM    102  H4  UNL A   1      50.027  31.042  27.017  1.00  0.00    +0.000 H 
ATOM    104  H6  UNL A   1      47.647  29.543  30.140  1.00  0.00    +0.000 H 
ATOM    103  H5  UNL A   1      49.924  28.899  25.876  1.00  0.00    +0.000 H 
ATOM      8  C8  UNL A   1      47.454  26.901  28.915  1.00  0.00    +0.000 C 
ATOM     20  C19 UNL A   1      47.763  25.996  27.908  1.00  0.00    +0.000 C 
ATOM     22  N2  UNL A   1      48.642  26.630  27.048  1.00  0.00    +0.000 N 
BRANCH    2    1
ATOM      1  C1  UNL A   1      48.978  31.780  29.363  1.00  0.00    +0.000 C 
ATOM     99  H1  UNL A   1      50.009  32.047  29.464  1.00  0.00    +0.000 H 
ATOM    100  H2  UNL A   1      48.529  31.717  30.331  1.00  0.00    +0.000 H 
ATOM    101  H3  UNL A   1      48.473  32.526  28.783  1.00  0.00    +0.000 H 
ENDBRANCH    2    1
BRANCH    8    9
ATOM      9  C9  UNL A   1      46.621  26.555  30.060  1.00  0.00    +0.000 C 
ATOM     10  C10 UNL A   1      45.244  26.720  29.939  1.00  0.00    +0.000 C 
ATOM     11  C11 UNL A   1      44.458  26.343  31.004  1.00  0.00    +0.000 C 
ATOM    105  H7  UNL A   1      44.827  27.112  29.080  1.00  0.00    +0.000 H 
ATOM     13  C12 UNL A   1      46.277  25.663  32.289  1.00  0.00    +0.000 C 
ATOM    106  H8  UNL A   1      43.436  26.466  30.921  1.00  0.00    +0.000 H 
ATOM     12  N1  UNL A   1      44.944  25.823  32.150  1.00  0.00    +0.000 N 
ATOM     14  C13 UNL A   1      46.806  25.114  33.468  1.00  0.00    +0.000 C 
ATOM    112  H14 UNL A   1      49.214  26.147  30.718  1.00  0.00    +0.000 H 
ATOM     18  C17 UNL A   1      48.560  25.869  31.466  1.00  0.00    +0.000 C 
ATOM     19  C18 UNL A   1      47.172  26.034  31.260  1.00  0.00    +0.000 C 
ATOM     17  C16 UNL A   1      49.071  25.344  32.645  1.00  0.00    +0.000 C 
ATOM    111  H13 UNL A   1      50.090  25.240  32.774  1.00  0.00    +0.000 H 
ATOM     16  C15 UNL A   1      48.193  24.963  33.644  1.00  0.00    +0.000 C 
ATOM    110  H12 UNL A   1      48.558  24.565  34.524  1.00  0.00    +0.000 H 
BRANCH   14   15
ATOM    107  H9  UNL A   1      45.724  23.609  34.496  1.00  0.00    +0.000 H 
ATOM    108  H10 UNL A   1      44.989  25.194  34.555  1.00  0.00    +0.000 H 
ATOM    109  H11 UNL A   1      46.397  24.846  35.530  1.00  0.00    +0.000 H 
ATOM     15  C14 UNL A   1      45.915  24.658  34.594  1.00  0.00    +0.000 C 
ENDBRANCH   14   15
ENDBRANCH    8    9
BRANCH   20   21
ATOM    113  H15 UNL A   1      48.174  23.934  27.753  1.00  0.00    +0.000 H 
ATOM    114  H16 UNL A   1      46.794  24.469  26.824  1.00  0.00    +0.000 H 
ATOM    115  H17 UNL A   1      46.672  24.314  28.561  1.00  0.00    +0.000 H 
ATOM     21  C20 UNL A   1      47.320  24.578  27.750  1.00  0.00    +0.000 C 
ENDBRANCH   20   21
ENDBRANCH   23   22
ENDBRANCH   24   23
ENDBRANCH   26   24
ENDBRANCH   27   26
ENDBRANCH   28   27
ENDBRANCH   29   28
ENDBRANCH   30   29
ENDBRANCH   31   30
ENDBRANCH   32   31
ENDBRANCH   33   32
ENDBRANCH   34   33
ENDBRANCH   36   34
ENDBRANCH   40   39
BRANCH   44   45
ATOM     45  C38 UNL A   1      44.672  32.497  27.507  1.00  0.00    +0.000 C 
ATOM     46  C39 UNL A   1      45.854  32.638  26.751  1.00  0.00    +0.000 C 
ATOM     47  F1  UNL A   1      46.652  31.583  26.525  1.00  0.00    +0.000 F 
ATOM     48  C40 UNL A   1      46.291  33.882  26.287  1.00  0.00    +0.000 C 
ATOM     49  F2  UNL A   1      47.480  33.986  25.678  1.00  0.00    +0.000 F 
ATOM     50  C41 UNL A   1      45.536  35.019  26.512  1.00  0.00    +0.000 C 
ATOM     51  F3  UNL A   1      45.981  36.219  26.119  1.00  0.00    +0.000 F 
ATOM     52  C42 UNL A   1      44.342  34.912  27.191  1.00  0.00    +0.000 C 
ATOM     53  F4  UNL A   1      43.606  36.006  27.435  1.00  0.00    +0.000 F 
ATOM     54  C43 UNL A   1      43.929  33.681  27.701  1.00  0.00    +0.000 C 
ATOM     55  F5  UNL A   1      42.840  33.715  28.478  1.00  0.00    +0.000 F 
ENDBRANCH   44   45
BRANCH   61   62
ATOM     65  C51 UNL A   1      42.105  30.056  35.966  1.00  0.00    +0.000 C 
ATOM     66  F7  UNL A   1      42.168  30.533  37.219  1.00  0.00    +0.000 F 
ATOM     67  C52 UNL A   1      41.727  28.741  35.748  1.00  0.00    +0.000 C 
ATOM     68  F8  UNL A   1      41.414  27.950  36.786  1.00  0.00    +0.000 F 
ATOM     69  C53 UNL A   1      41.638  28.255  34.454  1.00  0.00    +0.000 C 
ATOM     70  F9  UNL A   1      41.221  27.001  34.237  1.00  0.00    +0.000 F 
ATOM     71  C54 UNL A   1      41.951  29.078  33.375  1.00  0.00    +0.000 C 
ATOM     72  F10 UNL A   1      41.827  28.585  32.132  1.00  0.00    +0.000 F 
ATOM     62  C49 UNL A   1      42.331  30.413  33.566  1.00  0.00    +0.000 C 
ATOM     63  C50 UNL A   1      42.380  30.892  34.886  1.00  0.00    +0.000 C 
ATOM     64  F6  UNL A   1      42.635  32.184  35.137  1.00  0.00    +0.000 F 
ENDBRANCH   61   62
BRANCH   76   77
ATOM     77  C58 UNL A   1      36.818  31.741  30.778  1.00  0.00    +0.000 C 
ATOM     78  C59 UNL A   1      35.979  31.917  31.890  1.00  0.00    +0.000 C 
ATOM     79  F11 UNL A   1      36.261  31.309  33.051  1.00  0.00    +0.000 F 
ATOM     80  C60 UNL A   1      34.882  32.782  31.849  1.00  0.00    +0.000 C 
ATOM     81  F12 UNL A   1      34.146  32.981  32.951  1.00  0.00    +0.000 F 
ATOM     82  C61 UNL A   1      34.586  33.486  30.692  1.00  0.00    +0.000 C 
ATOM     83  F13 UNL A   1      33.576  34.365  30.673  1.00  0.00    +0.000 F 
ATOM     84  C62 UNL A   1      35.371  33.305  29.568  1.00  0.00    +0.000 C 
ATOM     85  F14 UNL A   1      35.116  34.004  28.454  1.00  0.00    +0.000 F 
ATOM     86  C63 UNL A   1      36.471  32.449  29.611  1.00  0.00    +0.000 C 
ATOM     87  F15 UNL A   1      37.247  32.402  28.519  1.00  0.00    +0.000 F 
ENDBRANCH   76   77
TORSDOF 20
ENDMDL
MODEL 2
REMARK VINA RESULT:      -9.2      3.743     10.642
ROOT
ATOM    134  H36 UNL A   1      43.558  31.769  33.252  1.00  0.00    +0.000 H 
ATOM    135  H37 UNL A   1      44.935  32.185  31.010  1.00  0.00    +0.000 H 
ATOM    136  H38 UNL A   1      45.415  28.368  32.174  1.00  0.00    +0.000 H 
ATOM    137  H39 UNL A   1      40.887  27.331  25.273  1.00  0.00    +0.000 H 
ATOM    138  H40 UNL A   1      39.355  28.911  26.557  1.00  0.00    +0.000 H 
ATOM    139  H41 UNL A   1      42.499  27.912  29.083  1.00  0.00    +0.000 H 
ATOM    140  H42 UNL A   1      44.052  25.137  29.282  1.00  0.00    +0.000 H 
ATOM    141  H43 UNL A   1      45.052  26.895  30.878  1.00  0.00    +0.000 H 
ATOM    142  H44 UNL A   1      40.149  27.844  33.752  1.00  0.00    +0.000 H 
ATOM    143  H45 UNL A   1      38.765  27.745  31.587  1.00  0.00    +0.000 H 
ATOM     40  C34 UNL A   1      40.019  29.073  29.387  1.00  0.00    +0.000 C 
ATOM     41  C35 UNL A   1      40.556  28.866  30.764  1.00  0.00    +0.000 C 
ATOM     42  N5  UNL A   1      41.663  29.315  31.268  1.00  0.00    +0.000 N 
ATOM     43  C36 UNL A   1      41.727  28.806  32.565  1.00  0.00    +0.000 C 
ATOM     44  C37 UNL A   1      42.889  28.767  33.273  1.00  0.00    +0.000 C 
ATOM     56  C44 UNL A   1      43.867  29.681  32.753  1.00  0.00    +0.000 C 
ATOM     57  C45 UNL A   1      43.949  31.053  32.620  1.00  0.00    +0.000 C 
ATOM     58  C46 UNL A   1      44.693  31.270  31.423  1.00  0.00    +0.000 C 
ATOM     59  C47 UNL A   1      45.032  30.016  30.913  1.00  0.00    +0.000 C 
ATOM     60  N6  UNL A   1      44.887  29.178  31.987  1.00  0.00    +0.000 N 
ATOM     61  C48 UNL A   1      45.324  29.558  29.578  1.00  0.00    +0.000 C 
ATOM     73  C55 UNL A   1      45.174  28.269  29.157  1.00  0.00    +0.000 C 
ATOM     74  N7  UNL A   1      44.940  27.980  27.822  1.00  0.00    +0.000 N 
ATOM     75  C56 UNL A   1      44.276  26.858  27.833  1.00  0.00    +0.000 C 
ATOM     76  C57 UNL A   1      43.223  26.511  26.847  1.00  0.00    +0.000 C 
ATOM     88  C64 UNL A   1      42.162  27.316  27.085  1.00  0.00    +0.000 C 
ATOM     89  C65 UNL A   1      41.030  27.650  26.244  1.00  0.00    +0.000 C 
ATOM     90  C66 UNL A   1      40.193  28.448  26.941  1.00  0.00    +0.000 C 
ATOM     91  C67 UNL A   1      40.660  28.553  28.322  1.00  0.00    +0.000 C 
ATOM     92  N8  UNL A   1      41.886  27.928  28.313  1.00  0.00    +0.000 N 
ATOM     93  C68 UNL A   1      44.338  26.107  29.075  1.00  0.00    +0.000 C 
ATOM     94  C69 UNL A   1      44.873  27.034  29.872  1.00  0.00    +0.000 C 
ATOM     95  C70 UNL A   1      40.447  28.200  32.830  1.00  0.00    +0.000 C 
ATOM     96  C71 UNL A   1      39.699  28.160  31.726  1.00  0.00    +0.000 C 
ENDROOT
BRANCH   40   39
ATOM     97  C72 UNL A   1      38.711  31.186  29.019  1.00  0.00    +0.000 C 
ATOM     98  C73 UNL A   1      37.477  31.832  29.024  1.00  0.00    +0.000 C 
ATOM     36  C30 UNL A   1      36.284  31.128  29.278  1.00  0.00    +0.000 C 
ATOM     37  C31 UNL A   1      36.357  29.746  29.430  1.00  0.00    +0.000 C 
ATOM    132  H34 UNL A   1      35.488  29.194  29.513  1.00  0.00    +0.000 H 
ATOM     38  C32 UNL A   1      37.586  29.102  29.472  1.00  0.00    +0.000 C 
ATOM    133  H35 UNL A   1      37.627  28.083  29.629  1.00  0.00    +0.000 H 
ATOM     39  C33 UNL A   1      38.768  29.826  29.304  1.00  0.00    +0.000 C 
ATOM    144  H46 UNL A   1      39.574  31.711  28.805  1.00  0.00    +0.000 H 
ATOM    145  H47 UNL A   1      37.436  32.847  28.840  1.00  0.00    +0.000 H 
BRANCH   36   34
ATOM     34  C29 UNL A   1      35.047  31.947  29.425  1.00  0.00    +0.000 C 
ATOM     35  O2  UNL A   1      34.249  31.982  28.484  1.00  0.00    +0.000 O 
BRANCH   34   33
ATOM     33  N4  UNL A   1      34.744  32.725  30.509  1.00  0.00    +0.000 N 
ATOM    131  H33 UNL A   1      34.280  33.557  30.261  1.00  0.00    +0.000 H 
BRANCH   33   32
ATOM    129  H31 UNL A   1      34.023  32.794  32.431  1.00  0.00    +0.000 H 
ATOM    130  H32 UNL A   1      35.312  31.608  32.115  1.00  0.00    +0.000 H 
ATOM     32  C28 UNL A   1      34.952  32.600  31.938  1.00  0.00    +0.000 C 
BRANCH   32   31
ATOM    127  H29 UNL A   1      35.840  34.526  32.064  1.00  0.00    +0.000 H 
ATOM     31  C27 UNL A   1      36.005  33.562  32.496  1.00  0.00    +0.000 C 
ATOM    128  H30 UNL A   1      35.890  33.556  33.561  1.00  0.00    +0.000 H 
BRANCH   31   30
ATOM    126  H28 UNL A   1      38.059  33.990  32.481  1.00  0.00    +0.000 H 
ATOM    125  H27 UNL A   1      37.525  32.889  31.176  1.00  0.00    +0.000 H 
ATOM     30  C26 UNL A   1      37.453  33.151  32.212  1.00  0.00    +0.000 C 
BRANCH   30   29
ATOM    123  H25 UNL A   1      37.592  31.068  32.598  1.00  0.00    +0.000 H 
ATOM    124  H26 UNL A   1      39.032  32.032  33.029  1.00  0.00    +0.000 H 
ATOM     29  C25 UNL A   1      37.963  31.969  33.038  1.00  0.00    +0.000 C 
BRANCH   29   28
ATOM    121  H23 UNL A   1      37.832  32.930  34.933  1.00  0.00    +0.000 H 
ATOM    122  H24 UNL A   1      36.484  31.837  34.534  1.00  0.00    +0.000 H 
ATOM     28  C24 UNL A   1      37.542  31.989  34.513  1.00  0.00    +0.000 C 
BRANCH   28   27
ATOM     27  C23 UNL A   1      38.164  30.878  35.355  1.00  0.00    +0.000 C 
ATOM    119  H21 UNL A   1      37.385  30.245  35.726  1.00  0.00    +0.000 H 
ATOM    120  H22 UNL A   1      38.839  30.326  34.735  1.00  0.00    +0.000 H 
BRANCH   27   26
ATOM     26  N3  UNL A   1      38.910  31.415  36.476  1.00  0.00    +0.000 N 
ATOM    118  H20 UNL A   1      39.771  30.974  36.660  1.00  0.00    +0.000 H 
BRANCH   26   24
ATOM     25  O1  UNL A   1      37.489  32.410  37.871  1.00  0.00    +0.000 O 
ATOM     24  C22 UNL A   1      38.590  32.446  37.314  1.00  0.00    +0.000 C 
BRANCH   24   23
ATOM    116  H18 UNL A   1      38.952  34.529  37.329  1.00  0.00    +0.000 H 
ATOM    117  H19 UNL A   1      39.923  33.568  38.473  1.00  0.00    +0.000 H 
ATOM     23  C21 UNL A   1      39.518  33.634  37.484  1.00  0.00    +0.000 C 
BRANCH   23   22
ATOM      2  C2  UNL A   1      44.469  32.015  36.841  1.00  0.00    +0.000 C 
ATOM      3  C3  UNL A   1      43.552  31.615  37.813  1.00  0.00    +0.000 C 
ATOM      4  C4  UNL A   1      42.229  32.067  37.793  1.00  0.00    +0.000 C 
ATOM      5  C5  UNL A   1      41.839  32.960  36.779  1.00  0.00    +0.000 C 
ATOM      6  C6  UNL A   1      42.723  33.344  35.768  1.00  0.00    +0.000 C 
ATOM      7  C7  UNL A   1      44.053  32.866  35.806  1.00  0.00    +0.000 C 
ATOM    102  H4  UNL A   1      43.856  30.973  38.562  1.00  0.00    +0.000 H 
ATOM    104  H6  UNL A   1      44.720  33.145  35.069  1.00  0.00    +0.000 H 
ATOM    103  H5  UNL A   1      41.554  31.753  38.508  1.00  0.00    +0.000 H 
ATOM      8  C8  UNL A   1      42.003  34.197  34.881  1.00  0.00    +0.000 C 
ATOM     20  C19 UNL A   1      40.707  34.323  35.361  1.00  0.00    +0.000 C 
ATOM     22  N2  UNL A   1      40.651  33.645  36.566  1.00  0.00    +0.000 N 
BRANCH    2    1
ATOM      1  C1  UNL A   1      45.889  31.536  36.920  1.00  0.00    +0.000 C 
ATOM     99  H1  UNL A   1      46.485  32.270  37.421  1.00  0.00    +0.000 H 
ATOM    100  H2  UNL A   1      46.269  31.380  35.933  1.00  0.00    +0.000 H 
ATOM    101  H3  UNL A   1      45.925  30.615  37.466  1.00  0.00    +0.000 H 
ENDBRANCH    2    1
BRANCH    8    9
ATOM      9  C9  UNL A   1      42.466  34.862  33.669  1.00  0.00    +0.000 C 
ATOM     10  C10 UNL A   1      43.226  36.020  33.809  1.00  0.00    +0.000 C 
ATOM     11  C11 UNL A   1      43.703  36.615  32.663  1.00  0.00    +0.000 C 
ATOM    105  H7  UNL A   1      43.425  36.418  34.740  1.00  0.00    +0.000 H 
ATOM     13  C12 UNL A   1      42.737  35.024  31.264  1.00  0.00    +0.000 C 
ATOM    106  H8  UNL A   1      44.265  37.475  32.760  1.00  0.00    +0.000 H 
ATOM     12  N1  UNL A   1      43.479  36.140  31.420  1.00  0.00    +0.000 N 
ATOM     14  C13 UNL A   1      42.499  34.504  29.981  1.00  0.00    +0.000 C 
ATOM    112  H14 UNL A   1      40.989  32.705  32.967  1.00  0.00    +0.000 H 
ATOM     18  C17 UNL A   1      41.397  33.196  32.156  1.00  0.00    +0.000 C 
ATOM     19  C18 UNL A   1      42.188  34.346  32.376  1.00  0.00    +0.000 C 
ATOM     17  C16 UNL A   1      41.152  32.705  30.881  1.00  0.00    +0.000 C 
ATOM    111  H13 UNL A   1      40.565  31.866  30.746  1.00  0.00    +0.000 H 
ATOM     16  C15 UNL A   1      41.707  33.357  29.795  1.00  0.00    +0.000 C 
ATOM    110  H12 UNL A   1      41.538  33.000  28.840  1.00  0.00    +0.000 H 
BRANCH   14   15
ATOM    107  H9  UNL A   1      43.537  34.396  28.137  1.00  0.00    +0.000 H 
ATOM    108  H10 UNL A   1      43.823  35.865  29.040  1.00  0.00    +0.000 H 
ATOM    109  H11 UNL A   1      42.307  35.635  28.200  1.00  0.00    +0.000 H 
ATOM     15  C14 UNL A   1      43.083  35.146  28.750  1.00  0.00    +0.000 C 
ENDBRANCH   14   15
ENDBRANCH    8    9
BRANCH   20   21
ATOM    113  H15 UNL A   1      39.563  36.081  35.151  1.00  0.00    +0.000 H 
ATOM    114  H16 UNL A   1      38.640  34.601  35.050  1.00  0.00    +0.000 H 
ATOM    115  H17 UNL A   1      39.648  35.096  33.711  1.00  0.00    +0.000 H 
ATOM     21  C20 UNL A   1      39.558  35.079  34.777  1.00  0.00    +0.000 C 
ENDBRANCH   20   21
ENDBRANCH   23   22
ENDBRANCH   24   23
ENDBRANCH   26   24
ENDBRANCH   27   26
ENDBRANCH   28   27
ENDBRANCH   29   28
ENDBRANCH   30   29
ENDBRANCH   31   30
ENDBRANCH   32   31
ENDBRANCH   33   32
ENDBRANCH   34   33
ENDBRANCH   36   34
ENDBRANCH   40   39
BRANCH   44   45
ATOM     45  C38 UNL A   1      43.254  27.678  34.253  1.00  0.00    +0.000 C 
ATOM     46  C39 UNL A   1      43.525  26.377  33.780  1.00  0.00    +0.000 C 
ATOM     47  F1  UNL A   1      43.705  26.148  32.471  1.00  0.00    +0.000 F 
ATOM     48  C40 UNL A   1      43.527  25.267  34.630  1.00  0.00    +0.000 C 
ATOM     49  F2  UNL A   1      43.669  24.037  34.119  1.00  0.00    +0.000 F 
ATOM     50  C41 UNL A   1      43.315  25.423  35.988  1.00  0.00    +0.000 C 
ATOM     51  F3  UNL A   1      43.258  24.356  36.795  1.00  0.00    +0.000 F 
ATOM     52  C42 UNL A   1      43.111  26.688  36.498  1.00  0.00    +0.000 C 
ATOM     53  F4  UNL A   1      42.885  26.857  37.809  1.00  0.00    +0.000 F 
ATOM     54  C43 UNL A   1      43.056  27.791  35.645  1.00  0.00    +0.000 C 
ATOM     55  F5  UNL A   1      42.695  28.945  36.219  1.00  0.00    +0.000 F 
ENDBRANCH   44   45
BRANCH   61   62
ATOM     65  C51 UNL A   1      44.703  32.293  26.967  1.00  0.00    +0.000 C 
ATOM     66  F7  UNL A   1      43.677  32.879  26.330  1.00  0.00    +0.000 F 
ATOM     67  C52 UNL A   1      45.993  32.756  26.766  1.00  0.00    +0.000 C 
ATOM     68  F8  UNL A   1      46.215  33.794  25.945  1.00  0.00    +0.000 F 
ATOM     69  C53 UNL A   1      47.049  32.168  27.442  1.00  0.00    +0.000 C 
ATOM     70  F9  UNL A   1      48.291  32.647  27.292  1.00  0.00    +0.000 F 
ATOM     71  C54 UNL A   1      46.820  31.099  28.304  1.00  0.00    +0.000 C 
ATOM     72  F10 UNL A   1      47.861  30.570  28.965  1.00  0.00    +0.000 F 
ATOM     62  C49 UNL A   1      45.524  30.614  28.529  1.00  0.00    +0.000 C 
ATOM     63  C50 UNL A   1      44.466  31.249  27.858  1.00  0.00    +0.000 C 
ATOM     64  F6  UNL A   1      43.194  30.906  28.106  1.00  0.00    +0.000 F 
ENDBRANCH   61   62
BRANCH   76   77
ATOM     77  C58 UNL A   1      43.256  25.256  26.062  1.00  0.00    +0.000 C 
ATOM     78  C59 UNL A   1      44.317  24.988  25.182  1.00  0.00    +0.000 C 
ATOM     79  F11 UNL A   1      45.190  25.955  24.863  1.00  0.00    +0.000 F 
ATOM     80  C60 UNL A   1      44.544  23.704  24.679  1.00  0.00    +0.000 C 
ATOM     81  F12 UNL A   1      45.609  23.470  23.900  1.00  0.00    +0.000 F 
ATOM     82  C61 UNL A   1      43.710  22.655  25.031  1.00  0.00    +0.000 C 
ATOM     83  F13 UNL A   1      43.966  21.411  24.604  1.00  0.00    +0.000 F 
ATOM     84  C62 UNL A   1      42.634  22.893  25.866  1.00  0.00    +0.000 C 
ATOM     85  F14 UNL A   1      41.839  21.882  26.241  1.00  0.00    +0.000 F 
ATOM     86  C63 UNL A   1      42.413  24.173  26.376  1.00  0.00    +0.000 C 
ATOM     87  F15 UNL A   1      41.414  24.309  27.259  1.00  0.00    +0.000 F 
ENDBRANCH   76   77
TORSDOF 20
ENDMDL
MODEL 3
REMARK VINA RESULT:      -9.1     30.138     35.428
ROOT
ATOM    134  H36 UNL A   1      19.668  16.744   7.752  1.00  0.00    +0.000 H 
ATOM    135  H37 UNL A   1      21.238  17.654   9.702  1.00  0.00    +0.000 H 
ATOM    136  H38 UNL A   1      22.960  14.445   8.003  1.00  0.00    +0.000 H 
ATOM    137  H39 UNL A   1      28.135  20.473   5.538  1.00  0.00    +0.000 H 
ATOM    138  H40 UNL A   1      25.937  21.407   4.650  1.00  0.00    +0.000 H 
ATOM    139  H41 UNL A   1      25.152  17.614   6.155  1.00  0.00    +0.000 H 
ATOM    140  H42 UNL A   1      27.045  15.052   6.105  1.00  0.00    +0.000 H 
ATOM    141  H43 UNL A   1      24.840  14.573   7.349  1.00  0.00    +0.000 H 
ATOM    142  H44 UNL A   1      21.428  15.916   2.904  1.00  0.00    +0.000 H 
ATOM    143  H45 UNL A   1      22.907  17.920   2.268  1.00  0.00    +0.000 H 
ATOM     40  C34 UNL A   1      23.827  19.405   4.533  1.00  0.00    +0.000 C 
ATOM     41  C35 UNL A   1      23.018  18.151   4.522  1.00  0.00    +0.000 C 
ATOM     42  N5  UNL A   1      22.498  17.523   5.530  1.00  0.00    +0.000 N 
ATOM     43  C36 UNL A   1      21.884  16.389   5.001  1.00  0.00    +0.000 C 
ATOM     44  C37 UNL A   1      21.542  15.320   5.773  1.00  0.00    +0.000 C 
ATOM     56  C44 UNL A   1      21.456  15.667   7.164  1.00  0.00    +0.000 C 
ATOM     57  C45 UNL A   1      20.661  16.510   7.913  1.00  0.00    +0.000 C 
ATOM     58  C46 UNL A   1      21.504  16.989   8.959  1.00  0.00    +0.000 C 
ATOM     59  C47 UNL A   1      22.753  16.392   8.790  1.00  0.00    +0.000 C 
ATOM     60  N6  UNL A   1      22.492  15.312   7.989  1.00  0.00    +0.000 N 
ATOM     61  C48 UNL A   1      24.082  16.797   9.175  1.00  0.00    +0.000 C 
ATOM     73  C55 UNL A   1      25.223  16.379   8.555  1.00  0.00    +0.000 C 
ATOM     74  N7  UNL A   1      26.369  17.158   8.577  1.00  0.00    +0.000 N 
ATOM     75  C56 UNL A   1      27.011  16.840   7.488  1.00  0.00    +0.000 C 
ATOM     76  C57 UNL A   1      27.828  17.797   6.700  1.00  0.00    +0.000 C 
ATOM     88  C64 UNL A   1      26.977  18.677   6.122  1.00  0.00    +0.000 C 
ATOM     89  C65 UNL A   1      27.227  19.985   5.550  1.00  0.00    +0.000 C 
ATOM     90  C66 UNL A   1      26.072  20.460   5.036  1.00  0.00    +0.000 C 
ATOM     91  C67 UNL A   1      25.044  19.423   5.112  1.00  0.00    +0.000 C 
ATOM     92  N8  UNL A   1      25.628  18.421   5.851  1.00  0.00    +0.000 N 
ATOM     93  C68 UNL A   1      26.596  15.599   6.856  1.00  0.00    +0.000 C 
ATOM     94  C69 UNL A   1      25.468  15.371   7.531  1.00  0.00    +0.000 C 
ATOM     95  C70 UNL A   1      21.915  16.539   3.568  1.00  0.00    +0.000 C 
ATOM     96  C71 UNL A   1      22.656  17.589   3.213  1.00  0.00    +0.000 C 
ENDROOT
BRANCH   40   39
ATOM     97  C72 UNL A   1      23.869  21.281   2.865  1.00  0.00    +0.000 C 
ATOM     98  C73 UNL A   1      23.239  22.399   2.321  1.00  0.00    +0.000 C 
ATOM     36  C30 UNL A   1      21.948  22.783   2.732  1.00  0.00    +0.000 C 
ATOM     37  C31 UNL A   1      21.273  21.960   3.631  1.00  0.00    +0.000 C 
ATOM    132  H34 UNL A   1      20.288  22.161   3.869  1.00  0.00    +0.000 H 
ATOM     38  C32 UNL A   1      21.911  20.872   4.211  1.00  0.00    +0.000 C 
ATOM    133  H35 UNL A   1      21.413  20.296   4.907  1.00  0.00    +0.000 H 
ATOM     39  C33 UNL A   1      23.223  20.551   3.857  1.00  0.00    +0.000 C 
ATOM    144  H46 UNL A   1      24.804  20.998   2.534  1.00  0.00    +0.000 H 
ATOM    145  H47 UNL A   1      23.728  22.958   1.605  1.00  0.00    +0.000 H 
BRANCH   36   34
ATOM     34  C29 UNL A   1      21.443  24.084   2.210  1.00  0.00    +0.000 C 
ATOM     35  O2  UNL A   1      22.260  24.902   1.778  1.00  0.00    +0.000 O 
BRANCH   34   33
ATOM     33  N4  UNL A   1      20.133  24.481   2.224  1.00  0.00    +0.000 N 
ATOM    131  H33 UNL A   1      19.898  24.984   3.038  1.00  0.00    +0.000 H 
BRANCH   33   32
ATOM    129  H31 UNL A   1      18.188  24.883   1.701  1.00  0.00    +0.000 H 
ATOM    130  H32 UNL A   1      19.341  24.689   0.359  1.00  0.00    +0.000 H 
ATOM     32  C28 UNL A   1      19.016  24.330   1.313  1.00  0.00    +0.000 C 
BRANCH   32   31
ATOM    127  H29 UNL A   1      18.698  22.358   2.040  1.00  0.00    +0.000 H 
ATOM     31  C27 UNL A   1      18.574  22.877   1.113  1.00  0.00    +0.000 C 
ATOM    128  H30 UNL A   1      17.556  22.910   0.785  1.00  0.00    +0.000 H 
BRANCH   31   30
ATOM    126  H28 UNL A   1      19.195  21.080   0.223  1.00  0.00    +0.000 H 
ATOM    125  H27 UNL A   1      20.383  22.412   0.102  1.00  0.00    +0.000 H 
ATOM     30  C26 UNL A   1      19.355  22.120   0.033  1.00  0.00    +0.000 C 
BRANCH   30   29
ATOM    123  H25 UNL A   1      18.456  21.466  -1.776  1.00  0.00    +0.000 H 
ATOM    124  H26 UNL A   1      18.183  23.180  -1.352  1.00  0.00    +0.000 H 
ATOM     29  C25 UNL A   1      18.884  22.372  -1.401  1.00  0.00    +0.000 C 
BRANCH   29   28
ATOM    121  H23 UNL A   1      20.504  21.943  -2.714  1.00  0.00    +0.000 H 
ATOM    122  H24 UNL A   1      19.509  23.351  -3.160  1.00  0.00    +0.000 H 
ATOM     28  C24 UNL A   1      19.989  22.816  -2.369  1.00  0.00    +0.000 C 
BRANCH   28   27
ATOM     27  C23 UNL A   1      21.014  23.764  -1.753  1.00  0.00    +0.000 C 
ATOM    119  H21 UNL A   1      20.612  24.173  -0.850  1.00  0.00    +0.000 H 
ATOM    120  H22 UNL A   1      21.907  23.209  -1.554  1.00  0.00    +0.000 H 
BRANCH   27   26
ATOM     26  N3  UNL A   1      21.343  24.849  -2.657  1.00  0.00    +0.000 N 
ATOM    118  H20 UNL A   1      20.662  25.557  -2.731  1.00  0.00    +0.000 H 
BRANCH   26   24
ATOM     25  O1  UNL A   1      23.218  25.958  -3.115  1.00  0.00    +0.000 O 
ATOM     24  C22 UNL A   1      22.462  25.031  -3.419  1.00  0.00    +0.000 C 
BRANCH   24   23
ATOM    116  H18 UNL A   1      21.875  23.539  -4.797  1.00  0.00    +0.000 H 
ATOM    117  H19 UNL A   1      22.878  24.852  -5.463  1.00  0.00    +0.000 H 
ATOM     23  C21 UNL A   1      22.720  24.177  -4.647  1.00  0.00    +0.000 C 
BRANCH   23   22
ATOM      2  C2  UNL A   1      24.555  19.579  -2.906  1.00  0.00    +0.000 C 
ATOM      3  C3  UNL A   1      23.226  19.987  -3.024  1.00  0.00    +0.000 C 
ATOM      4  C4  UNL A   1      22.892  21.214  -3.602  1.00  0.00    +0.000 C 
ATOM      5  C5  UNL A   1      23.930  22.052  -4.048  1.00  0.00    +0.000 C 
ATOM      6  C6  UNL A   1      25.266  21.653  -3.982  1.00  0.00    +0.000 C 
ATOM      7  C7  UNL A   1      25.578  20.403  -3.400  1.00  0.00    +0.000 C 
ATOM    102  H4  UNL A   1      22.475  19.369  -2.678  1.00  0.00    +0.000 H 
ATOM    104  H6  UNL A   1      26.561  20.095  -3.339  1.00  0.00    +0.000 H 
ATOM    103  H5  UNL A   1      21.905  21.500  -3.699  1.00  0.00    +0.000 H 
ATOM      8  C8  UNL A   1      26.047  22.695  -4.561  1.00  0.00    +0.000 C 
ATOM     20  C19 UNL A   1      25.185  23.707  -4.962  1.00  0.00    +0.000 C 
ATOM     22  N2  UNL A   1      23.914  23.343  -4.556  1.00  0.00    +0.000 N 
BRANCH    2    1
ATOM      1  C1  UNL A   1      24.872  18.269  -2.245  1.00  0.00    +0.000 C 
ATOM     99  H1  UNL A   1      25.259  18.450  -1.264  1.00  0.00    +0.000 H 
ATOM    100  H2  UNL A   1      25.601  17.744  -2.825  1.00  0.00    +0.000 H 
ATOM    101  H3  UNL A   1      23.980  17.681  -2.173  1.00  0.00    +0.000 H 
ENDBRANCH    2    1
BRANCH    8    9
ATOM      9  C9  UNL A   1      27.492  22.772  -4.737  1.00  0.00    +0.000 C 
ATOM     10  C10 UNL A   1      28.277  22.994  -3.609  1.00  0.00    +0.000 C 
ATOM     11  C11 UNL A   1      29.643  23.014  -3.773  1.00  0.00    +0.000 C 
ATOM    105  H7  UNL A   1      27.848  23.138  -2.681  1.00  0.00    +0.000 H 
ATOM     13  C12 UNL A   1      29.516  22.621  -6.064  1.00  0.00    +0.000 C 
ATOM    106  H8  UNL A   1      30.230  23.181  -2.940  1.00  0.00    +0.000 H 
ATOM     12  N1  UNL A   1      30.261  22.829  -4.958  1.00  0.00    +0.000 N 
ATOM     14  C13 UNL A   1      30.137  22.416  -7.308  1.00  0.00    +0.000 C 
ATOM    112  H14 UNL A   1      26.341  22.393  -7.156  1.00  0.00    +0.000 H 
ATOM     18  C17 UNL A   1      27.371  22.402  -7.198  1.00  0.00    +0.000 C 
ATOM     19  C18 UNL A   1      28.104  22.598  -6.006  1.00  0.00    +0.000 C 
ATOM     17  C16 UNL A   1      27.997  22.221  -8.424  1.00  0.00    +0.000 C 
ATOM    111  H13 UNL A   1      27.439  22.086  -9.282  1.00  0.00    +0.000 H 
ATOM     16  C15 UNL A   1      29.379  22.223  -8.477  1.00  0.00    +0.000 C 
ATOM    110  H12 UNL A   1      29.858  22.084  -9.381  1.00  0.00    +0.000 H 
BRANCH   14   15
ATOM    107  H9  UNL A   1      32.071  23.090  -6.766  1.00  0.00    +0.000 H 
ATOM    108  H10 UNL A   1      31.908  22.644  -8.448  1.00  0.00    +0.000 H 
ATOM    109  H11 UNL A   1      31.996  21.404  -7.220  1.00  0.00    +0.000 H 
ATOM     15  C14 UNL A   1      31.636  22.386  -7.445  1.00  0.00    +0.000 C 
ENDBRANCH   14   15
ENDBRANCH    8    9
BRANCH   20   21
ATOM    113  H15 UNL A   1      26.394  25.413  -5.231  1.00  0.00    +0.000 H 
ATOM    114  H16 UNL A   1      24.691  25.680  -5.519  1.00  0.00    +0.000 H 
ATOM    115  H17 UNL A   1      25.652  24.814  -6.695  1.00  0.00    +0.000 H 
ATOM     21  C20 UNL A   1      25.503  24.995  -5.650  1.00  0.00    +0.000 C 
ENDBRANCH   20   21
ENDBRANCH   23   22
ENDBRANCH   24   23
ENDBRANCH   26   24
ENDBRANCH   27   26
ENDBRANCH   28   27
ENDBRANCH   29   28
ENDBRANCH   30   29
ENDBRANCH   31   30
ENDBRANCH   32   31
ENDBRANCH   33   32
ENDBRANCH   34   33
ENDBRANCH   36   34
ENDBRANCH   40   39
BRANCH   44   45
ATOM     45  C38 UNL A   1      21.586  13.885   5.307  1.00  0.00    +0.000 C 
ATOM     46  C39 UNL A   1      20.446  13.068   5.458  1.00  0.00    +0.000 C 
ATOM     47  F1  UNL A   1      19.258  13.602   5.778  1.00  0.00    +0.000 F 
ATOM     48  C40 UNL A   1      20.520  11.674   5.374  1.00  0.00    +0.000 C 
ATOM     49  F2  UNL A   1      19.437  10.933   5.644  1.00  0.00    +0.000 F 
ATOM     50  C41 UNL A   1      21.719  11.051   5.080  1.00  0.00    +0.000 C 
ATOM     51  F3  UNL A   1      21.804   9.715   5.057  1.00  0.00    +0.000 F 
ATOM     52  C42 UNL A   1      22.842  11.820   4.861  1.00  0.00    +0.000 C 
ATOM     53  F4  UNL A   1      24.018  11.233   4.594  1.00  0.00    +0.000 F 
ATOM     54  C43 UNL A   1      22.784  13.207   4.997  1.00  0.00    +0.000 C 
ATOM     55  F5  UNL A   1      23.958  13.843   4.920  1.00  0.00    +0.000 F 
ENDBRANCH   44   45
BRANCH   61   62
ATOM     65  C51 UNL A   1      24.370  18.925  12.349  1.00  0.00    +0.000 C 
ATOM     66  F7  UNL A   1      24.336  18.776  13.682  1.00  0.00    +0.000 F 
ATOM     67  C52 UNL A   1      24.649  20.168  11.802  1.00  0.00    +0.000 C 
ATOM     68  F8  UNL A   1      24.894  21.215  12.603  1.00  0.00    +0.000 F 
ATOM     69  C53 UNL A   1      24.709  20.317  10.426  1.00  0.00    +0.000 C 
ATOM     70  F9  UNL A   1      25.032  21.504   9.895  1.00  0.00    +0.000 F 
ATOM     71  C54 UNL A   1      24.468  19.228   9.593  1.00  0.00    +0.000 C 
ATOM     72  F10 UNL A   1      24.562  19.400   8.265  1.00  0.00    +0.000 F 
ATOM     62  C49 UNL A   1      24.189  17.960  10.119  1.00  0.00    +0.000 C 
ATOM     63  C50 UNL A   1      24.167  17.826  11.517  1.00  0.00    +0.000 C 
ATOM     64  F6  UNL A   1      24.010  16.623  12.089  1.00  0.00    +0.000 F 
ENDBRANCH   61   62
BRANCH   76   77
ATOM     77  C58 UNL A   1      29.240  17.529   6.346  1.00  0.00    +0.000 C 
ATOM     78  C59 UNL A   1      29.585  17.081   5.061  1.00  0.00    +0.000 C 
ATOM     79  F11 UNL A   1      28.633  16.665   4.213  1.00  0.00    +0.000 F 
ATOM     80  C60 UNL A   1      30.904  17.125   4.600  1.00  0.00    +0.000 C 
ATOM     81  F12 UNL A   1      31.184  16.757   3.342  1.00  0.00    +0.000 F 
ATOM     82  C61 UNL A   1      31.916  17.608   5.414  1.00  0.00    +0.000 C 
ATOM     83  F13 UNL A   1      33.168  17.714   4.949  1.00  0.00    +0.000 F 
ATOM     84  C62 UNL A   1      31.615  18.022   6.698  1.00  0.00    +0.000 C 
ATOM     85  F14 UNL A   1      32.578  18.521   7.485  1.00  0.00    +0.000 F 
ATOM     86  C63 UNL A   1      30.297  17.986   7.156  1.00  0.00    +0.000 C 
ATOM     87  F15 UNL A   1      30.064  18.499   8.373  1.00  0.00    +0.000 F 
ENDBRANCH   76   77
TORSDOF 20
ENDMDL
MODEL 4
REMARK VINA RESULT:      -9.0     39.903     45.982
ROOT
ATOM    134  H36 UNL A   1       1.594  14.416  38.345  1.00  0.00    +0.000 H 
ATOM    135  H37 UNL A   1       4.244  14.511  38.599  1.00  0.00    +0.000 H 
ATOM    136  H38 UNL A   1       2.573  17.135  41.142  1.00  0.00    +0.000 H 
ATOM    137  H39 UNL A   1       5.587  11.507  46.475  1.00  0.00    +0.000 H 
ATOM    138  H40 UNL A   1       4.145   9.990  45.020  1.00  0.00    +0.000 H 
ATOM    139  H41 UNL A   1       3.463  13.898  43.787  1.00  0.00    +0.000 H 
ATOM    140  H42 UNL A   1       3.402  16.538  45.572  1.00  0.00    +0.000 H 
ATOM    141  H43 UNL A   1       3.066  17.078  43.075  1.00  0.00    +0.000 H 
ATOM    142  H44 UNL A   1      -1.583  13.735  42.434  1.00  0.00    +0.000 H 
ATOM    143  H45 UNL A   1      -0.561  11.891  43.906  1.00  0.00    +0.000 H 
ATOM     40  C34 UNL A   1       2.223  11.467  43.409  1.00  0.00    +0.000 C 
ATOM     41  C35 UNL A   1       1.326  12.494  42.802  1.00  0.00    +0.000 C 
ATOM     42  N5  UNL A   1       1.604  13.350  41.868  1.00  0.00    +0.000 N 
ATOM     43  C36 UNL A   1       0.450  14.112  41.692  1.00  0.00    +0.000 C 
ATOM     44  C37 UNL A   1       0.466  15.318  41.060  1.00  0.00    +0.000 C 
ATOM     56  C44 UNL A   1       1.631  15.478  40.235  1.00  0.00    +0.000 C 
ATOM     57  C45 UNL A   1       2.131  14.842  39.117  1.00  0.00    +0.000 C 
ATOM     58  C46 UNL A   1       3.549  14.902  39.254  1.00  0.00    +0.000 C 
ATOM     59  C47 UNL A   1       3.822  15.587  40.438  1.00  0.00    +0.000 C 
ATOM     60  N6  UNL A   1       2.657  16.259  40.702  1.00  0.00    +0.000 N 
ATOM     61  C48 UNL A   1       4.946  15.556  41.340  1.00  0.00    +0.000 C 
ATOM     73  C55 UNL A   1       4.883  15.898  42.659  1.00  0.00    +0.000 C 
ATOM     74  N7  UNL A   1       5.778  15.366  43.575  1.00  0.00    +0.000 N 
ATOM     75  C56 UNL A   1       5.138  15.373  44.711  1.00  0.00    +0.000 C 
ATOM     76  C57 UNL A   1       5.307  14.339  45.761  1.00  0.00    +0.000 C 
ATOM     88  C64 UNL A   1       4.767  13.190  45.291  1.00  0.00    +0.000 C 
ATOM     89  C65 UNL A   1       4.951  11.820  45.726  1.00  0.00    +0.000 C 
ATOM     90  C66 UNL A   1       4.150  11.021  44.988  1.00  0.00    +0.000 C 
ATOM     91  C67 UNL A   1       3.293  11.844  44.137  1.00  0.00    +0.000 C 
ATOM     92  N8  UNL A   1       3.778  13.121  44.303  1.00  0.00    +0.000 N 
ATOM     93  C68 UNL A   1       3.966  16.229  44.764  1.00  0.00    +0.000 C 
ATOM     94  C69 UNL A   1       3.830  16.504  43.465  1.00  0.00    +0.000 C 
ATOM     95  C70 UNL A   1      -0.586  13.471  42.462  1.00  0.00    +0.000 C 
ATOM     96  C71 UNL A   1      -0.084  12.492  43.216  1.00  0.00    +0.000 C 
ENDROOT
BRANCH   40   39
ATOM     97  C72 UNL A   1       2.472   9.240  42.276  1.00  0.00    +0.000 C 
ATOM     98  C73 UNL A   1       1.989   7.947  42.083  1.00  0.00    +0.000 C 
ATOM     36  C30 UNL A   1       0.889   7.461  42.815  1.00  0.00    +0.000 C 
ATOM     37  C31 UNL A   1       0.351   8.274  43.810  1.00  0.00    +0.000 C 
ATOM    132  H34 UNL A   1      -0.387   7.903  44.431  1.00  0.00    +0.000 H 
ATOM     38  C32 UNL A   1       0.796   9.578  43.976  1.00  0.00    +0.000 C 
ATOM    133  H35 UNL A   1       0.360  10.183  44.689  1.00  0.00    +0.000 H 
ATOM     39  C33 UNL A   1       1.833  10.077  43.184  1.00  0.00    +0.000 C 
ATOM    144  H46 UNL A   1       3.296   9.572  41.750  1.00  0.00    +0.000 H 
ATOM    145  H47 UNL A   1       2.445   7.335  41.389  1.00  0.00    +0.000 H 
BRANCH   36   34
ATOM     34  C29 UNL A   1       0.355   6.130  42.408  1.00  0.00    +0.000 C 
ATOM     35  O2  UNL A   1      -0.683   5.725  42.939  1.00  0.00    +0.000 O 
BRANCH   34   33
ATOM     33  N4  UNL A   1       0.960   5.278  41.525  1.00  0.00    +0.000 N 
ATOM    131  H33 UNL A   1       1.831   4.951  41.849  1.00  0.00    +0.000 H 
BRANCH   33   32
ATOM    129  H31 UNL A   1       1.411   4.127  39.884  1.00  0.00    +0.000 H 
ATOM    130  H32 UNL A   1      -0.307   4.205  40.345  1.00  0.00    +0.000 H 
ATOM     32  C28 UNL A   1       0.608   4.746  40.224  1.00  0.00    +0.000 C 
BRANCH   32   31
ATOM    127  H29 UNL A   1       0.910   6.694  39.431  1.00  0.00    +0.000 H 
ATOM     31  C27 UNL A   1       0.350   5.823  39.165  1.00  0.00    +0.000 C 
ATOM    128  H30 UNL A   1       0.647   5.406  38.226  1.00  0.00    +0.000 H 
BRANCH   31   30
ATOM    126  H28 UNL A   1      -1.668   5.615  39.704  1.00  0.00    +0.000 H 
ATOM    125  H27 UNL A   1      -1.404   6.079  37.997  1.00  0.00    +0.000 H 
ATOM     30  C26 UNL A   1      -1.121   6.227  39.018  1.00  0.00    +0.000 C 
BRANCH   30   29
ATOM    123  H25 UNL A   1      -2.049   8.096  38.624  1.00  0.00    +0.000 H 
ATOM    124  H26 UNL A   1      -1.916   7.646  40.348  1.00  0.00    +0.000 H 
ATOM     29  C25 UNL A   1      -1.433   7.677  39.393  1.00  0.00    +0.000 C 
BRANCH   29   28
ATOM    121  H23 UNL A   1       0.503   8.067  40.186  1.00  0.00    +0.000 H 
ATOM    122  H24 UNL A   1       0.180   8.763  38.579  1.00  0.00    +0.000 H 
ATOM     28  C24 UNL A   1      -0.201   8.575  39.560  1.00  0.00    +0.000 C 
BRANCH   28   27
ATOM     27  C23 UNL A   1      -0.502   9.936  40.184  1.00  0.00    +0.000 C 
ATOM    119  H21 UNL A   1      -1.537  10.163  40.043  1.00  0.00    +0.000 H 
ATOM    120  H22 UNL A   1      -0.262   9.887  41.226  1.00  0.00    +0.000 H 
BRANCH   27   26
ATOM     26  N3  UNL A   1       0.298  10.985  39.581  1.00  0.00    +0.000 N 
ATOM    118  H20 UNL A   1       1.230  11.039  39.896  1.00  0.00    +0.000 H 
BRANCH   26   24
ATOM     25  O1  UNL A   1      -1.023  12.634  38.883  1.00  0.00    +0.000 O 
ATOM     24  C22 UNL A   1      -0.056  11.908  38.639  1.00  0.00    +0.000 C 
BRANCH   24   23
ATOM    116  H18 UNL A   1      -0.019  12.368  36.575  1.00  0.00    +0.000 H 
ATOM    117  H19 UNL A   1       1.516  12.609  37.447  1.00  0.00    +0.000 H 
ATOM     23  C21 UNL A   1       0.663  11.980  37.304  1.00  0.00    +0.000 C 
BRANCH   23   22
ATOM      2  C2  UNL A   1      -0.789   7.266  35.511  1.00  0.00    +0.000 C 
ATOM      3  C3  UNL A   1      -1.579   8.403  35.682  1.00  0.00    +0.000 C 
ATOM      4  C4  UNL A   1      -1.021   9.621  36.079  1.00  0.00    +0.000 C 
ATOM      5  C5  UNL A   1       0.361   9.678  36.328  1.00  0.00    +0.000 C 
ATOM      6  C6  UNL A   1       1.184   8.569  36.125  1.00  0.00    +0.000 C 
ATOM      7  C7  UNL A   1       0.597   7.349  35.716  1.00  0.00    +0.000 C 
ATOM    102  H4  UNL A   1      -2.595   8.343  35.511  1.00  0.00    +0.000 H 
ATOM    104  H6  UNL A   1       1.190   6.518  35.566  1.00  0.00    +0.000 H 
ATOM    103  H5  UNL A   1      -1.612  10.460  36.187  1.00  0.00    +0.000 H 
ATOM      8  C8  UNL A   1       2.520   8.976  36.412  1.00  0.00    +0.000 C 
ATOM     20  C19 UNL A   1       2.492  10.313  36.786  1.00  0.00    +0.000 C 
ATOM     22  N2  UNL A   1       1.163  10.696  36.824  1.00  0.00    +0.000 N 
BRANCH    2    1
ATOM      1  C1  UNL A   1      -1.433   5.968  35.120  1.00  0.00    +0.000 C 
ATOM     99  H1  UNL A   1      -1.933   5.548  35.968  1.00  0.00    +0.000 H 
ATOM    100  H2  UNL A   1      -0.683   5.287  34.775  1.00  0.00    +0.000 H 
ATOM    101  H3  UNL A   1      -2.143   6.143  34.338  1.00  0.00    +0.000 H 
ENDBRANCH    2    1
BRANCH    8    9
ATOM      9  C9  UNL A   1       3.751   8.197  36.352  1.00  0.00    +0.000 C 
ATOM     10  C10 UNL A   1       4.460   8.187  35.155  1.00  0.00    +0.000 C 
ATOM     11  C11 UNL A   1       5.648   7.493  35.120  1.00  0.00    +0.000 C 
ATOM    105  H7  UNL A   1       4.108   8.684  34.322  1.00  0.00    +0.000 H 
ATOM     13  C12 UNL A   1       5.483   6.819  37.343  1.00  0.00    +0.000 C 
ATOM    106  H8  UNL A   1       6.178   7.480  34.234  1.00  0.00    +0.000 H 
ATOM     12  N1  UNL A   1       6.161   6.827  36.176  1.00  0.00    +0.000 N 
ATOM     14  C13 UNL A   1       6.002   6.142  38.459  1.00  0.00    +0.000 C 
ATOM    112  H14 UNL A   1       2.657   7.909  38.811  1.00  0.00    +0.000 H 
ATOM     18  C17 UNL A   1       3.564   7.426  38.714  1.00  0.00    +0.000 C 
ATOM     19  C18 UNL A   1       4.246   7.488  37.478  1.00  0.00    +0.000 C 
ATOM     17  C16 UNL A   1       4.078   6.737  39.804  1.00  0.00    +0.000 C 
ATOM    111  H13 UNL A   1       3.558   6.700  40.695  1.00  0.00    +0.000 H 
ATOM     16  C15 UNL A   1       5.299   6.099  39.677  1.00  0.00    +0.000 C 
ATOM    110  H12 UNL A   1       5.697   5.587  40.480  1.00  0.00    +0.000 H 
BRANCH   14   15
ATOM    107  H9  UNL A   1       8.107   6.154  38.216  1.00  0.00    +0.000 H 
ATOM    108  H10 UNL A   1       7.320   4.710  37.621  1.00  0.00    +0.000 H 
ATOM    109  H11 UNL A   1       7.518   4.954  39.341  1.00  0.00    +0.000 H 
ATOM     15  C14 UNL A   1       7.333   5.439  38.406  1.00  0.00    +0.000 C 
ENDBRANCH   14   15
ENDBRANCH    8    9
BRANCH   20   21
ATOM    113  H15 UNL A   1       3.740  11.967  36.404  1.00  0.00    +0.000 H 
ATOM    114  H16 UNL A   1       4.530  10.636  37.215  1.00  0.00    +0.000 H 
ATOM    115  H17 UNL A   1       3.432  11.670  38.097  1.00  0.00    +0.000 H 
ATOM     21  C20 UNL A   1       3.629  11.210  37.151  1.00  0.00    +0.000 C 
ENDBRANCH   20   21
ENDBRANCH   23   22
ENDBRANCH   24   23
ENDBRANCH   26   24
ENDBRANCH   27   26
ENDBRANCH   28   27
ENDBRANCH   29   28
ENDBRANCH   30   29
ENDBRANCH   31   30
ENDBRANCH   32   31
ENDBRANCH   33   32
ENDBRANCH   34   33
ENDBRANCH   36   34
ENDBRANCH   40   39
BRANCH   44   45
ATOM     45  C38 UNL A   1      -0.421  16.484  41.426  1.00  0.00    +0.000 C 
ATOM     46  C39 UNL A   1      -1.281  17.038  40.455  1.00  0.00    +0.000 C 
ATOM     47  F1  UNL A   1      -1.505  16.402  39.296  1.00  0.00    +0.000 F 
ATOM     48  C40 UNL A   1      -1.858  18.301  40.614  1.00  0.00    +0.000 C 
ATOM     49  F2  UNL A   1      -2.570  18.839  39.614  1.00  0.00    +0.000 F 
ATOM     50  C41 UNL A   1      -1.645  19.030  41.770  1.00  0.00    +0.000 C 
ATOM     51  F3  UNL A   1      -2.149  20.263  41.900  1.00  0.00    +0.000 F 
ATOM     52  C42 UNL A   1      -0.863  18.493  42.770  1.00  0.00    +0.000 C 
ATOM     53  F4  UNL A   1      -0.628  19.192  43.890  1.00  0.00    +0.000 F 
ATOM     54  C43 UNL A   1      -0.242  17.256  42.593  1.00  0.00    +0.000 C 
ATOM     55  F5  UNL A   1       0.619  16.901  43.553  1.00  0.00    +0.000 F 
ENDBRANCH   44   45
BRANCH   61   62
ATOM     65  C51 UNL A   1       7.419  12.812  40.320  1.00  0.00    +0.000 C 
ATOM     66  F7  UNL A   1       7.520  11.474  40.338  1.00  0.00    +0.000 F 
ATOM     67  C52 UNL A   1       8.413  13.570  39.722  1.00  0.00    +0.000 C 
ATOM     68  F8  UNL A   1       9.468  12.967  39.155  1.00  0.00    +0.000 F 
ATOM     69  C53 UNL A   1       8.298  14.950  39.681  1.00  0.00    +0.000 C 
ATOM     70  F9  UNL A   1       9.230  15.682  39.057  1.00  0.00    +0.000 F 
ATOM     71  C54 UNL A   1       7.197  15.577  40.259  1.00  0.00    +0.000 C 
ATOM     72  F10 UNL A   1       7.101  16.913  40.177  1.00  0.00    +0.000 F 
ATOM     62  C49 UNL A   1       6.175  14.835  40.866  1.00  0.00    +0.000 C 
ATOM     63  C50 UNL A   1       6.298  13.435  40.864  1.00  0.00    +0.000 C 
ATOM     64  F6  UNL A   1       5.310  12.660  41.333  1.00  0.00    +0.000 F 
ENDBRANCH   61   62
BRANCH   76   77
ATOM     77  C58 UNL A   1       5.645  14.679  47.161  1.00  0.00    +0.000 C 
ATOM     78  C59 UNL A   1       6.917  15.175  47.492  1.00  0.00    +0.000 C 
ATOM     79  F11 UNL A   1       7.914  15.128  46.596  1.00  0.00    +0.000 F 
ATOM     80  C60 UNL A   1       7.164  15.798  48.719  1.00  0.00    +0.000 C 
ATOM     81  F12 UNL A   1       8.370  16.324  48.971  1.00  0.00    +0.000 F 
ATOM     82  C61 UNL A   1       6.149  15.931  49.654  1.00  0.00    +0.000 C 
ATOM     83  F13 UNL A   1       6.367  16.587  50.802  1.00  0.00    +0.000 F 
ATOM     84  C62 UNL A   1       4.896  15.420  49.374  1.00  0.00    +0.000 C 
ATOM     85  F14 UNL A   1       3.898  15.571  50.256  1.00  0.00    +0.000 F 
ATOM     86  C63 UNL A   1       4.647  14.806  48.146  1.00  0.00    +0.000 C 
ATOM     87  F15 UNL A   1       3.384  14.427  47.902  1.00  0.00    +0.000 F 
ENDBRANCH   76   77
TORSDOF 20
ENDMDL
MODEL 5
REMARK VINA RESULT:      -9.0     19.303     26.284
ROOT
ATOM    134  H36 UNL A   1      47.730  11.446  53.485  1.00  0.00    +0.000 H 
ATOM    135  H37 UNL A   1      48.674  13.259  51.777  1.00  0.00    +0.000 H 
ATOM    136  H38 UNL A   1      47.925   9.840  49.803  1.00  0.00    +0.000 H 
ATOM    137  H39 UNL A   1      42.032  14.785  46.639  1.00  0.00    +0.000 H 
ATOM    138  H40 UNL A   1      41.495  15.013  49.120  1.00  0.00    +0.000 H 
ATOM    139  H41 UNL A   1      44.484  12.150  48.758  1.00  0.00    +0.000 H 
ATOM    140  H42 UNL A   1      44.897  10.027  46.418  1.00  0.00    +0.000 H 
ATOM    141  H43 UNL A   1      46.783   9.882  48.167  1.00  0.00    +0.000 H 
ATOM    142  H44 UNL A   1      43.283   8.845  52.626  1.00  0.00    +0.000 H 
ATOM    143  H45 UNL A   1      41.552  10.541  51.767  1.00  0.00    +0.000 H 
ATOM     40  C34 UNL A   1      42.733  12.933  50.737  1.00  0.00    +0.000 C 
ATOM     41  C35 UNL A   1      43.423  11.712  51.247  1.00  0.00    +0.000 C 
ATOM     42  N5  UNL A   1      44.696  11.516  51.403  1.00  0.00    +0.000 N 
ATOM     43  C36 UNL A   1      44.829  10.205  51.859  1.00  0.00    +0.000 C 
ATOM     44  C37 UNL A   1      46.011   9.532  51.801  1.00  0.00    +0.000 C 
ATOM     56  C44 UNL A   1      47.131  10.422  51.670  1.00  0.00    +0.000 C 
ATOM     57  C45 UNL A   1      47.689  11.411  52.454  1.00  0.00    +0.000 C 
ATOM     58  C46 UNL A   1      48.199  12.375  51.536  1.00  0.00    +0.000 C 
ATOM     59  C47 UNL A   1      47.935  11.902  50.250  1.00  0.00    +0.000 C 
ATOM     60  N6  UNL A   1      47.711  10.563  50.436  1.00  0.00    +0.000 N 
ATOM     61  C48 UNL A   1      47.756  12.573  48.986  1.00  0.00    +0.000 C 
ATOM     73  C55 UNL A   1      47.054  12.059  47.936  1.00  0.00    +0.000 C 
ATOM     74  N7  UNL A   1      46.462  12.894  47.001  1.00  0.00    +0.000 N 
ATOM     75  C56 UNL A   1      45.446  12.217  46.544  1.00  0.00    +0.000 C 
ATOM     76  C57 UNL A   1      44.162  12.834  46.128  1.00  0.00    +0.000 C 
ATOM     88  C64 UNL A   1      43.549  13.291  47.246  1.00  0.00    +0.000 C 
ATOM     89  C65 UNL A   1      42.478  14.253  47.402  1.00  0.00    +0.000 C 
ATOM     90  C66 UNL A   1      42.159  14.338  48.712  1.00  0.00    +0.000 C 
ATOM     91  C67 UNL A   1      42.903  13.325  49.459  1.00  0.00    +0.000 C 
ATOM     92  N8  UNL A   1      43.778  12.799  48.536  1.00  0.00    +0.000 N 
ATOM     93  C68 UNL A   1      45.475  10.789  46.808  1.00  0.00    +0.000 C 
ATOM     94  C69 UNL A   1      46.467  10.746  47.699  1.00  0.00    +0.000 C 
ATOM     95  C70 UNL A   1      43.498   9.739  52.156  1.00  0.00    +0.000 C 
ATOM     96  C71 UNL A   1      42.582  10.614  51.743  1.00  0.00    +0.000 C 
ENDROOT
BRANCH   40   39
ATOM     97  C72 UNL A   1      42.301  14.636  52.531  1.00  0.00    +0.000 C 
ATOM     98  C73 UNL A   1      41.416  15.182  53.459  1.00  0.00    +0.000 C 
ATOM     36  C30 UNL A   1      40.081  14.743  53.542  1.00  0.00    +0.000 C 
ATOM     37  C31 UNL A   1      39.636  13.812  52.606  1.00  0.00    +0.000 C 
ATOM    132  H34 UNL A   1      38.637  13.551  52.579  1.00  0.00    +0.000 H 
ATOM     38  C32 UNL A   1      40.522  13.230  51.710  1.00  0.00    +0.000 C 
ATOM    133  H35 UNL A   1      40.187  12.510  51.051  1.00  0.00    +0.000 H 
ATOM     39  C33 UNL A   1      41.865  13.613  51.695  1.00  0.00    +0.000 C 
ATOM    144  H46 UNL A   1      43.269  14.987  52.465  1.00  0.00    +0.000 H 
ATOM    145  H47 UNL A   1      41.746  15.921  54.098  1.00  0.00    +0.000 H 
BRANCH   36   34
ATOM     34  C29 UNL A   1      39.275  15.275  54.677  1.00  0.00    +0.000 C 
ATOM     35  O2  UNL A   1      39.805  15.352  55.790  1.00  0.00    +0.000 O 
BRANCH   34   33
ATOM     33  N4  UNL A   1      37.957  15.636  54.604  1.00  0.00    +0.000 N 
ATOM    131  H33 UNL A   1      37.351  14.929  54.925  1.00  0.00    +0.000 H 
BRANCH   33   32
ATOM    129  H31 UNL A   1      36.230  16.740  54.466  1.00  0.00    +0.000 H 
ATOM    130  H32 UNL A   1      37.747  17.662  54.605  1.00  0.00    +0.000 H 
ATOM     32  C28 UNL A   1      37.252  16.823  54.162  1.00  0.00    +0.000 C 
BRANCH   32   31
ATOM    127  H29 UNL A   1      37.361  16.077  52.175  1.00  0.00    +0.000 H 
ATOM     31  C27 UNL A   1      37.288  17.034  52.645  1.00  0.00    +0.000 C 
ATOM    128  H30 UNL A   1      36.391  17.559  52.389  1.00  0.00    +0.000 H 
BRANCH   31   30
ATOM    126  H28 UNL A   1      39.057  18.103  53.014  1.00  0.00    +0.000 H 
ATOM    125  H27 UNL A   1      38.047  18.778  51.701  1.00  0.00    +0.000 H 
ATOM     30  C26 UNL A   1      38.454  17.898  52.154  1.00  0.00    +0.000 C 
BRANCH   30   29
ATOM    123  H25 UNL A   1      40.282  16.950  51.636  1.00  0.00    +0.000 H 
ATOM    124  H26 UNL A   1      38.838  16.379  50.754  1.00  0.00    +0.000 H 
ATOM     29  C25 UNL A   1      39.376  17.222  51.137  1.00  0.00    +0.000 C 
BRANCH   29   28
ATOM    121  H23 UNL A   1      40.441  17.551  49.323  1.00  0.00    +0.000 H 
ATOM    122  H24 UNL A   1      38.826  18.297  49.409  1.00  0.00    +0.000 H 
ATOM     28  C24 UNL A   1      39.739  18.090  49.925  1.00  0.00    +0.000 C 
BRANCH   28   27
ATOM     27  C23 UNL A   1      40.357  19.439  50.288  1.00  0.00    +0.000 C 
ATOM    119  H21 UNL A   1      40.338  20.073  49.426  1.00  0.00    +0.000 H 
ATOM    120  H22 UNL A   1      39.787  19.864  51.086  1.00  0.00    +0.000 H 
BRANCH   27   26
ATOM     26  N3  UNL A   1      41.729  19.291  50.734  1.00  0.00    +0.000 N 
ATOM    118  H20 UNL A   1      41.923  18.464  51.233  1.00  0.00    +0.000 H 
BRANCH   26   24
ATOM     25  O1  UNL A   1      42.548  21.334  50.411  1.00  0.00    +0.000 O 
ATOM     24  C22 UNL A   1      42.790  20.134  50.563  1.00  0.00    +0.000 C 
BRANCH   24   23
ATOM    116  H18 UNL A   1      44.809  20.127  51.188  1.00  0.00    +0.000 H 
ATOM    117  H19 UNL A   1      44.154  18.551  50.677  1.00  0.00    +0.000 H 
ATOM     23  C21 UNL A   1      44.208  19.601  50.476  1.00  0.00    +0.000 C 
BRANCH   23   22
ATOM      2  C2  UNL A   1      47.431  22.592  47.612  1.00  0.00    +0.000 C 
ATOM      3  C3  UNL A   1      47.221  22.628  48.990  1.00  0.00    +0.000 C 
ATOM      4  C4  UNL A   1      46.397  21.693  49.624  1.00  0.00    +0.000 C 
ATOM      5  C5  UNL A   1      45.758  20.718  48.837  1.00  0.00    +0.000 C 
ATOM      6  C6  UNL A   1      45.983  20.631  47.462  1.00  0.00    +0.000 C 
ATOM      7  C7  UNL A   1      46.827  21.583  46.846  1.00  0.00    +0.000 C 
ATOM    102  H4  UNL A   1      47.683  23.360  49.554  1.00  0.00    +0.000 H 
ATOM    104  H6  UNL A   1      46.999  21.536  45.830  1.00  0.00    +0.000 H 
ATOM    103  H5  UNL A   1      46.261  21.719  50.646  1.00  0.00    +0.000 H 
ATOM      8  C8  UNL A   1      45.238  19.514  46.983  1.00  0.00    +0.000 C 
ATOM     20  C19 UNL A   1      44.573  18.945  48.062  1.00  0.00    +0.000 C 
ATOM     22  N2  UNL A   1      44.823  19.746  49.161  1.00  0.00    +0.000 N 
BRANCH    2    1
ATOM      1  C1  UNL A   1      48.293  23.637  46.966  1.00  0.00    +0.000 C 
ATOM     99  H1  UNL A   1      49.247  23.215  46.727  1.00  0.00    +0.000 H 
ATOM    100  H2  UNL A   1      48.424  24.458  47.639  1.00  0.00    +0.000 H 
ATOM    101  H3  UNL A   1      47.822  23.983  46.068  1.00  0.00    +0.000 H 
ENDBRANCH    2    1
BRANCH    8    9
ATOM      9  C9  UNL A   1      45.133  18.993  45.626  1.00  0.00    +0.000 C 
ATOM     10  C10 UNL A   1      44.309  19.669  44.729  1.00  0.00    +0.000 C 
ATOM     11  C11 UNL A   1      44.254  19.204  43.436  1.00  0.00    +0.000 C 
ATOM    105  H7  UNL A   1      43.760  20.491  45.025  1.00  0.00    +0.000 H 
ATOM     13  C12 UNL A   1      45.746  17.464  43.846  1.00  0.00    +0.000 C 
ATOM    106  H8  UNL A   1      43.643  19.699  42.767  1.00  0.00    +0.000 H 
ATOM     12  N1  UNL A   1      44.950  18.137  42.989  1.00  0.00    +0.000 N 
ATOM     14  C13 UNL A   1      46.489  16.358  43.403  1.00  0.00    +0.000 C 
ATOM    112  H14 UNL A   1      46.768  17.376  47.052  1.00  0.00    +0.000 H 
ATOM     18  C17 UNL A   1      46.690  17.097  46.062  1.00  0.00    +0.000 C 
ATOM     19  C18 UNL A   1      45.861  17.852  45.200  1.00  0.00    +0.000 C 
ATOM     17  C16 UNL A   1      47.403  15.993  45.615  1.00  0.00    +0.000 C 
ATOM    111  H13 UNL A   1      47.996  15.454  46.266  1.00  0.00    +0.000 H 
ATOM     16  C15 UNL A   1      47.305  15.627  44.285  1.00  0.00    +0.000 C 
ATOM    110  H12 UNL A   1      47.834  14.811  43.937  1.00  0.00    +0.000 H 
BRANCH   14   15
ATOM    107  H9  UNL A   1      45.922  16.629  41.379  1.00  0.00    +0.000 H 
ATOM    108  H10 UNL A   1      45.953  14.961  41.902  1.00  0.00    +0.000 H 
ATOM    109  H11 UNL A   1      47.450  15.810  41.595  1.00  0.00    +0.000 H 
ATOM     15  C14 UNL A   1      46.451  15.907  41.965  1.00  0.00    +0.000 C 
ENDBRANCH   14   15
ENDBRANCH    8    9
BRANCH   20   21
ATOM    113  H15 UNL A   1      42.674  18.037  47.963  1.00  0.00    +0.000 H 
ATOM    114  H16 UNL A   1      43.802  17.240  49.033  1.00  0.00    +0.000 H 
ATOM    115  H17 UNL A   1      43.972  17.073  47.302  1.00  0.00    +0.000 H 
ATOM     21  C20 UNL A   1      43.693  17.738  48.092  1.00  0.00    +0.000 C 
ENDBRANCH   20   21
ENDBRANCH   23   22
ENDBRANCH   24   23
ENDBRANCH   26   24
ENDBRANCH   27   26
ENDBRANCH   28   27
ENDBRANCH   29   28
ENDBRANCH   30   29
ENDBRANCH   31   30
ENDBRANCH   32   31
ENDBRANCH   33   32
ENDBRANCH   34   33
ENDBRANCH   36   34
ENDBRANCH   40   39
BRANCH   44   45
ATOM     45  C38 UNL A   1      46.135   8.048  51.551  1.00  0.00    +0.000 C 
ATOM     46  C39 UNL A   1      45.763   7.518  50.299  1.00  0.00    +0.000 C 
ATOM     47  F1  UNL A   1      45.537   8.327  49.253  1.00  0.00    +0.000 F 
ATOM     48  C40 UNL A   1      45.526   6.153  50.115  1.00  0.00    +0.000 C 
ATOM     49  F2  UNL A   1      45.057   5.710  48.940  1.00  0.00    +0.000 F 
ATOM     50  C41 UNL A   1      45.707   5.263  51.158  1.00  0.00    +0.000 C 
ATOM     51  F3  UNL A   1      45.425   3.963  51.001  1.00  0.00    +0.000 F 
ATOM     52  C42 UNL A   1      46.133   5.735  52.381  1.00  0.00    +0.000 C 
ATOM     53  F4  UNL A   1      46.296   4.890  53.409  1.00  0.00    +0.000 F 
ATOM     54  C43 UNL A   1      46.319   7.103  52.582  1.00  0.00    +0.000 C 
ATOM     55  F5  UNL A   1      46.578   7.469  53.843  1.00  0.00    +0.000 F 
ENDBRANCH   44   45
BRANCH   61   62
ATOM     65  C51 UNL A   1      47.682  16.382  49.400  1.00  0.00    +0.000 C 
ATOM     66  F7  UNL A   1      46.844  17.346  49.812  1.00  0.00    +0.000 F 
ATOM     67  C52 UNL A   1      48.980  16.706  49.040  1.00  0.00    +0.000 C 
ATOM     68  F8  UNL A   1      49.401  17.978  49.113  1.00  0.00    +0.000 F 
ATOM     69  C53 UNL A   1      49.854  15.708  48.639  1.00  0.00    +0.000 C 
ATOM     70  F9  UNL A   1      51.124  16.010  48.342  1.00  0.00    +0.000 F 
ATOM     71  C54 UNL A   1      49.423  14.386  48.574  1.00  0.00    +0.000 C 
ATOM     72  F10 UNL A   1      50.302  13.439  48.209  1.00  0.00    +0.000 F 
ATOM     62  C49 UNL A   1      48.117  14.030  48.937  1.00  0.00    +0.000 C 
ATOM     63  C50 UNL A   1      47.260  15.054  49.374  1.00  0.00    +0.000 C 
ATOM     64  F6  UNL A   1      46.033  14.772  49.834  1.00  0.00    +0.000 F 
ENDBRANCH   61   62
BRANCH   76   77
ATOM     77  C58 UNL A   1      43.564  12.597  44.795  1.00  0.00    +0.000 C 
ATOM     78  C59 UNL A   1      42.978  11.360  44.481  1.00  0.00    +0.000 C 
ATOM     79  F11 UNL A   1      43.156  10.305  45.290  1.00  0.00    +0.000 F 
ATOM     80  C60 UNL A   1      42.137  11.208  43.375  1.00  0.00    +0.000 C 
ATOM     81  F12 UNL A   1      41.538  10.031  43.148  1.00  0.00    +0.000 F 
ATOM     82  C61 UNL A   1      41.869  12.285  42.545  1.00  0.00    +0.000 C 
ATOM     83  F13 UNL A   1      41.010  12.157  41.524  1.00  0.00    +0.000 F 
ATOM     84  C62 UNL A   1      42.460  13.507  42.805  1.00  0.00    +0.000 C 
ATOM     85  F14 UNL A   1      42.183  14.564  42.030  1.00  0.00    +0.000 F 
ATOM     86  C63 UNL A   1      43.292  13.662  43.914  1.00  0.00    +0.000 C 
ATOM     87  F15 UNL A   1      43.748  14.898  44.163  1.00  0.00    +0.000 F 
ENDBRANCH   76   77
TORSDOF 20
ENDMDL
MODEL 6
REMARK VINA RESULT:      -9.0     38.731     44.092
ROOT
ATOM    134  H36 UNL A   1       6.587  29.596  -4.505  1.00  0.00    +0.000 H 
ATOM    135  H37 UNL A   1       8.928  28.380  -4.878  1.00  0.00    +0.000 H 
ATOM    136  H38 UNL A   1       9.504  32.355  -4.753  1.00  0.00    +0.000 H 
ATOM    137  H39 UNL A   1      13.186  30.027   2.333  1.00  0.00    +0.000 H 
ATOM    138  H40 UNL A   1      10.872  29.025   2.704  1.00  0.00    +0.000 H 
ATOM    139  H41 UNL A   1      10.714  31.236  -0.810  1.00  0.00    +0.000 H 
ATOM    140  H42 UNL A   1      12.244  33.946  -1.495  1.00  0.00    +0.000 H 
ATOM    141  H43 UNL A   1      10.861  33.110  -3.501  1.00  0.00    +0.000 H 
ATOM    142  H44 UNL A   1       5.828  33.089  -0.697  1.00  0.00    +0.000 H 
ATOM    143  H45 UNL A   1       6.925  32.157   1.434  1.00  0.00    +0.000 H 
ATOM     40  C34 UNL A   1       8.866  30.124   0.904  1.00  0.00    +0.000 C 
ATOM     41  C35 UNL A   1       8.090  30.934  -0.080  1.00  0.00    +0.000 C 
ATOM     42  N5  UNL A   1       8.077  30.828  -1.372  1.00  0.00    +0.000 N 
ATOM     43  C36 UNL A   1       7.235  31.840  -1.832  1.00  0.00    +0.000 C 
ATOM     44  C37 UNL A   1       7.247  32.264  -3.126  1.00  0.00    +0.000 C 
ATOM     56  C44 UNL A   1       7.839  31.294  -4.004  1.00  0.00    +0.000 C 
ATOM     57  C45 UNL A   1       7.527  30.006  -4.389  1.00  0.00    +0.000 C 
ATOM     58  C46 UNL A   1       8.783  29.362  -4.594  1.00  0.00    +0.000 C 
ATOM     59  C47 UNL A   1       9.779  30.305  -4.339  1.00  0.00    +0.000 C 
ATOM     60  N6  UNL A   1       9.124  31.504  -4.435  1.00  0.00    +0.000 N 
ATOM     61  C48 UNL A   1      11.150  30.176  -3.912  1.00  0.00    +0.000 C 
ATOM     73  C55 UNL A   1      11.846  31.151  -3.260  1.00  0.00    +0.000 C 
ATOM     74  N7  UNL A   1      12.903  30.830  -2.422  1.00  0.00    +0.000 N 
ATOM     75  C56 UNL A   1      12.944  31.797  -1.549  1.00  0.00    +0.000 C 
ATOM     76  C57 UNL A   1      13.338  31.613  -0.130  1.00  0.00    +0.000 C 
ATOM     88  C64 UNL A   1      12.357  30.904   0.476  1.00  0.00    +0.000 C 
ATOM     89  C65 UNL A   1      12.368  30.160   1.719  1.00  0.00    +0.000 C 
ATOM     90  C66 UNL A   1      11.130  29.669   1.941  1.00  0.00    +0.000 C 
ATOM     91  C67 UNL A   1      10.212  30.194   0.931  1.00  0.00    +0.000 C 
ATOM     92  N8  UNL A   1      11.029  30.849   0.039  1.00  0.00    +0.000 N 
ATOM     93  C68 UNL A   1      12.226  33.005  -1.918  1.00  0.00    +0.000 C 
ATOM     94  C69 UNL A   1      11.537  32.545  -2.964  1.00  0.00    +0.000 C 
ATOM     95  C70 UNL A   1       6.597  32.401  -0.667  1.00  0.00    +0.000 C 
ATOM     96  C71 UNL A   1       7.132  31.913   0.452  1.00  0.00    +0.000 C 
ENDROOT
BRANCH   40   39
ATOM     97  C72 UNL A   1       7.484  28.103   1.464  1.00  0.00    +0.000 C 
ATOM     98  C73 UNL A   1       6.686  27.431   2.388  1.00  0.00    +0.000 C 
ATOM     36  C30 UNL A   1       6.489  27.936   3.687  1.00  0.00    +0.000 C 
ATOM     37  C31 UNL A   1       7.191  29.080   4.061  1.00  0.00    +0.000 C 
ATOM    132  H34 UNL A   1       7.145  29.411   5.038  1.00  0.00    +0.000 H 
ATOM     38  C32 UNL A   1       7.949  29.780   3.133  1.00  0.00    +0.000 C 
ATOM    133  H35 UNL A   1       8.429  30.650   3.413  1.00  0.00    +0.000 H 
ATOM     39  C33 UNL A   1       8.068  29.314   1.822  1.00  0.00    +0.000 C 
ATOM    144  H46 UNL A   1       7.640  27.707   0.524  1.00  0.00    +0.000 H 
ATOM    145  H47 UNL A   1       6.230  26.547   2.114  1.00  0.00    +0.000 H 
BRANCH   36   34
ATOM     34  C29 UNL A   1       5.487  27.226   4.531  1.00  0.00    +0.000 C 
ATOM     35  O2  UNL A   1       4.556  27.877   5.014  1.00  0.00    +0.000 O 
BRANCH   34   33
ATOM     33  N4  UNL A   1       5.545  25.902   4.873  1.00  0.00    +0.000 N 
ATOM    131  H33 UNL A   1       5.901  25.759   5.780  1.00  0.00    +0.000 H 
BRANCH   33   32
ATOM    129  H31 UNL A   1       4.618  24.068   4.874  1.00  0.00    +0.000 H 
ATOM    130  H32 UNL A   1       4.663  24.929   3.316  1.00  0.00    +0.000 H 
ATOM     32  C28 UNL A   1       5.200  24.664   4.203  1.00  0.00    +0.000 C 
BRANCH   32   31
ATOM    127  H29 UNL A   1       6.107  22.825   3.648  1.00  0.00    +0.000 H 
ATOM     31  C27 UNL A   1       6.414  23.843   3.758  1.00  0.00    +0.000 C 
ATOM    128  H30 UNL A   1       6.757  24.277   2.841  1.00  0.00    +0.000 H 
BRANCH   31   30
ATOM    126  H28 UNL A   1       7.583  24.855   5.176  1.00  0.00    +0.000 H 
ATOM    125  H27 UNL A   1       8.490  23.685   4.173  1.00  0.00    +0.000 H 
ATOM     30  C26 UNL A   1       7.597  23.884   4.729  1.00  0.00    +0.000 C 
BRANCH   30   29
ATOM    123  H25 UNL A   1       6.957  23.324   6.675  1.00  0.00    +0.000 H 
ATOM    124  H26 UNL A   1       7.066  21.997   5.485  1.00  0.00    +0.000 H 
ATOM     29  C25 UNL A   1       7.522  22.880   5.882  1.00  0.00    +0.000 C 
BRANCH   29   28
ATOM    121  H23 UNL A   1       9.132  21.496   6.030  1.00  0.00    +0.000 H 
ATOM    122  H24 UNL A   1       9.582  23.213   6.181  1.00  0.00    +0.000 H 
ATOM     28  C24 UNL A   1       8.882  22.450   6.447  1.00  0.00    +0.000 C 
BRANCH   28   27
ATOM     27  C23 UNL A   1       8.915  22.331   7.969  1.00  0.00    +0.000 C 
ATOM    119  H21 UNL A   1       8.178  21.620   8.278  1.00  0.00    +0.000 H 
ATOM    120  H22 UNL A   1       9.895  22.013   8.258  1.00  0.00    +0.000 H 
BRANCH   27   26
ATOM     26  N3  UNL A   1       8.641  23.604   8.607  1.00  0.00    +0.000 N 
ATOM    118  H20 UNL A   1       8.088  23.557   9.421  1.00  0.00    +0.000 H 
BRANCH   26   24
ATOM     25  O1  UNL A   1       8.167  25.657   7.891  1.00  0.00    +0.000 O 
ATOM     24  C22 UNL A   1       9.040  24.858   8.241  1.00  0.00    +0.000 C 
BRANCH   24   23
ATOM    116  H18 UNL A   1      10.593  26.293   8.244  1.00  0.00    +0.000 H 
ATOM    117  H19 UNL A   1      10.984  24.731   9.006  1.00  0.00    +0.000 H 
ATOM     23  C21 UNL A   1      10.511  25.227   8.185  1.00  0.00    +0.000 C 
BRANCH   23   22
ATOM      2  C2  UNL A   1      10.752  25.852   2.979  1.00  0.00    +0.000 C 
ATOM      3  C3  UNL A   1      10.089  26.649   3.913  1.00  0.00    +0.000 C 
ATOM      4  C4  UNL A   1      10.201  26.407   5.285  1.00  0.00    +0.000 C 
ATOM      5  C5  UNL A   1      10.984  25.321   5.714  1.00  0.00    +0.000 C 
ATOM      6  C6  UNL A   1      11.693  24.532   4.806  1.00  0.00    +0.000 C 
ATOM      7  C7  UNL A   1      11.570  24.802   3.424  1.00  0.00    +0.000 C 
ATOM    102  H4  UNL A   1       9.504  27.433   3.583  1.00  0.00    +0.000 H 
ATOM    104  H6  UNL A   1      12.083  24.225   2.740  1.00  0.00    +0.000 H 
ATOM    103  H5  UNL A   1       9.719  27.012   5.967  1.00  0.00    +0.000 H 
ATOM      8  C8  UNL A   1      12.420  23.567   5.564  1.00  0.00    +0.000 C 
ATOM     20  C19 UNL A   1      12.142  23.777   6.908  1.00  0.00    +0.000 C 
ATOM     22  N2  UNL A   1      11.193  24.782   6.975  1.00  0.00    +0.000 N 
BRANCH    2    1
ATOM      1  C1  UNL A   1      10.575  26.123   1.514  1.00  0.00    +0.000 C 
ATOM     99  H1  UNL A   1      10.296  25.218   1.015  1.00  0.00    +0.000 H 
ATOM    100  H2  UNL A   1      11.493  26.488   1.105  1.00  0.00    +0.000 H 
ATOM    101  H3  UNL A   1       9.807  26.856   1.377  1.00  0.00    +0.000 H 
ENDBRANCH    2    1
BRANCH    8    9
ATOM      9  C9  UNL A   1      13.313  22.514   5.096  1.00  0.00    +0.000 C 
ATOM     10  C10 UNL A   1      12.741  21.353   4.583  1.00  0.00    +0.000 C 
ATOM     11  C11 UNL A   1      13.587  20.384   4.096  1.00  0.00    +0.000 C 
ATOM    105  H7  UNL A   1      11.717  21.224   4.568  1.00  0.00    +0.000 H 
ATOM     13  C12 UNL A   1      15.504  21.610   4.586  1.00  0.00    +0.000 C 
ATOM    106  H8  UNL A   1      13.169  19.520   3.716  1.00  0.00    +0.000 H 
ATOM     12  N1  UNL A   1      14.932  20.496   4.085  1.00  0.00    +0.000 N 
ATOM     14  C13 UNL A   1      16.902  21.754   4.576  1.00  0.00    +0.000 C 
ATOM    112  H14 UNL A   1      14.806  24.554   6.061  1.00  0.00    +0.000 H 
ATOM     18  C17 UNL A   1      15.375  23.792   5.661  1.00  0.00    +0.000 C 
ATOM     19  C18 UNL A   1      14.724  22.658   5.125  1.00  0.00    +0.000 C 
ATOM     17  C16 UNL A   1      16.758  23.913   5.663  1.00  0.00    +0.000 C 
ATOM    111  H13 UNL A   1      17.210  24.749   6.067  1.00  0.00    +0.000 H 
ATOM     16  C15 UNL A   1      17.520  22.896   5.117  1.00  0.00    +0.000 C 
ATOM    110  H12 UNL A   1      18.550  22.975   5.107  1.00  0.00    +0.000 H 
BRANCH   14   15
ATOM    107  H9  UNL A   1      17.580  19.752   4.430  1.00  0.00    +0.000 H 
ATOM    108  H10 UNL A   1      18.822  20.955   4.172  1.00  0.00    +0.000 H 
ATOM    109  H11 UNL A   1      17.634  20.643   2.928  1.00  0.00    +0.000 H 
ATOM     15  C14 UNL A   1      17.799  20.700   3.983  1.00  0.00    +0.000 C 
ENDBRANCH   14   15
ENDBRANCH    8    9
BRANCH   20   21
ATOM    113  H15 UNL A   1      12.604  23.687   8.963  1.00  0.00    +0.000 H 
ATOM    114  H16 UNL A   1      13.703  22.800   7.934  1.00  0.00    +0.000 H 
ATOM    115  H17 UNL A   1      12.109  22.164   8.265  1.00  0.00    +0.000 H 
ATOM     21  C20 UNL A   1      12.678  23.056   8.102  1.00  0.00    +0.000 C 
ENDBRANCH   20   21
ENDBRANCH   23   22
ENDBRANCH   24   23
ENDBRANCH   26   24
ENDBRANCH   27   26
ENDBRANCH   28   27
ENDBRANCH   29   28
ENDBRANCH   30   29
ENDBRANCH   31   30
ENDBRANCH   32   31
ENDBRANCH   33   32
ENDBRANCH   34   33
ENDBRANCH   36   34
ENDBRANCH   40   39
BRANCH   44   45
ATOM     45  C38 UNL A   1       7.002  33.690  -3.557  1.00  0.00    +0.000 C 
ATOM     46  C39 UNL A   1       5.957  33.976  -4.459  1.00  0.00    +0.000 C 
ATOM     47  F1  UNL A   1       5.030  33.050  -4.749  1.00  0.00    +0.000 F 
ATOM     48  C40 UNL A   1       5.891  35.186  -5.156  1.00  0.00    +0.000 C 
ATOM     49  F2  UNL A   1       4.950  35.366  -6.092  1.00  0.00    +0.000 F 
ATOM     50  C41 UNL A   1       6.832  36.175  -4.933  1.00  0.00    +0.000 C 
ATOM     51  F3  UNL A   1       6.806  37.311  -5.641  1.00  0.00    +0.000 F 
ATOM     52  C42 UNL A   1       7.833  35.958  -4.010  1.00  0.00    +0.000 C 
ATOM     53  F4  UNL A   1       8.765  36.897  -3.795  1.00  0.00    +0.000 F 
ATOM     54  C43 UNL A   1       7.932  34.731  -3.353  1.00  0.00    +0.000 C 
ATOM     55  F5  UNL A   1       9.026  34.568  -2.600  1.00  0.00    +0.000 F 
ENDBRANCH   44   45
BRANCH   61   62
ATOM     65  C51 UNL A   1      12.105  26.586  -2.974  1.00  0.00    +0.000 C 
ATOM     66  F7  UNL A   1      11.996  25.741  -1.936  1.00  0.00    +0.000 F 
ATOM     67  C52 UNL A   1      12.656  26.145  -4.166  1.00  0.00    +0.000 C 
ATOM     68  F8  UNL A   1      13.070  24.875  -4.287  1.00  0.00    +0.000 F 
ATOM     69  C53 UNL A   1      12.745  27.010  -5.245  1.00  0.00    +0.000 C 
ATOM     70  F9  UNL A   1      13.227  26.572  -6.416  1.00  0.00    +0.000 F 
ATOM     71  C54 UNL A   1      12.304  28.325  -5.126  1.00  0.00    +0.000 C 
ATOM     72  F10 UNL A   1      12.378  29.129  -6.199  1.00  0.00    +0.000 F 
ATOM     62  C49 UNL A   1      11.739  28.796  -3.933  1.00  0.00    +0.000 C 
ATOM     63  C50 UNL A   1      11.628  27.890  -2.865  1.00  0.00    +0.000 C 
ATOM     64  F6  UNL A   1      11.004  28.242  -1.731  1.00  0.00    +0.000 F 
ENDBRANCH   61   62
BRANCH   76   77
ATOM     77  C58 UNL A   1      14.406  32.417   0.506  1.00  0.00    +0.000 C 
ATOM     78  C59 UNL A   1      14.088  33.491   1.353  1.00  0.00    +0.000 C 
ATOM     79  F11 UNL A   1      12.829  33.951   1.415  1.00  0.00    +0.000 F 
ATOM     80  C60 UNL A   1      15.038  34.057   2.207  1.00  0.00    +0.000 C 
ATOM     81  F12 UNL A   1      14.680  35.031   3.054  1.00  0.00    +0.000 F 
ATOM     82  C61 UNL A   1      16.337  33.573   2.229  1.00  0.00    +0.000 C 
ATOM     83  F13 UNL A   1      17.231  34.070   3.095  1.00  0.00    +0.000 F 
ATOM     84  C62 UNL A   1      16.692  32.542   1.380  1.00  0.00    +0.000 C 
ATOM     85  F14 UNL A   1      17.936  32.043   1.415  1.00  0.00    +0.000 F 
ATOM     86  C63 UNL A   1      15.741  31.970   0.534  1.00  0.00    +0.000 C 
ATOM     87  F15 UNL A   1      16.129  30.908  -0.186  1.00  0.00    +0.000 F 
ENDBRANCH   76   77
TORSDOF 20
ENDMDL
MODEL 7
REMARK VINA RESULT:      -8.9     40.035     45.348
ROOT
ATOM    134  H36 UNL A   1       9.168  13.468  40.158  1.00  0.00    +0.000 H 
ATOM    135  H37 UNL A   1       7.219  14.186  41.827  1.00  0.00    +0.000 H 
ATOM    136  H38 UNL A   1       6.351  15.500  38.130  1.00  0.00    +0.000 H 
ATOM    137  H39 UNL A   1       0.517   9.653  39.110  1.00  0.00    +0.000 H 
ATOM    138  H40 UNL A   1       2.602   8.255  39.550  1.00  0.00    +0.000 H 
ATOM    139  H41 UNL A   1       3.870  12.028  38.359  1.00  0.00    +0.000 H 
ATOM    140  H42 UNL A   1       2.503  13.983  36.245  1.00  0.00    +0.000 H 
ATOM    141  H43 UNL A   1       4.580  15.062  37.324  1.00  0.00    +0.000 H 
ATOM    142  H44 UNL A   1       8.230  10.909  35.702  1.00  0.00    +0.000 H 
ATOM    143  H45 UNL A   1       6.502   9.076  36.215  1.00  0.00    +0.000 H 
ATOM     40  C34 UNL A   1       5.041   9.549  38.628  1.00  0.00    +0.000 C 
ATOM     41  C35 UNL A   1       6.062  10.426  37.983  1.00  0.00    +0.000 C 
ATOM     42  N5  UNL A   1       6.553  11.542  38.425  1.00  0.00    +0.000 N 
ATOM     43  C36 UNL A   1       7.429  11.992  37.438  1.00  0.00    +0.000 C 
ATOM     44  C37 UNL A   1       7.859  13.283  37.382  1.00  0.00    +0.000 C 
ATOM     56  C44 UNL A   1       7.700  13.958  38.639  1.00  0.00    +0.000 C 
ATOM     57  C45 UNL A   1       8.223  13.799  39.907  1.00  0.00    +0.000 C 
ATOM     58  C46 UNL A   1       7.179  14.191  40.795  1.00  0.00    +0.000 C 
ATOM     59  C47 UNL A   1       6.093  14.582  40.011  1.00  0.00    +0.000 C 
ATOM     60  N6  UNL A   1       6.649  14.827  38.784  1.00  0.00    +0.000 N 
ATOM     61  C48 UNL A   1       4.674  14.609  40.264  1.00  0.00    +0.000 C 
ATOM     73  C55 UNL A   1       3.719  14.557  39.291  1.00  0.00    +0.000 C 
ATOM     74  N7  UNL A   1       2.455  14.055  39.562  1.00  0.00    +0.000 N 
ATOM     75  C56 UNL A   1       2.029  13.590  38.421  1.00  0.00    +0.000 C 
ATOM     76  C57 UNL A   1       1.159  12.395  38.289  1.00  0.00    +0.000 C 
ATOM     88  C64 UNL A   1       1.900  11.313  38.625  1.00  0.00    +0.000 C 
ATOM     89  C65 UNL A   1       1.490   9.976  39.001  1.00  0.00    +0.000 C 
ATOM     90  C66 UNL A   1       2.595   9.221  39.187  1.00  0.00    +0.000 C 
ATOM     91  C67 UNL A   1       3.777   9.985  38.795  1.00  0.00    +0.000 C 
ATOM     92  N8  UNL A   1       3.297  11.252  38.556  1.00  0.00    +0.000 N 
ATOM     93  C68 UNL A   1       2.743  14.061  37.246  1.00  0.00    +0.000 C 
ATOM     94  C69 UNL A   1       3.798  14.626  37.837  1.00  0.00    +0.000 C 
ATOM     95  C70 UNL A   1       7.556  10.919  36.484  1.00  0.00    +0.000 C 
ATOM     96  C71 UNL A   1       6.686   9.943  36.744  1.00  0.00    +0.000 C 
ENDROOT
BRANCH   40   39
ATOM     97  C72 UNL A   1       6.830   7.808  38.902  1.00  0.00    +0.000 C 
ATOM     98  C73 UNL A   1       7.168   6.496  39.231  1.00  0.00    +0.000 C 
ATOM     36  C30 UNL A   1       6.201   5.589  39.704  1.00  0.00    +0.000 C 
ATOM     37  C31 UNL A   1       4.910   6.061  39.927  1.00  0.00    +0.000 C 
ATOM    132  H34 UNL A   1       4.209   5.446  40.370  1.00  0.00    +0.000 H 
ATOM     38  C32 UNL A   1       4.555   7.352  39.558  1.00  0.00    +0.000 C 
ATOM    133  H35 UNL A   1       3.584   7.675  39.689  1.00  0.00    +0.000 H 
ATOM     39  C33 UNL A   1       5.505   8.217  39.010  1.00  0.00    +0.000 C 
ATOM    144  H46 UNL A   1       7.555   8.469  38.582  1.00  0.00    +0.000 H 
ATOM    145  H47 UNL A   1       8.146   6.184  39.125  1.00  0.00    +0.000 H 
BRANCH   36   34
ATOM     34  C29 UNL A   1       6.639   4.173  39.863  1.00  0.00    +0.000 C 
ATOM     35  O2  UNL A   1       7.845   3.918  39.786  1.00  0.00    +0.000 O 
BRANCH   34   33
ATOM     33  N4  UNL A   1       5.800   3.106  40.031  1.00  0.00    +0.000 N 
ATOM    131  H33 UNL A   1       5.701   2.568  39.212  1.00  0.00    +0.000 H 
BRANCH   33   32
ATOM    129  H31 UNL A   1       5.369   1.597  41.358  1.00  0.00    +0.000 H 
ATOM    130  H32 UNL A   1       5.169   3.259  41.962  1.00  0.00    +0.000 H 
ATOM     32  C28 UNL A   1       5.027   2.587  41.142  1.00  0.00    +0.000 C 
BRANCH   32   31
ATOM    127  H29 UNL A   1       3.196   1.517  40.997  1.00  0.00    +0.000 H 
ATOM     31  C27 UNL A   1       3.520   2.529  40.872  1.00  0.00    +0.000 C 
ATOM    128  H30 UNL A   1       3.059   3.203  41.564  1.00  0.00    +0.000 H 
BRANCH   31   30
ATOM    126  H28 UNL A   1       2.838   2.110  38.932  1.00  0.00    +0.000 H 
ATOM    125  H27 UNL A   1       3.936   3.518  39.040  1.00  0.00    +0.000 H 
ATOM     30  C26 UNL A   1       3.109   2.993  39.471  1.00  0.00    +0.000 C 
BRANCH   30   29
ATOM    123  H25 UNL A   1       1.989   4.640  40.207  1.00  0.00    +0.000 H 
ATOM    124  H26 UNL A   1       1.868   4.346  38.449  1.00  0.00    +0.000 H 
ATOM     29  C25 UNL A   1       1.887   3.913  39.428  1.00  0.00    +0.000 C 
BRANCH   29   28
ATOM    121  H23 UNL A   1       0.515   2.355  38.955  1.00  0.00    +0.000 H 
ATOM    122  H24 UNL A   1       0.477   2.923  40.643  1.00  0.00    +0.000 H 
ATOM     28  C24 UNL A   1       0.541   3.200  39.612  1.00  0.00    +0.000 C 
BRANCH   28   27
ATOM     27  C23 UNL A   1      -0.674   4.075  39.314  1.00  0.00    +0.000 C 
ATOM    119  H21 UNL A   1      -1.344   3.536  38.679  1.00  0.00    +0.000 H 
ATOM    120  H22 UNL A   1      -1.145   4.321  40.243  1.00  0.00    +0.000 H 
BRANCH   27   26
ATOM     26  N3  UNL A   1      -0.290   5.310  38.657  1.00  0.00    +0.000 N 
ATOM    118  H20 UNL A   1       0.511   5.750  39.023  1.00  0.00    +0.000 H 
BRANCH   26   24
ATOM     25  O1  UNL A   1      -1.800   6.733  37.853  1.00  0.00    +0.000 O 
ATOM     24  C22 UNL A   1      -0.880   5.949  37.604  1.00  0.00    +0.000 C 
BRANCH   24   23
ATOM    116  H18 UNL A   1      -1.266   5.079  35.716  1.00  0.00    +0.000 H 
ATOM    117  H19 UNL A   1      -0.305   6.579  35.693  1.00  0.00    +0.000 H 
ATOM     23  C21 UNL A   1      -0.477   5.639  36.174  1.00  0.00    +0.000 C 
BRANCH   23   22
ATOM      2  C2  UNL A   1       4.745   6.040  35.850  1.00  0.00    +0.000 C 
ATOM      3  C3  UNL A   1       3.826   7.030  36.197  1.00  0.00    +0.000 C 
ATOM      4  C4  UNL A   1       2.465   6.741  36.336  1.00  0.00    +0.000 C 
ATOM      5  C5  UNL A   1       2.030   5.425  36.095  1.00  0.00    +0.000 C 
ATOM      6  C6  UNL A   1       2.932   4.405  35.788  1.00  0.00    +0.000 C 
ATOM      7  C7  UNL A   1       4.304   4.721  35.661  1.00  0.00    +0.000 C 
ATOM    102  H4  UNL A   1       4.156   7.995  36.354  1.00  0.00    +0.000 H 
ATOM    104  H6  UNL A   1       4.984   3.980  35.429  1.00  0.00    +0.000 H 
ATOM    103  H5  UNL A   1       1.795   7.476  36.608  1.00  0.00    +0.000 H 
ATOM      8  C8  UNL A   1       2.180   3.201  35.663  1.00  0.00    +0.000 C 
ATOM     20  C19 UNL A   1       0.844   3.502  35.889  1.00  0.00    +0.000 C 
ATOM     22  N2  UNL A   1       0.758   4.873  36.053  1.00  0.00    +0.000 N 
BRANCH    2    1
ATOM      1  C1  UNL A   1       6.191   6.401  35.674  1.00  0.00    +0.000 C 
ATOM     99  H1  UNL A   1       6.393   6.570  34.637  1.00  0.00    +0.000 H 
ATOM    100  H2  UNL A   1       6.805   5.602  36.032  1.00  0.00    +0.000 H 
ATOM    101  H3  UNL A   1       6.407   7.292  36.228  1.00  0.00    +0.000 H 
ENDBRANCH    2    1
BRANCH    8    9
ATOM      9  C9  UNL A   1       2.646   1.854  35.354  1.00  0.00    +0.000 C 
ATOM     10  C10 UNL A   1       3.054   1.045  36.411  1.00  0.00    +0.000 C 
ATOM     11  C11 UNL A   1       3.443  -0.242  36.119  1.00  0.00    +0.000 C 
ATOM    105  H7  UNL A   1       3.063   1.398  37.380  1.00  0.00    +0.000 H 
ATOM     13  C12 UNL A   1       3.065   0.010  33.835  1.00  0.00    +0.000 C 
ATOM    106  H8  UNL A   1       3.748  -0.846  36.898  1.00  0.00    +0.000 H 
ATOM     12  N1  UNL A   1       3.449  -0.762  34.873  1.00  0.00    +0.000 N 
ATOM     14  C13 UNL A   1       3.053  -0.511  32.531  1.00  0.00    +0.000 C 
ATOM    112  H14 UNL A   1       2.007   3.106  33.041  1.00  0.00    +0.000 H 
ATOM     18  C17 UNL A   1       2.294   2.124  32.902  1.00  0.00    +0.000 C 
ATOM     19  C18 UNL A   1       2.662   1.351  34.027  1.00  0.00    +0.000 C 
ATOM     17  C16 UNL A   1       2.306   1.603  31.616  1.00  0.00    +0.000 C 
ATOM    111  H13 UNL A   1       2.039   2.190  30.809  1.00  0.00    +0.000 H 
ATOM     16  C15 UNL A   1       2.681   0.284  31.431  1.00  0.00    +0.000 C 
ATOM    110  H12 UNL A   1       2.689  -0.119  30.481  1.00  0.00    +0.000 H 
BRANCH   14   15
ATOM    107  H9  UNL A   1       3.434  -2.110  31.193  1.00  0.00    +0.000 H 
ATOM    108  H10 UNL A   1       2.718  -2.595  32.712  1.00  0.00    +0.000 H 
ATOM    109  H11 UNL A   1       4.404  -2.139  32.646  1.00  0.00    +0.000 H 
ATOM     15  C14 UNL A   1       3.430  -1.942  32.250  1.00  0.00    +0.000 C 
ENDBRANCH   14   15
ENDBRANCH    8    9
BRANCH   20   21
ATOM    113  H15 UNL A   1      -0.482   2.209  36.896  1.00  0.00    +0.000 H 
ATOM    114  H16 UNL A   1      -0.163   1.769  35.235  1.00  0.00    +0.000 H 
ATOM    115  H17 UNL A   1      -1.209   3.122  35.596  1.00  0.00    +0.000 H 
ATOM     21  C20 UNL A   1      -0.336   2.585  35.905  1.00  0.00    +0.000 C 
ENDBRANCH   20   21
ENDBRANCH   23   22
ENDBRANCH   24   23
ENDBRANCH   26   24
ENDBRANCH   27   26
ENDBRANCH   28   27
ENDBRANCH   29   28
ENDBRANCH   30   29
ENDBRANCH   31   30
ENDBRANCH   32   31
ENDBRANCH   33   32
ENDBRANCH   34   33
ENDBRANCH   36   34
ENDBRANCH   40   39
BRANCH   44   45
ATOM     45  C38 UNL A   1       8.141  14.032  36.102  1.00  0.00    +0.000 C 
ATOM     46  C39 UNL A   1       9.232  14.923  36.040  1.00  0.00    +0.000 C 
ATOM     47  F1  UNL A   1      10.162  14.933  37.007  1.00  0.00    +0.000 F 
ATOM     48  C40 UNL A   1       9.345  15.885  35.033  1.00  0.00    +0.000 C 
ATOM     49  F2  UNL A   1      10.334  16.788  35.083  1.00  0.00    +0.000 F 
ATOM     50  C41 UNL A   1       8.405  15.956  34.021  1.00  0.00    +0.000 C 
ATOM     51  F3  UNL A   1       8.479  16.914  33.089  1.00  0.00    +0.000 F 
ATOM     52  C42 UNL A   1       7.358  15.059  34.010  1.00  0.00    +0.000 C 
ATOM     53  F4  UNL A   1       6.426  15.124  33.048  1.00  0.00    +0.000 F 
ATOM     54  C43 UNL A   1       7.214  14.132  35.043  1.00  0.00    +0.000 C 
ATOM     55  F5  UNL A   1       6.082  13.419  35.022  1.00  0.00    +0.000 F 
ENDBRANCH   44   45
BRANCH   61   62
ATOM     65  C51 UNL A   1       3.791  12.973  43.615  1.00  0.00    +0.000 C 
ATOM     66  F7  UNL A   1       3.663  11.748  44.148  1.00  0.00    +0.000 F 
ATOM     67  C52 UNL A   1       3.652  14.092  44.420  1.00  0.00    +0.000 C 
ATOM     68  F8  UNL A   1       3.399  13.951  45.730  1.00  0.00    +0.000 F 
ATOM     69  C53 UNL A   1       3.809  15.356  43.875  1.00  0.00    +0.000 C 
ATOM     70  F9  UNL A   1       3.728  16.439  44.661  1.00  0.00    +0.000 F 
ATOM     71  C54 UNL A   1       4.084  15.505  42.519  1.00  0.00    +0.000 C 
ATOM     72  F10 UNL A   1       4.258  16.742  42.028  1.00  0.00    +0.000 F 
ATOM     62  C49 UNL A   1       4.234  14.390  41.683  1.00  0.00    +0.000 C 
ATOM     63  C50 UNL A   1       4.105  13.118  42.265  1.00  0.00    +0.000 C 
ATOM     64  F6  UNL A   1       4.339  12.009  41.549  1.00  0.00    +0.000 F 
ENDBRANCH   61   62
BRANCH   76   77
ATOM     77  C58 UNL A   1      -0.123  12.426  37.548  1.00  0.00    +0.000 C 
ATOM     78  C59 UNL A   1      -1.100  13.389  37.846  1.00  0.00    +0.000 C 
ATOM     79  F11 UNL A   1      -0.992  14.141  38.952  1.00  0.00    +0.000 F 
ATOM     80  C60 UNL A   1      -2.162  13.649  36.975  1.00  0.00    +0.000 C 
ATOM     81  F12 UNL A   1      -3.035  14.625  37.258  1.00  0.00    +0.000 F 
ATOM     82  C61 UNL A   1      -2.282  12.945  35.787  1.00  0.00    +0.000 C 
ATOM     83  F13 UNL A   1      -3.260  13.240  34.920  1.00  0.00    +0.000 F 
ATOM     84  C62 UNL A   1      -1.357  11.965  35.482  1.00  0.00    +0.000 C 
ATOM     85  F14 UNL A   1      -1.443  11.300  34.322  1.00  0.00    +0.000 F 
ATOM     86  C63 UNL A   1      -0.292  11.711  36.347  1.00  0.00    +0.000 C 
ATOM     87  F15 UNL A   1       0.622  10.820  35.939  1.00  0.00    +0.000 F 
ENDBRANCH   76   77
TORSDOF 20
ENDMDL
MODEL 8
REMARK VINA RESULT:      -8.9     41.044     46.394
ROOT
ATOM    134  H36 UNL A   1      12.327  -3.116  25.449  1.00  0.00    +0.000 H 
ATOM    135  H37 UNL A   1       9.835  -3.202  26.389  1.00  0.00    +0.000 H 
ATOM    136  H38 UNL A   1      11.621   0.162  27.672  1.00  0.00    +0.000 H 
ATOM    137  H39 UNL A   1       5.995   3.301  22.411  1.00  0.00    +0.000 H 
ATOM    138  H40 UNL A   1       7.198   1.693  20.841  1.00  0.00    +0.000 H 
ATOM    139  H41 UNL A   1       9.261   1.678  24.448  1.00  0.00    +0.000 H 
ATOM    140  H42 UNL A   1       9.718   4.107  26.459  1.00  0.00    +0.000 H 
ATOM    141  H43 UNL A   1      10.729   1.921  27.374  1.00  0.00    +0.000 H 
ATOM    142  H44 UNL A   1      14.197   1.018  22.862  1.00  0.00    +0.000 H 
ATOM    143  H45 UNL A   1      12.381   1.779  21.209  1.00  0.00    +0.000 H 
ATOM     40  C34 UNL A   1       9.773   0.819  21.881  1.00  0.00    +0.000 C 
ATOM     41  C35 UNL A   1      11.043   0.641  22.643  1.00  0.00    +0.000 C 
ATOM     42  N5  UNL A   1      11.241  -0.052  23.722  1.00  0.00    +0.000 N 
ATOM     43  C36 UNL A   1      12.579   0.142  24.062  1.00  0.00    +0.000 C 
ATOM     44  C37 UNL A   1      13.059  -0.132  25.307  1.00  0.00    +0.000 C 
ATOM     56  C44 UNL A   1      12.201  -1.030  26.028  1.00  0.00    +0.000 C 
ATOM     57  C45 UNL A   1      11.788  -2.335  25.858  1.00  0.00    +0.000 C 
ATOM     58  C46 UNL A   1      10.457  -2.378  26.369  1.00  0.00    +0.000 C 
ATOM     59  C47 UNL A   1      10.152  -1.099  26.834  1.00  0.00    +0.000 C 
ATOM     60  N6  UNL A   1      11.378  -0.509  26.994  1.00  0.00    +0.000 N 
ATOM     61  C48 UNL A   1       8.902  -0.398  26.998  1.00  0.00    +0.000 C 
ATOM     73  C55 UNL A   1       8.778   0.960  27.006  1.00  0.00    +0.000 C 
ATOM     74  N7  UNL A   1       7.590   1.567  26.628  1.00  0.00    +0.000 N 
ATOM     75  C56 UNL A   1       7.942   2.737  26.172  1.00  0.00    +0.000 C 
ATOM     76  C57 UNL A   1       7.251   3.432  25.059  1.00  0.00    +0.000 C 
ATOM     88  C64 UNL A   1       7.513   2.742  23.924  1.00  0.00    +0.000 C 
ATOM     89  C65 UNL A   1       6.842   2.758  22.640  1.00  0.00    +0.000 C 
ATOM     90  C66 UNL A   1       7.507   1.944  21.793  1.00  0.00    +0.000 C 
ATOM     91  C67 UNL A   1       8.733   1.472  22.436  1.00  0.00    +0.000 C 
ATOM     92  N8  UNL A   1       8.626   1.915  23.734  1.00  0.00    +0.000 N 
ATOM     93  C68 UNL A   1       9.276   3.178  26.543  1.00  0.00    +0.000 C 
ATOM     94  C69 UNL A   1       9.764   2.034  27.027  1.00  0.00    +0.000 C 
ATOM     95  C70 UNL A   1      13.185   0.839  22.956  1.00  0.00    +0.000 C 
ATOM     96  C71 UNL A   1      12.265   1.222  22.071  1.00  0.00    +0.000 C 
ENDROOT
BRANCH   40   39
ATOM     97  C72 UNL A   1      10.327   0.938  19.434  1.00  0.00    +0.000 C 
ATOM     98  C73 UNL A   1      10.221   0.373  18.165  1.00  0.00    +0.000 C 
ATOM     36  C30 UNL A   1       9.591  -0.871  17.970  1.00  0.00    +0.000 C 
ATOM     37  C31 UNL A   1       9.159  -1.572  19.093  1.00  0.00    +0.000 C 
ATOM    132  H34 UNL A   1       8.789  -2.531  18.987  1.00  0.00    +0.000 H 
ATOM     38  C32 UNL A   1       9.219  -0.995  20.355  1.00  0.00    +0.000 C 
ATOM    133  H35 UNL A   1       8.856  -1.509  21.172  1.00  0.00    +0.000 H 
ATOM     39  C33 UNL A   1       9.770   0.277  20.524  1.00  0.00    +0.000 C 
ATOM    144  H46 UNL A   1      10.815   1.839  19.565  1.00  0.00    +0.000 H 
ATOM    145  H47 UNL A   1      10.609   0.876  17.353  1.00  0.00    +0.000 H 
BRANCH   36   34
ATOM     34  C29 UNL A   1       9.386  -1.298  16.557  1.00  0.00    +0.000 C 
ATOM     35  O2  UNL A   1      10.234  -0.983  15.717  1.00  0.00    +0.000 O 
BRANCH   34   33
ATOM     33  N4  UNL A   1       8.289  -1.970  16.091  1.00  0.00    +0.000 N 
ATOM    131  H33 UNL A   1       7.632  -1.374  15.662  1.00  0.00    +0.000 H 
BRANCH   33   32
ATOM    129  H31 UNL A   1       7.065  -3.473  16.772  1.00  0.00    +0.000 H 
ATOM    130  H32 UNL A   1       7.599  -3.597  15.079  1.00  0.00    +0.000 H 
ATOM     32  C28 UNL A   1       7.876  -3.359  16.084  1.00  0.00    +0.000 C 
BRANCH   32   31
ATOM    127  H29 UNL A   1       9.360  -4.798  15.593  1.00  0.00    +0.000 H 
ATOM     31  C27 UNL A   1       8.986  -4.336  16.482  1.00  0.00    +0.000 C 
ATOM    128  H30 UNL A   1       9.728  -3.762  16.998  1.00  0.00    +0.000 H 
BRANCH   31   30
ATOM    126  H28 UNL A   1       8.834  -6.366  16.994  1.00  0.00    +0.000 H 
ATOM    125  H27 UNL A   1       7.485  -5.353  17.588  1.00  0.00    +0.000 H 
ATOM     30  C26 UNL A   1       8.543  -5.442  17.445  1.00  0.00    +0.000 C 
BRANCH   30   29
ATOM    123  H25 UNL A   1       9.042  -4.442  19.251  1.00  0.00    +0.000 H 
ATOM    124  H26 UNL A   1       8.777  -6.203  19.390  1.00  0.00    +0.000 H 
ATOM     29  C25 UNL A   1       9.212  -5.407  18.821  1.00  0.00    +0.000 C 
BRANCH   29   28
ATOM    121  H23 UNL A   1      10.888  -6.718  18.891  1.00  0.00    +0.000 H 
ATOM    122  H24 UNL A   1      11.095  -5.262  17.885  1.00  0.00    +0.000 H 
ATOM     28  C24 UNL A   1      10.724  -5.663  18.804  1.00  0.00    +0.000 C 
BRANCH   28   27
ATOM     27  C23 UNL A   1      11.487  -4.967  19.929  1.00  0.00    +0.000 C 
ATOM    119  H21 UNL A   1      12.131  -5.677  20.404  1.00  0.00    +0.000 H 
ATOM    120  H22 UNL A   1      12.053  -4.165  19.504  1.00  0.00    +0.000 H 
BRANCH   27   26
ATOM     26  N3  UNL A   1      10.584  -4.414  20.920  1.00  0.00    +0.000 N 
ATOM    118  H20 UNL A   1       9.626  -4.573  20.752  1.00  0.00    +0.000 H 
BRANCH   26   24
ATOM     25  O1  UNL A   1      12.057  -3.477  22.299  1.00  0.00    +0.000 O 
ATOM     24  C22 UNL A   1      10.870  -3.704  22.050  1.00  0.00    +0.000 C 
BRANCH   24   23
ATOM    116  H18 UNL A   1      10.230  -2.935  23.913  1.00  0.00    +0.000 H 
ATOM    117  H19 UNL A   1       9.204  -2.525  22.516  1.00  0.00    +0.000 H 
ATOM     23  C21 UNL A   1       9.773  -3.284  23.011  1.00  0.00    +0.000 C 
BRANCH   23   22
ATOM      2  C2  UNL A   1       4.852  -4.985  22.351  1.00  0.00    +0.000 C 
ATOM      3  C3  UNL A   1       5.514  -3.973  21.656  1.00  0.00    +0.000 C 
ATOM      4  C4  UNL A   1       6.866  -3.701  21.882  1.00  0.00    +0.000 C 
ATOM      5  C5  UNL A   1       7.551  -4.458  22.849  1.00  0.00    +0.000 C 
ATOM      6  C6  UNL A   1       6.927  -5.505  23.530  1.00  0.00    +0.000 C 
ATOM      7  C7  UNL A   1       5.561  -5.765  23.278  1.00  0.00    +0.000 C 
ATOM    102  H4  UNL A   1       4.994  -3.414  20.960  1.00  0.00    +0.000 H 
ATOM    104  H6  UNL A   1       5.083  -6.532  23.777  1.00  0.00    +0.000 H 
ATOM    103  H5  UNL A   1       7.350  -2.961  21.351  1.00  0.00    +0.000 H 
ATOM      8  C8  UNL A   1       7.904  -6.094  24.384  1.00  0.00    +0.000 C 
ATOM     20  C19 UNL A   1       9.096  -5.401  24.218  1.00  0.00    +0.000 C 
ATOM     22  N2  UNL A   1       8.839  -4.351  23.355  1.00  0.00    +0.000 N 
BRANCH    2    1
ATOM      1  C1  UNL A   1       3.390  -5.220  22.105  1.00  0.00    +0.000 C 
ATOM     99  H1  UNL A   1       3.244  -5.525  21.091  1.00  0.00    +0.000 H 
ATOM    100  H2  UNL A   1       2.848  -4.316  22.288  1.00  0.00    +0.000 H 
ATOM    101  H3  UNL A   1       3.037  -5.988  22.763  1.00  0.00    +0.000 H 
ENDBRANCH    2    1
BRANCH    8    9
ATOM      9  C9  UNL A   1       7.765  -7.218  25.302  1.00  0.00    +0.000 C 
ATOM     10  C10 UNL A   1       7.667  -6.942  26.663  1.00  0.00    +0.000 C 
ATOM     11  C11 UNL A   1       7.484  -8.002  27.520  1.00  0.00    +0.000 C 
ATOM    105  H7  UNL A   1       7.729  -5.974  27.017  1.00  0.00    +0.000 H 
ATOM     13  C12 UNL A   1       7.493  -9.575  25.803  1.00  0.00    +0.000 C 
ATOM    106  H8  UNL A   1       7.413  -7.804  28.531  1.00  0.00    +0.000 H 
ATOM     12  N1  UNL A   1       7.392  -9.287  27.118  1.00  0.00    +0.000 N 
ATOM     14  C13 UNL A   1       7.390 -10.903  25.359  1.00  0.00    +0.000 C 
ATOM    112  H14 UNL A   1       7.980  -8.176  22.781  1.00  0.00    +0.000 H 
ATOM     18  C17 UNL A   1       7.823  -8.917  23.481  1.00  0.00    +0.000 C 
ATOM     19  C18 UNL A   1       7.698  -8.559  24.843  1.00  0.00    +0.000 C 
ATOM     17  C16 UNL A   1       7.740 -10.236  23.058  1.00  0.00    +0.000 C 
ATOM    111  H13 UNL A   1       7.841 -10.474  22.058  1.00  0.00    +0.000 H 
ATOM     16  C15 UNL A   1       7.519 -11.228  23.996  1.00  0.00    +0.000 C 
ATOM    110  H12 UNL A   1       7.449 -12.214  23.695  1.00  0.00    +0.000 H 
BRANCH   14   15
ATOM    107  H9  UNL A   1       6.353 -11.761  26.996  1.00  0.00    +0.000 H 
ATOM    108  H10 UNL A   1       8.026 -12.249  26.867  1.00  0.00    +0.000 H 
ATOM    109  H11 UNL A   1       6.836 -12.907  25.769  1.00  0.00    +0.000 H 
ATOM     15  C14 UNL A   1       7.132 -12.037  26.317  1.00  0.00    +0.000 C 
ENDBRANCH   14   15
ENDBRANCH    8    9
BRANCH   20   21
ATOM    113  H15 UNL A   1      10.352  -6.488  25.515  1.00  0.00    +0.000 H 
ATOM    114  H16 UNL A   1      10.716  -4.782  25.416  1.00  0.00    +0.000 H 
ATOM    115  H17 UNL A   1      11.153  -5.847  24.101  1.00  0.00    +0.000 H 
ATOM     21  C20 UNL A   1      10.423  -5.647  24.858  1.00  0.00    +0.000 C 
ENDBRANCH   20   21
ENDBRANCH   23   22
ENDBRANCH   24   23
ENDBRANCH   26   24
ENDBRANCH   27   26
ENDBRANCH   28   27
ENDBRANCH   29   28
ENDBRANCH   30   29
ENDBRANCH   31   30
ENDBRANCH   32   31
ENDBRANCH   33   32
ENDBRANCH   34   33
ENDBRANCH   36   34
ENDBRANCH   40   39
BRANCH   44   45
ATOM     45  C38 UNL A   1      14.152   0.654  25.990  1.00  0.00    +0.000 C 
ATOM     46  C39 UNL A   1      15.440   0.093  26.117  1.00  0.00    +0.000 C 
ATOM     47  F1  UNL A   1      15.776  -1.010  25.432  1.00  0.00    +0.000 F 
ATOM     48  C40 UNL A   1      16.381   0.599  27.018  1.00  0.00    +0.000 C 
ATOM     49  F2  UNL A   1      17.546  -0.038  27.191  1.00  0.00    +0.000 F 
ATOM     50  C41 UNL A   1      16.091   1.715  27.782  1.00  0.00    +0.000 C 
ATOM     51  F3  UNL A   1      16.968   2.166  28.688  1.00  0.00    +0.000 F 
ATOM     52  C42 UNL A   1      14.866   2.330  27.640  1.00  0.00    +0.000 C 
ATOM     53  F4  UNL A   1      14.560   3.401  28.386  1.00  0.00    +0.000 F 
ATOM     54  C43 UNL A   1      13.905   1.796  26.780  1.00  0.00    +0.000 C 
ATOM     55  F5  UNL A   1      12.699   2.374  26.835  1.00  0.00    +0.000 F 
ENDBRANCH   44   45
BRANCH   61   62
ATOM     65  C51 UNL A   1       5.700  -2.355  27.775  1.00  0.00    +0.000 C 
ATOM     66  F7  UNL A   1       5.020  -2.814  28.837  1.00  0.00    +0.000 F 
ATOM     67  C52 UNL A   1       5.175  -2.507  26.502  1.00  0.00    +0.000 C 
ATOM     68  F8  UNL A   1       3.985  -3.101  26.332  1.00  0.00    +0.000 F 
ATOM     69  C53 UNL A   1       5.865  -2.010  25.408  1.00  0.00    +0.000 C 
ATOM     70  F9  UNL A   1       5.335  -2.107  24.181  1.00  0.00    +0.000 F 
ATOM     71  C54 UNL A   1       7.095  -1.382  25.583  1.00  0.00    +0.000 C 
ATOM     72  F10 UNL A   1       7.725  -0.887  24.506  1.00  0.00    +0.000 F 
ATOM     62  C49 UNL A   1       7.647  -1.211  26.860  1.00  0.00    +0.000 C 
ATOM     63  C50 UNL A   1       6.912  -1.692  27.956  1.00  0.00    +0.000 C 
ATOM     64  F6  UNL A   1       7.330  -1.471  29.211  1.00  0.00    +0.000 F 
ENDBRANCH   61   62
BRANCH   76   77
ATOM     77  C58 UNL A   1       6.736   4.814  25.186  1.00  0.00    +0.000 C 
ATOM     78  C59 UNL A   1       5.684   5.110  26.068  1.00  0.00    +0.000 C 
ATOM     79  F11 UNL A   1       4.977   4.119  26.631  1.00  0.00    +0.000 F 
ATOM     80  C60 UNL A   1       5.393   6.423  26.446  1.00  0.00    +0.000 C 
ATOM     81  F12 UNL A   1       4.429   6.661  27.347  1.00  0.00    +0.000 F 
ATOM     82  C61 UNL A   1       6.137   7.479  25.943  1.00  0.00    +0.000 C 
ATOM     83  F13 UNL A   1       5.902   8.732  26.357  1.00  0.00    +0.000 F 
ATOM     84  C62 UNL A   1       7.155   7.225  25.044  1.00  0.00    +0.000 C 
ATOM     85  F14 UNL A   1       7.903   8.233  24.575  1.00  0.00    +0.000 F 
ATOM     86  C63 UNL A   1       7.452   5.913  24.673  1.00  0.00    +0.000 C 
ATOM     87  F15 UNL A   1       8.516   5.733  23.878  1.00  0.00    +0.000 F 
ENDBRANCH   76   77
TORSDOF 20
ENDMDL
MODEL 9
REMARK VINA RESULT:      -8.9      3.978     10.502
ROOT
ATOM    134  H36 UNL A   1      42.888  31.766  33.355  1.00  0.00    +0.000 H 
ATOM    135  H37 UNL A   1      44.527  32.138  31.287  1.00  0.00    +0.000 H 
ATOM    136  H38 UNL A   1      44.752  28.309  32.486  1.00  0.00    +0.000 H 
ATOM    137  H39 UNL A   1      41.022  27.411  25.106  1.00  0.00    +0.000 H 
ATOM    138  H40 UNL A   1      39.401  29.038  26.209  1.00  0.00    +0.000 H 
ATOM    139  H41 UNL A   1      42.200  27.943  29.078  1.00  0.00    +0.000 H 
ATOM    140  H42 UNL A   1      43.634  25.121  29.446  1.00  0.00    +0.000 H 
ATOM    141  H43 UNL A   1      44.496  26.848  31.152  1.00  0.00    +0.000 H 
ATOM    142  H44 UNL A   1      39.325  27.948  33.444  1.00  0.00    +0.000 H 
ATOM    143  H45 UNL A   1      38.198  27.891  31.133  1.00  0.00    +0.000 H 
ATOM     40  C34 UNL A   1      39.738  29.180  29.097  1.00  0.00    +0.000 C 
ATOM     41  C35 UNL A   1      40.106  28.957  30.526  1.00  0.00    +0.000 C 
ATOM     42  N5  UNL A   1      41.161  29.371  31.156  1.00  0.00    +0.000 N 
ATOM     43  C36 UNL A   1      41.059  28.861  32.450  1.00  0.00    +0.000 C 
ATOM     44  C37 UNL A   1      42.130  28.786  33.288  1.00  0.00    +0.000 C 
ATOM     56  C44 UNL A   1      43.189  29.670  32.887  1.00  0.00    +0.000 C 
ATOM     57  C45 UNL A   1      43.328  31.038  32.769  1.00  0.00    +0.000 C 
ATOM     58  C46 UNL A   1      44.211  31.231  31.667  1.00  0.00    +0.000 C 
ATOM     59  C47 UNL A   1      44.568  29.968  31.195  1.00  0.00    +0.000 C 
ATOM     60  N6  UNL A   1      44.275  29.135  32.243  1.00  0.00    +0.000 N 
ATOM     61  C48 UNL A   1      44.998  29.501  29.901  1.00  0.00    +0.000 C 
ATOM     73  C55 UNL A   1      44.858  28.217  29.461  1.00  0.00    +0.000 C 
ATOM     74  N7  UNL A   1      44.771  27.936  28.107  1.00  0.00    +0.000 N 
ATOM     75  C56 UNL A   1      44.077  26.834  28.038  1.00  0.00    +0.000 C 
ATOM     76  C57 UNL A   1      43.135  26.519  26.936  1.00  0.00    +0.000 C 
ATOM     88  C64 UNL A   1      42.078  27.357  27.052  1.00  0.00    +0.000 C 
ATOM     89  C65 UNL A   1      41.062  27.725  26.087  1.00  0.00    +0.000 C 
ATOM     90  C66 UNL A   1      40.175  28.549  26.685  1.00  0.00    +0.000 C 
ATOM     91  C67 UNL A   1      40.482  28.640  28.111  1.00  0.00    +0.000 C 
ATOM     92  N8  UNL A   1      41.681  27.978  28.242  1.00  0.00    +0.000 N 
ATOM     93  C68 UNL A   1      43.971  26.082  29.276  1.00  0.00    +0.000 C 
ATOM     94  C69 UNL A   1      44.439  26.993  30.133  1.00  0.00    +0.000 C 
ATOM     95  C70 UNL A   1      39.738  28.295  32.564  1.00  0.00    +0.000 C 
ATOM     96  C71 UNL A   1      39.123  28.278  31.381  1.00  0.00    +0.000 C 
ENDROOT
BRANCH   40   39
ATOM     97  C72 UNL A   1      38.403  31.301  29.257  1.00  0.00    +0.000 C 
ATOM     98  C73 UNL A   1      37.189  31.956  29.059  1.00  0.00    +0.000 C 
ATOM     36  C30 UNL A   1      36.100  31.307  28.447  1.00  0.00    +0.000 C 
ATOM     37  C31 UNL A   1      36.295  30.019  27.954  1.00  0.00    +0.000 C 
ATOM    132  H34 UNL A   1      35.546  29.560  27.410  1.00  0.00    +0.000 H 
ATOM     38  C32 UNL A   1      37.485  29.344  28.189  1.00  0.00    +0.000 C 
ATOM    133  H35 UNL A   1      37.600  28.375  27.855  1.00  0.00    +0.000 H 
ATOM     39  C33 UNL A   1      38.530  29.971  28.873  1.00  0.00    +0.000 C 
ATOM    144  H46 UNL A   1      39.201  31.799  29.683  1.00  0.00    +0.000 H 
ATOM    145  H47 UNL A   1      37.085  32.935  29.369  1.00  0.00    +0.000 H 
BRANCH   36   34
ATOM     34  C29 UNL A   1      34.805  32.044  28.440  1.00  0.00    +0.000 C 
ATOM     35  O2  UNL A   1      34.122  32.025  27.412  1.00  0.00    +0.000 O 
BRANCH   34   33
ATOM     33  N4  UNL A   1      34.328  32.804  29.473  1.00  0.00    +0.000 N 
ATOM    131  H33 UNL A   1      33.966  32.260  30.210  1.00  0.00    +0.000 H 
BRANCH   33   32
ATOM    129  H31 UNL A   1      34.991  34.723  29.156  1.00  0.00    +0.000 H 
ATOM    130  H32 UNL A   1      33.247  34.531  29.455  1.00  0.00    +0.000 H 
ATOM     32  C28 UNL A   1      34.236  34.228  29.729  1.00  0.00    +0.000 C 
BRANCH   32   31
ATOM    127  H29 UNL A   1      34.539  35.666  31.264  1.00  0.00    +0.000 H 
ATOM     31  C27 UNL A   1      34.425  34.605  31.202  1.00  0.00    +0.000 C 
ATOM    128  H30 UNL A   1      33.561  34.247  31.722  1.00  0.00    +0.000 H 
BRANCH   31   30
ATOM    126  H28 UNL A   1      36.053  34.693  32.524  1.00  0.00    +0.000 H 
ATOM    125  H27 UNL A   1      36.313  33.638  31.103  1.00  0.00    +0.000 H 
ATOM     30  C26 UNL A   1      35.638  33.953  31.872  1.00  0.00    +0.000 C 
BRANCH   30   29
ATOM    123  H25 UNL A   1      35.577  32.981  33.759  1.00  0.00    +0.000 H 
ATOM    124  H26 UNL A   1      34.275  32.539  32.619  1.00  0.00    +0.000 H 
ATOM     29  C25 UNL A   1      35.318  32.741  32.749  1.00  0.00    +0.000 C 
BRANCH   29   28
ATOM    121  H23 UNL A   1      35.400  30.626  32.519  1.00  0.00    +0.000 H 
ATOM    122  H24 UNL A   1      36.345  31.562  31.334  1.00  0.00    +0.000 H 
ATOM     28  C24 UNL A   1      36.059  31.455  32.359  1.00  0.00    +0.000 C 
BRANCH   28   27
ATOM     27  C23 UNL A   1      37.340  31.208  33.151  1.00  0.00    +0.000 C 
ATOM    119  H21 UNL A   1      37.376  30.180  33.444  1.00  0.00    +0.000 H 
ATOM    120  H22 UNL A   1      38.173  31.455  32.527  1.00  0.00    +0.000 H 
BRANCH   27   26
ATOM     26  N3  UNL A   1      37.398  32.038  34.339  1.00  0.00    +0.000 N 
ATOM    118  H20 UNL A   1      36.598  32.007  34.914  1.00  0.00    +0.000 H 
BRANCH   26   24
ATOM     25  O1  UNL A   1      38.090  33.987  35.160  1.00  0.00    +0.000 O 
ATOM     24  C22 UNL A   1      38.400  32.857  34.775  1.00  0.00    +0.000 C 
BRANCH   24   23
ATOM    116  H18 UNL A   1      40.178  32.175  35.694  1.00  0.00    +0.000 H 
ATOM    117  H19 UNL A   1      39.891  31.586  34.037  1.00  0.00    +0.000 H 
ATOM     23  C21 UNL A   1      39.853  32.421  34.705  1.00  0.00    +0.000 C 
BRANCH   23   22
ATOM      2  C2  UNL A   1      41.961  34.290  30.277  1.00  0.00    +0.000 C 
ATOM      3  C3  UNL A   1      40.900  33.395  30.414  1.00  0.00    +0.000 C 
ATOM      4  C4  UNL A   1      40.385  33.067  31.672  1.00  0.00    +0.000 C 
ATOM      5  C5  UNL A   1      40.976  33.643  32.811  1.00  0.00    +0.000 C 
ATOM      6  C6  UNL A   1      42.010  34.574  32.703  1.00  0.00    +0.000 C 
ATOM      7  C7  UNL A   1      42.508  34.896  31.419  1.00  0.00    +0.000 C 
ATOM    102  H4  UNL A   1      40.487  32.967  29.571  1.00  0.00    +0.000 H 
ATOM    104  H6  UNL A   1      43.276  35.578  31.322  1.00  0.00    +0.000 H 
ATOM    103  H5  UNL A   1      39.590  32.416  31.762  1.00  0.00    +0.000 H 
ATOM      8  C8  UNL A   1      42.336  34.998  34.024  1.00  0.00    +0.000 C 
ATOM     20  C19 UNL A   1      41.508  34.322  34.910  1.00  0.00    +0.000 C 
ATOM     22  N2  UNL A   1      40.755  33.432  34.165  1.00  0.00    +0.000 N 
BRANCH    2    1
ATOM      1  C1  UNL A   1      42.509  34.587  28.912  1.00  0.00    +0.000 C 
ATOM     99  H1  UNL A   1      43.554  34.359  28.889  1.00  0.00    +0.000 H 
ATOM    100  H2  UNL A   1      42.364  35.622  28.686  1.00  0.00    +0.000 H 
ATOM    101  H3  UNL A   1      41.998  33.988  28.185  1.00  0.00    +0.000 H 
ENDBRANCH    2    1
BRANCH    8    9
ATOM      9  C9  UNL A   1      43.343  35.958  34.459  1.00  0.00    +0.000 C 
ATOM     10  C10 UNL A   1      42.941  37.273  34.678  1.00  0.00    +0.000 C 
ATOM     11  C11 UNL A   1      43.884  38.162  35.139  1.00  0.00    +0.000 C 
ATOM    105  H7  UNL A   1      41.969  37.569  34.501  1.00  0.00    +0.000 H 
ATOM     13  C12 UNL A   1      45.579  36.566  35.176  1.00  0.00    +0.000 C 
ATOM    106  H8  UNL A   1      43.593  39.139  35.300  1.00  0.00    +0.000 H 
ATOM     12  N1  UNL A   1      45.169  37.834  35.391  1.00  0.00    +0.000 N 
ATOM     14  C13 UNL A   1      46.908  36.197  35.441  1.00  0.00    +0.000 C 
ATOM    112  H14 UNL A   1      44.533  33.555  34.095  1.00  0.00    +0.000 H 
ATOM     18  C17 UNL A   1      45.179  34.273  34.458  1.00  0.00    +0.000 C 
ATOM     19  C18 UNL A   1      44.692  35.579  34.689  1.00  0.00    +0.000 C 
ATOM     17  C16 UNL A   1      46.500  33.927  34.705  1.00  0.00    +0.000 C 
ATOM    111  H13 UNL A   1      46.834  32.967  34.521  1.00  0.00    +0.000 H 
ATOM     16  C15 UNL A   1      47.363  34.888  35.200  1.00  0.00    +0.000 C 
ATOM    110  H12 UNL A   1      48.347  34.643  35.394  1.00  0.00    +0.000 H 
BRANCH   14   15
ATOM    107  H9  UNL A   1      47.681  37.368  37.030  1.00  0.00    +0.000 H 
ATOM    108  H10 UNL A   1      47.844  38.098  35.450  1.00  0.00    +0.000 H 
ATOM    109  H11 UNL A   1      48.890  36.777  35.915  1.00  0.00    +0.000 H 
ATOM     15  C14 UNL A   1      47.903  37.181  36.000  1.00  0.00    +0.000 C 
ENDBRANCH   14   15
ENDBRANCH    8    9
BRANCH   20   21
ATOM    113  H15 UNL A   1      42.419  34.494  36.803  1.00  0.00    +0.000 H 
ATOM    114  H16 UNL A   1      40.930  33.579  36.796  1.00  0.00    +0.000 H 
ATOM    115  H17 UNL A   1      40.887  35.321  36.660  1.00  0.00    +0.000 H 
ATOM     21  C20 UNL A   1      41.430  34.437  36.397  1.00  0.00    +0.000 C 
ENDBRANCH   20   21
ENDBRANCH   23   22
ENDBRANCH   24   23
ENDBRANCH   26   24
ENDBRANCH   27   26
ENDBRANCH   28   27
ENDBRANCH   29   28
ENDBRANCH   30   29
ENDBRANCH   31   30
ENDBRANCH   32   31
ENDBRANCH   33   32
ENDBRANCH   34   33
ENDBRANCH   36   34
ENDBRANCH   40   39
BRANCH   44   45
ATOM     45  C38 UNL A   1      42.345  27.686  34.299  1.00  0.00    +0.000 C 
ATOM     46  C39 UNL A   1      42.947  26.477  33.897  1.00  0.00    +0.000 C 
ATOM     47  F1  UNL A   1      43.550  26.376  32.703  1.00  0.00    +0.000 F 
ATOM     48  C40 UNL A   1      42.864  25.316  34.671  1.00  0.00    +0.000 C 
ATOM     49  F2  UNL A   1      43.346  24.160  34.193  1.00  0.00    +0.000 F 
ATOM     50  C41 UNL A   1      42.228  25.336  35.899  1.00  0.00    +0.000 C 
ATOM     51  F3  UNL A   1      42.097  24.213  36.616  1.00  0.00    +0.000 F 
ATOM     52  C42 UNL A   1      41.684  26.517  36.357  1.00  0.00    +0.000 C 
ATOM     53  F4  UNL A   1      41.046  26.551  37.536  1.00  0.00    +0.000 F 
ATOM     54  C43 UNL A   1      41.718  27.663  35.563  1.00  0.00    +0.000 C 
ATOM     55  F5  UNL A   1      41.025  28.708  36.030  1.00  0.00    +0.000 F 
ENDBRANCH   44   45
BRANCH   61   62
ATOM     65  C51 UNL A   1      44.768  32.209  27.199  1.00  0.00    +0.000 C 
ATOM     66  F7  UNL A   1      43.849  32.780  26.405  1.00  0.00    +0.000 F 
ATOM     67  C52 UNL A   1      46.071  32.682  27.196  1.00  0.00    +0.000 C 
ATOM     68  F8  UNL A   1      46.410  33.714  26.410  1.00  0.00    +0.000 F 
ATOM     69  C53 UNL A   1      47.014  32.109  28.034  1.00  0.00    +0.000 C 
ATOM     70  F9  UNL A   1      48.260  32.598  28.073  1.00  0.00    +0.000 F 
ATOM     71  C54 UNL A   1      46.662  31.044  28.860  1.00  0.00    +0.000 C 
ATOM     72  F10 UNL A   1      47.592  30.530  29.679  1.00  0.00    +0.000 F 
ATOM     62  C49 UNL A   1      45.351  30.550  28.886  1.00  0.00    +0.000 C 
ATOM     63  C50 UNL A   1      44.404  31.170  28.053  1.00  0.00    +0.000 C 
ATOM     64  F6  UNL A   1      43.112  30.817  28.104  1.00  0.00    +0.000 F 
ENDBRANCH   61   62
BRANCH   76   77
ATOM     77  C58 UNL A   1      43.219  25.264  26.156  1.00  0.00    +0.000 C 
ATOM     78  C59 UNL A   1      44.302  25.027  25.294  1.00  0.00    +0.000 C 
ATOM     79  F11 UNL A   1      45.149  26.020  24.985  1.00  0.00    +0.000 F 
ATOM     80  C60 UNL A   1      44.578  23.749  24.798  1.00  0.00    +0.000 C 
ATOM     81  F12 UNL A   1      45.662  23.547  24.037  1.00  0.00    +0.000 F 
ATOM     82  C61 UNL A   1      43.771  22.675  25.141  1.00  0.00    +0.000 C 
ATOM     83  F13 UNL A   1      44.073  21.439  24.722  1.00  0.00    +0.000 F 
ATOM     84  C62 UNL A   1      42.675  22.883  25.957  1.00  0.00    +0.000 C 
ATOM     85  F14 UNL A   1      41.906  21.848  26.323  1.00  0.00    +0.000 F 
ATOM     86  C63 UNL A   1      42.405  24.156  26.459  1.00  0.00    +0.000 C 
ATOM     87  F15 UNL A   1      41.388  24.264  27.326  1.00  0.00    +0.000 F 
ENDBRANCH   76   77
TORSDOF 20
ENDMDL
MODEL 10
REMARK VINA RESULT:      -8.8     38.678     44.186
ROOT
ATOM    134  H36 UNL A   1      12.625  -3.369  23.234  1.00  0.00    +0.000 H 
ATOM    135  H37 UNL A   1      12.111  -1.793  21.148  1.00  0.00    +0.000 H 
ATOM    136  H38 UNL A   1       8.672  -3.382  22.490  1.00  0.00    +0.000 H 
ATOM    137  H39 UNL A   1       7.608   4.603  24.563  1.00  0.00    +0.000 H 
ATOM    138  H40 UNL A   1       9.816   4.144  25.749  1.00  0.00    +0.000 H 
ATOM    139  H41 UNL A   1       8.474   0.534  24.191  1.00  0.00    +0.000 H 
ATOM    140  H42 UNL A   1       5.468  -0.485  23.904  1.00  0.00    +0.000 H 
ATOM    141  H43 UNL A   1       7.138  -2.181  22.916  1.00  0.00    +0.000 H 
ATOM    142  H44 UNL A   1      10.127  -2.874  27.794  1.00  0.00    +0.000 H 
ATOM    143  H45 UNL A   1       9.992  -0.363  28.330  1.00  0.00    +0.000 H 
ATOM     40  C34 UNL A   1      10.371   1.301  26.035  1.00  0.00    +0.000 C 
ATOM     41  C35 UNL A   1      10.311  -0.189  26.092  1.00  0.00    +0.000 C 
ATOM     42  N5  UNL A   1      10.499  -1.036  25.128  1.00  0.00    +0.000 N 
ATOM     43  C36 UNL A   1      10.285  -2.298  25.680  1.00  0.00    +0.000 C 
ATOM     44  C37 UNL A   1      10.047  -3.397  24.910  1.00  0.00    +0.000 C 
ATOM     56  C44 UNL A   1      10.487  -3.210  23.556  1.00  0.00    +0.000 C 
ATOM     57  C45 UNL A   1      11.706  -2.999  22.945  1.00  0.00    +0.000 C 
ATOM     58  C46 UNL A   1      11.424  -2.162  21.825  1.00  0.00    +0.000 C 
ATOM     59  C47 UNL A   1      10.048  -1.932  21.816  1.00  0.00    +0.000 C 
ATOM     60  N6  UNL A   1       9.545  -2.938  22.597  1.00  0.00    +0.000 N 
ATOM     61  C48 UNL A   1       9.248  -0.853  21.290  1.00  0.00    +0.000 C 
ATOM     73  C55 UNL A   1       8.007  -0.522  21.750  1.00  0.00    +0.000 C 
ATOM     74  N7  UNL A   1       7.524   0.771  21.623  1.00  0.00    +0.000 N 
ATOM     75  C56 UNL A   1       6.687   0.914  22.612  1.00  0.00    +0.000 C 
ATOM     76  C57 UNL A   1       6.473   2.193  23.334  1.00  0.00    +0.000 C 
ATOM     88  C64 UNL A   1       7.595   2.449  24.047  1.00  0.00    +0.000 C 
ATOM     89  C65 UNL A   1       8.068   3.683  24.639  1.00  0.00    +0.000 C 
ATOM     90  C66 UNL A   1       9.213   3.431  25.310  1.00  0.00    +0.000 C 
ATOM     91  C67 UNL A   1       9.465   1.991  25.315  1.00  0.00    +0.000 C 
ATOM     92  N8  UNL A   1       8.510   1.478  24.469  1.00  0.00    +0.000 N 
ATOM     93  C68 UNL A   1       6.237  -0.318  23.236  1.00  0.00    +0.000 C 
ATOM     94  C69 UNL A   1       7.106  -1.174  22.694  1.00  0.00    +0.000 C 
ATOM     95  C70 UNL A   1      10.169  -2.108  27.103  1.00  0.00    +0.000 C 
ATOM     96  C71 UNL A   1      10.123  -0.811  27.409  1.00  0.00    +0.000 C 
ENDROOT
BRANCH   40   39
ATOM     97  C72 UNL A   1      12.786   1.745  26.563  1.00  0.00    +0.000 C 
ATOM     98  C73 UNL A   1      13.728   2.323  27.412  1.00  0.00    +0.000 C 
ATOM     36  C30 UNL A   1      13.335   3.109  28.513  1.00  0.00    +0.000 C 
ATOM     37  C31 UNL A   1      11.977   3.375  28.678  1.00  0.00    +0.000 C 
ATOM    132  H34 UNL A   1      11.671   4.031  29.414  1.00  0.00    +0.000 H 
ATOM     38  C32 UNL A   1      11.032   2.765  27.865  1.00  0.00    +0.000 C 
ATOM    133  H35 UNL A   1      10.028   2.938  28.026  1.00  0.00    +0.000 H 
ATOM     39  C33 UNL A   1      11.432   1.920  26.828  1.00  0.00    +0.000 C 
ATOM    144  H46 UNL A   1      13.091   1.194  25.745  1.00  0.00    +0.000 H 
ATOM    145  H47 UNL A   1      14.732   2.172  27.232  1.00  0.00    +0.000 H 
BRANCH   36   34
ATOM     34  C29 UNL A   1      14.416   3.535  29.446  1.00  0.00    +0.000 C 
ATOM     35  O2  UNL A   1      15.559   3.109  29.256  1.00  0.00    +0.000 O 
BRANCH   34   33
ATOM     33  N4  UNL A   1      14.235   4.323  30.549  1.00  0.00    +0.000 N 
ATOM    131  H33 UNL A   1      14.063   3.801  31.366  1.00  0.00    +0.000 H 
BRANCH   33   32
ATOM    129  H31 UNL A   1      14.513   5.923  31.808  1.00  0.00    +0.000 H 
ATOM    130  H32 UNL A   1      14.940   6.181  30.099  1.00  0.00    +0.000 H 
ATOM     32  C28 UNL A   1      14.241   5.753  30.788  1.00  0.00    +0.000 C 
BRANCH   32   31
ATOM    127  H29 UNL A   1      12.119   5.709  30.697  1.00  0.00    +0.000 H 
ATOM     31  C27 UNL A   1      12.891   6.429  30.528  1.00  0.00    +0.000 C 
ATOM    128  H30 UNL A   1      12.836   7.266  31.194  1.00  0.00    +0.000 H 
BRANCH   31   30
ATOM    126  H28 UNL A   1      11.767   6.652  28.770  1.00  0.00    +0.000 H 
ATOM    125  H27 UNL A   1      13.538   6.628  28.516  1.00  0.00    +0.000 H 
ATOM     30  C26 UNL A   1      12.724   6.987  29.112  1.00  0.00    +0.000 C 
BRANCH   30   29
ATOM    123  H25 UNL A   1      13.005   8.792  28.029  1.00  0.00    +0.000 H 
ATOM    124  H26 UNL A   1      11.703   8.818  29.251  1.00  0.00    +0.000 H 
ATOM     29  C25 UNL A   1      12.703   8.514  29.017  1.00  0.00    +0.000 C 
BRANCH   29   28
ATOM    121  H23 UNL A   1      13.638   8.662  30.923  1.00  0.00    +0.000 H 
ATOM    122  H24 UNL A   1      14.581   9.305  29.556  1.00  0.00    +0.000 H 
ATOM     28  C24 UNL A   1      13.619   9.231  30.017  1.00  0.00    +0.000 C 
BRANCH   28   27
ATOM     27  C23 UNL A   1      13.181  10.654  30.354  1.00  0.00    +0.000 C 
ATOM    119  H21 UNL A   1      12.470  10.619  31.154  1.00  0.00    +0.000 H 
ATOM    120  H22 UNL A   1      14.047  11.212  30.640  1.00  0.00    +0.000 H 
BRANCH   27   26
ATOM     26  N3  UNL A   1      12.573  11.307  29.211  1.00  0.00    +0.000 N 
ATOM    118  H20 UNL A   1      12.352  10.715  28.456  1.00  0.00    +0.000 H 
BRANCH   26   24
ATOM     25  O1  UNL A   1      12.921  13.459  29.660  1.00  0.00    +0.000 O 
ATOM     24  C22 UNL A   1      12.263  12.625  29.032  1.00  0.00    +0.000 C 
BRANCH   24   23
ATOM    116  H18 UNL A   1      10.301  13.377  28.795  1.00  0.00    +0.000 H 
ATOM    117  H19 UNL A   1      11.455  13.815  27.511  1.00  0.00    +0.000 H 
ATOM     23  C21 UNL A   1      11.094  13.044  28.159  1.00  0.00    +0.000 C 
BRANCH   23   22
ATOM      2  C2  UNL A   1      11.715  10.657  23.526  1.00  0.00    +0.000 C 
ATOM      3  C3  UNL A   1      12.580  11.551  24.157  1.00  0.00    +0.000 C 
ATOM      4  C4  UNL A   1      12.319  12.029  25.444  1.00  0.00    +0.000 C 
ATOM      5  C5  UNL A   1      11.144  11.606  26.092  1.00  0.00    +0.000 C 
ATOM      6  C6  UNL A   1      10.282  10.679  25.504  1.00  0.00    +0.000 C 
ATOM      7  C7  UNL A   1      10.572  10.205  24.204  1.00  0.00    +0.000 C 
ATOM    102  H4  UNL A   1      13.430  11.866  23.663  1.00  0.00    +0.000 H 
ATOM    104  H6  UNL A   1       9.942   9.523  23.753  1.00  0.00    +0.000 H 
ATOM    103  H5  UNL A   1      12.973  12.678  25.908  1.00  0.00    +0.000 H 
ATOM      8  C8  UNL A   1       9.234  10.427  26.437  1.00  0.00    +0.000 C 
ATOM     20  C19 UNL A   1       9.468  11.201  27.567  1.00  0.00    +0.000 C 
ATOM     22  N2  UNL A   1      10.578  11.982  27.302  1.00  0.00    +0.000 N 
BRANCH    2    1
ATOM      1  C1  UNL A   1      12.013  10.197  22.129  1.00  0.00    +0.000 C 
ATOM     99  H1  UNL A   1      11.136  10.302  21.525  1.00  0.00    +0.000 H 
ATOM    100  H2  UNL A   1      12.314   9.171  22.147  1.00  0.00    +0.000 H 
ATOM    101  H3  UNL A   1      12.802  10.794  21.718  1.00  0.00    +0.000 H 
ENDBRANCH    2    1
BRANCH    8    9
ATOM      9  C9  UNL A   1       8.084   9.540  26.311  1.00  0.00    +0.000 C 
ATOM     10  C10 UNL A   1       7.014   9.964  25.527  1.00  0.00    +0.000 C 
ATOM     11  C11 UNL A   1       5.955   9.101  25.369  1.00  0.00    +0.000 C 
ATOM    105  H7  UNL A   1       7.017  10.894  25.080  1.00  0.00    +0.000 H 
ATOM     13  C12 UNL A   1       6.919   7.448  26.695  1.00  0.00    +0.000 C 
ATOM    106  H8  UNL A   1       5.157   9.410  24.791  1.00  0.00    +0.000 H 
ATOM     12  N1  UNL A   1       5.896   7.872  25.926  1.00  0.00    +0.000 N 
ATOM     14  C13 UNL A   1       6.886   6.169  27.277  1.00  0.00    +0.000 C 
ATOM    112  H14 UNL A   1       9.901   8.381  27.947  1.00  0.00    +0.000 H 
ATOM     18  C17 UNL A   1       9.081   7.782  27.768  1.00  0.00    +0.000 C 
ATOM     19  C18 UNL A   1       8.048   8.265  26.933  1.00  0.00    +0.000 C 
ATOM     17  C16 UNL A   1       9.026   6.524  28.353  1.00  0.00    +0.000 C 
ATOM    111  H13 UNL A   1       9.790   6.197  28.964  1.00  0.00    +0.000 H 
ATOM     16  C15 UNL A   1       7.930   5.717  28.103  1.00  0.00    +0.000 C 
ATOM    110  H12 UNL A   1       7.878   4.777  28.527  1.00  0.00    +0.000 H 
BRANCH   14   15
ATOM    107  H9  UNL A   1       5.191   5.538  26.173  1.00  0.00    +0.000 H 
ATOM    108  H10 UNL A   1       5.089   5.230  27.891  1.00  0.00    +0.000 H 
ATOM    109  H11 UNL A   1       6.114   4.236  26.883  1.00  0.00    +0.000 H 
ATOM     15  C14 UNL A   1       5.737   5.225  27.038  1.00  0.00    +0.000 C 
ENDBRANCH   14   15
ENDBRANCH    8    9
BRANCH   20   21
ATOM    113  H15 UNL A   1       8.493  10.282  29.195  1.00  0.00    +0.000 H 
ATOM    114  H16 UNL A   1       7.751  11.768  28.651  1.00  0.00    +0.000 H 
ATOM    115  H17 UNL A   1       9.238  11.817  29.569  1.00  0.00    +0.000 H 
ATOM     21  C20 UNL A   1       8.682  11.272  28.835  1.00  0.00    +0.000 C 
ENDBRANCH   20   21
ENDBRANCH   23   22
ENDBRANCH   24   23
ENDBRANCH   26   24
ENDBRANCH   27   26
ENDBRANCH   28   27
ENDBRANCH   29   28
ENDBRANCH   30   29
ENDBRANCH   31   30
ENDBRANCH   32   31
ENDBRANCH   33   32
ENDBRANCH   34   33
ENDBRANCH   36   34
ENDBRANCH   40   39
BRANCH   44   45
ATOM     45  C38 UNL A   1       9.135  -4.533  25.307  1.00  0.00    +0.000 C 
ATOM     46  C39 UNL A   1       9.548  -5.865  25.096  1.00  0.00    +0.000 C 
ATOM     47  F1  UNL A   1      10.822  -6.145  24.781  1.00  0.00    +0.000 F 
ATOM     48  C40 UNL A   1       8.644  -6.930  25.113  1.00  0.00    +0.000 C 
ATOM     49  F2  UNL A   1       9.059  -8.162  24.788  1.00  0.00    +0.000 F 
ATOM     50  C41 UNL A   1       7.308  -6.712  25.398  1.00  0.00    +0.000 C 
ATOM     51  F3  UNL A   1       6.430  -7.722  25.357  1.00  0.00    +0.000 F 
ATOM     52  C42 UNL A   1       6.878  -5.432  25.673  1.00  0.00    +0.000 C 
ATOM     53  F4  UNL A   1       5.583  -5.198  25.932  1.00  0.00    +0.000 F 
ATOM     54  C43 UNL A   1       7.767  -4.359  25.604  1.00  0.00    +0.000 C 
ATOM     55  F5  UNL A   1       7.218  -3.146  25.732  1.00  0.00    +0.000 F 
ENDBRANCH   44   45
BRANCH   61   62
ATOM     65  C51 UNL A   1      11.345   2.080  19.994  1.00  0.00    +0.000 C 
ATOM     66  F7  UNL A   1      11.991   3.158  20.466  1.00  0.00    +0.000 F 
ATOM     67  C52 UNL A   1      11.423   1.766  18.646  1.00  0.00    +0.000 C 
ATOM     68  F8  UNL A   1      12.149   2.532  17.818  1.00  0.00    +0.000 F 
ATOM     69  C53 UNL A   1      10.778   0.640  18.163  1.00  0.00    +0.000 C 
ATOM     70  F9  UNL A   1      10.894   0.303  16.872  1.00  0.00    +0.000 F 
ATOM     71  C54 UNL A   1      10.033  -0.164  19.023  1.00  0.00    +0.000 C 
ATOM     72  F10 UNL A   1       9.444  -1.263  18.529  1.00  0.00    +0.000 F 
ATOM     62  C49 UNL A   1       9.942   0.128  20.391  1.00  0.00    +0.000 C 
ATOM     63  C50 UNL A   1      10.633   1.256  20.863  1.00  0.00    +0.000 C 
ATOM     64  F6  UNL A   1      10.675   1.535  22.174  1.00  0.00    +0.000 F 
ENDBRANCH   61   62
BRANCH   76   77
ATOM     77  C58 UNL A   1       5.130   2.793  23.503  1.00  0.00    +0.000 C 
ATOM     78  C59 UNL A   1       4.420   3.285  22.396  1.00  0.00    +0.000 C 
ATOM     79  F11 UNL A   1       5.034   3.434  21.212  1.00  0.00    +0.000 F 
ATOM     80  C60 UNL A   1       3.051   3.556  22.466  1.00  0.00    +0.000 C 
ATOM     81  F12 UNL A   1       2.392   3.955  21.370  1.00  0.00    +0.000 F 
ATOM     82  C61 UNL A   1       2.356   3.356  23.648  1.00  0.00    +0.000 C 
ATOM     83  F13 UNL A   1       1.032   3.552  23.698  1.00  0.00    +0.000 F 
ATOM     84  C62 UNL A   1       3.034   2.908  24.767  1.00  0.00    +0.000 C 
ATOM     85  F14 UNL A   1       2.368   2.679  25.907  1.00  0.00    +0.000 F 
ATOM     86  C63 UNL A   1       4.399   2.628  24.695  1.00  0.00    +0.000 C 
ATOM     87  F15 UNL A   1       4.968   2.100  25.787  1.00  0.00    +0.000 F 
ENDBRANCH   76   77
TORSDOF 20
ENDMDL
