MODEL 1
REMARK VINA RESULT:      -6.8      0.000      0.000
ROOT
ATOM    163  H58 UNL A   1       8.631  36.414  -8.911  1.00  0.00    +0.000 H 
ATOM    164  H59 UNL A   1      10.176  36.800 -10.975  1.00  0.00    +0.000 H 
ATOM    165  H60 UNL A   1      11.017  33.064  -9.402  1.00  0.00    +0.000 H 
ATOM    166  H61 UNL A   1      14.505  27.708  -9.479  1.00  0.00    +0.000 H 
ATOM    167  H62 UNL A   1      12.957  27.312  -7.504  1.00  0.00    +0.000 H 
ATOM    168  H63 UNL A   1      12.062  31.048  -9.090  1.00  0.00    +0.000 H 
ATOM    169  H64 UNL A   1      15.080  31.650 -13.052  1.00  0.00    +0.000 H 
ATOM    170  H65 UNL A   1      14.125  34.015 -13.253  1.00  0.00    +0.000 H 
ATOM    171  H66 UNL A   1       7.873  32.260  -5.595  1.00  0.00    +0.000 H 
ATOM    172  H67 UNL A   1       9.192  30.141  -5.023  1.00  0.00    +0.000 H 
ATOM     47  C38 UNL A   1      11.188  29.480  -6.948  1.00  0.00    +0.000 C 
ATOM     48  C39 UNL A   1      10.334  30.717  -6.896  1.00  0.00    +0.000 C 
ATOM     49  N5  UNL A   1      10.318  31.748  -7.703  1.00  0.00    +0.000 N 
ATOM     50  C40 UNL A   1       9.314  32.583  -7.227  1.00  0.00    +0.000 C 
ATOM     51  C41 UNL A   1       8.956  33.810  -7.670  1.00  0.00    +0.000 C 
ATOM     63  C48 UNL A   1       9.588  34.485  -8.772  1.00  0.00    +0.000 C 
ATOM     64  C49 UNL A   1       9.327  35.747  -9.279  1.00  0.00    +0.000 C 
ATOM     65  C50 UNL A   1      10.169  35.961 -10.375  1.00  0.00    +0.000 C 
ATOM     66  C51 UNL A   1      10.992  34.856 -10.518  1.00  0.00    +0.000 C 
ATOM     67  N6  UNL A   1      10.616  33.952  -9.537  1.00  0.00    +0.000 N 
ATOM     68  C52 UNL A   1      12.046  34.642 -11.475  1.00  0.00    +0.000 C 
ATOM     80  C59 UNL A   1      12.793  33.514 -11.573  1.00  0.00    +0.000 C 
ATOM     81  N7  UNL A   1      12.743  32.362 -10.799  1.00  0.00    +0.000 N 
ATOM     82  C60 UNL A   1      13.656  31.559 -11.290  1.00  0.00    +0.000 C 
ATOM     83  C61 UNL A   1      14.075  30.191 -10.818  1.00  0.00    +0.000 C 
ATOM     95  C68 UNL A   1      13.477  29.663  -9.735  1.00  0.00    +0.000 C 
ATOM     96  C69 UNL A   1      13.783  28.363  -9.143  1.00  0.00    +0.000 C 
ATOM     97  C70 UNL A   1      12.971  28.159  -8.093  1.00  0.00    +0.000 C 
ATOM     98  C71 UNL A   1      12.112  29.330  -7.917  1.00  0.00    +0.000 C 
ATOM     99  N8  UNL A   1      12.477  30.168  -8.940  1.00  0.00    +0.000 N 
ATOM    100  C72 UNL A   1      14.361  32.097 -12.461  1.00  0.00    +0.000 C 
ATOM    101  C73 UNL A   1      13.833  33.309 -12.560  1.00  0.00    +0.000 C 
ATOM    102  C74 UNL A   1       8.702  31.912  -6.102  1.00  0.00    +0.000 C 
ATOM    103  C75 UNL A   1       9.344  30.792  -5.809  1.00  0.00    +0.000 C 
ENDROOT
BRANCH   47   46
ATOM    161  H56 UNL A   1      12.127  27.268  -3.001  1.00  0.00    +0.000 H 
ATOM    162  H57 UNL A   1      12.494  29.042  -4.616  1.00  0.00    +0.000 H 
ATOM    104  C76 UNL A   1       9.965  27.457  -6.156  1.00  0.00    +0.000 C 
ATOM    105  C77 UNL A   1       9.696  26.498  -5.187  1.00  0.00    +0.000 C 
ATOM     43  C34 UNL A   1      10.512  26.402  -4.055  1.00  0.00    +0.000 C 
ATOM     44  C35 UNL A   1      11.536  27.329  -3.845  1.00  0.00    +0.000 C 
ATOM     45  C36 UNL A   1      11.757  28.337  -4.783  1.00  0.00    +0.000 C 
ATOM    174  H69 UNL A   1       8.894  25.858  -5.300  1.00  0.00    +0.000 H 
ATOM    173  H68 UNL A   1       9.415  27.474  -7.030  1.00  0.00    +0.000 H 
ATOM     46  C37 UNL A   1      10.982  28.400  -5.953  1.00  0.00    +0.000 C 
BRANCH   43   41
ATOM     41  C33 UNL A   1      10.285  25.351  -3.044  1.00  0.00    +0.000 C 
ATOM     42  O4  UNL A   1      11.042  24.384  -2.983  1.00  0.00    +0.000 O 
BRANCH   41   40
ATOM    160  H55 UNL A   1       8.401  25.015  -2.456  1.00  0.00    +0.000 H 
ATOM     40  N4  UNL A   1       9.234  25.458  -2.174  1.00  0.00    +0.000 N 
BRANCH   40   39
ATOM    159  H54 UNL A   1      10.179  26.370  -0.591  1.00  0.00    +0.000 H 
ATOM    158  H53 UNL A   1       8.705  25.496  -0.178  1.00  0.00    +0.000 H 
ATOM     39  C32 UNL A   1       9.178  26.138  -0.891  1.00  0.00    +0.000 C 
BRANCH   39   38
ATOM    156  H51 UNL A   1       7.554  27.286  -1.621  1.00  0.00    +0.000 H 
ATOM    157  H52 UNL A   1       8.108  27.696   0.021  1.00  0.00    +0.000 H 
ATOM     38  C31 UNL A   1       8.394  27.442  -0.977  1.00  0.00    +0.000 C 
BRANCH   38   37
ATOM    154  H49 UNL A   1       9.360  29.316  -0.716  1.00  0.00    +0.000 H 
ATOM    155  H50 UNL A   1      10.113  28.215  -1.905  1.00  0.00    +0.000 H 
ATOM     37  C30 UNL A   1       9.204  28.624  -1.518  1.00  0.00    +0.000 C 
BRANCH   37   36
ATOM    153  H48 UNL A   1       9.253  29.398  -3.476  1.00  0.00    +0.000 H 
ATOM     36  C29 UNL A   1       8.541  29.379  -2.677  1.00  0.00    +0.000 C 
ATOM    152  H47 UNL A   1       8.276  30.357  -2.332  1.00  0.00    +0.000 H 
BRANCH   36   35
ATOM     35  C28 UNL A   1       7.281  28.708  -3.227  1.00  0.00    +0.000 C 
ATOM    150  H45 UNL A   1       7.523  28.237  -4.157  1.00  0.00    +0.000 H 
ATOM    151  H46 UNL A   1       6.949  28.000  -2.498  1.00  0.00    +0.000 H 
BRANCH   35   34
ATOM     34  C27 UNL A   1       6.139  29.695  -3.464  1.00  0.00    +0.000 C 
ATOM    148  H43 UNL A   1       6.182  30.465  -2.724  1.00  0.00    +0.000 H 
ATOM    149  H44 UNL A   1       6.244  30.113  -4.443  1.00  0.00    +0.000 H 
BRANCH   34   33
ATOM     33  N3  UNL A   1       4.851  29.021  -3.379  1.00  0.00    +0.000 N 
ATOM    147  H42 UNL A   1       4.607  28.495  -4.175  1.00  0.00    +0.000 H 
BRANCH   33   31
ATOM     31  C26 UNL A   1       3.923  29.002  -2.370  1.00  0.00    +0.000 C 
ATOM     32  O3  UNL A   1       3.218  27.995  -2.255  1.00  0.00    +0.000 O 
BRANCH   31    5
ATOM    115  H10 UNL A   1       4.449  31.030  -1.414  1.00  0.00    +0.000 H 
ATOM      5  C5  UNL A   1       3.775  30.199  -1.406  1.00  0.00    +0.000 C 
BRANCH    5    4
ATOM    113  H8  UNL A   1       2.215  30.584  -2.791  1.00  0.00    +0.000 H 
ATOM    114  H9  UNL A   1       1.813  30.699  -0.994  1.00  0.00    +0.000 H 
ATOM      4  C4  UNL A   1       2.464  30.933  -1.810  1.00  0.00    +0.000 C 
BRANCH    4    3
ATOM      3  C3  UNL A   1       2.375  32.457  -1.864  1.00  0.00    +0.000 C 
ATOM    111  H6  UNL A   1       3.334  32.826  -2.163  1.00  0.00    +0.000 H 
ATOM    112  H7  UNL A   1       1.578  32.665  -2.547  1.00  0.00    +0.000 H 
BRANCH    3    2
ATOM      2  C2  UNL A   1       1.987  33.177  -0.574  1.00  0.00    +0.000 C 
ATOM    109  H4  UNL A   1       2.865  33.620  -0.154  1.00  0.00    +0.000 H 
ATOM    110  H5  UNL A   1       1.250  33.911  -0.828  1.00  0.00    +0.000 H 
BRANCH    2    1
ATOM      1  C1  UNL A   1       1.369  32.256   0.461  1.00  0.00    +0.000 C 
ATOM    106  H1  UNL A   1       0.309  32.219   0.319  1.00  0.00    +0.000 H 
ATOM    107  H2  UNL A   1       1.585  32.625   1.441  1.00  0.00    +0.000 H 
ATOM    108  H3  UNL A   1       1.778  31.272   0.352  1.00  0.00    +0.000 H 
ENDBRANCH    2    1
ENDBRANCH    3    2
ENDBRANCH    4    3
ENDBRANCH    5    4
BRANCH    5    6
ATOM      6  S1  UNL A   1       4.074  29.401   0.268  1.00  0.00    +0.000 S 
BRANCH    6    7
ATOM    131  H26 UNL A   1       8.591  31.119   2.272  1.00  0.00    +0.000 H 
ATOM      7  C6  UNL A   1       5.807  29.560   0.526  1.00  0.00    +0.000 C 
ATOM      8  N1  UNL A   1       6.326  28.870   1.563  1.00  0.00    +0.000 N 
ATOM      9  C7  UNL A   1       7.420  29.391   2.126  1.00  0.00    +0.000 C 
ATOM     19  C16 UNL A   1       7.908  30.593   1.705  1.00  0.00    +0.000 C 
ATOM     20  C17 UNL A   1       7.463  31.076   0.511  1.00  0.00    +0.000 C 
ATOM     30  N2  UNL A   1       6.406  30.565  -0.104  1.00  0.00    +0.000 N 
BRANCH    9   10
ATOM     10  O1  UNL A   1       8.005  28.636   3.116  1.00  0.00    +0.000 O 
BRANCH   10   11
ATOM     11  C8  UNL A   1       9.170  27.864   2.794  1.00  0.00    +0.000 C 
ATOM    116  H11 UNL A   1       9.002  27.407   1.842  1.00  0.00    +0.000 H 
ATOM    117  H12 UNL A   1       9.286  27.177   3.607  1.00  0.00    +0.000 H 
BRANCH   11   12
ATOM     12  C9  UNL A   1      10.516  28.635   2.716  1.00  0.00    +0.000 C 
ATOM    118  H13 UNL A   1      11.165  28.228   3.463  1.00  0.00    +0.000 H 
ATOM    119  H14 UNL A   1      10.258  29.664   2.859  1.00  0.00    +0.000 H 
BRANCH   12   13
ATOM    129  H24 UNL A   1      11.524  26.471   1.469  1.00  0.00    +0.000 H 
ATOM    130  H25 UNL A   1      12.965  27.382   1.847  1.00  0.00    +0.000 H 
ATOM     13  C10 UNL A   1      11.265  28.592   1.375  1.00  0.00    +0.000 C 
ATOM     14  C11 UNL A   1      12.142  29.823   1.096  1.00  0.00    +0.000 C 
ATOM     15  C12 UNL A   1      12.675  29.779  -0.342  1.00  0.00    +0.000 C 
ATOM     16  C13 UNL A   1      13.330  28.448  -0.715  1.00  0.00    +0.000 C 
ATOM     17  C14 UNL A   1      12.563  27.211  -0.244  1.00  0.00    +0.000 C 
ATOM     18  C15 UNL A   1      12.108  27.328   1.208  1.00  0.00    +0.000 C 
ATOM    120  H15 UNL A   1      10.476  28.590   0.652  1.00  0.00    +0.000 H 
ATOM    121  H16 UNL A   1      12.967  29.830   1.778  1.00  0.00    +0.000 H 
ATOM    122  H17 UNL A   1      11.553  30.707   1.224  1.00  0.00    +0.000 H 
ATOM    123  H18 UNL A   1      13.402  30.557  -0.457  1.00  0.00    +0.000 H 
ATOM    124  H19 UNL A   1      11.834  29.907  -0.992  1.00  0.00    +0.000 H 
ATOM    125  H20 UNL A   1      14.306  28.421  -0.279  1.00  0.00    +0.000 H 
ATOM    126  H21 UNL A   1      13.349  28.406  -1.784  1.00  0.00    +0.000 H 
ATOM    127  H22 UNL A   1      13.199  26.355  -0.339  1.00  0.00    +0.000 H 
ATOM    128  H23 UNL A   1      11.689  27.118  -0.854  1.00  0.00    +0.000 H 
ENDBRANCH   12   13
ENDBRANCH   11   12
ENDBRANCH   10   11
ENDBRANCH    9   10
BRANCH   20   21
ATOM     21  O2  UNL A   1       7.881  32.286   0.030  1.00  0.00    +0.000 O 
BRANCH   21   22
ATOM    132  H27 UNL A   1       9.625  31.365  -0.529  1.00  0.00    +0.000 H 
ATOM    133  H28 UNL A   1       9.822  32.798   0.448  1.00  0.00    +0.000 H 
ATOM     22  C18 UNL A   1       9.258  32.352  -0.344  1.00  0.00    +0.000 C 
BRANCH   22   23
ATOM    135  H30 UNL A   1       8.700  32.832  -2.343  1.00  0.00    +0.000 H 
ATOM    134  H29 UNL A   1       9.206  34.229  -1.380  1.00  0.00    +0.000 H 
ATOM     23  C19 UNL A   1       9.400  33.207  -1.626  1.00  0.00    +0.000 C 
BRANCH   23   24
ATOM    136  H31 UNL A   1      10.767  33.922  -2.951  1.00  0.00    +0.000 H 
ATOM    137  H32 UNL A   1      12.093  32.325  -0.733  1.00  0.00    +0.000 H 
ATOM    138  H33 UNL A   1      11.652  33.980  -0.478  1.00  0.00    +0.000 H 
ATOM    139  H34 UNL A   1      13.944  33.930  -1.276  1.00  0.00    +0.000 H 
ATOM    140  H35 UNL A   1      12.957  34.567  -2.561  1.00  0.00    +0.000 H 
ATOM    141  H36 UNL A   1      14.025  31.779  -2.265  1.00  0.00    +0.000 H 
ATOM    142  H37 UNL A   1      14.338  32.960  -3.558  1.00  0.00    +0.000 H 
ATOM    143  H38 UNL A   1      12.787  30.981  -4.046  1.00  0.00    +0.000 H 
ATOM    144  H39 UNL A   1      12.326  32.643  -4.534  1.00  0.00    +0.000 H 
ATOM    145  H40 UNL A   1      10.354  31.641  -3.744  1.00  0.00    +0.000 H 
ATOM    146  H41 UNL A   1      11.160  31.004  -2.327  1.00  0.00    +0.000 H 
ATOM     24  C20 UNL A   1      10.801  33.110  -2.254  1.00  0.00    +0.000 C 
ATOM     25  C21 UNL A   1      11.918  33.260  -1.224  1.00  0.00    +0.000 C 
ATOM     26  C22 UNL A   1      13.168  33.696  -1.974  1.00  0.00    +0.000 C 
ATOM     27  C23 UNL A   1      13.617  32.556  -2.877  1.00  0.00    +0.000 C 
ATOM     28  C24 UNL A   1      12.482  31.957  -3.729  1.00  0.00    +0.000 C 
ATOM     29  C25 UNL A   1      11.119  31.821  -3.017  1.00  0.00    +0.000 C 
ENDBRANCH   23   24
ENDBRANCH   22   23
ENDBRANCH   21   22
ENDBRANCH   20   21
ENDBRANCH    6    7
ENDBRANCH    5    6
ENDBRANCH   31    5
ENDBRANCH   33   31
ENDBRANCH   34   33
ENDBRANCH   35   34
ENDBRANCH   36   35
ENDBRANCH   37   36
ENDBRANCH   38   37
ENDBRANCH   39   38
ENDBRANCH   40   39
ENDBRANCH   41   40
ENDBRANCH   43   41
ENDBRANCH   47   46
BRANCH   51   52
ATOM     52  C42 UNL A   1       7.834  34.507  -6.955  1.00  0.00    +0.000 C 
ATOM     53  C43 UNL A   1       8.074  35.581  -6.082  1.00  0.00    +0.000 C 
ATOM     54  F1  UNL A   1       9.330  35.980  -5.833  1.00  0.00    +0.000 F 
ATOM     55  C44 UNL A   1       7.025  36.222  -5.429  1.00  0.00    +0.000 C 
ATOM     56  F2  UNL A   1       7.282  37.210  -4.561  1.00  0.00    +0.000 F 
ATOM     57  C45 UNL A   1       5.716  35.831  -5.664  1.00  0.00    +0.000 C 
ATOM     58  F3  UNL A   1       4.706  36.455  -5.041  1.00  0.00    +0.000 F 
ATOM     59  C46 UNL A   1       5.453  34.788  -6.538  1.00  0.00    +0.000 C 
ATOM     60  F4  UNL A   1       4.187  34.416  -6.776  1.00  0.00    +0.000 F 
ATOM     61  C47 UNL A   1       6.502  34.122  -7.168  1.00  0.00    +0.000 C 
ATOM     62  F5  UNL A   1       6.216  33.105  -7.996  1.00  0.00    +0.000 F 
ENDBRANCH   51   52
BRANCH   68   69
ATOM     69  C53 UNL A   1      12.367  35.763 -12.420  1.00  0.00    +0.000 C 
ATOM     70  C54 UNL A   1      13.301  36.758 -12.099  1.00  0.00    +0.000 C 
ATOM     71  F6  UNL A   1      13.906  36.756 -10.902  1.00  0.00    +0.000 F 
ATOM     72  C55 UNL A   1      13.584  37.787 -12.994  1.00  0.00    +0.000 C 
ATOM     73  F7  UNL A   1      14.441  38.757 -12.645  1.00  0.00    +0.000 F 
ATOM     74  C56 UNL A   1      12.970  37.819 -14.237  1.00  0.00    +0.000 C 
ATOM     75  F8  UNL A   1      13.249  38.807 -15.098  1.00  0.00    +0.000 F 
ATOM     76  C57 UNL A   1      12.060  36.832 -14.584  1.00  0.00    +0.000 C 
ATOM     77  F9  UNL A   1      11.477  36.852 -15.790  1.00  0.00    +0.000 F 
ATOM     78  C58 UNL A   1      11.751  35.820 -13.680  1.00  0.00    +0.000 C 
ATOM     79  F10 UNL A   1      10.856  34.888 -14.039  1.00  0.00    +0.000 F 
ENDBRANCH   68   69
BRANCH   83   84
ATOM     84  C62 UNL A   1      15.158  29.446 -11.512  1.00  0.00    +0.000 C 
ATOM     85  C63 UNL A   1      16.506  29.697 -11.215  1.00  0.00    +0.000 C 
ATOM     86  F11 UNL A   1      16.829  30.617 -10.294  1.00  0.00    +0.000 F 
ATOM     87  C64 UNL A   1      17.528  29.039 -11.897  1.00  0.00    +0.000 C 
ATOM     88  F12 UNL A   1      18.807  29.338 -11.633  1.00  0.00    +0.000 F 
ATOM     89  C65 UNL A   1      17.221  28.093 -12.864  1.00  0.00    +0.000 C 
ATOM     90  F13 UNL A   1      18.204  27.464 -13.522  1.00  0.00    +0.000 F 
ATOM     91  C66 UNL A   1      15.896  27.810 -13.155  1.00  0.00    +0.000 C 
ATOM     92  F14 UNL A   1      15.597  26.887 -14.079  1.00  0.00    +0.000 F 
ATOM     93  C67 UNL A   1      14.874  28.489 -12.495  1.00  0.00    +0.000 C 
ATOM     94  F15 UNL A   1      13.601  28.208 -12.812  1.00  0.00    +0.000 F 
ENDBRANCH   83   84
TORSDOF 29
ENDMDL
MODEL 2
REMARK VINA RESULT:      -6.7     52.736     57.516
ROOT
ATOM    163  H58 UNL A   1      19.652  36.954  48.088  1.00  0.00    +0.000 H 
ATOM    164  H59 UNL A   1      18.652  39.067  49.243  1.00  0.00    +0.000 H 
ATOM    165  H60 UNL A   1      22.458  39.996  47.904  1.00  0.00    +0.000 H 
ATOM    166  H61 UNL A   1      27.276  44.171  47.453  1.00  0.00    +0.000 H 
ATOM    167  H62 UNL A   1      28.225  42.128  46.278  1.00  0.00    +0.000 H 
ATOM    168  H63 UNL A   1      24.389  41.183  47.572  1.00  0.00    +0.000 H 
ATOM    169  H64 UNL A   1      22.580  45.327  49.745  1.00  0.00    +0.000 H 
ATOM    170  H65 UNL A   1      20.524  43.940  50.372  1.00  0.00    +0.000 H 
ATOM    171  H66 UNL A   1      24.252  35.999  45.488  1.00  0.00    +0.000 H 
ATOM    172  H67 UNL A   1      26.525  37.171  45.348  1.00  0.00    +0.000 H 
ATOM     47  C38 UNL A   1      26.477  39.874  46.254  1.00  0.00    +0.000 C 
ATOM     48  C39 UNL A   1      25.368  38.860  46.325  1.00  0.00    +0.000 C 
ATOM     49  N5  UNL A   1      24.159  38.986  46.811  1.00  0.00    +0.000 N 
ATOM     50  C40 UNL A   1      23.533  37.767  46.585  1.00  0.00    +0.000 C 
ATOM     51  C41 UNL A   1      22.298  37.367  46.970  1.00  0.00    +0.000 C 
ATOM     63  C48 UNL A   1      21.381  38.189  47.714  1.00  0.00    +0.000 C 
ATOM     64  C49 UNL A   1      20.120  37.868  48.187  1.00  0.00    +0.000 C 
ATOM     65  C50 UNL A   1      19.591  38.996  48.822  1.00  0.00    +0.000 C 
ATOM     66  C51 UNL A   1      20.543  40.003  48.793  1.00  0.00    +0.000 C 
ATOM     67  N6  UNL A   1      21.630  39.499  48.098  1.00  0.00    +0.000 N 
ATOM     68  C52 UNL A   1      20.467  41.324  49.360  1.00  0.00    +0.000 C 
ATOM     80  C59 UNL A   1      21.433  42.270  49.263  1.00  0.00    +0.000 C 
ATOM     81  N7  UNL A   1      22.676  42.192  48.648  1.00  0.00    +0.000 N 
ATOM     82  C60 UNL A   1      23.237  43.364  48.819  1.00  0.00    +0.000 C 
ATOM     83  C61 UNL A   1      24.606  43.835  48.402  1.00  0.00    +0.000 C 
ATOM     95  C68 UNL A   1      25.427  42.977  47.770  1.00  0.00    +0.000 C 
ATOM     96  C69 UNL A   1      26.785  43.274  47.322  1.00  0.00    +0.000 C 
ATOM     97  C70 UNL A   1      27.290  42.190  46.710  1.00  0.00    +0.000 C 
ATOM     98  C71 UNL A   1      26.302  41.111  46.755  1.00  0.00    +0.000 C 
ATOM     99  N8  UNL A   1      25.226  41.672  47.396  1.00  0.00    +0.000 N 
ATOM    100  C72 UNL A   1      22.393  44.335  49.529  1.00  0.00    +0.000 C 
ATOM    101  C73 UNL A   1      21.328  43.603  49.820  1.00  0.00    +0.000 C 
ATOM    102  C74 UNL A   1      24.470  36.936  45.863  1.00  0.00    +0.000 C 
ATOM    103  C75 UNL A   1      25.644  37.536  45.744  1.00  0.00    +0.000 C 
ENDROOT
BRANCH   47   46
ATOM    161  H56 UNL A   1      29.802  40.489  43.104  1.00  0.00    +0.000 H 
ATOM    162  H57 UNL A   1      27.702  41.085  44.164  1.00  0.00    +0.000 H 
ATOM    104  C76 UNL A   1      28.514  38.447  46.077  1.00  0.00    +0.000 C 
ATOM    105  C77 UNL A   1      29.760  38.165  45.528  1.00  0.00    +0.000 C 
ATOM     43  C34 UNL A   1      30.210  38.882  44.415  1.00  0.00    +0.000 C 
ATOM     44  C35 UNL A   1      29.460  39.948  43.914  1.00  0.00    +0.000 C 
ATOM     45  C36 UNL A   1      28.245  40.279  44.513  1.00  0.00    +0.000 C 
ATOM    174  H69 UNL A   1      30.352  37.428  45.941  1.00  0.00    +0.000 H 
ATOM    173  H68 UNL A   1      28.145  37.863  46.844  1.00  0.00    +0.000 H 
ATOM     46  C37 UNL A   1      27.755  39.521  45.591  1.00  0.00    +0.000 C 
BRANCH   43   41
ATOM     41  C33 UNL A   1      31.501  38.557  43.776  1.00  0.00    +0.000 C 
ATOM     42  O4  UNL A   1      32.536  38.579  44.438  1.00  0.00    +0.000 O 
BRANCH   41   40
ATOM    160  H55 UNL A   1      31.856  38.938  41.843  1.00  0.00    +0.000 H 
ATOM     40  N4  UNL A   1      31.539  38.229  42.448  1.00  0.00    +0.000 N 
BRANCH   40   39
ATOM    159  H54 UNL A   1      32.027  36.616  41.269  1.00  0.00    +0.000 H 
ATOM    158  H53 UNL A   1      30.350  37.150  41.148  1.00  0.00    +0.000 H 
ATOM     39  C32 UNL A   1      31.175  36.976  41.808  1.00  0.00    +0.000 C 
BRANCH   39   38
ATOM    156  H51 UNL A   1      31.445  35.087  42.730  1.00  0.00    +0.000 H 
ATOM    157  H52 UNL A   1      30.831  36.380  43.790  1.00  0.00    +0.000 H 
ATOM     38  C31 UNL A   1      30.776  35.917  42.828  1.00  0.00    +0.000 C 
BRANCH   38   37
ATOM    154  H49 UNL A   1      28.684  36.097  43.144  1.00  0.00    +0.000 H 
ATOM    155  H50 UNL A   1      29.171  35.310  41.616  1.00  0.00    +0.000 H 
ATOM     37  C30 UNL A   1      29.343  35.401  42.668  1.00  0.00    +0.000 C 
BRANCH   37   36
ATOM    153  H48 UNL A   1      29.966  33.755  43.825  1.00  0.00    +0.000 H 
ATOM     36  C29 UNL A   1      29.089  34.013  43.269  1.00  0.00    +0.000 C 
ATOM    152  H47 UNL A   1      28.889  33.333  42.468  1.00  0.00    +0.000 H 
BRANCH   36   35
ATOM     35  C28 UNL A   1      27.915  33.958  44.249  1.00  0.00    +0.000 C 
ATOM    150  H45 UNL A   1      27.036  34.308  43.751  1.00  0.00    +0.000 H 
ATOM    151  H46 UNL A   1      27.811  32.942  44.570  1.00  0.00    +0.000 H 
BRANCH   35   34
ATOM     34  C27 UNL A   1      28.143  34.812  45.495  1.00  0.00    +0.000 C 
ATOM    148  H43 UNL A   1      28.322  35.824  45.199  1.00  0.00    +0.000 H 
ATOM    149  H44 UNL A   1      27.273  34.755  46.115  1.00  0.00    +0.000 H 
BRANCH   34   33
ATOM     33  N3  UNL A   1      29.288  34.327  46.251  1.00  0.00    +0.000 N 
ATOM    147  H42 UNL A   1      30.032  34.968  46.331  1.00  0.00    +0.000 H 
BRANCH   33   31
ATOM     31  C26 UNL A   1      29.500  33.122  46.869  1.00  0.00    +0.000 C 
ATOM     32  O3  UNL A   1      30.456  32.440  46.489  1.00  0.00    +0.000 O 
BRANCH   31    5
ATOM    115  H10 UNL A   1      27.676  33.157  48.274  1.00  0.00    +0.000 H 
ATOM      5  C5  UNL A   1      28.577  32.643  48.010  1.00  0.00    +0.000 C 
BRANCH    5    4
ATOM    113  H8  UNL A   1      28.795  30.653  47.308  1.00  0.00    +0.000 H 
ATOM    114  H9  UNL A   1      27.336  31.031  48.371  1.00  0.00    +0.000 H 
ATOM      4  C4  UNL A   1      27.968  31.288  47.547  1.00  0.00    +0.000 C 
BRANCH    4    3
ATOM      3  C3  UNL A   1      27.005  31.198  46.364  1.00  0.00    +0.000 C 
ATOM    111  H6  UNL A   1      27.331  31.902  45.629  1.00  0.00    +0.000 H 
ATOM    112  H7  UNL A   1      27.040  30.173  46.056  1.00  0.00    +0.000 H 
BRANCH    3    2
ATOM      2  C2  UNL A   1      25.529  31.475  46.646  1.00  0.00    +0.000 C 
ATOM    109  H4  UNL A   1      24.946  31.041  45.861  1.00  0.00    +0.000 H 
ATOM    110  H5  UNL A   1      25.300  31.046  47.600  1.00  0.00    +0.000 H 
BRANCH    2    1
ATOM      1  C1  UNL A   1      25.205  32.955  46.726  1.00  0.00    +0.000 C 
ATOM    106  H1  UNL A   1      25.915  33.508  46.146  1.00  0.00    +0.000 H 
ATOM    107  H2  UNL A   1      25.250  33.276  47.745  1.00  0.00    +0.000 H 
ATOM    108  H3  UNL A   1      24.220  33.126  46.341  1.00  0.00    +0.000 H 
ENDBRANCH    2    1
ENDBRANCH    3    2
ENDBRANCH    4    3
ENDBRANCH    5    4
BRANCH    5    6
ATOM      6  S1  UNL A   1      29.670  32.855  49.523  1.00  0.00    +0.000 S 
BRANCH    6    7
ATOM    131  H26 UNL A   1      28.809  37.970  48.837  1.00  0.00    +0.000 H 
ATOM      7  C6  UNL A   1      29.590  34.575  49.884  1.00  0.00    +0.000 C 
ATOM      8  N1  UNL A   1      28.386  35.056  50.257  1.00  0.00    +0.000 N 
ATOM      9  C7  UNL A   1      28.151  36.340  49.972  1.00  0.00    +0.000 C 
ATOM     19  C16 UNL A   1      29.065  37.069  49.270  1.00  0.00    +0.000 C 
ATOM     20  C17 UNL A   1      30.328  36.568  49.160  1.00  0.00    +0.000 C 
ATOM     30  N2  UNL A   1      30.615  35.312  49.469  1.00  0.00    +0.000 N 
BRANCH    9   10
ATOM     10  O1  UNL A   1      26.965  36.854  50.442  1.00  0.00    +0.000 O 
BRANCH   10   11
ATOM     11  C8  UNL A   1      26.687  38.245  50.228  1.00  0.00    +0.000 C 
ATOM    116  H11 UNL A   1      27.319  38.583  49.434  1.00  0.00    +0.000 H 
ATOM    117  H12 UNL A   1      26.864  38.716  51.173  1.00  0.00    +0.000 H 
BRANCH   11   12
ATOM     12  C9  UNL A   1      25.225  38.613  49.856  1.00  0.00    +0.000 C 
ATOM    118  H13 UNL A   1      24.612  37.764  50.076  1.00  0.00    +0.000 H 
ATOM    119  H14 UNL A   1      25.259  38.885  48.822  1.00  0.00    +0.000 H 
BRANCH   12   13
ATOM    129  H24 UNL A   1      26.438  40.935  50.480  1.00  0.00    +0.000 H 
ATOM    130  H25 UNL A   1      26.086  40.270  52.056  1.00  0.00    +0.000 H 
ATOM     13  C10 UNL A   1      24.611  39.827  50.570  1.00  0.00    +0.000 C 
ATOM     14  C11 UNL A   1      23.557  39.476  51.633  1.00  0.00    +0.000 C 
ATOM     15  C12 UNL A   1      22.863  40.751  52.132  1.00  0.00    +0.000 C 
ATOM     16  C13 UNL A   1      23.833  41.854  52.555  1.00  0.00    +0.000 C 
ATOM     17  C14 UNL A   1      25.012  42.060  51.603  1.00  0.00    +0.000 C 
ATOM     18  C15 UNL A   1      25.665  40.743  51.193  1.00  0.00    +0.000 C 
ATOM    120  H15 UNL A   1      24.110  40.349  49.781  1.00  0.00    +0.000 H 
ATOM    121  H16 UNL A   1      24.036  38.989  52.457  1.00  0.00    +0.000 H 
ATOM    122  H17 UNL A   1      22.827  38.828  51.198  1.00  0.00    +0.000 H 
ATOM    123  H18 UNL A   1      22.253  40.495  52.974  1.00  0.00    +0.000 H 
ATOM    124  H19 UNL A   1      22.289  41.134  51.315  1.00  0.00    +0.000 H 
ATOM    125  H20 UNL A   1      24.223  41.606  53.520  1.00  0.00    +0.000 H 
ATOM    126  H21 UNL A   1      23.277  42.768  52.553  1.00  0.00    +0.000 H 
ATOM    127  H22 UNL A   1      25.744  42.671  52.089  1.00  0.00    +0.000 H 
ATOM    128  H23 UNL A   1      24.638  42.529  50.717  1.00  0.00    +0.000 H 
ENDBRANCH   12   13
ENDBRANCH   11   12
ENDBRANCH   10   11
ENDBRANCH    9   10
BRANCH   20   21
ATOM     21  O2  UNL A   1      31.295  37.223  48.450  1.00  0.00    +0.000 O 
BRANCH   21   22
ATOM    132  H27 UNL A   1      33.144  36.499  48.959  1.00  0.00    +0.000 H 
ATOM    133  H28 UNL A   1      32.382  37.504  50.166  1.00  0.00    +0.000 H 
ATOM     22  C18 UNL A   1      32.548  37.373  49.118  1.00  0.00    +0.000 C 
BRANCH   22   23
ATOM    135  H30 UNL A   1      33.759  39.107  49.374  1.00  0.00    +0.000 H 
ATOM    134  H29 UNL A   1      33.998  38.283  47.824  1.00  0.00    +0.000 H 
ATOM     23  C19 UNL A   1      33.286  38.611  48.553  1.00  0.00    +0.000 C 
BRANCH   23   24
ATOM    136  H31 UNL A   1      31.720  38.964  47.306  1.00  0.00    +0.000 H 
ATOM    137  H32 UNL A   1      32.124  41.250  49.265  1.00  0.00    +0.000 H 
ATOM    138  H33 UNL A   1      31.264  39.826  49.745  1.00  0.00    +0.000 H 
ATOM    139  H34 UNL A   1      29.647  41.427  48.900  1.00  0.00    +0.000 H 
ATOM    140  H35 UNL A   1      29.771  40.143  47.732  1.00  0.00    +0.000 H 
ATOM    141  H36 UNL A   1      31.052  42.853  47.634  1.00  0.00    +0.000 H 
ATOM    142  H37 UNL A   1      29.885  42.132  46.502  1.00  0.00    +0.000 H 
ATOM    143  H38 UNL A   1      32.337  42.318  45.789  1.00  0.00    +0.000 H 
ATOM    144  H39 UNL A   1      31.427  40.795  45.535  1.00  0.00    +0.000 H 
ATOM    145  H40 UNL A   1      33.576  40.145  46.227  1.00  0.00    +0.000 H 
ATOM    146  H41 UNL A   1      33.588  41.313  47.529  1.00  0.00    +0.000 H 
ATOM     24  C20 UNL A   1      32.334  39.619  47.888  1.00  0.00    +0.000 C 
ATOM     25  C21 UNL A   1      31.536  40.431  48.905  1.00  0.00    +0.000 C 
ATOM     26  C22 UNL A   1      30.296  40.954  48.193  1.00  0.00    +0.000 C 
ATOM     27  C23 UNL A   1      30.729  41.962  47.138  1.00  0.00    +0.000 C 
ATOM     28  C24 UNL A   1      31.875  41.463  46.239  1.00  0.00    +0.000 C 
ATOM     29  C25 UNL A   1      32.976  40.650  46.955  1.00  0.00    +0.000 C 
ENDBRANCH   23   24
ENDBRANCH   22   23
ENDBRANCH   21   22
ENDBRANCH   20   21
ENDBRANCH    6    7
ENDBRANCH    5    6
ENDBRANCH   31    5
ENDBRANCH   33   31
ENDBRANCH   34   33
ENDBRANCH   35   34
ENDBRANCH   36   35
ENDBRANCH   37   36
ENDBRANCH   38   37
ENDBRANCH   39   38
ENDBRANCH   40   39
ENDBRANCH   41   40
ENDBRANCH   43   41
ENDBRANCH   47   46
BRANCH   51   52
ATOM     52  C42 UNL A   1      21.873  35.975  46.603  1.00  0.00    +0.000 C 
ATOM     53  C43 UNL A   1      22.092  34.888  47.465  1.00  0.00    +0.000 C 
ATOM     54  F1  UNL A   1      22.735  35.068  48.628  1.00  0.00    +0.000 F 
ATOM     55  C44 UNL A   1      21.688  33.602  47.114  1.00  0.00    +0.000 C 
ATOM     56  F2  UNL A   1      21.955  32.573  47.930  1.00  0.00    +0.000 F 
ATOM     57  C45 UNL A   1      21.024  33.383  45.918  1.00  0.00    +0.000 C 
ATOM     58  F3  UNL A   1      20.628  32.146  45.586  1.00  0.00    +0.000 F 
ATOM     59  C46 UNL A   1      20.776  34.444  45.061  1.00  0.00    +0.000 C 
ATOM     60  F4  UNL A   1      20.123  34.236  43.909  1.00  0.00    +0.000 F 
ATOM     61  C47 UNL A   1      21.208  35.727  45.393  1.00  0.00    +0.000 C 
ATOM     62  F5  UNL A   1      20.969  36.730  44.534  1.00  0.00    +0.000 F 
ENDBRANCH   51   52
BRANCH   68   69
ATOM     69  C53 UNL A   1      19.237  41.675  50.146  1.00  0.00    +0.000 C 
ATOM     70  C54 UNL A   1      19.045  41.226  51.460  1.00  0.00    +0.000 C 
ATOM     71  F6  UNL A   1      19.950  40.423  52.039  1.00  0.00    +0.000 F 
ATOM     72  C55 UNL A   1      17.898  41.567  52.171  1.00  0.00    +0.000 C 
ATOM     73  F7  UNL A   1      17.710  41.084  53.407  1.00  0.00    +0.000 F 
ATOM     74  C56 UNL A   1      16.941  42.392  51.598  1.00  0.00    +0.000 C 
ATOM     75  F8  UNL A   1      15.841  42.723  52.286  1.00  0.00    +0.000 F 
ATOM     76  C57 UNL A   1      17.122  42.866  50.307  1.00  0.00    +0.000 C 
ATOM     77  F9  UNL A   1      16.207  43.676  49.756  1.00  0.00    +0.000 F 
ATOM     78  C58 UNL A   1      18.253  42.502  49.582  1.00  0.00    +0.000 C 
ATOM     79  F10 UNL A   1      18.392  42.964  48.331  1.00  0.00    +0.000 F 
ENDBRANCH   68   69
BRANCH   83   84
ATOM     84  C62 UNL A   1      25.062  45.215  48.713  1.00  0.00    +0.000 C 
ATOM     85  C63 UNL A   1      25.732  45.497  49.913  1.00  0.00    +0.000 C 
ATOM     86  F11 UNL A   1      25.968  44.513  50.795  1.00  0.00    +0.000 F 
ATOM     87  C64 UNL A   1      26.118  46.796  50.235  1.00  0.00    +0.000 C 
ATOM     88  F12 UNL A   1      26.706  47.046  51.413  1.00  0.00    +0.000 F 
ATOM     89  C65 UNL A   1      25.873  47.834  49.348  1.00  0.00    +0.000 C 
ATOM     90  F13 UNL A   1      26.241  49.084  49.659  1.00  0.00    +0.000 F 
ATOM     91  C66 UNL A   1      25.235  47.575  48.145  1.00  0.00    +0.000 C 
ATOM     92  F14 UNL A   1      25.009  48.574  47.279  1.00  0.00    +0.000 F 
ATOM     93  C67 UNL A   1      24.822  46.281  47.835  1.00  0.00    +0.000 C 
ATOM     94  F15 UNL A   1      24.191  46.065  46.672  1.00  0.00    +0.000 F 
ENDBRANCH   83   84
TORSDOF 29
ENDMDL
MODEL 3
REMARK VINA RESULT:      -6.5     12.145     19.019
ROOT
ATOM    163  H58 UNL A   1      22.316  20.841   2.953  1.00  0.00    +0.000 H 
ATOM    164  H59 UNL A   1      22.964  18.718   4.321  1.00  0.00    +0.000 H 
ATOM    165  H60 UNL A   1      19.061  19.730   5.260  1.00  0.00    +0.000 H 
ATOM    166  H61 UNL A   1      13.765  18.680   8.683  1.00  0.00    +0.000 H 
ATOM    167  H62 UNL A   1      13.119  20.715   7.305  1.00  0.00    +0.000 H 
ATOM    168  H63 UNL A   1      17.024  19.695   6.310  1.00  0.00    +0.000 H 
ATOM    169  H64 UNL A   1      18.128  15.597   8.985  1.00  0.00    +0.000 H 
ATOM    170  H65 UNL A   1      20.497  15.778   8.037  1.00  0.00    +0.000 H 
ATOM    171  H66 UNL A   1      17.775  23.660   2.444  1.00  0.00    +0.000 H 
ATOM    172  H67 UNL A   1      15.603  23.845   3.789  1.00  0.00    +0.000 H 
ATOM     47  C38 UNL A   1      15.195  21.688   5.609  1.00  0.00    +0.000 C 
ATOM     48  C39 UNL A   1      16.414  21.969   4.772  1.00  0.00    +0.000 C 
ATOM     49  N5  UNL A   1      17.539  21.303   4.696  1.00  0.00    +0.000 N 
ATOM     50  C40 UNL A   1      18.305  21.964   3.745  1.00  0.00    +0.000 C 
ATOM     51  C41 UNL A   1      19.578  21.711   3.360  1.00  0.00    +0.000 C 
ATOM     63  C48 UNL A   1      20.388  20.653   3.902  1.00  0.00    +0.000 C 
ATOM     64  C49 UNL A   1      21.703  20.334   3.609  1.00  0.00    +0.000 C 
ATOM     65  C50 UNL A   1      22.056  19.206   4.357  1.00  0.00    +0.000 C 
ATOM     66  C51 UNL A   1      20.979  18.855   5.156  1.00  0.00    +0.000 C 
ATOM     67  N6  UNL A   1      19.958  19.743   4.857  1.00  0.00    +0.000 N 
ATOM     68  C52 UNL A   1      20.890  17.792   6.123  1.00  0.00    +0.000 C 
ATOM     80  C59 UNL A   1      19.786  17.489   6.849  1.00  0.00    +0.000 C 
ATOM     81  N7  UNL A   1      18.544  18.113   6.855  1.00  0.00    +0.000 N 
ATOM     82  C60 UNL A   1      17.812  17.449   7.716  1.00  0.00    +0.000 C 
ATOM     83  C61 UNL A   1      16.397  17.707   8.162  1.00  0.00    +0.000 C 
ATOM     95  C68 UNL A   1      15.734  18.762   7.653  1.00  0.00    +0.000 C 
ATOM     96  C69 UNL A   1      14.371  19.157   7.997  1.00  0.00    +0.000 C 
ATOM     97  C70 UNL A   1      14.034  20.238   7.276  1.00  0.00    +0.000 C 
ATOM     98  C71 UNL A   1      15.172  20.633   6.445  1.00  0.00    +0.000 C 
ATOM     99  N8  UNL A   1      16.133  19.696   6.729  1.00  0.00    +0.000 N 
ATOM    100  C72 UNL A   1      18.496  16.299   8.323  1.00  0.00    +0.000 C 
ATOM    101  C73 UNL A   1      19.709  16.399   7.799  1.00  0.00    +0.000 C 
ATOM    102  C74 UNL A   1      17.495  23.044   3.224  1.00  0.00    +0.000 C 
ATOM    103  C75 UNL A   1      16.349  23.137   3.879  1.00  0.00    +0.000 C 
ENDROOT
BRANCH   47   46
ATOM    161  H56 UNL A   1      11.181  22.921   3.681  1.00  0.00    +0.000 H 
ATOM    162  H57 UNL A   1      13.134  21.492   3.863  1.00  0.00    +0.000 H 
ATOM    104  C76 UNL A   1      13.816  23.621   6.369  1.00  0.00    +0.000 C 
ATOM    105  C77 UNL A   1      12.653  24.381   6.323  1.00  0.00    +0.000 C 
ATOM     43  C34 UNL A   1      11.711  24.153   5.314  1.00  0.00    +0.000 C 
ATOM     44  C35 UNL A   1      11.885  23.100   4.414  1.00  0.00    +0.000 C 
ATOM     45  C36 UNL A   1      13.017  22.290   4.509  1.00  0.00    +0.000 C 
ATOM    174  H69 UNL A   1      12.483  25.111   7.032  1.00  0.00    +0.000 H 
ATOM    173  H68 UNL A   1      14.549  23.844   7.062  1.00  0.00    +0.000 H 
ATOM     46  C37 UNL A   1      13.998  22.553   5.479  1.00  0.00    +0.000 C 
BRANCH   43   41
ATOM     41  C33 UNL A   1      10.500  24.990   5.206  1.00  0.00    +0.000 C 
ATOM     42  O4  UNL A   1       9.396  24.505   5.444  1.00  0.00    +0.000 O 
BRANCH   41   40
ATOM    160  H55 UNL A   1      10.834  26.929   5.571  1.00  0.00    +0.000 H 
ATOM     40  N4  UNL A   1      10.610  26.304   4.844  1.00  0.00    +0.000 N 
BRANCH   40   39
ATOM    159  H54 UNL A   1       9.733  26.320   2.984  1.00  0.00    +0.000 H 
ATOM    158  H53 UNL A   1      11.387  26.926   3.033  1.00  0.00    +0.000 H 
ATOM     39  C32 UNL A   1      10.440  26.906   3.531  1.00  0.00    +0.000 C 
BRANCH   39   38
ATOM    156  H51 UNL A   1       9.164  28.462   2.868  1.00  0.00    +0.000 H 
ATOM    157  H52 UNL A   1       9.508  28.442   4.616  1.00  0.00    +0.000 H 
ATOM     38  C31 UNL A   1       9.904  28.329   3.629  1.00  0.00    +0.000 C 
BRANCH   38   37
ATOM    154  H49 UNL A   1      10.573  30.335   3.827  1.00  0.00    +0.000 H 
ATOM    155  H50 UNL A   1      11.832  29.079   3.997  1.00  0.00    +0.000 H 
ATOM     37  C30 UNL A   1      10.972  29.413   3.457  1.00  0.00    +0.000 C 
BRANCH   37   36
ATOM    153  H48 UNL A   1      10.955  28.886   1.418  1.00  0.00    +0.000 H 
ATOM     36  C29 UNL A   1      11.431  29.638   2.010  1.00  0.00    +0.000 C 
ATOM    152  H47 UNL A   1      12.499  29.575   1.985  1.00  0.00    +0.000 H 
BRANCH   36   35
ATOM     35  C28 UNL A   1      11.017  30.988   1.421  1.00  0.00    +0.000 C 
ATOM    150  H45 UNL A   1      10.421  31.507   2.142  1.00  0.00    +0.000 H 
ATOM    151  H46 UNL A   1      11.911  31.525   1.185  1.00  0.00    +0.000 H 
BRANCH   35   34
ATOM     34  C27 UNL A   1      10.210  30.849   0.131  1.00  0.00    +0.000 C 
ATOM    148  H43 UNL A   1       9.853  29.845   0.047  1.00  0.00    +0.000 H 
ATOM    149  H44 UNL A   1       9.390  31.535   0.164  1.00  0.00    +0.000 H 
BRANCH   34   33
ATOM     33  N3  UNL A   1      11.034  31.161  -1.028  1.00  0.00    +0.000 N 
ATOM    147  H42 UNL A   1      11.124  32.122  -1.224  1.00  0.00    +0.000 H 
BRANCH   33   31
ATOM     31  C26 UNL A   1      11.705  30.334  -1.891  1.00  0.00    +0.000 C 
ATOM     32  O3  UNL A   1      11.247  29.202  -2.076  1.00  0.00    +0.000 O 
BRANCH   31    5
ATOM    115  H10 UNL A   1      13.569  30.162  -3.231  1.00  0.00    +0.000 H 
ATOM      5  C5  UNL A   1      12.983  30.810  -2.614  1.00  0.00    +0.000 C 
BRANCH    5    4
ATOM    113  H8  UNL A   1      12.165  32.691  -3.158  1.00  0.00    +0.000 H 
ATOM    114  H9  UNL A   1      13.399  31.932  -4.299  1.00  0.00    +0.000 H 
ATOM      4  C4  UNL A   1      12.524  31.836  -3.691  1.00  0.00    +0.000 C 
BRANCH    4    3
ATOM      3  C3  UNL A   1      11.452  31.497  -4.725  1.00  0.00    +0.000 C 
ATOM    111  H6  UNL A   1      11.950  31.247  -5.637  1.00  0.00    +0.000 H 
ATOM    112  H7  UNL A   1      10.885  30.701  -4.287  1.00  0.00    +0.000 H 
BRANCH    3    2
ATOM      2  C2  UNL A   1      10.425  32.582  -5.043  1.00  0.00    +0.000 C 
ATOM    109  H4  UNL A   1      10.944  33.503  -5.211  1.00  0.00    +0.000 H 
ATOM    110  H5  UNL A   1       9.883  32.264  -5.910  1.00  0.00    +0.000 H 
BRANCH    2    1
ATOM      1  C1  UNL A   1       9.415  32.794  -3.931  1.00  0.00    +0.000 C 
ATOM    106  H1  UNL A   1       8.476  33.087  -4.352  1.00  0.00    +0.000 H 
ATOM    107  H2  UNL A   1       9.765  33.560  -3.272  1.00  0.00    +0.000 H 
ATOM    108  H3  UNL A   1       9.290  31.882  -3.384  1.00  0.00    +0.000 H 
ENDBRANCH    2    1
ENDBRANCH    3    2
ENDBRANCH    4    3
ENDBRANCH    5    4
BRANCH    5    6
ATOM      6  S1  UNL A   1      14.125  31.215  -1.180  1.00  0.00    +0.000 S 
BRANCH    6    7
ATOM    131  H26 UNL A   1      17.862  27.954  -2.849  1.00  0.00    +0.000 H 
ATOM      7  C6  UNL A   1      15.290  29.895  -1.162  1.00  0.00    +0.000 C 
ATOM      8  N1  UNL A   1      16.568  30.225  -0.885  1.00  0.00    +0.000 N 
ATOM      9  C7  UNL A   1      17.507  29.436  -1.415  1.00  0.00    +0.000 C 
ATOM     19  C16 UNL A   1      17.160  28.415  -2.249  1.00  0.00    +0.000 C 
ATOM     20  C17 UNL A   1      15.855  28.023  -2.264  1.00  0.00    +0.000 C 
ATOM     30  N2  UNL A   1      14.894  28.755  -1.717  1.00  0.00    +0.000 N 
BRANCH    9   10
ATOM     10  O1  UNL A   1      18.804  29.714  -1.050  1.00  0.00    +0.000 O 
BRANCH   10   11
ATOM     11  C8  UNL A   1      19.209  29.449   0.300  1.00  0.00    +0.000 C 
ATOM    116  H11 UNL A   1      18.324  29.280   0.877  1.00  0.00    +0.000 H 
ATOM    117  H12 UNL A   1      19.780  30.305   0.596  1.00  0.00    +0.000 H 
BRANCH   11   12
ATOM     12  C9  UNL A   1      20.153  28.235   0.518  1.00  0.00    +0.000 C 
ATOM    118  H13 UNL A   1      19.830  27.453  -0.138  1.00  0.00    +0.000 H 
ATOM    119  H14 UNL A   1      20.078  28.005   1.560  1.00  0.00    +0.000 H 
BRANCH   12   13
ATOM    129  H24 UNL A   1      21.767  30.014   1.737  1.00  0.00    +0.000 H 
ATOM    130  H25 UNL A   1      21.756  30.595   0.090  1.00  0.00    +0.000 H 
ATOM     13  C10 UNL A   1      21.651  28.465   0.266  1.00  0.00    +0.000 C 
ATOM     14  C11 UNL A   1      22.091  28.262  -1.193  1.00  0.00    +0.000 C 
ATOM     15  C12 UNL A   1      23.621  28.310  -1.297  1.00  0.00    +0.000 C 
ATOM     16  C13 UNL A   1      24.245  29.532  -0.621  1.00  0.00    +0.000 C 
ATOM     17  C14 UNL A   1      23.654  29.869   0.748  1.00  0.00    +0.000 C 
ATOM     18  C15 UNL A   1      22.129  29.836   0.746  1.00  0.00    +0.000 C 
ATOM    120  H15 UNL A   1      22.120  27.702   0.852  1.00  0.00    +0.000 H 
ATOM    121  H16 UNL A   1      21.671  29.038  -1.799  1.00  0.00    +0.000 H 
ATOM    122  H17 UNL A   1      21.747  27.307  -1.530  1.00  0.00    +0.000 H 
ATOM    123  H18 UNL A   1      23.888  28.324  -2.334  1.00  0.00    +0.000 H 
ATOM    124  H19 UNL A   1      23.996  27.446  -0.791  1.00  0.00    +0.000 H 
ATOM    125  H20 UNL A   1      24.106  30.377  -1.262  1.00  0.00    +0.000 H 
ATOM    126  H21 UNL A   1      25.276  29.297  -0.459  1.00  0.00    +0.000 H 
ATOM    127  H22 UNL A   1      23.978  30.849   1.031  1.00  0.00    +0.000 H 
ATOM    128  H23 UNL A   1      23.996  29.130   1.442  1.00  0.00    +0.000 H 
ENDBRANCH   12   13
ENDBRANCH   11   12
ENDBRANCH   10   11
ENDBRANCH    9   10
BRANCH   20   21
ATOM     21  O2  UNL A   1      15.419  27.026  -3.093  1.00  0.00    +0.000 O 
BRANCH   21   22
ATOM    132  H27 UNL A   1      13.866  25.734  -3.445  1.00  0.00    +0.000 H 
ATOM    133  H28 UNL A   1      13.527  27.009  -2.301  1.00  0.00    +0.000 H 
ATOM     22  C18 UNL A   1      14.266  26.314  -2.640  1.00  0.00    +0.000 C 
BRANCH   22   23
ATOM    135  H30 UNL A   1      15.220  25.958  -0.769  1.00  0.00    +0.000 H 
ATOM    134  H29 UNL A   1      13.778  24.967  -1.044  1.00  0.00    +0.000 H 
ATOM     23  C19 UNL A   1      14.667  25.377  -1.476  1.00  0.00    +0.000 C 
BRANCH   23   24
ATOM    136  H31 UNL A   1      16.534  24.591  -1.649  1.00  0.00    +0.000 H 
ATOM    137  H32 UNL A   1      14.402  22.429  -1.741  1.00  0.00    +0.000 H 
ATOM    138  H33 UNL A   1      14.941  23.065  -0.223  1.00  0.00    +0.000 H 
ATOM    139  H34 UNL A   1      16.299  21.122  -0.746  1.00  0.00    +0.000 H 
ATOM    140  H35 UNL A   1      17.307  22.530  -0.929  1.00  0.00    +0.000 H 
ATOM    141  H36 UNL A   1      15.945  20.947  -3.082  1.00  0.00    +0.000 H 
ATOM    142  H37 UNL A   1      17.684  21.228  -2.838  1.00  0.00    +0.000 H 
ATOM    143  H38 UNL A   1      16.488  22.478  -4.725  1.00  0.00    +0.000 H 
ATOM    144  H39 UNL A   1      17.601  23.345  -3.620  1.00  0.00    +0.000 H 
ATOM    145  H40 UNL A   1      15.793  24.802  -3.975  1.00  0.00    +0.000 H 
ATOM    146  H41 UNL A   1      14.622  23.528  -3.717  1.00  0.00    +0.000 H 
ATOM     24  C20 UNL A   1      15.570  24.218  -1.929  1.00  0.00    +0.000 C 
ATOM     25  C21 UNL A   1      15.224  22.899  -1.242  1.00  0.00    +0.000 C 
ATOM     26  C22 UNL A   1      16.458  22.010  -1.321  1.00  0.00    +0.000 C 
ATOM     27  C23 UNL A   1      16.699  21.642  -2.779  1.00  0.00    +0.000 C 
ATOM     28  C24 UNL A   1      16.661  22.848  -3.736  1.00  0.00    +0.000 C 
ATOM     29  C25 UNL A   1      15.580  23.907  -3.429  1.00  0.00    +0.000 C 
ENDBRANCH   23   24
ENDBRANCH   22   23
ENDBRANCH   21   22
ENDBRANCH   20   21
ENDBRANCH    6    7
ENDBRANCH    5    6
ENDBRANCH   31    5
ENDBRANCH   33   31
ENDBRANCH   34   33
ENDBRANCH   35   34
ENDBRANCH   36   35
ENDBRANCH   37   36
ENDBRANCH   38   37
ENDBRANCH   39   38
ENDBRANCH   40   39
ENDBRANCH   41   40
ENDBRANCH   43   41
ENDBRANCH   47   46
BRANCH   51   52
ATOM     52  C42 UNL A   1      20.176  22.602   2.309  1.00  0.00    +0.000 C 
ATOM     53  C43 UNL A   1      21.018  23.674   2.647  1.00  0.00    +0.000 C 
ATOM     54  F1  UNL A   1      21.270  23.954   3.935  1.00  0.00    +0.000 F 
ATOM     55  C44 UNL A   1      21.571  24.489   1.663  1.00  0.00    +0.000 C 
ATOM     56  F2  UNL A   1      22.329  25.537   2.013  1.00  0.00    +0.000 F 
ATOM     57  C45 UNL A   1      21.326  24.228   0.324  1.00  0.00    +0.000 C 
ATOM     58  F3  UNL A   1      21.866  25.008  -0.622  1.00  0.00    +0.000 F 
ATOM     59  C46 UNL A   1      20.516  23.161  -0.034  1.00  0.00    +0.000 C 
ATOM     60  F4  UNL A   1      20.289  22.899  -1.329  1.00  0.00    +0.000 F 
ATOM     61  C47 UNL A   1      19.934  22.363   0.948  1.00  0.00    +0.000 C 
ATOM     62  F5  UNL A   1      19.141  21.349   0.569  1.00  0.00    +0.000 F 
ENDBRANCH   51   52
BRANCH   68   69
ATOM     69  C53 UNL A   1      22.122  16.972   6.371  1.00  0.00    +0.000 C 
ATOM     70  C54 UNL A   1      22.433  15.846   5.596  1.00  0.00    +0.000 C 
ATOM     71  F6  UNL A   1      21.598  15.443   4.626  1.00  0.00    +0.000 F 
ATOM     72  C55 UNL A   1      23.584  15.103   5.843  1.00  0.00    +0.000 C 
ATOM     73  F7  UNL A   1      23.833  14.000   5.124  1.00  0.00    +0.000 F 
ATOM     74  C56 UNL A   1      24.463  15.492   6.842  1.00  0.00    +0.000 C 
ATOM     75  F8  UNL A   1      25.573  14.778   7.075  1.00  0.00    +0.000 F 
ATOM     76  C57 UNL A   1      24.188  16.616   7.607  1.00  0.00    +0.000 C 
ATOM     77  F9  UNL A   1      25.044  17.003   8.562  1.00  0.00    +0.000 F 
ATOM     78  C58 UNL A   1      23.023  17.343   7.383  1.00  0.00    +0.000 C 
ATOM     79  F10 UNL A   1      22.776  18.416   8.149  1.00  0.00    +0.000 F 
ENDBRANCH   68   69
BRANCH   83   84
ATOM     84  C62 UNL A   1      15.748  16.835   9.175  1.00  0.00    +0.000 C 
ATOM     85  C63 UNL A   1      15.751  17.186  10.533  1.00  0.00    +0.000 C 
ATOM     86  F11 UNL A   1      16.345  18.322  10.929  1.00  0.00    +0.000 F 
ATOM     87  C64 UNL A   1      15.190  16.350  11.495  1.00  0.00    +0.000 C 
ATOM     88  F12 UNL A   1      15.257  16.683  12.791  1.00  0.00    +0.000 F 
ATOM     89  C65 UNL A   1      14.583  15.162  11.115  1.00  0.00    +0.000 C 
ATOM     90  F13 UNL A   1      14.046  14.356  12.040  1.00  0.00    +0.000 F 
ATOM     91  C66 UNL A   1      14.544  14.807   9.776  1.00  0.00    +0.000 C 
ATOM     92  F14 UNL A   1      13.946  13.666   9.403  1.00  0.00    +0.000 F 
ATOM     93  C67 UNL A   1      15.132  15.628   8.816  1.00  0.00    +0.000 C 
ATOM     94  F15 UNL A   1      15.095  15.249   7.530  1.00  0.00    +0.000 F 
ENDBRANCH   83   84
TORSDOF 29
ENDMDL
MODEL 4
REMARK VINA RESULT:      -6.4     63.476     70.209
ROOT
ATOM    163  H58 UNL A   1      52.877  13.526  51.298  1.00  0.00    +0.000 H 
ATOM    164  H59 UNL A   1      53.201  11.800  53.225  1.00  0.00    +0.000 H 
ATOM    165  H60 UNL A   1      49.736  10.828  51.178  1.00  0.00    +0.000 H 
ATOM    166  H61 UNL A   1      44.548   7.145  50.558  1.00  0.00    +0.000 H 
ATOM    167  H62 UNL A   1      44.268   8.794  48.646  1.00  0.00    +0.000 H 
ATOM    168  H63 UNL A   1      47.774   9.765  50.656  1.00  0.00    +0.000 H 
ATOM    169  H64 UNL A   1      48.286   6.364  54.308  1.00  0.00    +0.000 H 
ATOM    170  H65 UNL A   1      50.328   7.697  55.082  1.00  0.00    +0.000 H 
ATOM    171  H66 UNL A   1      49.273  14.013  47.348  1.00  0.00    +0.000 H 
ATOM    172  H67 UNL A   1      46.941  13.054  46.902  1.00  0.00    +0.000 H 
ATOM     47  C38 UNL A   1      46.317  10.772  48.494  1.00  0.00    +0.000 C 
ATOM     48  C39 UNL A   1      47.528  11.659  48.592  1.00  0.00    +0.000 C 
ATOM     49  N5  UNL A   1      48.544  11.588  49.415  1.00  0.00    +0.000 N 
ATOM     50  C40 UNL A   1      49.400  12.619  49.047  1.00  0.00    +0.000 C 
ATOM     51  C41 UNL A   1      50.552  13.012  49.639  1.00  0.00    +0.000 C 
ATOM     63  C48 UNL A   1      51.111  12.387  50.808  1.00  0.00    +0.000 C 
ATOM     64  C49 UNL A   1      52.254  12.731  51.510  1.00  0.00    +0.000 C 
ATOM     65  C50 UNL A   1      52.417  11.816  52.555  1.00  0.00    +0.000 C 
ATOM     66  C51 UNL A   1      51.348  10.935  52.537  1.00  0.00    +0.000 C 
ATOM     67  N6  UNL A   1      50.562  11.288  51.452  1.00  0.00    +0.000 N 
ATOM     68  C52 UNL A   1      51.063   9.854  53.445  1.00  0.00    +0.000 C 
ATOM     80  C59 UNL A   1      50.006   9.011  53.344  1.00  0.00    +0.000 C 
ATOM     81  N7  UNL A   1      48.982   8.999  52.407  1.00  0.00    +0.000 N 
ATOM     82  C60 UNL A   1      48.209   7.990  52.729  1.00  0.00    +0.000 C 
ATOM     83  C61 UNL A   1      46.925   7.531  52.091  1.00  0.00    +0.000 C 
ATOM     95  C68 UNL A   1      46.436   8.216  51.041  1.00  0.00    +0.000 C 
ATOM     96  C69 UNL A   1      45.199   7.912  50.328  1.00  0.00    +0.000 C 
ATOM     97  C70 UNL A   1      45.046   8.790  49.324  1.00  0.00    +0.000 C 
ATOM     98  C71 UNL A   1      46.158   9.742  49.346  1.00  0.00    +0.000 C 
ATOM     99  N8  UNL A   1      46.936   9.319  50.394  1.00  0.00    +0.000 N 
ATOM    100  C72 UNL A   1      48.682   7.220  53.888  1.00  0.00    +0.000 C 
ATOM    101  C73 UNL A   1      49.750   7.913  54.254  1.00  0.00    +0.000 C 
ATOM    102  C74 UNL A   1      48.818  13.261  47.889  1.00  0.00    +0.000 C 
ATOM    103  C75 UNL A   1      47.626  12.756  47.614  1.00  0.00    +0.000 C 
ENDROOT
BRANCH   47   46
ATOM    161  H56 UNL A   1      43.028  13.244  46.391  1.00  0.00    +0.000 H 
ATOM    162  H57 UNL A   1      44.652  12.882  48.157  1.00  0.00    +0.000 H 
ATOM    104  C76 UNL A   1      45.176  10.074  46.390  1.00  0.00    +0.000 C 
ATOM    105  C77 UNL A   1      44.313  10.328  45.331  1.00  0.00    +0.000 C 
ATOM     43  C34 UNL A   1      43.497  11.464  45.353  1.00  0.00    +0.000 C 
ATOM     44  C35 UNL A   1      43.618  12.397  46.385  1.00  0.00    +0.000 C 
ATOM     45  C36 UNL A   1      44.540  12.179  47.409  1.00  0.00    +0.000 C 
ATOM    174  H69 UNL A   1      44.273   9.680  44.528  1.00  0.00    +0.000 H 
ATOM    173  H68 UNL A   1      45.717   9.195  46.414  1.00  0.00    +0.000 H 
ATOM     46  C37 UNL A   1      45.316  11.008  47.426  1.00  0.00    +0.000 C 
BRANCH   43   41
ATOM     41  C33 UNL A   1      42.525  11.720  44.271  1.00  0.00    +0.000 C 
ATOM     42  O4  UNL A   1      42.229  10.822  43.486  1.00  0.00    +0.000 O 
BRANCH   41   40
ATOM    160  H55 UNL A   1      41.963  13.514  44.960  1.00  0.00    +0.000 H 
ATOM     40  N4  UNL A   1      41.954  12.957  44.148  1.00  0.00    +0.000 N 
BRANCH   40   39
ATOM    159  H54 UNL A   1      40.520  14.173  43.313  1.00  0.00    +0.000 H 
ATOM    158  H53 UNL A   1      40.990  12.788  42.328  1.00  0.00    +0.000 H 
ATOM     39  C32 UNL A   1      41.334  13.563  42.981  1.00  0.00    +0.000 C 
BRANCH   39   38
ATOM    156  H51 UNL A   1      42.335  15.409  42.694  1.00  0.00    +0.000 H 
ATOM    157  H52 UNL A   1      43.260  13.955  42.244  1.00  0.00    +0.000 H 
ATOM     38  C31 UNL A   1      42.312  14.450  42.220  1.00  0.00    +0.000 C 
BRANCH   38   37
ATOM    154  H49 UNL A   1      41.968  13.694  40.265  1.00  0.00    +0.000 H 
ATOM    155  H50 UNL A   1      40.996  15.120  40.726  1.00  0.00    +0.000 H 
ATOM     37  C30 UNL A   1      41.957  14.651  40.744  1.00  0.00    +0.000 C 
BRANCH   37   36
ATOM    153  H48 UNL A   1      42.306  16.111  39.266  1.00  0.00    +0.000 H 
ATOM     36  C29 UNL A   1      42.906  15.580  39.975  1.00  0.00    +0.000 C 
ATOM    152  H47 UNL A   1      43.662  14.980  39.515  1.00  0.00    +0.000 H 
BRANCH   36   35
ATOM     35  C28 UNL A   1      43.594  16.635  40.844  1.00  0.00    +0.000 C 
ATOM    150  H45 UNL A   1      43.307  17.605  40.495  1.00  0.00    +0.000 H 
ATOM    151  H46 UNL A   1      43.287  16.470  41.855  1.00  0.00    +0.000 H 
BRANCH   35   34
ATOM     34  C27 UNL A   1      45.118  16.533  40.804  1.00  0.00    +0.000 C 
ATOM    148  H43 UNL A   1      45.409  15.531  41.037  1.00  0.00    +0.000 H 
ATOM    149  H44 UNL A   1      45.454  16.800  39.825  1.00  0.00    +0.000 H 
BRANCH   34   33
ATOM     33  N3  UNL A   1      45.720  17.441  41.769  1.00  0.00    +0.000 N 
ATOM    147  H42 UNL A   1      45.772  18.380  41.476  1.00  0.00    +0.000 H 
BRANCH   33   31
ATOM     31  C26 UNL A   1      46.228  17.201  43.020  1.00  0.00    +0.000 C 
ATOM     32  O3  UNL A   1      47.448  17.049  43.126  1.00  0.00    +0.000 O 
BRANCH   31    5
ATOM    115  H10 UNL A   1      44.320  17.563  44.257  1.00  0.00    +0.000 H 
ATOM      5  C5  UNL A   1      45.301  17.136  44.253  1.00  0.00    +0.000 C 
BRANCH    5    4
ATOM    113  H8  UNL A   1      44.215  15.607  45.244  1.00  0.00    +0.000 H 
ATOM    114  H9  UNL A   1      44.611  15.357  43.460  1.00  0.00    +0.000 H 
ATOM      4  C4  UNL A   1      44.924  15.639  44.444  1.00  0.00    +0.000 C 
BRANCH    4    3
ATOM      3  C3  UNL A   1      45.974  14.576  44.761  1.00  0.00    +0.000 C 
ATOM    111  H6  UNL A   1      46.917  15.072  44.856  1.00  0.00    +0.000 H 
ATOM    112  H7  UNL A   1      45.624  14.097  45.653  1.00  0.00    +0.000 H 
BRANCH    3    2
ATOM      2  C2  UNL A   1      46.148  13.445  43.749  1.00  0.00    +0.000 C 
ATOM    109  H4  UNL A   1      45.181  13.067  43.491  1.00  0.00    +0.000 H 
ATOM    110  H5  UNL A   1      46.658  13.852  42.900  1.00  0.00    +0.000 H 
BRANCH    2    1
ATOM      1  C1  UNL A   1      46.990  12.297  44.275  1.00  0.00    +0.000 C 
ATOM    106  H1  UNL A   1      46.677  12.051  45.269  1.00  0.00    +0.000 H 
ATOM    107  H2  UNL A   1      48.019  12.586  44.286  1.00  0.00    +0.000 H 
ATOM    108  H3  UNL A   1      46.865  11.443  43.641  1.00  0.00    +0.000 H 
ENDBRANCH    2    1
ENDBRANCH    3    2
ENDBRANCH    4    3
ENDBRANCH    5    4
BRANCH    5    6
ATOM      6  S1  UNL A   1      46.240  18.165  45.512  1.00  0.00    +0.000 S 
BRANCH    6    7
ATOM    131  H26 UNL A   1      44.015  19.718  49.986  1.00  0.00    +0.000 H 
ATOM      7  C6  UNL A   1      45.001  18.729  46.627  1.00  0.00    +0.000 C 
ATOM      8  N1  UNL A   1      44.978  20.055  46.880  1.00  0.00    +0.000 N 
ATOM      9  C7  UNL A   1      44.505  20.417  48.076  1.00  0.00    +0.000 C 
ATOM     19  C16 UNL A   1      44.151  19.472  48.993  1.00  0.00    +0.000 C 
ATOM     20  C17 UNL A   1      43.982  18.193  48.555  1.00  0.00    +0.000 C 
ATOM     30  N2  UNL A   1      44.401  17.798  47.360  1.00  0.00    +0.000 N 
BRANCH    9   10
ATOM     10  O1  UNL A   1      44.389  21.770  48.293  1.00  0.00    +0.000 O 
BRANCH   10   11
ATOM     11  C8  UNL A   1      45.565  22.585  48.198  1.00  0.00    +0.000 C 
ATOM    116  H11 UNL A   1      45.352  23.518  48.674  1.00  0.00    +0.000 H 
ATOM    117  H12 UNL A   1      45.777  22.654  47.152  1.00  0.00    +0.000 H 
BRANCH   11   12
ATOM     12  C9  UNL A   1      46.860  22.014  48.839  1.00  0.00    +0.000 C 
ATOM    118  H13 UNL A   1      46.592  21.128  49.375  1.00  0.00    +0.000 H 
ATOM    119  H14 UNL A   1      47.244  22.807  49.447  1.00  0.00    +0.000 H 
BRANCH   12   13
ATOM    129  H24 UNL A   1      48.625  19.995  49.087  1.00  0.00    +0.000 H 
ATOM    130  H25 UNL A   1      49.652  21.401  49.229  1.00  0.00    +0.000 H 
ATOM     13  C10 UNL A   1      48.007  21.652  47.883  1.00  0.00    +0.000 C 
ATOM     14  C11 UNL A   1      48.672  22.857  47.199  1.00  0.00    +0.000 C 
ATOM     15  C12 UNL A   1      49.652  22.380  46.120  1.00  0.00    +0.000 C 
ATOM     16  C13 UNL A   1      50.639  21.319  46.611  1.00  0.00    +0.000 C 
ATOM     17  C14 UNL A   1      50.013  20.227  47.481  1.00  0.00    +0.000 C 
ATOM     18  C15 UNL A   1      49.086  20.798  48.550  1.00  0.00    +0.000 C 
ATOM    120  H15 UNL A   1      47.522  21.078  47.121  1.00  0.00    +0.000 H 
ATOM    121  H16 UNL A   1      49.203  23.429  47.931  1.00  0.00    +0.000 H 
ATOM    122  H17 UNL A   1      47.915  23.459  46.742  1.00  0.00    +0.000 H 
ATOM    123  H18 UNL A   1      50.210  23.225  45.773  1.00  0.00    +0.000 H 
ATOM    124  H19 UNL A   1      49.069  21.931  45.344  1.00  0.00    +0.000 H 
ATOM    125  H20 UNL A   1      51.399  21.807  47.184  1.00  0.00    +0.000 H 
ATOM    126  H21 UNL A   1      51.022  20.832  45.739  1.00  0.00    +0.000 H 
ATOM    127  H22 UNL A   1      50.797  19.679  47.960  1.00  0.00    +0.000 H 
ATOM    128  H23 UNL A   1      49.429  19.598  46.843  1.00  0.00    +0.000 H 
ENDBRANCH   12   13
ENDBRANCH   11   12
ENDBRANCH   10   11
ENDBRANCH    9   10
BRANCH   20   21
ATOM     21  O2  UNL A   1      43.655  17.181  49.415  1.00  0.00    +0.000 O 
BRANCH   21   22
ATOM    132  H27 UNL A   1      45.048  15.678  49.364  1.00  0.00    +0.000 H 
ATOM    133  H28 UNL A   1      44.052  15.816  47.937  1.00  0.00    +0.000 H 
ATOM     22  C18 UNL A   1      44.060  15.875  49.005  1.00  0.00    +0.000 C 
BRANCH   22   23
ATOM    135  H30 UNL A   1      42.293  15.361  50.078  1.00  0.00    +0.000 H 
ATOM    134  H29 UNL A   1      42.709  14.223  48.787  1.00  0.00    +0.000 H 
ATOM     23  C19 UNL A   1      43.080  14.828  49.587  1.00  0.00    +0.000 C 
BRANCH   23   24
ATOM    136  H31 UNL A   1      43.503  14.431  51.536  1.00  0.00    +0.000 H 
ATOM    137  H32 UNL A   1      43.659  11.924  49.828  1.00  0.00    +0.000 H 
ATOM    138  H33 UNL A   1      42.130  12.499  50.402  1.00  0.00    +0.000 H 
ATOM    139  H34 UNL A   1      42.988  10.909  52.023  1.00  0.00    +0.000 H 
ATOM    140  H35 UNL A   1      43.094  12.493  52.737  1.00  0.00    +0.000 H 
ATOM    141  H36 UNL A   1      45.289  10.898  51.461  1.00  0.00    +0.000 H 
ATOM    142  H37 UNL A   1      45.165  11.479  53.138  1.00  0.00    +0.000 H 
ATOM    143  H38 UNL A   1      46.786  12.657  51.544  1.00  0.00    +0.000 H 
ATOM    144  H39 UNL A   1      45.688  13.608  52.594  1.00  0.00    +0.000 H 
ATOM    145  H40 UNL A   1      45.716  14.723  50.527  1.00  0.00    +0.000 H 
ATOM    146  H41 UNL A   1      45.507  13.231  49.638  1.00  0.00    +0.000 H 
ATOM     24  C20 UNL A   1      43.740  13.911  50.630  1.00  0.00    +0.000 C 
ATOM     25  C21 UNL A   1      43.182  12.490  50.600  1.00  0.00    +0.000 C 
ATOM     26  C22 UNL A   1      43.469  11.863  51.958  1.00  0.00    +0.000 C 
ATOM     27  C23 UNL A   1      44.974  11.691  52.106  1.00  0.00    +0.000 C 
ATOM     28  C24 UNL A   1      45.779  12.955  51.752  1.00  0.00    +0.000 C 
ATOM     29  C25 UNL A   1      45.260  13.755  50.537  1.00  0.00    +0.000 C 
ENDBRANCH   23   24
ENDBRANCH   22   23
ENDBRANCH   21   22
ENDBRANCH   20   21
ENDBRANCH    6    7
ENDBRANCH    5    6
ENDBRANCH   31    5
ENDBRANCH   33   31
ENDBRANCH   34   33
ENDBRANCH   35   34
ENDBRANCH   36   35
ENDBRANCH   37   36
ENDBRANCH   38   37
ENDBRANCH   39   38
ENDBRANCH   40   39
ENDBRANCH   41   40
ENDBRANCH   43   41
ENDBRANCH   47   46
BRANCH   51   52
ATOM     52  C42 UNL A   1      51.279  14.180  49.037  1.00  0.00    +0.000 C 
ATOM     53  C43 UNL A   1      51.025  15.497  49.452  1.00  0.00    +0.000 C 
ATOM     54  F1  UNL A   1      50.084  15.744  50.375  1.00  0.00    +0.000 F 
ATOM     55  C44 UNL A   1      51.710  16.571  48.889  1.00  0.00    +0.000 C 
ATOM     56  F2  UNL A   1      51.414  17.823  49.265  1.00  0.00    +0.000 F 
ATOM     57  C45 UNL A   1      52.687  16.348  47.931  1.00  0.00    +0.000 C 
ATOM     58  F3  UNL A   1      53.351  17.383  47.397  1.00  0.00    +0.000 F 
ATOM     59  C46 UNL A   1      52.970  15.055  47.521  1.00  0.00    +0.000 C 
ATOM     60  F4  UNL A   1      53.923  14.837  46.604  1.00  0.00    +0.000 F 
ATOM     61  C47 UNL A   1      52.264  13.980  48.058  1.00  0.00    +0.000 C 
ATOM     62  F5  UNL A   1      52.550  12.742  47.628  1.00  0.00    +0.000 F 
ENDBRANCH   51   52
BRANCH   68   69
ATOM     69  C53 UNL A   1      51.988   9.662  54.611  1.00  0.00    +0.000 C 
ATOM     70  C54 UNL A   1      51.804  10.342  55.822  1.00  0.00    +0.000 C 
ATOM     71  F6  UNL A   1      50.807  11.229  55.955  1.00  0.00    +0.000 F 
ATOM     72  C55 UNL A   1      52.674  10.145  56.892  1.00  0.00    +0.000 C 
ATOM     73  F7  UNL A   1      52.511  10.846  58.022  1.00  0.00    +0.000 F 
ATOM     74  C56 UNL A   1      53.718   9.238  56.784  1.00  0.00    +0.000 C 
ATOM     75  F8  UNL A   1      54.550   9.046  57.816  1.00  0.00    +0.000 F 
ATOM     76  C57 UNL A   1      53.905   8.537  55.602  1.00  0.00    +0.000 C 
ATOM     77  F9  UNL A   1      54.903   7.649  55.500  1.00  0.00    +0.000 F 
ATOM     78  C58 UNL A   1      53.056   8.755  54.521  1.00  0.00    +0.000 C 
ATOM     79  F10 UNL A   1      53.272   8.073  53.386  1.00  0.00    +0.000 F 
ENDBRANCH   68   69
BRANCH   83   84
ATOM     84  C62 UNL A   1      46.184   6.360  52.629  1.00  0.00    +0.000 C 
ATOM     85  C63 UNL A   1      46.471   5.062  52.182  1.00  0.00    +0.000 C 
ATOM     86  F11 UNL A   1      47.424   4.867  51.259  1.00  0.00    +0.000 F 
ATOM     87  C64 UNL A   1      45.747   3.965  52.644  1.00  0.00    +0.000 C 
ATOM     88  F12 UNL A   1      46.004   2.743  52.159  1.00  0.00    +0.000 F 
ATOM     89  C65 UNL A   1      44.746   4.140  53.588  1.00  0.00    +0.000 C 
ATOM     90  F13 UNL A   1      44.047   3.085  54.030  1.00  0.00    +0.000 F 
ATOM     91  C66 UNL A   1      44.463   5.411  54.064  1.00  0.00    +0.000 C 
ATOM     92  F14 UNL A   1      43.505   5.582  54.986  1.00  0.00    +0.000 F 
ATOM     93  C67 UNL A   1      45.165   6.513  53.580  1.00  0.00    +0.000 C 
ATOM     94  F15 UNL A   1      44.857   7.732  54.045  1.00  0.00    +0.000 F 
ENDBRANCH   83   84
TORSDOF 29
ENDMDL
MODEL 5
REMARK VINA RESULT:      -6.4     52.809     57.902
ROOT
ATOM    163  H58 UNL A   1      31.397  41.898  46.688  1.00  0.00    +0.000 H 
ATOM    164  H59 UNL A   1      33.074  43.878  46.942  1.00  0.00    +0.000 H 
ATOM    165  H60 UNL A   1      29.242  45.334  47.526  1.00  0.00    +0.000 H 
ATOM    166  H61 UNL A   1      25.324  50.271  48.596  1.00  0.00    +0.000 H 
ATOM    167  H62 UNL A   1      23.700  48.327  48.405  1.00  0.00    +0.000 H 
ATOM    168  H63 UNL A   1      27.539  46.831  47.859  1.00  0.00    +0.000 H 
ATOM    169  H64 UNL A   1      30.652  50.727  48.394  1.00  0.00    +0.000 H 
ATOM    170  H65 UNL A   1      32.546  49.132  47.751  1.00  0.00    +0.000 H 
ATOM    171  H66 UNL A   1      26.077  41.469  47.269  1.00  0.00    +0.000 H 
ATOM    172  H67 UNL A   1      24.128  43.129  47.343  1.00  0.00    +0.000 H 
ATOM     47  C38 UNL A   1      24.933  45.819  47.835  1.00  0.00    +0.000 C 
ATOM     48  C39 UNL A   1      25.815  44.625  47.593  1.00  0.00    +0.000 C 
ATOM     49  N5  UNL A   1      27.122  44.553  47.550  1.00  0.00    +0.000 N 
ATOM     50  C40 UNL A   1      27.419  43.213  47.340  1.00  0.00    +0.000 C 
ATOM     51  C41 UNL A   1      28.628  42.636  47.146  1.00  0.00    +0.000 C 
ATOM     63  C48 UNL A   1      29.872  43.358  47.131  1.00  0.00    +0.000 C 
ATOM     64  C49 UNL A   1      31.150  42.875  46.906  1.00  0.00    +0.000 C 
ATOM     65  C50 UNL A   1      32.047  43.942  47.024  1.00  0.00    +0.000 C 
ATOM     66  C51 UNL A   1      31.324  45.098  47.269  1.00  0.00    +0.000 C 
ATOM     67  N6  UNL A   1      29.992  44.723  47.346  1.00  0.00    +0.000 N 
ATOM     68  C52 UNL A   1      31.812  46.445  47.417  1.00  0.00    +0.000 C 
ATOM     80  C59 UNL A   1      31.041  47.527  47.687  1.00  0.00    +0.000 C 
ATOM     81  N7  UNL A   1      29.664  47.602  47.853  1.00  0.00    +0.000 N 
ATOM     82  C60 UNL A   1      29.399  48.860  48.104  1.00  0.00    +0.000 C 
ATOM     83  C61 UNL A   1      28.067  49.528  48.323  1.00  0.00    +0.000 C 
ATOM     95  C68 UNL A   1      26.946  48.788  48.252  1.00  0.00    +0.000 C 
ATOM     96  C69 UNL A   1      25.584  49.288  48.420  1.00  0.00    +0.000 C 
ATOM     97  C70 UNL A   1      24.725  48.262  48.309  1.00  0.00    +0.000 C 
ATOM     98  C71 UNL A   1      25.475  47.037  48.027  1.00  0.00    +0.000 C 
ATOM     99  N8  UNL A   1      26.785  47.444  48.018  1.00  0.00    +0.000 N 
ATOM    100  C72 UNL A   1      30.587  49.722  48.167  1.00  0.00    +0.000 C 
ATOM    101  C73 UNL A   1      31.554  48.871  47.857  1.00  0.00    +0.000 C 
ATOM    102  C74 UNL A   1      26.163  42.496  47.328  1.00  0.00    +0.000 C 
ATOM    103  C75 UNL A   1      25.138  43.331  47.403  1.00  0.00    +0.000 C 
ENDROOT
BRANCH   47   46
ATOM    161  H56 UNL A   1      20.966  45.089  50.088  1.00  0.00    +0.000 H 
ATOM    162  H57 UNL A   1      23.376  45.360  50.002  1.00  0.00    +0.000 H 
ATOM    104  C76 UNL A   1      22.695  45.759  46.738  1.00  0.00    +0.000 C 
ATOM    105  C77 UNL A   1      21.308  45.697  46.803  1.00  0.00    +0.000 C 
ATOM     43  C34 UNL A   1      20.680  45.410  48.018  1.00  0.00    +0.000 C 
ATOM     44  C35 UNL A   1      21.432  45.284  49.188  1.00  0.00    +0.000 C 
ATOM     45  C36 UNL A   1      22.819  45.422  49.135  1.00  0.00    +0.000 C 
ATOM    174  H69 UNL A   1      20.742  45.864  45.956  1.00  0.00    +0.000 H 
ATOM    173  H68 UNL A   1      23.163  45.888  45.826  1.00  0.00    +0.000 H 
ATOM     46  C37 UNL A   1      23.463  45.647  47.906  1.00  0.00    +0.000 C 
BRANCH   43   41
ATOM     41  C33 UNL A   1      19.211  45.274  48.099  1.00  0.00    +0.000 C 
ATOM     42  O4  UNL A   1      18.499  46.274  48.040  1.00  0.00    +0.000 O 
BRANCH   41   40
ATOM    160  H55 UNL A   1      18.669  43.467  47.430  1.00  0.00    +0.000 H 
ATOM     40  N4  UNL A   1      18.648  44.035  48.234  1.00  0.00    +0.000 N 
BRANCH   40   39
ATOM    159  H54 UNL A   1      16.997  43.239  49.167  1.00  0.00    +0.000 H 
ATOM    158  H53 UNL A   1      18.096  44.125  50.223  1.00  0.00    +0.000 H 
ATOM     39  C32 UNL A   1      18.021  43.441  49.404  1.00  0.00    +0.000 C 
BRANCH   39   38
ATOM    156  H51 UNL A   1      19.136  42.253  50.758  1.00  0.00    +0.000 H 
ATOM    157  H52 UNL A   1      17.921  41.381  49.790  1.00  0.00    +0.000 H 
ATOM     38  C31 UNL A   1      18.687  42.128  49.795  1.00  0.00    +0.000 C 
BRANCH   38   37
ATOM    154  H49 UNL A   1      19.492  41.983  47.835  1.00  0.00    +0.000 H 
ATOM    155  H50 UNL A   1      20.688  42.081  49.158  1.00  0.00    +0.000 H 
ATOM     37  C30 UNL A   1      19.767  41.658  48.817  1.00  0.00    +0.000 C 
BRANCH   37   36
ATOM    153  H48 UNL A   1      21.022  39.971  48.945  1.00  0.00    +0.000 H 
ATOM     36  C29 UNL A   1      19.979  40.139  48.774  1.00  0.00    +0.000 C 
ATOM    152  H47 UNL A   1      19.650  39.782  47.821  1.00  0.00    +0.000 H 
BRANCH   36   35
ATOM     35  C28 UNL A   1      19.227  39.368  49.861  1.00  0.00    +0.000 C 
ATOM    150  H45 UNL A   1      19.928  39.056  50.606  1.00  0.00    +0.000 H 
ATOM    151  H46 UNL A   1      18.483  40.023  50.265  1.00  0.00    +0.000 H 
BRANCH   35   34
ATOM     34  C27 UNL A   1      18.507  38.134  49.322  1.00  0.00    +0.000 C 
ATOM    148  H43 UNL A   1      18.611  37.333  50.023  1.00  0.00    +0.000 H 
ATOM    149  H44 UNL A   1      17.474  38.372  49.180  1.00  0.00    +0.000 H 
BRANCH   34   33
ATOM     33  N3  UNL A   1      19.072  37.725  48.043  1.00  0.00    +0.000 N 
ATOM    147  H42 UNL A   1      20.049  37.824  47.974  1.00  0.00    +0.000 H 
BRANCH   33   31
ATOM     31  C26 UNL A   1      18.463  37.226  46.921  1.00  0.00    +0.000 C 
ATOM     32  O3  UNL A   1      18.709  37.772  45.841  1.00  0.00    +0.000 O 
BRANCH   31    5
ATOM    115  H10 UNL A   1      17.570  35.293  47.797  1.00  0.00    +0.000 H 
ATOM      5  C5  UNL A   1      17.511  36.014  47.008  1.00  0.00    +0.000 C 
BRANCH    5    4
ATOM    113  H8  UNL A   1      16.184  37.651  47.251  1.00  0.00    +0.000 H 
ATOM    114  H9  UNL A   1      15.496  36.086  46.559  1.00  0.00    +0.000 H 
ATOM      4  C4  UNL A   1      16.092  36.586  47.293  1.00  0.00    +0.000 C 
BRANCH    4    3
ATOM      3  C3  UNL A   1      15.340  36.273  48.585  1.00  0.00    +0.000 C 
ATOM    111  H6  UNL A   1      14.513  35.644  48.333  1.00  0.00    +0.000 H 
ATOM    112  H7  UNL A   1      16.068  35.825  49.229  1.00  0.00    +0.000 H 
BRANCH    3    2
ATOM      2  C2  UNL A   1      14.792  37.460  49.376  1.00  0.00    +0.000 C 
ATOM    109  H4  UNL A   1      15.267  37.479  50.334  1.00  0.00    +0.000 H 
ATOM    110  H5  UNL A   1      14.998  38.344  48.808  1.00  0.00    +0.000 H 
BRANCH    2    1
ATOM      1  C1  UNL A   1      13.290  37.396  49.584  1.00  0.00    +0.000 C 
ATOM    106  H1  UNL A   1      13.014  36.410  49.896  1.00  0.00    +0.000 H 
ATOM    107  H2  UNL A   1      12.793  37.631  48.667  1.00  0.00    +0.000 H 
ATOM    108  H3  UNL A   1      13.004  38.102  50.336  1.00  0.00    +0.000 H 
ENDBRANCH    2    1
ENDBRANCH    3    2
ENDBRANCH    4    3
ENDBRANCH    5    4
BRANCH    5    6
ATOM      6  S1  UNL A   1      17.973  35.033  45.475  1.00  0.00    +0.000 S 
BRANCH    6    7
ATOM    131  H26 UNL A   1      22.947  34.455  46.992  1.00  0.00    +0.000 H 
ATOM      7  C6  UNL A   1      19.484  34.238  45.902  1.00  0.00    +0.000 C 
ATOM      8  N1  UNL A   1      19.712  34.046  47.218  1.00  0.00    +0.000 N 
ATOM      9  C7  UNL A   1      20.993  34.011  47.593  1.00  0.00    +0.000 C 
ATOM     19  C16 UNL A   1      21.985  34.241  46.686  1.00  0.00    +0.000 C 
ATOM     20  C17 UNL A   1      21.663  34.180  45.364  1.00  0.00    +0.000 C 
ATOM     30  N2  UNL A   1      20.405  34.173  44.946  1.00  0.00    +0.000 N 
BRANCH    9   10
ATOM     10  O1  UNL A   1      21.225  33.716  48.917  1.00  0.00    +0.000 O 
BRANCH   10   11
ATOM     11  C8  UNL A   1      20.979  34.730  49.900  1.00  0.00    +0.000 C 
ATOM    116  H11 UNL A   1      21.220  34.318  50.858  1.00  0.00    +0.000 H 
ATOM    117  H12 UNL A   1      19.951  35.001  49.775  1.00  0.00    +0.000 H 
BRANCH   11   12
ATOM     12  C9  UNL A   1      21.772  36.056  49.746  1.00  0.00    +0.000 C 
ATOM    118  H13 UNL A   1      21.228  36.820  50.261  1.00  0.00    +0.000 H 
ATOM    119  H14 UNL A   1      21.863  36.206  48.690  1.00  0.00    +0.000 H 
BRANCH   12   13
ATOM    129  H24 UNL A   1      22.895  37.871  51.389  1.00  0.00    +0.000 H 
ATOM    130  H25 UNL A   1      23.806  38.095  49.916  1.00  0.00    +0.000 H 
ATOM     13  C10 UNL A   1      23.213  36.071  50.278  1.00  0.00    +0.000 C 
ATOM     14  C11 UNL A   1      24.261  35.525  49.295  1.00  0.00    +0.000 C 
ATOM     15  C12 UNL A   1      25.621  35.389  49.992  1.00  0.00    +0.000 C 
ATOM     16  C13 UNL A   1      26.061  36.652  50.734  1.00  0.00    +0.000 C 
ATOM     17  C14 UNL A   1      24.954  37.327  51.546  1.00  0.00    +0.000 C 
ATOM     18  C15 UNL A   1      23.653  37.454  50.759  1.00  0.00    +0.000 C 
ATOM    120  H15 UNL A   1      23.175  35.401  51.112  1.00  0.00    +0.000 H 
ATOM    121  H16 UNL A   1      24.353  36.197  48.468  1.00  0.00    +0.000 H 
ATOM    122  H17 UNL A   1      23.947  34.562  48.951  1.00  0.00    +0.000 H 
ATOM    123  H18 UNL A   1      26.359  35.159  49.250  1.00  0.00    +0.000 H 
ATOM    124  H19 UNL A   1      25.523  34.614  50.722  1.00  0.00    +0.000 H 
ATOM    125  H20 UNL A   1      26.422  37.356  50.013  1.00  0.00    +0.000 H 
ATOM    126  H21 UNL A   1      26.811  36.350  51.434  1.00  0.00    +0.000 H 
ATOM    127  H22 UNL A   1      25.283  38.305  51.830  1.00  0.00    +0.000 H 
ATOM    128  H23 UNL A   1      24.760  36.716  52.403  1.00  0.00    +0.000 H 
ENDBRANCH   12   13
ENDBRANCH   11   12
ENDBRANCH   10   11
ENDBRANCH    9   10
BRANCH   20   21
ATOM     21  O2  UNL A   1      22.592  34.425  44.391  1.00  0.00    +0.000 O 
BRANCH   21   22
ATOM    132  H27 UNL A   1      22.240  36.432  44.615  1.00  0.00    +0.000 H 
ATOM    133  H28 UNL A   1      23.264  36.004  43.267  1.00  0.00    +0.000 H 
ATOM     22  C18 UNL A   1      23.023  35.782  44.286  1.00  0.00    +0.000 C 
BRANCH   22   23
ATOM    135  H30 UNL A   1      24.460  35.077  45.692  1.00  0.00    +0.000 H 
ATOM    134  H29 UNL A   1      25.098  36.263  44.542  1.00  0.00    +0.000 H 
ATOM     23  C19 UNL A   1      24.276  35.993  45.170  1.00  0.00    +0.000 C 
BRANCH   23   24
ATOM    136  H31 UNL A   1      24.156  36.526  47.129  1.00  0.00    +0.000 H 
ATOM    137  H32 UNL A   1      24.866  38.898  45.370  1.00  0.00    +0.000 H 
ATOM    138  H33 UNL A   1      26.091  37.782  45.873  1.00  0.00    +0.000 H 
ATOM    139  H34 UNL A   1      26.006  39.583  47.498  1.00  0.00    +0.000 H 
ATOM    140  H35 UNL A   1      25.346  38.161  48.257  1.00  0.00    +0.000 H 
ATOM    141  H36 UNL A   1      23.854  40.473  47.064  1.00  0.00    +0.000 H 
ATOM    142  H37 UNL A   1      23.849  39.893  48.745  1.00  0.00    +0.000 H 
ATOM    143  H38 UNL A   1      21.806  39.422  47.274  1.00  0.00    +0.000 H 
ATOM    144  H39 UNL A   1      22.520  38.125  48.285  1.00  0.00    +0.000 H 
ATOM    145  H40 UNL A   1      21.942  37.102  46.252  1.00  0.00    +0.000 H 
ATOM    146  H41 UNL A   1      22.651  38.398  45.315  1.00  0.00    +0.000 H 
ATOM     24  C20 UNL A   1      24.081  37.095  46.225  1.00  0.00    +0.000 C 
ATOM     25  C21 UNL A   1      25.137  38.193  46.129  1.00  0.00    +0.000 C 
ATOM     26  C22 UNL A   1      25.194  38.885  47.484  1.00  0.00    +0.000 C 
ATOM     27  C23 UNL A   1      23.881  39.621  47.710  1.00  0.00    +0.000 C 
ATOM     28  C24 UNL A   1      22.634  38.762  47.433  1.00  0.00    +0.000 C 
ATOM     29  C25 UNL A   1      22.733  37.821  46.212  1.00  0.00    +0.000 C 
ENDBRANCH   23   24
ENDBRANCH   22   23
ENDBRANCH   21   22
ENDBRANCH   20   21
ENDBRANCH    6    7
ENDBRANCH    5    6
ENDBRANCH   31    5
ENDBRANCH   33   31
ENDBRANCH   34   33
ENDBRANCH   35   34
ENDBRANCH   36   35
ENDBRANCH   37   36
ENDBRANCH   38   37
ENDBRANCH   39   38
ENDBRANCH   40   39
ENDBRANCH   41   40
ENDBRANCH   43   41
ENDBRANCH   47   46
BRANCH   51   52
ATOM     52  C42 UNL A   1      28.662  41.151  46.925  1.00  0.00    +0.000 C 
ATOM     53  C43 UNL A   1      28.648  40.600  45.633  1.00  0.00    +0.000 C 
ATOM     54  F1  UNL A   1      28.558  41.400  44.560  1.00  0.00    +0.000 F 
ATOM     55  C44 UNL A   1      28.685  39.221  45.441  1.00  0.00    +0.000 C 
ATOM     56  F2  UNL A   1      28.619  38.718  44.201  1.00  0.00    +0.000 F 
ATOM     57  C45 UNL A   1      28.776  38.369  46.530  1.00  0.00    +0.000 C 
ATOM     58  F3  UNL A   1      28.821  37.042  46.343  1.00  0.00    +0.000 F 
ATOM     59  C46 UNL A   1      28.814  38.891  47.814  1.00  0.00    +0.000 C 
ATOM     60  F4  UNL A   1      28.914  38.068  48.868  1.00  0.00    +0.000 F 
ATOM     61  C47 UNL A   1      28.743  40.268  48.012  1.00  0.00    +0.000 C 
ATOM     62  F5  UNL A   1      28.764  40.740  49.268  1.00  0.00    +0.000 F 
ENDBRANCH   51   52
BRANCH   68   69
ATOM     69  C53 UNL A   1      33.282  46.678  47.228  1.00  0.00    +0.000 C 
ATOM     70  C54 UNL A   1      33.810  47.136  46.013  1.00  0.00    +0.000 C 
ATOM     71  F6  UNL A   1      33.005  47.336  44.959  1.00  0.00    +0.000 F 
ATOM     72  C55 UNL A   1      35.178  47.347  45.863  1.00  0.00    +0.000 C 
ATOM     73  F7  UNL A   1      35.667  47.734  44.676  1.00  0.00    +0.000 F 
ATOM     74  C56 UNL A   1      36.037  47.143  46.932  1.00  0.00    +0.000 C 
ATOM     75  F8  UNL A   1      37.352  47.353  46.787  1.00  0.00    +0.000 F 
ATOM     76  C57 UNL A   1      35.534  46.713  48.151  1.00  0.00    +0.000 C 
ATOM     77  F9  UNL A   1      36.359  46.530  49.190  1.00  0.00    +0.000 F 
ATOM     78  C58 UNL A   1      34.171  46.470  48.295  1.00  0.00    +0.000 C 
ATOM     79  F10 UNL A   1      33.716  46.040  49.481  1.00  0.00    +0.000 F 
ENDBRANCH   68   69
BRANCH   83   84
ATOM     84  C62 UNL A   1      27.982  50.990  48.579  1.00  0.00    +0.000 C 
ATOM     85  C63 UNL A   1      27.753  51.480  49.873  1.00  0.00    +0.000 C 
ATOM     86  F11 UNL A   1      27.609  50.626  50.897  1.00  0.00    +0.000 F 
ATOM     87  C64 UNL A   1      27.622  52.847  50.113  1.00  0.00    +0.000 C 
ATOM     88  F12 UNL A   1      27.347  53.284  51.349  1.00  0.00    +0.000 F 
ATOM     89  C65 UNL A   1      27.752  53.751  49.069  1.00  0.00    +0.000 C 
ATOM     90  F13 UNL A   1      27.622  55.065  49.300  1.00  0.00    +0.000 F 
ATOM     91  C66 UNL A   1      28.004  53.291  47.786  1.00  0.00    +0.000 C 
ATOM     92  F14 UNL A   1      28.144  54.163  46.778  1.00  0.00    +0.000 F 
ATOM     93  C67 UNL A   1      28.105  51.923  47.540  1.00  0.00    +0.000 C 
ATOM     94  F15 UNL A   1      28.332  51.507  46.286  1.00  0.00    +0.000 F 
ENDBRANCH   83   84
TORSDOF 29
ENDMDL
MODEL 6
REMARK VINA RESULT:      -6.2     51.723     57.366
ROOT
ATOM    163  H58 UNL A   1      33.645  29.357  50.535  1.00  0.00    +0.000 H 
ATOM    164  H59 UNL A   1      35.558  30.468  49.157  1.00  0.00    +0.000 H 
ATOM    165  H60 UNL A   1      31.935  31.726  47.599  1.00  0.00    +0.000 H 
ATOM    166  H61 UNL A   1      28.671  35.025  43.203  1.00  0.00    +0.000 H 
ATOM    167  H62 UNL A   1      26.810  33.986  44.586  1.00  0.00    +0.000 H 
ATOM    168  H63 UNL A   1      30.434  32.743  46.197  1.00  0.00    +0.000 H 
ATOM    169  H64 UNL A   1      34.015  34.964  43.475  1.00  0.00    +0.000 H 
ATOM    170  H65 UNL A   1      35.706  33.624  44.849  1.00  0.00    +0.000 H 
ATOM    171  H66 UNL A   1      28.293  29.766  50.414  1.00  0.00    +0.000 H 
ATOM    172  H67 UNL A   1      26.585  30.634  48.714  1.00  0.00    +0.000 H 
ATOM     47  C38 UNL A   1      27.721  32.299  46.698  1.00  0.00    +0.000 C 
ATOM     48  C39 UNL A   1      28.444  31.517  47.760  1.00  0.00    +0.000 C 
ATOM     49  N5  UNL A   1      29.729  31.423  47.991  1.00  0.00    +0.000 N 
ATOM     50  C40 UNL A   1      29.853  30.612  49.112  1.00  0.00    +0.000 C 
ATOM     51  C41 UNL A   1      30.981  30.152  49.702  1.00  0.00    +0.000 C 
ATOM     63  C48 UNL A   1      32.311  30.451  49.240  1.00  0.00    +0.000 C 
ATOM     64  C49 UNL A   1      33.521  30.006  49.743  1.00  0.00    +0.000 C 
ATOM     65  C50 UNL A   1      34.547  30.588  48.991  1.00  0.00    +0.000 C 
ATOM     66  C51 UNL A   1      33.976  31.352  47.987  1.00  0.00    +0.000 C 
ATOM     67  N6  UNL A   1      32.603  31.271  48.160  1.00  0.00    +0.000 N 
ATOM     68  C52 UNL A   1      34.633  32.098  46.945  1.00  0.00    +0.000 C 
ATOM     80  C59 UNL A   1      34.003  32.851  46.010  1.00  0.00    +0.000 C 
ATOM     81  N7  UNL A   1      32.642  33.057  45.823  1.00  0.00    +0.000 N 
ATOM     82  C60 UNL A   1      32.537  33.866  44.798  1.00  0.00    +0.000 C 
ATOM     83  C61 UNL A   1      31.298  34.392  44.122  1.00  0.00    +0.000 C 
ATOM     95  C68 UNL A   1      30.092  34.006  44.577  1.00  0.00    +0.000 C 
ATOM     96  C69 UNL A   1      28.803  34.410  44.021  1.00  0.00    +0.000 C 
ATOM     97  C70 UNL A   1      27.820  33.852  44.745  1.00  0.00    +0.000 C 
ATOM     98  C71 UNL A   1      28.411  33.023  45.797  1.00  0.00    +0.000 C 
ATOM     99  N8  UNL A   1      29.763  33.181  45.624  1.00  0.00    +0.000 N 
ATOM    100  C72 UNL A   1      33.826  34.300  44.242  1.00  0.00    +0.000 C 
ATOM    101  C73 UNL A   1      34.683  33.614  44.984  1.00  0.00    +0.000 C 
ATOM    102  C74 UNL A   1      28.513  30.292  49.553  1.00  0.00    +0.000 C 
ATOM    103  C75 UNL A   1      27.609  30.763  48.709  1.00  0.00    +0.000 C 
ENDROOT
BRANCH   47   46
ATOM    161  H56 UNL A   1      23.599  30.494  45.648  1.00  0.00    +0.000 H 
ATOM    162  H57 UNL A   1      26.025  30.455  45.669  1.00  0.00    +0.000 H 
ATOM    104  C76 UNL A   1      25.542  33.366  47.273  1.00  0.00    +0.000 C 
ATOM    105  C77 UNL A   1      24.154  33.340  47.342  1.00  0.00    +0.000 C 
ATOM     43  C34 UNL A   1      23.443  32.314  46.711  1.00  0.00    +0.000 C 
ATOM     44  C35 UNL A   1      24.124  31.260  46.098  1.00  0.00    +0.000 C 
ATOM     45  C36 UNL A   1      25.519  31.248  46.096  1.00  0.00    +0.000 C 
ATOM    174  H69 UNL A   1      23.647  34.077  47.859  1.00  0.00    +0.000 H 
ATOM    173  H68 UNL A   1      26.062  34.166  47.667  1.00  0.00    +0.000 H 
ATOM     46  C37 UNL A   1      26.238  32.308  46.671  1.00  0.00    +0.000 C 
BRANCH   43   41
ATOM     41  C33 UNL A   1      21.967  32.301  46.715  1.00  0.00    +0.000 C 
ATOM     42  O4  UNL A   1      21.352  32.677  47.711  1.00  0.00    +0.000 O 
BRANCH   41   40
ATOM    160  H55 UNL A   1      20.877  30.981  45.677  1.00  0.00    +0.000 H 
ATOM     40  N4  UNL A   1      21.286  31.874  45.608  1.00  0.00    +0.000 N 
BRANCH   40   39
ATOM    159  H54 UNL A   1      20.607  31.879  43.666  1.00  0.00    +0.000 H 
ATOM    158  H53 UNL A   1      22.036  32.869  43.960  1.00  0.00    +0.000 H 
ATOM     39  C32 UNL A   1      21.086  32.558  44.341  1.00  0.00    +0.000 C 
BRANCH   39   38
ATOM    156  H51 UNL A   1      19.497  33.797  43.682  1.00  0.00    +0.000 H 
ATOM    157  H52 UNL A   1      19.711  33.693  45.448  1.00  0.00    +0.000 H 
ATOM     38  C31 UNL A   1      20.192  33.782  44.496  1.00  0.00    +0.000 C 
BRANCH   38   37
ATOM    154  H49 UNL A   1      20.603  35.701  43.682  1.00  0.00    +0.000 H 
ATOM    155  H50 UNL A   1      20.753  35.564  45.457  1.00  0.00    +0.000 H 
ATOM     37  C30 UNL A   1      20.949  35.113  44.507  1.00  0.00    +0.000 C 
BRANCH   37   36
ATOM    153  H48 UNL A   1      22.672  34.483  43.473  1.00  0.00    +0.000 H 
ATOM     36  C29 UNL A   1      22.474  34.985  44.396  1.00  0.00    +0.000 C 
ATOM    152  H47 UNL A   1      22.827  34.445  45.249  1.00  0.00    +0.000 H 
BRANCH   36   35
ATOM     35  C28 UNL A   1      23.214  36.323  44.336  1.00  0.00    +0.000 C 
ATOM    150  H45 UNL A   1      23.378  36.577  43.310  1.00  0.00    +0.000 H 
ATOM    151  H46 UNL A   1      22.608  37.050  44.833  1.00  0.00    +0.000 H 
BRANCH   35   34
ATOM     34  C27 UNL A   1      24.565  36.285  45.049  1.00  0.00    +0.000 C 
ATOM    148  H43 UNL A   1      24.778  35.280  45.345  1.00  0.00    +0.000 H 
ATOM    149  H44 UNL A   1      25.317  36.644  44.379  1.00  0.00    +0.000 H 
BRANCH   34   33
ATOM     33  N3  UNL A   1      24.547  37.136  46.231  1.00  0.00    +0.000 N 
ATOM    147  H42 UNL A   1      23.752  37.711  46.314  1.00  0.00    +0.000 H 
BRANCH   33   31
ATOM     31  C26 UNL A   1      25.459  37.267  47.246  1.00  0.00    +0.000 C 
ATOM     32  O3  UNL A   1      25.198  36.730  48.327  1.00  0.00    +0.000 O 
BRANCH   31    5
ATOM    115  H10 UNL A   1      27.357  38.421  47.852  1.00  0.00    +0.000 H 
ATOM      5  C5  UNL A   1      26.772  38.050  47.036  1.00  0.00    +0.000 C 
BRANCH    5    4
ATOM    113  H8  UNL A   1      27.420  36.067  46.651  1.00  0.00    +0.000 H 
ATOM    114  H9  UNL A   1      27.847  37.363  45.411  1.00  0.00    +0.000 H 
ATOM      4  C4  UNL A   1      27.794  37.045  46.431  1.00  0.00    +0.000 C 
BRANCH    4    3
ATOM      3  C3  UNL A   1      29.265  37.042  46.842  1.00  0.00    +0.000 C 
ATOM    111  H6  UNL A   1      29.849  36.930  45.952  1.00  0.00    +0.000 H 
ATOM    112  H7  UNL A   1      29.409  37.965  47.364  1.00  0.00    +0.000 H 
BRANCH    3    2
ATOM      2  C2  UNL A   1      29.711  35.959  47.824  1.00  0.00    +0.000 C 
ATOM    109  H4  UNL A   1      29.385  36.235  48.805  1.00  0.00    +0.000 H 
ATOM    110  H5  UNL A   1      29.274  35.037  47.501  1.00  0.00    +0.000 H 
BRANCH    2    1
ATOM      1  C1  UNL A   1      31.215  35.762  47.852  1.00  0.00    +0.000 C 
ATOM    106  H1  UNL A   1      31.641  36.372  48.622  1.00  0.00    +0.000 H 
ATOM    107  H2  UNL A   1      31.629  36.041  46.907  1.00  0.00    +0.000 H 
ATOM    108  H3  UNL A   1      31.436  34.733  48.049  1.00  0.00    +0.000 H 
ENDBRANCH    2    1
ENDBRANCH    3    2
ENDBRANCH    4    3
ENDBRANCH    5    4
BRANCH    5    6
ATOM      6  S1  UNL A   1      26.174  39.607  46.173  1.00  0.00    +0.000 S 
BRANCH    6    7
ATOM    131  H26 UNL A   1      29.314  43.793  46.197  1.00  0.00    +0.000 H 
ATOM      7  C6  UNL A   1      27.218  40.881  46.794  1.00  0.00    +0.000 C 
ATOM      8  N1  UNL A   1      26.643  42.085  46.995  1.00  0.00    +0.000 N 
ATOM      9  C7  UNL A   1      27.448  43.145  46.888  1.00  0.00    +0.000 C 
ATOM     19  C16 UNL A   1      28.750  42.989  46.515  1.00  0.00    +0.000 C 
ATOM     20  C17 UNL A   1      29.282  41.736  46.577  1.00  0.00    +0.000 C 
ATOM     30  N2  UNL A   1      28.525  40.657  46.722  1.00  0.00    +0.000 N 
BRANCH    9   10
ATOM     10  O1  UNL A   1      26.884  44.363  47.191  1.00  0.00    +0.000 O 
BRANCH   10   11
ATOM     11  C8  UNL A   1      26.113  44.482  48.394  1.00  0.00    +0.000 C 
ATOM    116  H11 UNL A   1      26.415  45.383  48.885  1.00  0.00    +0.000 H 
ATOM    117  H12 UNL A   1      26.309  43.586  48.945  1.00  0.00    +0.000 H 
BRANCH   11   12
ATOM     12  C9  UNL A   1      24.569  44.530  48.230  1.00  0.00    +0.000 C 
ATOM    118  H13 UNL A   1      24.143  43.911  48.992  1.00  0.00    +0.000 H 
ATOM    119  H14 UNL A   1      24.384  44.200  47.229  1.00  0.00    +0.000 H 
BRANCH   12   13
ATOM    129  H24 UNL A   1      22.635  45.302  49.939  1.00  0.00    +0.000 H 
ATOM    130  H25 UNL A   1      21.824  45.404  48.395  1.00  0.00    +0.000 H 
ATOM     13  C10 UNL A   1      23.902  45.911  48.326  1.00  0.00    +0.000 C 
ATOM     14  C11 UNL A   1      23.743  46.637  46.981  1.00  0.00    +0.000 C 
ATOM     15  C12 UNL A   1      23.264  48.076  47.208  1.00  0.00    +0.000 C 
ATOM     16  C13 UNL A   1      22.042  48.181  48.122  1.00  0.00    +0.000 C 
ATOM     17  C14 UNL A   1      22.101  47.289  49.363  1.00  0.00    +0.000 C 
ATOM     18  C15 UNL A   1      22.548  45.867  49.034  1.00  0.00    +0.000 C 
ATOM    120  H15 UNL A   1      24.592  46.478  48.916  1.00  0.00    +0.000 H 
ATOM    121  H16 UNL A   1      23.024  46.116  46.382  1.00  0.00    +0.000 H 
ATOM    122  H17 UNL A   1      24.689  46.657  46.482  1.00  0.00    +0.000 H 
ATOM    123  H18 UNL A   1      23.013  48.503  46.259  1.00  0.00    +0.000 H 
ATOM    124  H19 UNL A   1      24.063  48.599  47.691  1.00  0.00    +0.000 H 
ATOM    125  H20 UNL A   1      21.176  47.909  47.557  1.00  0.00    +0.000 H 
ATOM    126  H21 UNL A   1      22.010  49.191  48.475  1.00  0.00    +0.000 H 
ATOM    127  H22 UNL A   1      21.128  47.251  49.806  1.00  0.00    +0.000 H 
ATOM    128  H23 UNL A   1      22.820  47.710  50.034  1.00  0.00    +0.000 H 
ENDBRANCH   12   13
ENDBRANCH   11   12
ENDBRANCH   10   11
ENDBRANCH    9   10
BRANCH   20   21
ATOM     21  O2  UNL A   1      30.572  41.489  46.194  1.00  0.00    +0.000 O 
BRANCH   21   22
ATOM    132  H27 UNL A   1      31.651  42.487  47.623  1.00  0.00    +0.000 H 
ATOM    133  H28 UNL A   1      31.166  43.450  46.250  1.00  0.00    +0.000 H 
ATOM     22  C18 UNL A   1      31.521  42.491  46.561  1.00  0.00    +0.000 C 
BRANCH   22   23
ATOM    135  H30 UNL A   1      33.503  41.710  46.593  1.00  0.00    +0.000 H 
ATOM    134  H29 UNL A   1      32.696  41.567  45.023  1.00  0.00    +0.000 H 
ATOM     23  C19 UNL A   1      32.874  42.191  45.873  1.00  0.00    +0.000 C 
BRANCH   23   24
ATOM    136  H31 UNL A   1      33.018  43.720  44.540  1.00  0.00    +0.000 H 
ATOM    137  H32 UNL A   1      34.388  44.397  47.165  1.00  0.00    +0.000 H 
ATOM    138  H33 UNL A   1      32.674  44.574  47.000  1.00  0.00    +0.000 H 
ATOM    139  H34 UNL A   1      33.704  46.696  46.430  1.00  0.00    +0.000 H 
ATOM    140  H35 UNL A   1      33.097  45.997  44.956  1.00  0.00    +0.000 H 
ATOM    141  H36 UNL A   1      35.921  46.005  45.965  1.00  0.00    +0.000 H 
ATOM    142  H37 UNL A   1      35.272  46.713  44.469  1.00  0.00    +0.000 H 
ATOM    143  H38 UNL A   1      36.648  44.560  44.314  1.00  0.00    +0.000 H 
ATOM    144  H39 UNL A   1      35.100  44.718  43.424  1.00  0.00    +0.000 H 
ATOM    145  H40 UNL A   1      35.136  42.521  44.254  1.00  0.00    +0.000 H 
ATOM    146  H41 UNL A   1      35.650  43.051  45.840  1.00  0.00    +0.000 H 
ATOM     24  C20 UNL A   1      33.598  43.464  45.403  1.00  0.00    +0.000 C 
ATOM     25  C21 UNL A   1      33.599  44.564  46.462  1.00  0.00    +0.000 C 
ATOM     26  C22 UNL A   1      33.817  45.886  45.740  1.00  0.00    +0.000 C 
ATOM     27  C23 UNL A   1      35.225  45.898  45.160  1.00  0.00    +0.000 C 
ATOM     28  C24 UNL A   1      35.581  44.623  44.375  1.00  0.00    +0.000 C 
ATOM     29  C25 UNL A   1      35.061  43.301  44.982  1.00  0.00    +0.000 C 
ENDBRANCH   23   24
ENDBRANCH   22   23
ENDBRANCH   21   22
ENDBRANCH   20   21
ENDBRANCH    6    7
ENDBRANCH    5    6
ENDBRANCH   31    5
ENDBRANCH   33   31
ENDBRANCH   34   33
ENDBRANCH   35   34
ENDBRANCH   36   35
ENDBRANCH   37   36
ENDBRANCH   38   37
ENDBRANCH   39   38
ENDBRANCH   40   39
ENDBRANCH   41   40
ENDBRANCH   43   41
ENDBRANCH   47   46
BRANCH   51   52
ATOM     52  C42 UNL A   1      30.825  29.269  50.906  1.00  0.00    +0.000 C 
ATOM     53  C43 UNL A   1      30.803  29.797  52.207  1.00  0.00    +0.000 C 
ATOM     54  F1  UNL A   1      30.969  31.114  52.403  1.00  0.00    +0.000 F 
ATOM     55  C44 UNL A   1      30.652  28.967  53.315  1.00  0.00    +0.000 C 
ATOM     56  F2  UNL A   1      30.686  29.489  54.549  1.00  0.00    +0.000 F 
ATOM     57  C45 UNL A   1      30.482  27.603  53.144  1.00  0.00    +0.000 C 
ATOM     58  F3  UNL A   1      30.328  26.806  54.212  1.00  0.00    +0.000 F 
ATOM     59  C46 UNL A   1      30.478  27.061  51.868  1.00  0.00    +0.000 C 
ATOM     60  F4  UNL A   1      30.300  25.743  51.701  1.00  0.00    +0.000 F 
ATOM     61  C47 UNL A   1      30.661  27.883  50.759  1.00  0.00    +0.000 C 
ATOM     62  F5  UNL A   1      30.670  27.326  49.538  1.00  0.00    +0.000 F 
ENDBRANCH   51   52
BRANCH   68   69
ATOM     69  C53 UNL A   1      36.129  32.013  46.865  1.00  0.00    +0.000 C 
ATOM     70  C54 UNL A   1      36.776  31.014  46.124  1.00  0.00    +0.000 C 
ATOM     71  F6  UNL A   1      36.061  30.070  45.494  1.00  0.00    +0.000 F 
ATOM     72  C55 UNL A   1      38.166  30.958  46.062  1.00  0.00    +0.000 C 
ATOM     73  F7  UNL A   1      38.764  29.963  45.391  1.00  0.00    +0.000 F 
ATOM     74  C56 UNL A   1      38.932  31.917  46.707  1.00  0.00    +0.000 C 
ATOM     75  F8  UNL A   1      40.269  31.863  46.641  1.00  0.00    +0.000 F 
ATOM     76  C57 UNL A   1      38.313  32.927  47.427  1.00  0.00    +0.000 C 
ATOM     77  F9  UNL A   1      39.050  33.864  48.037  1.00  0.00    +0.000 F 
ATOM     78  C58 UNL A   1      36.925  32.969  47.517  1.00  0.00    +0.000 C 
ATOM     79  F10 UNL A   1      36.355  33.949  48.233  1.00  0.00    +0.000 F 
ENDBRANCH   68   69
BRANCH   83   84
ATOM     84  C62 UNL A   1      31.399  35.296  42.947  1.00  0.00    +0.000 C 
ATOM     85  C63 UNL A   1      31.655  34.783  41.666  1.00  0.00    +0.000 C 
ATOM     86  F11 UNL A   1      31.812  33.462  41.493  1.00  0.00    +0.000 F 
ATOM     87  C64 UNL A   1      31.802  35.628  40.568  1.00  0.00    +0.000 C 
ATOM     88  F12 UNL A   1      32.103  35.116  39.367  1.00  0.00    +0.000 F 
ATOM     89  C65 UNL A   1      31.659  36.999  40.722  1.00  0.00    +0.000 C 
ATOM     90  F13 UNL A   1      31.803  37.812  39.666  1.00  0.00    +0.000 F 
ATOM     91  C66 UNL A   1      31.379  37.527  41.973  1.00  0.00    +0.000 C 
ATOM     92  F14 UNL A   1      31.228  38.850  42.122  1.00  0.00    +0.000 F 
ATOM     93  C67 UNL A   1      31.263  36.685  43.077  1.00  0.00    +0.000 C 
ATOM     94  F15 UNL A   1      31.010  37.226  44.278  1.00  0.00    +0.000 F 
ENDBRANCH   83   84
TORSDOF 29
ENDMDL
MODEL 7
REMARK VINA RESULT:      -6.1     50.906     57.414
ROOT
ATOM    163  H58 UNL A   1      23.601  47.277  49.078  1.00  0.00    +0.000 H 
ATOM    164  H59 UNL A   1      25.178  49.327  49.412  1.00  0.00    +0.000 H 
ATOM    165  H60 UNL A   1      27.458  46.135  48.087  1.00  0.00    +0.000 H 
ATOM    166  H61 UNL A   1      33.170  43.681  46.601  1.00  0.00    +0.000 H 
ATOM    167  H62 UNL A   1      31.621  41.703  46.222  1.00  0.00    +0.000 H 
ATOM    168  H63 UNL A   1      29.302  44.904  47.508  1.00  0.00    +0.000 H 
ATOM    169  H64 UNL A   1      32.445  48.771  48.085  1.00  0.00    +0.000 H 
ATOM    170  H65 UNL A   1      30.450  50.085  49.000  1.00  0.00    +0.000 H 
ATOM    171  H66 UNL A   1      24.368  42.294  47.232  1.00  0.00    +0.000 H 
ATOM    172  H67 UNL A   1      26.414  40.800  46.861  1.00  0.00    +0.000 H 
ATOM     47  C38 UNL A   1      28.883  42.226  46.826  1.00  0.00    +0.000 C 
ATOM     48  C39 UNL A   1      27.516  42.761  47.154  1.00  0.00    +0.000 C 
ATOM     49  N5  UNL A   1      27.159  43.974  47.495  1.00  0.00    +0.000 N 
ATOM     50  C40 UNL A   1      25.779  43.934  47.641  1.00  0.00    +0.000 C 
ATOM     51  C41 UNL A   1      24.944  44.915  48.057  1.00  0.00    +0.000 C 
ATOM     63  C48 UNL A   1      25.377  46.236  48.431  1.00  0.00    +0.000 C 
ATOM     64  C49 UNL A   1      24.618  47.293  48.902  1.00  0.00    +0.000 C 
ATOM     65  C50 UNL A   1      25.467  48.387  49.098  1.00  0.00    +0.000 C 
ATOM     66  C51 UNL A   1      26.763  47.996  48.801  1.00  0.00    +0.000 C 
ATOM     67  N6  UNL A   1      26.691  46.677  48.380  1.00  0.00    +0.000 N 
ATOM     68  C52 UNL A   1      27.976  48.765  48.898  1.00  0.00    +0.000 C 
ATOM     80  C59 UNL A   1      29.210  48.320  48.559  1.00  0.00    +0.000 C 
ATOM     81  N7  UNL A   1      29.590  47.071  48.083  1.00  0.00    +0.000 N 
ATOM     82  C60 UNL A   1      30.886  47.136  47.896  1.00  0.00    +0.000 C 
ATOM     83  C61 UNL A   1      31.837  46.062  47.436  1.00  0.00    +0.000 C 
ATOM     95  C68 UNL A   1      31.356  44.833  47.173  1.00  0.00    +0.000 C 
ATOM     96  C69 UNL A   1      32.148  43.685  46.739  1.00  0.00    +0.000 C 
ATOM     97  C70 UNL A   1      31.330  42.637  46.549  1.00  0.00    +0.000 C 
ATOM     98  C71 UNL A   1      29.961  43.032  46.882  1.00  0.00    +0.000 C 
ATOM     99  N8  UNL A   1      30.071  44.353  47.235  1.00  0.00    +0.000 N 
ATOM    100  C72 UNL A   1      31.470  48.451  48.194  1.00  0.00    +0.000 C 
ATOM    101  C73 UNL A   1      30.416  49.118  48.641  1.00  0.00    +0.000 C 
ATOM    102  C74 UNL A   1      25.353  42.597  47.292  1.00  0.00    +0.000 C 
ATOM    103  C75 UNL A   1      26.394  41.813  47.058  1.00  0.00    +0.000 C 
ENDROOT
BRANCH   47   46
ATOM    161  H56 UNL A   1      29.636  37.734  47.601  1.00  0.00    +0.000 H 
ATOM    162  H57 UNL A   1      29.396  40.035  48.332  1.00  0.00    +0.000 H 
ATOM    104  C76 UNL A   1      28.875  40.482  45.045  1.00  0.00    +0.000 C 
ATOM    105  C77 UNL A   1      28.921  39.152  44.642  1.00  0.00    +0.000 C 
ATOM     43  C34 UNL A   1      29.242  38.154  45.567  1.00  0.00    +0.000 C 
ATOM     44  C35 UNL A   1      29.417  38.474  46.915  1.00  0.00    +0.000 C 
ATOM     45  C36 UNL A   1      29.296  39.799  47.332  1.00  0.00    +0.000 C 
ATOM    174  H69 UNL A   1      28.718  38.901  43.662  1.00  0.00    +0.000 H 
ATOM    173  H68 UNL A   1      28.721  41.227  44.347  1.00  0.00    +0.000 H 
ATOM     46  C37 UNL A   1      29.038  40.816  46.397  1.00  0.00    +0.000 C 
BRANCH   43   41
ATOM     41  C33 UNL A   1      29.360  36.743  45.149  1.00  0.00    +0.000 C 
ATOM     42  O4  UNL A   1      30.109  36.438  44.224  1.00  0.00    +0.000 O 
BRANCH   41   40
ATOM    160  H55 UNL A   1      28.872  35.632  46.742  1.00  0.00    +0.000 H 
ATOM     40  N4  UNL A   1      28.638  35.778  45.796  1.00  0.00    +0.000 N 
BRANCH   40   39
ATOM    159  H54 UNL A   1      27.399  34.146  45.980  1.00  0.00    +0.000 H 
ATOM    158  H53 UNL A   1      27.866  34.546  44.328  1.00  0.00    +0.000 H 
ATOM     39  C32 UNL A   1      27.571  34.936  45.279  1.00  0.00    +0.000 C 
BRANCH   39   38
ATOM    156  H51 UNL A   1      26.130  36.323  45.979  1.00  0.00    +0.000 H 
ATOM    157  H52 UNL A   1      26.370  36.289  44.215  1.00  0.00    +0.000 H 
ATOM     38  C31 UNL A   1      26.271  35.714  45.111  1.00  0.00    +0.000 C 
BRANCH   38   37
ATOM    154  H49 UNL A   1      24.165  35.433  45.116  1.00  0.00    +0.000 H 
ATOM    155  H50 UNL A   1      25.076  34.445  43.939  1.00  0.00    +0.000 H 
ATOM     37  C30 UNL A   1      25.032  34.832  44.935  1.00  0.00    +0.000 C 
BRANCH   37   36
ATOM    153  H48 UNL A   1      25.984  33.358  46.101  1.00  0.00    +0.000 H 
ATOM     36  C29 UNL A   1      24.972  33.615  45.868  1.00  0.00    +0.000 C 
ATOM    152  H47 UNL A   1      24.449  32.831  45.361  1.00  0.00    +0.000 H 
BRANCH   36   35
ATOM     35  C28 UNL A   1      24.268  33.878  47.200  1.00  0.00    +0.000 C 
ATOM    150  H45 UNL A   1      24.928  33.603  47.996  1.00  0.00    +0.000 H 
ATOM    151  H46 UNL A   1      24.017  34.917  47.233  1.00  0.00    +0.000 H 
BRANCH   35   34
ATOM     34  C27 UNL A   1      22.969  33.087  47.350  1.00  0.00    +0.000 C 
ATOM    148  H43 UNL A   1      23.138  32.075  47.051  1.00  0.00    +0.000 H 
ATOM    149  H44 UNL A   1      22.659  33.126  48.373  1.00  0.00    +0.000 H 
BRANCH   34   33
ATOM     33  N3  UNL A   1      21.918  33.661  46.522  1.00  0.00    +0.000 N 
ATOM    147  H42 UNL A   1      21.939  34.643  46.450  1.00  0.00    +0.000 H 
BRANCH   33   31
ATOM     31  C26 UNL A   1      20.904  33.055  45.826  1.00  0.00    +0.000 C 
ATOM     32  O3  UNL A   1      20.574  31.914  46.164  1.00  0.00    +0.000 O 
BRANCH   31    5
ATOM    115  H10 UNL A   1      20.003  33.317  43.723  1.00  0.00    +0.000 H 
ATOM      5  C5  UNL A   1      20.192  33.785  44.667  1.00  0.00    +0.000 C 
BRANCH    5    4
ATOM    113  H8  UNL A   1      18.700  33.799  46.175  1.00  0.00    +0.000 H 
ATOM    114  H9  UNL A   1      18.545  35.025  44.805  1.00  0.00    +0.000 H 
ATOM      4  C4  UNL A   1      18.724  34.021  45.128  1.00  0.00    +0.000 C 
BRANCH    4    3
ATOM      3  C3  UNL A   1      17.550  33.268  44.505  1.00  0.00    +0.000 C 
ATOM    111  H6  UNL A   1      17.697  32.226  44.697  1.00  0.00    +0.000 H 
ATOM    112  H7  UNL A   1      16.677  33.693  44.956  1.00  0.00    +0.000 H 
BRANCH    3    2
ATOM      2  C2  UNL A   1      17.337  33.434  43.001  1.00  0.00    +0.000 C 
ATOM    109  H4  UNL A   1      16.297  33.611  42.822  1.00  0.00    +0.000 H 
ATOM    110  H5  UNL A   1      17.944  34.256  42.682  1.00  0.00    +0.000 H 
BRANCH    2    1
ATOM      1  C1  UNL A   1      17.765  32.218  42.200  1.00  0.00    +0.000 C 
ATOM    106  H1  UNL A   1      17.219  31.360  42.535  1.00  0.00    +0.000 H 
ATOM    107  H2  UNL A   1      18.812  32.050  42.338  1.00  0.00    +0.000 H 
ATOM    108  H3  UNL A   1      17.564  32.386  41.162  1.00  0.00    +0.000 H 
ENDBRANCH    2    1
ENDBRANCH    3    2
ENDBRANCH    4    3
ENDBRANCH    5    4
BRANCH    5    6
ATOM      6  S1  UNL A   1      21.408  35.153  44.250  1.00  0.00    +0.000 S 
BRANCH    6    7
ATOM    131  H26 UNL A   1      20.794  37.862  48.684  1.00  0.00    +0.000 H 
ATOM      7  C6  UNL A   1      20.967  36.474  45.326  1.00  0.00    +0.000 C 
ATOM      8  N1  UNL A   1      21.958  37.320  45.678  1.00  0.00    +0.000 N 
ATOM      9  C7  UNL A   1      21.828  37.916  46.866  1.00  0.00    +0.000 C 
ATOM     19  C16 UNL A   1      20.784  37.603  47.685  1.00  0.00    +0.000 C 
ATOM     20  C17 UNL A   1      19.728  36.935  47.141  1.00  0.00    +0.000 C 
ATOM     30  N2  UNL A   1      19.799  36.361  45.948  1.00  0.00    +0.000 N 
BRANCH    9   10
ATOM     10  O1  UNL A   1      22.786  38.852  47.178  1.00  0.00    +0.000 O 
BRANCH   10   11
ATOM     11  C8  UNL A   1      24.054  38.787  46.510  1.00  0.00    +0.000 C 
ATOM    116  H11 UNL A   1      24.199  39.715  45.998  1.00  0.00    +0.000 H 
ATOM    117  H12 UNL A   1      23.993  37.929  45.874  1.00  0.00    +0.000 H 
BRANCH   11   12
ATOM     12  C9  UNL A   1      25.300  38.543  47.405  1.00  0.00    +0.000 C 
ATOM    118  H13 UNL A   1      25.400  39.386  48.057  1.00  0.00    +0.000 H 
ATOM    119  H14 UNL A   1      26.112  38.407  46.722  1.00  0.00    +0.000 H 
BRANCH   12   13
ATOM    129  H24 UNL A   1      23.476  37.837  49.256  1.00  0.00    +0.000 H 
ATOM    130  H25 UNL A   1      24.909  38.076  50.225  1.00  0.00    +0.000 H 
ATOM     13  C10 UNL A   1      25.293  37.278  48.277  1.00  0.00    +0.000 C 
ATOM     14  C11 UNL A   1      26.688  36.781  48.689  1.00  0.00    +0.000 C 
ATOM     15  C12 UNL A   1      26.582  35.412  49.373  1.00  0.00    +0.000 C 
ATOM     16  C13 UNL A   1      25.545  35.364  50.496  1.00  0.00    +0.000 C 
ATOM     17  C14 UNL A   1      24.221  36.054  50.165  1.00  0.00    +0.000 C 
ATOM     18  C15 UNL A   1      24.425  37.425  49.527  1.00  0.00    +0.000 C 
ATOM    120  H15 UNL A   1      24.866  36.537  47.633  1.00  0.00    +0.000 H 
ATOM    121  H16 UNL A   1      27.126  37.483  49.369  1.00  0.00    +0.000 H 
ATOM    122  H17 UNL A   1      27.298  36.689  47.815  1.00  0.00    +0.000 H 
ATOM    123  H18 UNL A   1      27.539  35.166  49.786  1.00  0.00    +0.000 H 
ATOM    124  H19 UNL A   1      26.269  34.713  48.627  1.00  0.00    +0.000 H 
ATOM    125  H20 UNL A   1      25.963  35.840  51.359  1.00  0.00    +0.000 H 
ATOM    126  H21 UNL A   1      25.318  34.331  50.659  1.00  0.00    +0.000 H 
ATOM    127  H22 UNL A   1      23.661  36.175  51.069  1.00  0.00    +0.000 H 
ATOM    128  H23 UNL A   1      23.700  35.440  49.462  1.00  0.00    +0.000 H 
ENDBRANCH   12   13
ENDBRANCH   11   12
ENDBRANCH   10   11
ENDBRANCH    9   10
BRANCH   20   21
ATOM     21  O2  UNL A   1      18.655  36.559  47.900  1.00  0.00    +0.000 O 
BRANCH   21   22
ATOM    132  H27 UNL A   1      17.285  38.083  47.950  1.00  0.00    +0.000 H 
ATOM    133  H28 UNL A   1      18.720  38.342  48.910  1.00  0.00    +0.000 H 
ATOM     22  C18 UNL A   1      17.998  37.617  48.598  1.00  0.00    +0.000 C 
BRANCH   22   23
ATOM    135  H30 UNL A   1      17.717  36.094  50.060  1.00  0.00    +0.000 H 
ATOM    134  H29 UNL A   1      17.381  37.731  50.649  1.00  0.00    +0.000 H 
ATOM     23  C19 UNL A   1      17.273  37.042  49.838  1.00  0.00    +0.000 C 
BRANCH   23   24
ATOM    136  H31 UNL A   1      15.618  35.902  50.149  1.00  0.00    +0.000 H 
ATOM    137  H32 UNL A   1      14.884  38.740  49.356  1.00  0.00    +0.000 H 
ATOM    138  H33 UNL A   1      15.300  38.368  50.995  1.00  0.00    +0.000 H 
ATOM    139  H34 UNL A   1      12.893  38.158  50.769  1.00  0.00    +0.000 H 
ATOM    140  H35 UNL A   1      13.543  36.554  50.947  1.00  0.00    +0.000 H 
ATOM    141  H36 UNL A   1      12.685  37.923  48.421  1.00  0.00    +0.000 H 
ATOM    142  H37 UNL A   1      12.045  36.434  49.153  1.00  0.00    +0.000 H 
ATOM    143  H38 UNL A   1      13.530  36.245  47.075  1.00  0.00    +0.000 H 
ATOM    144  H39 UNL A   1      13.802  35.179  48.490  1.00  0.00    +0.000 H 
ATOM    145  H40 UNL A   1      15.940  35.778  47.723  1.00  0.00    +0.000 H 
ATOM    146  H41 UNL A   1      15.494  37.464  47.579  1.00  0.00    +0.000 H 
ATOM     24  C20 UNL A   1      15.773  36.804  49.593  1.00  0.00    +0.000 C 
ATOM     25  C21 UNL A   1      14.907  37.960  50.087  1.00  0.00    +0.000 C 
ATOM     26  C22 UNL A   1      13.504  37.411  50.307  1.00  0.00    +0.000 C 
ATOM     27  C23 UNL A   1      12.914  37.027  48.957  1.00  0.00    +0.000 C 
ATOM     28  C24 UNL A   1      13.856  36.170  48.092  1.00  0.00    +0.000 C 
ATOM     29  C25 UNL A   1      15.348  36.566  48.142  1.00  0.00    +0.000 C 
ENDBRANCH   23   24
ENDBRANCH   22   23
ENDBRANCH   21   22
ENDBRANCH   20   21
ENDBRANCH    6    7
ENDBRANCH    5    6
ENDBRANCH   31    5
ENDBRANCH   33   31
ENDBRANCH   34   33
ENDBRANCH   35   34
ENDBRANCH   36   35
ENDBRANCH   37   36
ENDBRANCH   38   37
ENDBRANCH   39   38
ENDBRANCH   40   39
ENDBRANCH   41   40
ENDBRANCH   43   41
ENDBRANCH   47   46
BRANCH   51   52
ATOM     52  C42 UNL A   1      23.480  44.594  48.140  1.00  0.00    +0.000 C 
ATOM     53  C43 UNL A   1      22.608  44.859  47.071  1.00  0.00    +0.000 C 
ATOM     54  F1  UNL A   1      23.065  45.454  45.959  1.00  0.00    +0.000 F 
ATOM     55  C44 UNL A   1      21.253  44.551  47.158  1.00  0.00    +0.000 C 
ATOM     56  F2  UNL A   1      20.431  44.860  46.146  1.00  0.00    +0.000 F 
ATOM     57  C45 UNL A   1      20.750  43.938  48.295  1.00  0.00    +0.000 C 
ATOM     58  F3  UNL A   1      19.446  43.634  48.374  1.00  0.00    +0.000 F 
ATOM     59  C46 UNL A   1      21.596  43.647  49.354  1.00  0.00    +0.000 C 
ATOM     60  F4  UNL A   1      21.113  43.043  50.449  1.00  0.00    +0.000 F 
ATOM     61  C47 UNL A   1      22.946  43.983  49.284  1.00  0.00    +0.000 C 
ATOM     62  F5  UNL A   1      23.735  43.703  50.333  1.00  0.00    +0.000 F 
ENDBRANCH   51   52
BRANCH   68   69
ATOM     69  C53 UNL A   1      27.874  50.159  49.447  1.00  0.00    +0.000 C 
ATOM     70  C54 UNL A   1      27.912  50.418  50.824  1.00  0.00    +0.000 C 
ATOM     71  F6  UNL A   1      27.997  49.405  51.700  1.00  0.00    +0.000 F 
ATOM     72  C55 UNL A   1      27.819  51.719  51.309  1.00  0.00    +0.000 C 
ATOM     73  F7  UNL A   1      27.804  51.939  52.631  1.00  0.00    +0.000 F 
ATOM     74  C56 UNL A   1      27.725  52.787  50.429  1.00  0.00    +0.000 C 
ATOM     75  F8  UNL A   1      27.642  54.039  50.898  1.00  0.00    +0.000 F 
ATOM     76  C57 UNL A   1      27.710  52.555  49.061  1.00  0.00    +0.000 C 
ATOM     77  F9  UNL A   1      27.635  53.586  48.208  1.00  0.00    +0.000 F 
ATOM     78  C58 UNL A   1      27.770  51.253  48.574  1.00  0.00    +0.000 C 
ATOM     79  F10 UNL A   1      27.737  51.061  47.247  1.00  0.00    +0.000 F 
ENDBRANCH   68   69
BRANCH   83   84
ATOM     84  C62 UNL A   1      33.291  46.340  47.307  1.00  0.00    +0.000 C 
ATOM     85  C63 UNL A   1      33.814  46.897  46.131  1.00  0.00    +0.000 C 
ATOM     86  F11 UNL A   1      32.997  47.188  45.107  1.00  0.00    +0.000 F 
ATOM     87  C64 UNL A   1      35.182  47.113  45.982  1.00  0.00    +0.000 C 
ATOM     88  F12 UNL A   1      35.661  47.595  44.827  1.00  0.00    +0.000 F 
ATOM     89  C65 UNL A   1      36.051  46.809  47.019  1.00  0.00    +0.000 C 
ATOM     90  F13 UNL A   1      37.367  47.013  46.875  1.00  0.00    +0.000 F 
ATOM     91  C66 UNL A   1      35.554  46.281  48.201  1.00  0.00    +0.000 C 
ATOM     92  F14 UNL A   1      36.389  45.998  49.210  1.00  0.00    +0.000 F 
ATOM     93  C67 UNL A   1      34.189  46.036  48.339  1.00  0.00    +0.000 C 
ATOM     94  F15 UNL A   1      33.740  45.508  49.487  1.00  0.00    +0.000 F 
ENDBRANCH   83   84
TORSDOF 29
ENDMDL
MODEL 8
REMARK VINA RESULT:      -6.1     46.841     51.920
ROOT
ATOM    163  H58 UNL A   1      47.075  27.010  22.706  1.00  0.00    +0.000 H 
ATOM    164  H59 UNL A   1      49.063  27.718  21.174  1.00  0.00    +0.000 H 
ATOM    165  H60 UNL A   1      50.524  27.099  24.997  1.00  0.00    +0.000 H 
ATOM    166  H61 UNL A   1      55.408  27.226  29.120  1.00  0.00    +0.000 H 
ATOM    167  H62 UNL A   1      53.479  26.480  30.595  1.00  0.00    +0.000 H 
ATOM    168  H63 UNL A   1      51.993  27.051  26.756  1.00  0.00    +0.000 H 
ATOM    169  H64 UNL A   1      55.911  28.382  23.919  1.00  0.00    +0.000 H 
ATOM    170  H65 UNL A   1      54.245  28.711  22.006  1.00  0.00    +0.000 H 
ATOM    171  H66 UNL A   1      46.733  25.514  27.851  1.00  0.00    +0.000 H 
ATOM    172  H67 UNL A   1      48.257  25.725  29.899  1.00  0.00    +0.000 H 
ATOM     47  C38 UNL A   1      50.968  26.326  29.252  1.00  0.00    +0.000 C 
ATOM     48  C39 UNL A   1      49.790  26.270  28.318  1.00  0.00    +0.000 C 
ATOM     49  N5  UNL A   1      49.744  26.483  27.027  1.00  0.00    +0.000 N 
ATOM     50  C40 UNL A   1      48.425  26.258  26.655  1.00  0.00    +0.000 C 
ATOM     51  C41 UNL A   1      47.851  26.421  25.440  1.00  0.00    +0.000 C 
ATOM     63  C48 UNL A   1      48.555  26.875  24.270  1.00  0.00    +0.000 C 
ATOM     64  C49 UNL A   1      48.059  27.110  22.999  1.00  0.00    +0.000 C 
ATOM     65  C50 UNL A   1      49.122  27.508  22.182  1.00  0.00    +0.000 C 
ATOM     66  C51 UNL A   1      50.270  27.572  22.956  1.00  0.00    +0.000 C 
ATOM     67  N6  UNL A   1      49.910  27.168  24.232  1.00  0.00    +0.000 N 
ATOM     68  C52 UNL A   1      51.595  27.976  22.562  1.00  0.00    +0.000 C 
ATOM     80  C59 UNL A   1      52.680  27.985  23.374  1.00  0.00    +0.000 C 
ATOM     81  N7  UNL A   1      52.771  27.647  24.718  1.00  0.00    +0.000 N 
ATOM     82  C60 UNL A   1      54.029  27.811  25.047  1.00  0.00    +0.000 C 
ATOM     83  C61 UNL A   1      54.694  27.638  26.387  1.00  0.00    +0.000 C 
ATOM     95  C68 UNL A   1      53.945  27.276  27.445  1.00  0.00    +0.000 C 
ATOM     96  C69 UNL A   1      54.434  27.087  28.809  1.00  0.00    +0.000 C 
ATOM     97  C70 UNL A   1      53.412  26.703  29.590  1.00  0.00    +0.000 C 
ATOM     98  C71 UNL A   1      52.189  26.654  28.789  1.00  0.00    +0.000 C 
ATOM     99  N8  UNL A   1      52.602  27.002  27.528  1.00  0.00    +0.000 N 
ATOM    100  C72 UNL A   1      54.890  28.233  23.933  1.00  0.00    +0.000 C 
ATOM    101  C73 UNL A   1      54.011  28.372  22.952  1.00  0.00    +0.000 C 
ATOM    102  C74 UNL A   1      47.716  25.829  27.840  1.00  0.00    +0.000 C 
ATOM    103  C75 UNL A   1      48.495  25.893  28.909  1.00  0.00    +0.000 C 
ENDROOT
BRANCH   47   46
ATOM    161  H56 UNL A   1      50.102  27.344  33.676  1.00  0.00    +0.000 H 
ATOM    162  H57 UNL A   1      50.394  27.948  31.344  1.00  0.00    +0.000 H 
ATOM    104  C76 UNL A   1      50.881  24.635  31.083  1.00  0.00    +0.000 C 
ATOM    105  C77 UNL A   1      50.622  24.280  32.401  1.00  0.00    +0.000 C 
ATOM     43  C34 UNL A   1      50.380  25.273  33.356  1.00  0.00    +0.000 C 
ATOM     44  C35 UNL A   1      50.298  26.613  32.973  1.00  0.00    +0.000 C 
ATOM     45  C36 UNL A   1      50.483  26.962  31.635  1.00  0.00    +0.000 C 
ATOM    174  H69 UNL A   1      50.606  23.285  32.676  1.00  0.00    +0.000 H 
ATOM    173  H68 UNL A   1      51.142  23.910  30.396  1.00  0.00    +0.000 H 
ATOM     46  C37 UNL A   1      50.791  25.976  30.682  1.00  0.00    +0.000 C 
BRANCH   43   41
ATOM     41  C33 UNL A   1      50.166  24.924  34.775  1.00  0.00    +0.000 C 
ATOM     42  O4  UNL A   1      49.675  25.748  35.543  1.00  0.00    +0.000 O 
BRANCH   41   40
ATOM    160  H55 UNL A   1      51.476  23.480  35.228  1.00  0.00    +0.000 H 
ATOM     40  N4  UNL A   1      50.512  23.681  35.230  1.00  0.00    +0.000 N 
BRANCH   40   39
ATOM    159  H54 UNL A   1      48.723  23.049  36.024  1.00  0.00    +0.000 H 
ATOM    158  H53 UNL A   1      50.135  22.123  36.533  1.00  0.00    +0.000 H 
ATOM     39  C32 UNL A   1      49.651  22.614  35.715  1.00  0.00    +0.000 C 
BRANCH   39   38
ATOM    156  H51 UNL A   1      49.097  22.113  33.732  1.00  0.00    +0.000 H 
ATOM    157  H52 UNL A   1      50.242  20.996  34.516  1.00  0.00    +0.000 H 
ATOM     38  C31 UNL A   1      49.358  21.588  34.627  1.00  0.00    +0.000 C 
BRANCH   38   37
ATOM    154  H49 UNL A   1      48.411  19.693  34.473  1.00  0.00    +0.000 H 
ATOM    155  H50 UNL A   1      48.207  20.536  36.035  1.00  0.00    +0.000 H 
ATOM     37  C30 UNL A   1      48.220  20.622  34.969  1.00  0.00    +0.000 C 
BRANCH   37   36
ATOM    153  H48 UNL A   1      46.501  20.466  33.762  1.00  0.00    +0.000 H 
ATOM     36  C29 UNL A   1      46.823  21.104  34.558  1.00  0.00    +0.000 C 
ATOM    152  H47 UNL A   1      46.895  22.131  34.265  1.00  0.00    +0.000 H 
BRANCH   36   35
ATOM     35  C28 UNL A   1      45.769  20.994  35.661  1.00  0.00    +0.000 C 
ATOM    150  H45 UNL A   1      44.974  20.369  35.313  1.00  0.00    +0.000 H 
ATOM    151  H46 UNL A   1      46.248  20.582  36.525  1.00  0.00    +0.000 H 
BRANCH   35   34
ATOM     34  C27 UNL A   1      45.186  22.348  36.061  1.00  0.00    +0.000 C 
ATOM    148  H43 UNL A   1      44.859  22.303  37.079  1.00  0.00    +0.000 H 
ATOM    149  H44 UNL A   1      45.942  23.096  35.946  1.00  0.00    +0.000 H 
BRANCH   34   33
ATOM     33  N3  UNL A   1      44.055  22.693  35.212  1.00  0.00    +0.000 N 
ATOM    147  H42 UNL A   1      43.707  21.951  34.666  1.00  0.00    +0.000 H 
BRANCH   33   31
ATOM     31  C26 UNL A   1      43.396  23.884  35.049  1.00  0.00    +0.000 C 
ATOM     32  O3  UNL A   1      42.289  24.008  35.583  1.00  0.00    +0.000 O 
BRANCH   31    5
ATOM    115  H10 UNL A   1      43.441  25.815  33.796  1.00  0.00    +0.000 H 
ATOM      5  C5  UNL A   1      44.026  25.034  34.234  1.00  0.00    +0.000 C 
BRANCH    5    4
ATOM    113  H8  UNL A   1      45.378  25.179  35.863  1.00  0.00    +0.000 H 
ATOM    114  H9  UNL A   1      45.432  26.506  34.584  1.00  0.00    +0.000 H 
ATOM      4  C4  UNL A   1      44.864  25.878  35.237  1.00  0.00    +0.000 C 
BRANCH    4    3
ATOM      3  C3  UNL A   1      44.216  26.894  36.176  1.00  0.00    +0.000 C 
ATOM    111  H6  UNL A   1      44.344  27.863  35.741  1.00  0.00    +0.000 H 
ATOM    112  H7  UNL A   1      43.200  26.573  36.274  1.00  0.00    +0.000 H 
BRANCH    3    2
ATOM      2  C2  UNL A   1      44.750  26.959  37.606  1.00  0.00    +0.000 C 
ATOM    109  H4  UNL A   1      45.819  26.927  37.572  1.00  0.00    +0.000 H 
ATOM    110  H5  UNL A   1      44.389  27.868  38.041  1.00  0.00    +0.000 H 
BRANCH    2    1
ATOM      1  C1  UNL A   1      44.261  25.816  38.477  1.00  0.00    +0.000 C 
ATOM    106  H1  UNL A   1      44.137  26.162  39.483  1.00  0.00    +0.000 H 
ATOM    107  H2  UNL A   1      44.976  25.022  38.459  1.00  0.00    +0.000 H 
ATOM    108  H3  UNL A   1      43.322  25.460  38.105  1.00  0.00    +0.000 H 
ENDBRANCH    2    1
ENDBRANCH    3    2
ENDBRANCH    4    3
ENDBRANCH    5    4
BRANCH    5    6
ATOM      6  S1  UNL A   1      44.740  24.128  32.752  1.00  0.00    +0.000 S 
BRANCH    6    7
ATOM    131  H26 UNL A   1      44.955  26.382  28.035  1.00  0.00    +0.000 H 
ATOM      7  C6  UNL A   1      44.260  25.104  31.369  1.00  0.00    +0.000 C 
ATOM      8  N1  UNL A   1      43.680  24.448  30.342  1.00  0.00    +0.000 N 
ATOM      9  C7  UNL A   1      43.843  24.989  29.132  1.00  0.00    +0.000 C 
ATOM     19  C16 UNL A   1      44.624  26.095  28.970  1.00  0.00    +0.000 C 
ATOM     20  C17 UNL A   1      44.955  26.808  30.083  1.00  0.00    +0.000 C 
ATOM     30  N2  UNL A   1      44.774  26.327  31.305  1.00  0.00    +0.000 N 
BRANCH    9   10
ATOM     10  O1  UNL A   1      43.168  24.376  28.102  1.00  0.00    +0.000 O 
BRANCH   10   11
ATOM     11  C8  UNL A   1      41.906  23.756  28.380  1.00  0.00    +0.000 C 
ATOM    116  H11 UNL A   1      41.813  23.673  29.443  1.00  0.00    +0.000 H 
ATOM    117  H12 UNL A   1      41.930  22.821  27.859  1.00  0.00    +0.000 H 
BRANCH   11   12
ATOM     12  C9  UNL A   1      40.640  24.485  27.852  1.00  0.00    +0.000 C 
ATOM    118  H13 UNL A   1      39.786  23.976  28.247  1.00  0.00    +0.000 H 
ATOM    119  H14 UNL A   1      40.726  24.457  26.786  1.00  0.00    +0.000 H 
BRANCH   12   13
ATOM    129  H24 UNL A   1      39.133  25.575  29.800  1.00  0.00    +0.000 H 
ATOM    130  H25 UNL A   1      38.377  26.201  28.356  1.00  0.00    +0.000 H 
ATOM     13  C10 UNL A   1      40.499  25.974  28.203  1.00  0.00    +0.000 C 
ATOM     14  C11 UNL A   1      40.574  26.923  26.996  1.00  0.00    +0.000 C 
ATOM     15  C12 UNL A   1      40.632  28.381  27.471  1.00  0.00    +0.000 C 
ATOM     16  C13 UNL A   1      39.543  28.742  28.482  1.00  0.00    +0.000 C 
ATOM     17  C14 UNL A   1      39.313  27.691  29.568  1.00  0.00    +0.000 C 
ATOM     18  C15 UNL A   1      39.229  26.277  28.999  1.00  0.00    +0.000 C 
ATOM    120  H15 UNL A   1      41.355  26.166  28.816  1.00  0.00    +0.000 H 
ATOM    121  H16 UNL A   1      39.707  26.785  26.384  1.00  0.00    +0.000 H 
ATOM    122  H17 UNL A   1      41.458  26.703  26.435  1.00  0.00    +0.000 H 
ATOM    123  H18 UNL A   1      40.526  29.019  26.617  1.00  0.00    +0.000 H 
ATOM    124  H19 UNL A   1      41.573  28.513  27.963  1.00  0.00    +0.000 H 
ATOM    125  H20 UNL A   1      38.625  28.879  27.950  1.00  0.00    +0.000 H 
ATOM    126  H21 UNL A   1      39.872  29.629  28.981  1.00  0.00    +0.000 H 
ATOM    127  H22 UNL A   1      38.397  27.914  30.074  1.00  0.00    +0.000 H 
ATOM    128  H23 UNL A   1      40.148  27.725  30.236  1.00  0.00    +0.000 H 
ENDBRANCH   12   13
ENDBRANCH   11   12
ENDBRANCH   10   11
ENDBRANCH    9   10
BRANCH   20   21
ATOM     21  O2  UNL A   1      45.757  27.913  30.011  1.00  0.00    +0.000 O 
BRANCH   21   22
ATOM    132  H27 UNL A   1      44.591  28.744  28.544  1.00  0.00    +0.000 H 
ATOM    133  H28 UNL A   1      46.177  28.229  28.029  1.00  0.00    +0.000 H 
ATOM     22  C18 UNL A   1      45.623  28.689  28.819  1.00  0.00    +0.000 C 
BRANCH   22   23
ATOM    135  H30 UNL A   1      45.611  30.788  28.454  1.00  0.00    +0.000 H 
ATOM    134  H29 UNL A   1      46.055  30.346  30.111  1.00  0.00    +0.000 H 
ATOM     23  C19 UNL A   1      46.168  30.115  29.073  1.00  0.00    +0.000 C 
BRANCH   23   24
ATOM    136  H31 UNL A   1      47.760  31.326  28.712  1.00  0.00    +0.000 H 
ATOM    137  H32 UNL A   1      48.642  28.515  29.449  1.00  0.00    +0.000 H 
ATOM    138  H33 UNL A   1      48.212  29.650  30.683  1.00  0.00    +0.000 H 
ATOM    139  H34 UNL A   1      50.604  29.822  30.309  1.00  0.00    +0.000 H 
ATOM    140  H35 UNL A   1      49.870  31.264  29.667  1.00  0.00    +0.000 H 
ATOM    141  H36 UNL A   1      50.791  28.838  28.163  1.00  0.00    +0.000 H 
ATOM    142  H37 UNL A   1      51.354  30.519  28.017  1.00  0.00    +0.000 H 
ATOM    143  H38 UNL A   1      49.854  29.559  26.177  1.00  0.00    +0.000 H 
ATOM    144  H39 UNL A   1      49.530  31.183  26.862  1.00  0.00    +0.000 H 
ATOM    145  H40 UNL A   1      47.424  30.184  26.571  1.00  0.00    +0.000 H 
ATOM    146  H41 UNL A   1      47.958  28.681  27.290  1.00  0.00    +0.000 H 
ATOM     24  C20 UNL A   1      47.652  30.261  28.696  1.00  0.00    +0.000 C 
ATOM     25  C21 UNL A   1      48.580  29.557  29.683  1.00  0.00    +0.000 C 
ATOM     26  C22 UNL A   1      49.953  30.203  29.551  1.00  0.00    +0.000 C 
ATOM     27  C23 UNL A   1      50.516  29.872  28.176  1.00  0.00    +0.000 C 
ATOM     28  C24 UNL A   1      49.527  30.126  27.024  1.00  0.00    +0.000 C 
ATOM     29  C25 UNL A   1      48.059  29.745  27.313  1.00  0.00    +0.000 C 
ENDBRANCH   23   24
ENDBRANCH   22   23
ENDBRANCH   21   22
ENDBRANCH   20   21
ENDBRANCH    6    7
ENDBRANCH    5    6
ENDBRANCH   31    5
ENDBRANCH   33   31
ENDBRANCH   34   33
ENDBRANCH   35   34
ENDBRANCH   36   35
ENDBRANCH   37   36
ENDBRANCH   38   37
ENDBRANCH   39   38
ENDBRANCH   40   39
ENDBRANCH   41   40
ENDBRANCH   43   41
ENDBRANCH   47   46
BRANCH   51   52
ATOM     52  C42 UNL A   1      46.385  26.116  25.317  1.00  0.00    +0.000 C 
ATOM     53  C43 UNL A   1      45.416  27.130  25.381  1.00  0.00    +0.000 C 
ATOM     54  F1  UNL A   1      45.783  28.401  25.600  1.00  0.00    +0.000 F 
ATOM     55  C44 UNL A   1      44.060  26.834  25.261  1.00  0.00    +0.000 C 
ATOM     56  F2  UNL A   1      43.151  27.812  25.376  1.00  0.00    +0.000 F 
ATOM     57  C45 UNL A   1      43.650  25.530  25.036  1.00  0.00    +0.000 C 
ATOM     58  F3  UNL A   1      42.345  25.248  24.912  1.00  0.00    +0.000 F 
ATOM     59  C46 UNL A   1      44.590  24.515  24.948  1.00  0.00    +0.000 C 
ATOM     60  F4  UNL A   1      44.195  23.255  24.718  1.00  0.00    +0.000 F 
ATOM     61  C47 UNL A   1      45.945  24.801  25.100  1.00  0.00    +0.000 C 
ATOM     62  F5  UNL A   1      46.829  23.795  25.027  1.00  0.00    +0.000 F 
ENDBRANCH   51   52
BRANCH   68   69
ATOM     69  C53 UNL A   1      51.786  28.456  21.153  1.00  0.00    +0.000 C 
ATOM     70  C54 UNL A   1      51.695  29.812  20.812  1.00  0.00    +0.000 C 
ATOM     71  F6  UNL A   1      51.385  30.724  21.747  1.00  0.00    +0.000 F 
ATOM     72  C55 UNL A   1      51.880  30.233  19.498  1.00  0.00    +0.000 C 
ATOM     73  F7  UNL A   1      51.735  31.529  19.186  1.00  0.00    +0.000 F 
ATOM     74  C56 UNL A   1      52.195  29.314  18.509  1.00  0.00    +0.000 C 
ATOM     75  F8  UNL A   1      52.378  29.723  17.246  1.00  0.00    +0.000 F 
ATOM     76  C57 UNL A   1      52.314  27.970  18.828  1.00  0.00    +0.000 C 
ATOM     77  F9  UNL A   1      52.634  27.081  17.877  1.00  0.00    +0.000 F 
ATOM     78  C58 UNL A   1      52.099  27.541  20.134  1.00  0.00    +0.000 C 
ATOM     79  F10 UNL A   1      52.205  26.233  20.408  1.00  0.00    +0.000 F 
ENDBRANCH   68   69
BRANCH   83   84
ATOM     84  C62 UNL A   1      56.148  27.896  26.554  1.00  0.00    +0.000 C 
ATOM     85  C63 UNL A   1      56.625  29.193  26.791  1.00  0.00    +0.000 C 
ATOM     86  F11 UNL A   1      55.764  30.219  26.870  1.00  0.00    +0.000 F 
ATOM     87  C64 UNL A   1      57.990  29.451  26.897  1.00  0.00    +0.000 C 
ATOM     88  F12 UNL A   1      58.421  30.708  27.067  1.00  0.00    +0.000 F 
ATOM     89  C65 UNL A   1      58.903  28.411  26.804  1.00  0.00    +0.000 C 
ATOM     90  F13 UNL A   1      60.216  28.660  26.903  1.00  0.00    +0.000 F 
ATOM     91  C66 UNL A   1      58.453  27.117  26.596  1.00  0.00    +0.000 C 
ATOM     92  F14 UNL A   1      59.332  26.107  26.519  1.00  0.00    +0.000 F 
ATOM     93  C67 UNL A   1      57.090  26.862  26.459  1.00  0.00    +0.000 C 
ATOM     94  F15 UNL A   1      56.686  25.602  26.240  1.00  0.00    +0.000 F 
ENDBRANCH   83   84
TORSDOF 29
ENDMDL
MODEL 9
REMARK VINA RESULT:      -6.1     51.731     57.285
ROOT
ATOM    163  H58 UNL A   1      33.674  29.370  50.644  1.00  0.00    +0.000 H 
ATOM    164  H59 UNL A   1      35.587  30.515  49.291  1.00  0.00    +0.000 H 
ATOM    165  H60 UNL A   1      31.962  31.710  47.685  1.00  0.00    +0.000 H 
ATOM    166  H61 UNL A   1      28.700  34.952  43.246  1.00  0.00    +0.000 H 
ATOM    167  H62 UNL A   1      26.839  33.880  44.604  1.00  0.00    +0.000 H 
ATOM    168  H63 UNL A   1      30.463  32.700  46.263  1.00  0.00    +0.000 H 
ATOM    169  H64 UNL A   1      34.040  34.985  43.589  1.00  0.00    +0.000 H 
ATOM    170  H65 UNL A   1      35.736  33.674  44.986  1.00  0.00    +0.000 H 
ATOM    171  H66 UNL A   1      28.318  29.686  50.452  1.00  0.00    +0.000 H 
ATOM    172  H67 UNL A   1      26.618  30.523  48.729  1.00  0.00    +0.000 H 
ATOM     47  C38 UNL A   1      27.751  32.209  46.728  1.00  0.00    +0.000 C 
ATOM     48  C39 UNL A   1      28.474  31.439  47.800  1.00  0.00    +0.000 C 
ATOM     49  N5  UNL A   1      29.757  31.368  48.047  1.00  0.00    +0.000 N 
ATOM     50  C40 UNL A   1      29.880  30.559  49.170  1.00  0.00    +0.000 C 
ATOM     51  C41 UNL A   1      31.009  30.119  49.775  1.00  0.00    +0.000 C 
ATOM     63  C48 UNL A   1      32.339  30.441  49.331  1.00  0.00    +0.000 C 
ATOM     64  C49 UNL A   1      33.550  30.017  49.850  1.00  0.00    +0.000 C 
ATOM     65  C50 UNL A   1      34.576  30.617  49.112  1.00  0.00    +0.000 C 
ATOM     66  C51 UNL A   1      34.004  31.372  48.100  1.00  0.00    +0.000 C 
ATOM     67  N6  UNL A   1      32.631  31.266  48.255  1.00  0.00    +0.000 N 
ATOM     68  C52 UNL A   1      34.662  32.129  47.067  1.00  0.00    +0.000 C 
ATOM     80  C59 UNL A   1      34.031  32.871  46.124  1.00  0.00    +0.000 C 
ATOM     81  N7  UNL A   1      32.670  33.053  45.919  1.00  0.00    +0.000 N 
ATOM     82  C60 UNL A   1      32.564  33.861  44.892  1.00  0.00    +0.000 C 
ATOM     83  C61 UNL A   1      31.325  34.365  44.200  1.00  0.00    +0.000 C 
ATOM     95  C68 UNL A   1      30.120  33.958  44.639  1.00  0.00    +0.000 C 
ATOM     96  C69 UNL A   1      28.833  34.339  44.065  1.00  0.00    +0.000 C 
ATOM     97  C70 UNL A   1      27.850  33.764  44.777  1.00  0.00    +0.000 C 
ATOM     98  C71 UNL A   1      28.441  32.945  45.836  1.00  0.00    +0.000 C 
ATOM     99  N8  UNL A   1      29.793  33.126  45.681  1.00  0.00    +0.000 N 
ATOM    100  C72 UNL A   1      33.853  34.317  44.354  1.00  0.00    +0.000 C 
ATOM    101  C73 UNL A   1      34.712  33.646  45.107  1.00  0.00    +0.000 C 
ATOM    102  C74 UNL A   1      28.541  30.215  49.594  1.00  0.00    +0.000 C 
ATOM    103  C75 UNL A   1      27.640  30.670  48.738  1.00  0.00    +0.000 C 
ENDROOT
BRANCH   47   46
ATOM    161  H56 UNL A   1      23.678  30.359  45.573  1.00  0.00    +0.000 H 
ATOM    162  H57 UNL A   1      26.104  30.364  45.626  1.00  0.00    +0.000 H 
ATOM    104  C76 UNL A   1      25.546  33.220  47.303  1.00  0.00    +0.000 C 
ATOM    105  C77 UNL A   1      24.158  33.167  47.352  1.00  0.00    +0.000 C 
ATOM     43  C34 UNL A   1      23.475  32.146  46.684  1.00  0.00    +0.000 C 
ATOM     44  C35 UNL A   1      24.183  31.122  46.051  1.00  0.00    +0.000 C 
ATOM     45  C36 UNL A   1      25.577  31.135  46.067  1.00  0.00    +0.000 C 
ATOM    174  H69 UNL A   1      23.631  33.879  47.882  1.00  0.00    +0.000 H 
ATOM    173  H68 UNL A   1      26.046  34.018  47.725  1.00  0.00    +0.000 H 
ATOM     46  C37 UNL A   1      26.270  32.192  46.681  1.00  0.00    +0.000 C 
BRANCH   43   41
ATOM     41  C33 UNL A   1      21.999  32.106  46.668  1.00  0.00    +0.000 C 
ATOM     42  O4  UNL A   1      21.366  32.406  47.677  1.00  0.00    +0.000 O 
BRANCH   41   40
ATOM    160  H55 UNL A   1      20.903  30.857  45.551  1.00  0.00    +0.000 H 
ATOM     40  N4  UNL A   1      21.340  31.739  45.526  1.00  0.00    +0.000 N 
BRANCH   40   39
ATOM    159  H54 UNL A   1      20.550  31.915  43.635  1.00  0.00    +0.000 H 
ATOM    158  H53 UNL A   1      22.163  32.597  43.837  1.00  0.00    +0.000 H 
ATOM     39  C32 UNL A   1      21.197  32.473  44.279  1.00  0.00    +0.000 C 
BRANCH   39   38
ATOM    156  H51 UNL A   1      19.854  34.018  43.732  1.00  0.00    +0.000 H 
ATOM    157  H52 UNL A   1      20.143  33.834  45.480  1.00  0.00    +0.000 H 
ATOM     38  C31 UNL A   1      20.576  33.847  44.502  1.00  0.00    +0.000 C 
BRANCH   38   37
ATOM    154  H49 UNL A   1      21.283  35.693  43.724  1.00  0.00    +0.000 H 
ATOM    155  H50 UNL A   1      21.579  35.422  45.465  1.00  0.00    +0.000 H 
ATOM     37  C30 UNL A   1      21.584  35.000  44.482  1.00  0.00    +0.000 C 
BRANCH   37   36
ATOM    153  H48 UNL A   1      23.005  33.947  43.337  1.00  0.00    +0.000 H 
ATOM     36  C29 UNL A   1      23.033  34.581  44.198  1.00  0.00    +0.000 C 
ATOM    152  H47 UNL A   1      23.415  34.088  45.067  1.00  0.00    +0.000 H 
BRANCH   36   35
ATOM     35  C28 UNL A   1      23.968  35.743  43.857  1.00  0.00    +0.000 C 
ATOM    150  H45 UNL A   1      24.540  35.479  42.993  1.00  0.00    +0.000 H 
ATOM    151  H46 UNL A   1      23.359  36.606  43.681  1.00  0.00    +0.000 H 
BRANCH   35   34
ATOM     34  C27 UNL A   1      24.930  36.084  44.994  1.00  0.00    +0.000 C 
ATOM    148  H43 UNL A   1      25.170  35.190  45.530  1.00  0.00    +0.000 H 
ATOM    149  H44 UNL A   1      25.814  36.517  44.578  1.00  0.00    +0.000 H 
BRANCH   34   33
ATOM     33  N3  UNL A   1      24.327  37.041  45.910  1.00  0.00    +0.000 N 
ATOM    147  H42 UNL A   1      23.642  37.623  45.507  1.00  0.00    +0.000 H 
BRANCH   33   31
ATOM     31  C26 UNL A   1      24.558  37.264  47.243  1.00  0.00    +0.000 C 
ATOM     32  O3  UNL A   1      23.995  36.526  48.057  1.00  0.00    +0.000 O 
BRANCH   31    5
ATOM    115  H10 UNL A   1      25.508  38.763  48.710  1.00  0.00    +0.000 H 
ATOM      5  C5  UNL A   1      25.502  38.395  47.705  1.00  0.00    +0.000 C 
BRANCH    5    4
ATOM    113  H8  UNL A   1      26.920  37.026  46.921  1.00  0.00    +0.000 H 
ATOM    114  H9  UNL A   1      27.527  38.693  47.427  1.00  0.00    +0.000 H 
ATOM      4  C4  UNL A   1      26.946  37.820  47.638  1.00  0.00    +0.000 C 
BRANCH    4    3
ATOM      3  C3  UNL A   1      27.650  37.257  48.872  1.00  0.00    +0.000 C 
ATOM    111  H6  UNL A   1      28.703  37.341  48.709  1.00  0.00    +0.000 H 
ATOM    112  H7  UNL A   1      27.272  37.830  49.693  1.00  0.00    +0.000 H 
BRANCH    3    2
ATOM      2  C2  UNL A   1      27.356  35.802  49.237  1.00  0.00    +0.000 C 
ATOM    109  H4  UNL A   1      26.974  35.773  50.236  1.00  0.00    +0.000 H 
ATOM    110  H5  UNL A   1      26.647  35.432  48.526  1.00  0.00    +0.000 H 
BRANCH    2    1
ATOM      1  C1  UNL A   1      28.580  34.909  49.162  1.00  0.00    +0.000 C 
ATOM    106  H1  UNL A   1      29.028  34.997  48.194  1.00  0.00    +0.000 H 
ATOM    107  H2  UNL A   1      28.292  33.894  49.331  1.00  0.00    +0.000 H 
ATOM    108  H3  UNL A   1      29.286  35.209  49.909  1.00  0.00    +0.000 H 
ENDBRANCH    2    1
ENDBRANCH    3    2
ENDBRANCH    4    3
ENDBRANCH    5    4
BRANCH    5    6
ATOM      6  S1  UNL A   1      24.893  39.859  46.699  1.00  0.00    +0.000 S 
BRANCH    6    7
ATOM    131  H26 UNL A   1      25.580  44.711  48.533  1.00  0.00    +0.000 H 
ATOM      7  C6  UNL A   1      24.909  41.206  47.832  1.00  0.00    +0.000 C 
ATOM      8  N1  UNL A   1      23.849  42.039  47.790  1.00  0.00    +0.000 N 
ATOM      9  C7  UNL A   1      24.079  43.302  48.161  1.00  0.00    +0.000 C 
ATOM     19  C16 UNL A   1      25.341  43.708  48.480  1.00  0.00    +0.000 C 
ATOM     20  C17 UNL A   1      26.275  42.747  48.725  1.00  0.00    +0.000 C 
ATOM     30  N2  UNL A   1      26.075  41.475  48.409  1.00  0.00    +0.000 N 
BRANCH    9   10
ATOM     10  O1  UNL A   1      22.978  44.125  48.213  1.00  0.00    +0.000 O 
BRANCH   10   11
ATOM     11  C8  UNL A   1      21.822  43.681  48.937  1.00  0.00    +0.000 C 
ATOM    116  H11 UNL A   1      21.743  44.281  49.819  1.00  0.00    +0.000 H 
ATOM    117  H12 UNL A   1      21.986  42.639  49.117  1.00  0.00    +0.000 H 
BRANCH   11   12
ATOM     12  C9  UNL A   1      20.462  43.757  48.192  1.00  0.00    +0.000 C 
ATOM    118  H13 UNL A   1      20.627  43.435  47.185  1.00  0.00    +0.000 H 
ATOM    119  H14 UNL A   1      20.146  44.775  48.290  1.00  0.00    +0.000 H 
BRANCH   12   13
ATOM    129  H24 UNL A   1      17.958  44.581  48.743  1.00  0.00    +0.000 H 
ATOM    130  H25 UNL A   1      18.572  44.183  50.329  1.00  0.00    +0.000 H 
ATOM     13  C10 UNL A   1      19.307  42.922  48.765  1.00  0.00    +0.000 C 
ATOM     14  C11 UNL A   1      19.741  41.836  49.762  1.00  0.00    +0.000 C 
ATOM     15  C12 UNL A   1      18.551  40.932  50.112  1.00  0.00    +0.000 C 
ATOM     16  C13 UNL A   1      17.297  41.700  50.532  1.00  0.00    +0.000 C 
ATOM     17  C14 UNL A   1      16.982  42.920  49.665  1.00  0.00    +0.000 C 
ATOM     18  C15 UNL A   1      18.215  43.780  49.404  1.00  0.00    +0.000 C 
ATOM    120  H15 UNL A   1      18.909  42.426  47.904  1.00  0.00    +0.000 H 
ATOM    121  H16 UNL A   1      20.105  42.301  50.655  1.00  0.00    +0.000 H 
ATOM    122  H17 UNL A   1      20.512  41.242  49.318  1.00  0.00    +0.000 H 
ATOM    123  H18 UNL A   1      18.840  40.290  50.919  1.00  0.00    +0.000 H 
ATOM    124  H19 UNL A   1      18.302  40.385  49.226  1.00  0.00    +0.000 H 
ATOM    125  H20 UNL A   1      17.430  42.032  51.540  1.00  0.00    +0.000 H 
ATOM    126  H21 UNL A   1      16.474  41.026  50.420  1.00  0.00    +0.000 H 
ATOM    127  H22 UNL A   1      16.245  43.515  50.164  1.00  0.00    +0.000 H 
ATOM    128  H23 UNL A   1      16.625  42.566  48.721  1.00  0.00    +0.000 H 
ENDBRANCH   12   13
ENDBRANCH   11   12
ENDBRANCH   10   11
ENDBRANCH    9   10
BRANCH   20   21
ATOM     21  O2  UNL A   1      27.570  43.070  49.023  1.00  0.00    +0.000 O 
BRANCH   21   22
ATOM    132  H27 UNL A   1      28.310  44.950  48.674  1.00  0.00    +0.000 H 
ATOM    133  H28 UNL A   1      27.551  44.184  47.301  1.00  0.00    +0.000 H 
ATOM     22  C18 UNL A   1      28.179  44.025  48.153  1.00  0.00    +0.000 C 
BRANCH   22   23
ATOM    135  H30 UNL A   1      30.035  44.273  47.138  1.00  0.00    +0.000 H 
ATOM    134  H29 UNL A   1      30.122  43.210  48.552  1.00  0.00    +0.000 H 
ATOM     23  C19 UNL A   1      29.555  43.492  47.689  1.00  0.00    +0.000 C 
BRANCH   23   24
ATOM    136  H31 UNL A   1      29.093  41.527  47.445  1.00  0.00    +0.000 H 
ATOM    137  H32 UNL A   1      28.963  43.039  44.813  1.00  0.00    +0.000 H 
ATOM    138  H33 UNL A   1      27.633  43.090  45.920  1.00  0.00    +0.000 H 
ATOM    139  H34 UNL A   1      27.249  41.259  44.373  1.00  0.00    +0.000 H 
ATOM    140  H35 UNL A   1      27.638  40.564  45.921  1.00  0.00    +0.000 H 
ATOM    141  H36 UNL A   1      29.442  40.905  43.550  1.00  0.00    +0.000 H 
ATOM    142  H37 UNL A   1      28.941  39.403  44.361  1.00  0.00    +0.000 H 
ATOM    143  H38 UNL A   1      31.323  40.266  44.731  1.00  0.00    +0.000 H 
ATOM    144  H39 UNL A   1      30.327  39.715  46.116  1.00  0.00    +0.000 H 
ATOM    145  H40 UNL A   1      31.473  41.620  46.873  1.00  0.00    +0.000 H 
ATOM    146  H41 UNL A   1      31.089  42.518  45.421  1.00  0.00    +0.000 H 
ATOM     24  C20 UNL A   1      29.439  42.273  46.759  1.00  0.00    +0.000 C 
ATOM     25  C21 UNL A   1      28.471  42.507  45.601  1.00  0.00    +0.000 C 
ATOM     26  C22 UNL A   1      28.021  41.140  45.105  1.00  0.00    +0.000 C 
ATOM     27  C23 UNL A   1      29.215  40.431  44.481  1.00  0.00    +0.000 C 
ATOM     28  C24 UNL A   1      30.479  40.457  45.361  1.00  0.00    +0.000 C 
ATOM     29  C25 UNL A   1      30.737  41.781  46.113  1.00  0.00    +0.000 C 
ENDBRANCH   23   24
ENDBRANCH   22   23
ENDBRANCH   21   22
ENDBRANCH   20   21
ENDBRANCH    6    7
ENDBRANCH    5    6
ENDBRANCH   31    5
ENDBRANCH   33   31
ENDBRANCH   34   33
ENDBRANCH   35   34
ENDBRANCH   36   35
ENDBRANCH   37   36
ENDBRANCH   38   37
ENDBRANCH   39   38
ENDBRANCH   40   39
ENDBRANCH   41   40
ENDBRANCH   43   41
ENDBRANCH   47   46
BRANCH   51   52
ATOM     52  C42 UNL A   1      30.852  29.233  50.977  1.00  0.00    +0.000 C 
ATOM     53  C43 UNL A   1      30.701  27.842  50.850  1.00  0.00    +0.000 C 
ATOM     54  F1  UNL A   1      30.647  27.278  49.634  1.00  0.00    +0.000 F 
ATOM     55  C44 UNL A   1      30.562  27.031  51.973  1.00  0.00    +0.000 C 
ATOM     56  F2  UNL A   1      30.367  25.713  51.825  1.00  0.00    +0.000 F 
ATOM     57  C45 UNL A   1      30.610  27.585  53.242  1.00  0.00    +0.000 C 
ATOM     58  F3  UNL A   1      30.485  26.801  54.323  1.00  0.00    +0.000 F 
ATOM     59  C46 UNL A   1      30.781  28.952  53.393  1.00  0.00    +0.000 C 
ATOM     60  F4  UNL A   1      30.841  29.488  54.620  1.00  0.00    +0.000 F 
ATOM     61  C47 UNL A   1      30.887  29.772  52.272  1.00  0.00    +0.000 C 
ATOM     62  F5  UNL A   1      31.035  31.093  52.451  1.00  0.00    +0.000 F 
ENDBRANCH   51   52
BRANCH   68   69
ATOM     69  C53 UNL A   1      36.160  32.070  47.007  1.00  0.00    +0.000 C 
ATOM     70  C54 UNL A   1      36.835  31.090  46.266  1.00  0.00    +0.000 C 
ATOM     71  F6  UNL A   1      36.145  30.139  45.618  1.00  0.00    +0.000 F 
ATOM     72  C55 UNL A   1      38.226  31.057  46.223  1.00  0.00    +0.000 C 
ATOM     73  F7  UNL A   1      38.850  30.079  45.552  1.00  0.00    +0.000 F 
ATOM     74  C56 UNL A   1      38.967  32.023  46.887  1.00  0.00    +0.000 C 
ATOM     75  F8  UNL A   1      40.306  31.993  46.839  1.00  0.00    +0.000 F 
ATOM     76  C57 UNL A   1      38.320  33.016  47.607  1.00  0.00    +0.000 C 
ATOM     77  F9  UNL A   1      39.033  33.960  48.236  1.00  0.00    +0.000 F 
ATOM     78  C58 UNL A   1      36.931  33.033  47.678  1.00  0.00    +0.000 C 
ATOM     79  F10 UNL A   1      36.335  33.997  48.395  1.00  0.00    +0.000 F 
ENDBRANCH   68   69
BRANCH   83   84
ATOM     84  C62 UNL A   1      31.426  35.271  43.026  1.00  0.00    +0.000 C 
ATOM     85  C63 UNL A   1      31.276  36.657  43.174  1.00  0.00    +0.000 C 
ATOM     86  F11 UNL A   1      31.039  37.180  44.387  1.00  0.00    +0.000 F 
ATOM     87  C64 UNL A   1      31.318  37.508  42.071  1.00  0.00    +0.000 C 
ATOM     88  F12 UNL A   1      31.115  38.823  42.234  1.00  0.00    +0.000 F 
ATOM     89  C65 UNL A   1      31.547  36.993  40.804  1.00  0.00    +0.000 C 
ATOM     90  F13 UNL A   1      31.584  37.811  39.744  1.00  0.00    +0.000 F 
ATOM     91  C66 UNL A   1      31.724  35.629  40.637  1.00  0.00    +0.000 C 
ATOM     92  F14 UNL A   1      31.959  35.129  39.416  1.00  0.00    +0.000 F 
ATOM     93  C67 UNL A   1      31.652  34.773  41.735  1.00  0.00    +0.000 C 
ATOM     94  F15 UNL A   1      31.810  33.456  41.540  1.00  0.00    +0.000 F 
ENDBRANCH   83   84
TORSDOF 29
ENDMDL
MODEL 10
REMARK VINA RESULT:      -6.0      7.846     16.197
ROOT
ATOM    163  H58 UNL A   1      14.479  20.739   0.365  1.00  0.00    +0.000 H 
ATOM    164  H59 UNL A   1      13.716  19.406   2.472  1.00  0.00    +0.000 H 
ATOM    165  H60 UNL A   1      12.189  23.245   2.739  1.00  0.00    +0.000 H 
ATOM    166  H61 UNL A   1       8.927  27.666   6.006  1.00  0.00    +0.000 H 
ATOM    167  H62 UNL A   1       9.625  28.943   3.924  1.00  0.00    +0.000 H 
ATOM    168  H63 UNL A   1      11.132  25.082   3.609  1.00  0.00    +0.000 H 
ATOM    169  H64 UNL A   1       9.574  22.631   7.699  1.00  0.00    +0.000 H 
ATOM    170  H65 UNL A   1      10.977  20.652   6.886  1.00  0.00    +0.000 H 
ATOM    171  H66 UNL A   1      13.473  25.699  -1.428  1.00  0.00    +0.000 H 
ATOM    172  H67 UNL A   1      12.564  27.850  -0.377  1.00  0.00    +0.000 H 
ATOM     47  C38 UNL A   1      11.218  27.434   2.102  1.00  0.00    +0.000 C 
ATOM     48  C39 UNL A   1      11.984  26.426   1.290  1.00  0.00    +0.000 C 
ATOM     49  N5  UNL A   1      12.204  25.159   1.535  1.00  0.00    +0.000 N 
ATOM     50  C40 UNL A   1      12.925  24.684   0.447  1.00  0.00    +0.000 C 
ATOM     51  C41 UNL A   1      13.459  23.454   0.259  1.00  0.00    +0.000 C 
ATOM     63  C48 UNL A   1      13.354  22.377   1.207  1.00  0.00    +0.000 C 
ATOM     64  C49 UNL A   1      13.890  21.103   1.130  1.00  0.00    +0.000 C 
ATOM     65  C50 UNL A   1      13.496  20.394   2.270  1.00  0.00    +0.000 C 
ATOM     66  C51 UNL A   1      12.760  21.242   3.081  1.00  0.00    +0.000 C 
ATOM     67  N6  UNL A   1      12.669  22.451   2.411  1.00  0.00    +0.000 N 
ATOM     68  C52 UNL A   1      12.186  20.971   4.374  1.00  0.00    +0.000 C 
ATOM     80  C59 UNL A   1      11.448  21.848   5.098  1.00  0.00    +0.000 C 
ATOM     81  N7  UNL A   1      11.105  23.160   4.798  1.00  0.00    +0.000 N 
ATOM     82  C60 UNL A   1      10.379  23.582   5.805  1.00  0.00    +0.000 C 
ATOM     83  C61 UNL A   1       9.775  24.941   6.040  1.00  0.00    +0.000 C 
ATOM     95  C68 UNL A   1       9.980  25.913   5.133  1.00  0.00    +0.000 C 
ATOM     96  C69 UNL A   1       9.481  27.282   5.225  1.00  0.00    +0.000 C 
ATOM     97  C70 UNL A   1       9.859  27.960   4.129  1.00  0.00    +0.000 C 
ATOM     98  C71 UNL A   1      10.657  27.081   3.274  1.00  0.00    +0.000 C 
ATOM     99  N8  UNL A   1      10.671  25.885   3.946  1.00  0.00    +0.000 N 
ATOM    100  C72 UNL A   1      10.145  22.567   6.842  1.00  0.00    +0.000 C 
ATOM    101  C73 UNL A   1      10.858  21.547   6.386  1.00  0.00    +0.000 C 
ATOM    102  C74 UNL A   1      13.051  25.779  -0.489  1.00  0.00    +0.000 C 
ATOM    103  C75 UNL A   1      12.554  26.897   0.017  1.00  0.00    +0.000 C 
ENDROOT
BRANCH   47   46
ATOM    161  H56 UNL A   1      12.342  31.906   1.804  1.00  0.00    +0.000 H 
ATOM    162  H57 UNL A   1      12.649  29.661   2.672  1.00  0.00    +0.000 H 
ATOM    104  C76 UNL A   1      10.040  29.076   0.641  1.00  0.00    +0.000 C 
ATOM    105  C77 UNL A   1       9.925  30.341   0.076  1.00  0.00    +0.000 C 
ATOM     43  C34 UNL A   1      10.737  31.384   0.532  1.00  0.00    +0.000 C 
ATOM     44  C35 UNL A   1      11.732  31.139   1.481  1.00  0.00    +0.000 C 
ATOM     45  C36 UNL A   1      11.896  29.852   1.992  1.00  0.00    +0.000 C 
ATOM    174  H69 UNL A   1       9.243  30.510  -0.680  1.00  0.00    +0.000 H 
ATOM    173  H68 UNL A   1       9.385  28.327   0.364  1.00  0.00    +0.000 H 
ATOM     46  C37 UNL A   1      11.042  28.813   1.586  1.00  0.00    +0.000 C 
BRANCH   43   41
ATOM     41  C33 UNL A   1      10.589  32.751  -0.007  1.00  0.00    +0.000 C 
ATOM     42  O4  UNL A   1      11.299  33.659   0.419  1.00  0.00    +0.000 O 
BRANCH   41   40
ATOM    160  H55 UNL A   1       8.786  33.317  -0.668  1.00  0.00    +0.000 H 
ATOM     40  N4  UNL A   1       9.663  33.001  -0.983  1.00  0.00    +0.000 N 
BRANCH   40   39
ATOM    159  H54 UNL A   1       9.209  33.627  -2.889  1.00  0.00    +0.000 H 
ATOM    158  H53 UNL A   1       9.459  31.890  -2.713  1.00  0.00    +0.000 H 
ATOM     39  C32 UNL A   1       9.798  32.863  -2.424  1.00  0.00    +0.000 C 
BRANCH   39   38
ATOM    156  H51 UNL A   1      11.250  33.651  -3.751  1.00  0.00    +0.000 H 
ATOM    157  H52 UNL A   1      11.769  33.480  -2.056  1.00  0.00    +0.000 H 
ATOM     38  C31 UNL A   1      11.243  33.037  -2.875  1.00  0.00    +0.000 C 
BRANCH   38   37
ATOM    154  H49 UNL A   1      11.272  30.919  -3.036  1.00  0.00    +0.000 H 
ATOM    155  H50 UNL A   1      12.282  31.800  -4.218  1.00  0.00    +0.000 H 
ATOM     37  C30 UNL A   1      11.959  31.724  -3.201  1.00  0.00    +0.000 C 
BRANCH   37   36
ATOM    153  H48 UNL A   1      12.897  30.935  -1.488  1.00  0.00    +0.000 H 
ATOM     36  C29 UNL A   1      13.218  31.454  -2.367  1.00  0.00    +0.000 C 
ATOM    152  H47 UNL A   1      13.683  32.393  -2.150  1.00  0.00    +0.000 H 
BRANCH   36   35
ATOM     35  C28 UNL A   1      14.249  30.557  -3.055  1.00  0.00    +0.000 C 
ATOM    150  H45 UNL A   1      13.952  30.414  -4.073  1.00  0.00    +0.000 H 
ATOM    151  H46 UNL A   1      15.199  31.043  -2.984  1.00  0.00    +0.000 H 
BRANCH   35   34
ATOM     34  C27 UNL A   1      14.382  29.188  -2.390  1.00  0.00    +0.000 C 
ATOM    148  H43 UNL A   1      15.418  28.968  -2.244  1.00  0.00    +0.000 H 
ATOM    149  H44 UNL A   1      13.870  29.211  -1.451  1.00  0.00    +0.000 H 
BRANCH   34   33
ATOM     33  N3  UNL A   1      13.786  28.151  -3.221  1.00  0.00    +0.000 N 
ATOM    147  H42 UNL A   1      14.372  27.380  -3.402  1.00  0.00    +0.000 H 
BRANCH   33   31
ATOM     31  C26 UNL A   1      12.543  28.075  -3.793  1.00  0.00    +0.000 C 
ATOM     32  O3  UNL A   1      11.567  27.994  -3.042  1.00  0.00    +0.000 O 
BRANCH   31    5
ATOM    115  H10 UNL A   1      13.007  28.682  -5.965  1.00  0.00    +0.000 H 
ATOM      5  C5  UNL A   1      12.374  28.102  -5.328  1.00  0.00    +0.000 C 
BRANCH    5    4
ATOM    113  H8  UNL A   1      12.044  26.450  -6.618  1.00  0.00    +0.000 H 
ATOM    114  H9  UNL A   1      13.777  26.785  -6.081  1.00  0.00    +0.000 H 
ATOM      4  C4  UNL A   1      12.741  26.678  -5.838  1.00  0.00    +0.000 C 
BRANCH    4    3
ATOM      3  C3  UNL A   1      12.753  25.465  -4.909  1.00  0.00    +0.000 C 
ATOM    111  H6  UNL A   1      13.683  24.957  -5.054  1.00  0.00    +0.000 H 
ATOM    112  H7  UNL A   1      12.606  25.866  -3.927  1.00  0.00    +0.000 H 
BRANCH    3    2
ATOM      2  C2  UNL A   1      11.635  24.440  -5.088  1.00  0.00    +0.000 C 
ATOM    109  H4  UNL A   1      11.696  23.727  -4.293  1.00  0.00    +0.000 H 
ATOM    110  H5  UNL A   1      10.707  24.974  -5.076  1.00  0.00    +0.000 H 
BRANCH    2    1
ATOM      1  C1  UNL A   1      11.712  23.697  -6.409  1.00  0.00    +0.000 C 
ATOM    106  H1  UNL A   1      12.475  22.949  -6.354  1.00  0.00    +0.000 H 
ATOM    107  H2  UNL A   1      11.945  24.387  -7.192  1.00  0.00    +0.000 H 
ATOM    108  H3  UNL A   1      10.770  23.231  -6.612  1.00  0.00    +0.000 H 
ENDBRANCH    2    1
ENDBRANCH    3    2
ENDBRANCH    4    3
ENDBRANCH    5    4
BRANCH    5    6
ATOM      6  S1  UNL A   1      10.686  28.900  -5.529  1.00  0.00    +0.000 S 
BRANCH    6    7
ATOM    131  H26 UNL A   1      11.533  32.583  -9.147  1.00  0.00    +0.000 H 
ATOM      7  C6  UNL A   1      10.753  29.675  -7.107  1.00  0.00    +0.000 C 
ATOM      8  N1  UNL A   1      11.949  29.666  -7.731  1.00  0.00    +0.000 N 
ATOM      9  C7  UNL A   1      12.182  30.680  -8.569  1.00  0.00    +0.000 C 
ATOM     19  C16 UNL A   1      11.275  31.689  -8.701  1.00  0.00    +0.000 C 
ATOM     20  C17 UNL A   1      10.016  31.479  -8.222  1.00  0.00    +0.000 C 
ATOM     30  N2  UNL A   1       9.731  30.464  -7.419  1.00  0.00    +0.000 N 
BRANCH    9   10
ATOM     10  O1  UNL A   1      13.359  30.616  -9.279  1.00  0.00    +0.000 O 
BRANCH   10   11
ATOM     11  C8  UNL A   1      13.374  29.899 -10.521  1.00  0.00    +0.000 C 
ATOM    116  H11 UNL A   1      12.360  29.780 -10.839  1.00  0.00    +0.000 H 
ATOM    117  H12 UNL A   1      13.889  28.985 -10.312  1.00  0.00    +0.000 H 
BRANCH   11   12
ATOM     12  C9  UNL A   1      14.161  30.551 -11.691  1.00  0.00    +0.000 C 
ATOM    118  H13 UNL A   1      13.771  30.152 -12.604  1.00  0.00    +0.000 H 
ATOM    119  H14 UNL A   1      15.188  30.317 -11.503  1.00  0.00    +0.000 H 
BRANCH   12   13
ATOM    129  H24 UNL A   1      11.974  32.115 -11.848  1.00  0.00    +0.000 H 
ATOM    130  H25 UNL A   1      12.730  32.384 -13.399  1.00  0.00    +0.000 H 
ATOM     13  C10 UNL A   1      14.112  32.083 -11.794  1.00  0.00    +0.000 C 
ATOM     14  C11 UNL A   1      15.268  32.706 -12.592  1.00  0.00    +0.000 C 
ATOM     15  C12 UNL A   1      15.242  34.234 -12.459  1.00  0.00    +0.000 C 
ATOM     16  C13 UNL A   1      13.875  34.854 -12.754  1.00  0.00    +0.000 C 
ATOM     17  C14 UNL A   1      12.694  34.105 -12.135  1.00  0.00    +0.000 C 
ATOM     18  C15 UNL A   1      12.785  32.598 -12.352  1.00  0.00    +0.000 C 
ATOM    120  H15 UNL A   1      14.216  32.402 -10.777  1.00  0.00    +0.000 H 
ATOM    121  H16 UNL A   1      15.168  32.440 -13.624  1.00  0.00    +0.000 H 
ATOM    122  H17 UNL A   1      16.195  32.337 -12.207  1.00  0.00    +0.000 H 
ATOM    123  H18 UNL A   1      15.954  34.645 -13.144  1.00  0.00    +0.000 H 
ATOM    124  H19 UNL A   1      15.477  34.464 -11.441  1.00  0.00    +0.000 H 
ATOM    125  H20 UNL A   1      13.739  34.875 -13.815  1.00  0.00    +0.000 H 
ATOM    126  H21 UNL A   1      13.881  35.830 -12.315  1.00  0.00    +0.000 H 
ATOM    127  H22 UNL A   1      11.789  34.464 -12.579  1.00  0.00    +0.000 H 
ATOM    128  H23 UNL A   1      12.710  34.285 -11.081  1.00  0.00    +0.000 H 
ENDBRANCH   12   13
ENDBRANCH   11   12
ENDBRANCH   10   11
ENDBRANCH    9   10
BRANCH   20   21
ATOM     21  O2  UNL A   1       9.056  32.450  -8.289  1.00  0.00    +0.000 O 
BRANCH   21   22
ATOM    132  H27 UNL A   1       8.948  34.480  -8.548  1.00  0.00    +0.000 H 
ATOM    133  H28 UNL A   1      10.540  33.861  -8.185  1.00  0.00    +0.000 H 
ATOM     22  C18 UNL A   1       9.497  33.769  -7.967  1.00  0.00    +0.000 C 
BRANCH   22   23
ATOM    135  H30 UNL A   1       8.777  33.173  -6.053  1.00  0.00    +0.000 H 
ATOM    134  H29 UNL A   1      10.199  34.226  -5.992  1.00  0.00    +0.000 H 
ATOM     23  C19 UNL A   1       9.257  34.037  -6.462  1.00  0.00    +0.000 C 
BRANCH   23   24
ATOM    136  H31 UNL A   1       8.974  36.050  -6.497  1.00  0.00    +0.000 H 
ATOM    137  H32 UNL A   1       6.332  34.552  -6.555  1.00  0.00    +0.000 H 
ATOM    138  H33 UNL A   1       7.245  34.776  -8.009  1.00  0.00    +0.000 H 
ATOM    139  H34 UNL A   1       5.682  36.622  -7.815  1.00  0.00    +0.000 H 
ATOM    140  H35 UNL A   1       7.276  37.253  -7.515  1.00  0.00    +0.000 H 
ATOM    141  H36 UNL A   1       5.172  36.533  -5.503  1.00  0.00    +0.000 H 
ATOM    142  H37 UNL A   1       5.923  38.115  -5.811  1.00  0.00    +0.000 H 
ATOM    143  H38 UNL A   1       6.608  36.814  -3.714  1.00  0.00    +0.000 H 
ATOM    144  H39 UNL A   1       7.849  37.569  -4.765  1.00  0.00    +0.000 H 
ATOM    145  H40 UNL A   1       8.734  35.489  -4.124  1.00  0.00    +0.000 H 
ATOM    146  H41 UNL A   1       7.233  34.661  -4.473  1.00  0.00    +0.000 H 
ATOM     24  C20 UNL A   1       8.333  35.241  -6.211  1.00  0.00    +0.000 C 
ATOM     25  C21 UNL A   1       7.051  35.180  -7.038  1.00  0.00    +0.000 C 
ATOM     26  C22 UNL A   1       6.514  36.601  -7.143  1.00  0.00    +0.000 C 
ATOM     27  C23 UNL A   1       6.069  37.056  -5.760  1.00  0.00    +0.000 C 
ATOM     28  C24 UNL A   1       7.113  36.800  -4.658  1.00  0.00    +0.000 C 
ATOM     29  C25 UNL A   1       7.878  35.463  -4.766  1.00  0.00    +0.000 C 
ENDBRANCH   23   24
ENDBRANCH   22   23
ENDBRANCH   21   22
ENDBRANCH   20   21
ENDBRANCH    6    7
ENDBRANCH    5    6
ENDBRANCH   31    5
ENDBRANCH   33   31
ENDBRANCH   34   33
ENDBRANCH   35   34
ENDBRANCH   36   35
ENDBRANCH   37   36
ENDBRANCH   38   37
ENDBRANCH   39   38
ENDBRANCH   40   39
ENDBRANCH   41   40
ENDBRANCH   43   41
ENDBRANCH   47   46
BRANCH   51   52
ATOM     52  C42 UNL A   1      14.212  23.212  -1.017  1.00  0.00    +0.000 C 
ATOM     53  C43 UNL A   1      15.588  23.477  -1.120  1.00  0.00    +0.000 C 
ATOM     54  F1  UNL A   1      16.253  24.001  -0.080  1.00  0.00    +0.000 F 
ATOM     55  C44 UNL A   1      16.276  23.243  -2.307  1.00  0.00    +0.000 C 
ATOM     56  F2  UNL A   1      17.577  23.552  -2.397  1.00  0.00    +0.000 F 
ATOM     57  C45 UNL A   1      15.616  22.705  -3.400  1.00  0.00    +0.000 C 
ATOM     58  F3  UNL A   1      16.282  22.472  -4.540  1.00  0.00    +0.000 F 
ATOM     59  C46 UNL A   1      14.263  22.414  -3.316  1.00  0.00    +0.000 C 
ATOM     60  F4  UNL A   1      13.625  21.882  -4.368  1.00  0.00    +0.000 F 
ATOM     61  C47 UNL A   1      13.563  22.678  -2.140  1.00  0.00    +0.000 C 
ATOM     62  F5  UNL A   1      12.251  22.401  -2.096  1.00  0.00    +0.000 F 
ENDBRANCH   51   52
BRANCH   68   69
ATOM     69  C53 UNL A   1      12.448  19.625   4.983  1.00  0.00    +0.000 C 
ATOM     70  C54 UNL A   1      13.557  19.388   5.807  1.00  0.00    +0.000 C 
ATOM     71  F6  UNL A   1      14.448  20.363   6.038  1.00  0.00    +0.000 F 
ATOM     72  C55 UNL A   1      13.777  18.131   6.364  1.00  0.00    +0.000 C 
ATOM     73  F7  UNL A   1      14.873  17.912   7.106  1.00  0.00    +0.000 F 
ATOM     74  C56 UNL A   1      12.877  17.100   6.140  1.00  0.00    +0.000 C 
ATOM     75  F8  UNL A   1      13.088  15.894   6.682  1.00  0.00    +0.000 F 
ATOM     76  C57 UNL A   1      11.760  17.319   5.347  1.00  0.00    +0.000 C 
ATOM     77  F9  UNL A   1      10.880  16.330   5.142  1.00  0.00    +0.000 F 
ATOM     78  C58 UNL A   1      11.553  18.565   4.763  1.00  0.00    +0.000 C 
ATOM     79  F10 UNL A   1      10.473  18.742   3.989  1.00  0.00    +0.000 F 
ENDBRANCH   68   69
BRANCH   83   84
ATOM     84  C62 UNL A   1       8.992  25.222   7.272  1.00  0.00    +0.000 C 
ATOM     85  C63 UNL A   1       9.630  25.649   8.446  1.00  0.00    +0.000 C 
ATOM     86  F11 UNL A   1      10.962  25.809   8.465  1.00  0.00    +0.000 F 
ATOM     87  C64 UNL A   1       8.910  25.865   9.619  1.00  0.00    +0.000 C 
ATOM     88  F12 UNL A   1       9.551  26.219  10.741  1.00  0.00    +0.000 F 
ATOM     89  C65 UNL A   1       7.533  25.694   9.632  1.00  0.00    +0.000 C 
ATOM     90  F13 UNL A   1       6.842  25.899  10.761  1.00  0.00    +0.000 F 
ATOM     91  C66 UNL A   1       6.878  25.297   8.476  1.00  0.00    +0.000 C 
ATOM     92  F14 UNL A   1       5.547  25.143   8.481  1.00  0.00    +0.000 F 
ATOM     93  C67 UNL A   1       7.601  25.051   7.311  1.00  0.00    +0.000 C 
ATOM     94  F15 UNL A   1       6.943  24.651   6.213  1.00  0.00    +0.000 F 
ENDBRANCH   83   84
TORSDOF 29
ENDMDL
