MODEL 1
REMARK VINA RESULT:      -9.0      0.000      0.000
ROOT
ATOM     27  C22 UNL A   1      13.196  53.198   5.833  1.00  0.00    +0.000 C 
ATOM     28  C23 UNL A   1      12.747  51.768   5.715  1.00  0.00    +0.000 C 
ATOM     29  N3  UNL A   1      13.085  50.864   4.828  1.00  0.00    +0.000 N 
ATOM     30  C24 UNL A   1      12.425  49.701   5.202  1.00  0.00    +0.000 C 
ATOM     31  C25 UNL A   1      12.410  48.500   4.576  1.00  0.00    +0.000 C 
ATOM     43  C32 UNL A   1      13.098  48.218   3.343  1.00  0.00    +0.000 C 
ATOM     44  C33 UNL A   1      13.088  47.052   2.596  1.00  0.00    +0.000 C 
ATOM     45  C34 UNL A   1      13.928  47.232   1.493  1.00  0.00    +0.000 C 
ATOM     46  C35 UNL A   1      14.425  48.524   1.528  1.00  0.00    +0.000 C 
ATOM     47  N4  UNL A   1      13.915  49.116   2.672  1.00  0.00    +0.000 N 
ATOM     48  C36 UNL A   1      15.299  49.173   0.587  1.00  0.00    +0.000 C 
ATOM     60  C43 UNL A   1      15.761  50.441   0.704  1.00  0.00    +0.000 C 
ATOM     61  N5  UNL A   1      15.497  51.379   1.694  1.00  0.00    +0.000 N 
ATOM     62  C44 UNL A   1      16.182  52.447   1.370  1.00  0.00    +0.000 C 
ATOM     63  C45 UNL A   1      16.241  53.785   2.059  1.00  0.00    +0.000 C 
ATOM     75  C52 UNL A   1      15.493  53.992   3.158  1.00  0.00    +0.000 C 
ATOM     76  C53 UNL A   1      15.431  55.236   3.920  1.00  0.00    +0.000 C 
ATOM     77  C54 UNL A   1      14.610  55.067   4.968  1.00  0.00    +0.000 C 
ATOM     78  C55 UNL A   1      14.061  53.711   4.935  1.00  0.00    +0.000 C 
ATOM     79  N6  UNL A   1      14.640  53.147   3.825  1.00  0.00    +0.000 N 
ATOM     80  C56 UNL A   1      16.994  52.293   0.155  1.00  0.00    +0.000 C 
ATOM     81  C57 UNL A   1      16.662  51.071  -0.237  1.00  0.00    +0.000 C 
ATOM     82  C58 UNL A   1      11.700  49.997   6.418  1.00  0.00    +0.000 C 
ATOM     83  C59 UNL A   1      11.815  51.277   6.742  1.00  0.00    +0.000 C 
ATOM    116  H27 UNL A   1      12.552  46.198   2.816  1.00  0.00    +0.000 H 
ATOM    117  H28 UNL A   1      14.143  46.521   0.776  1.00  0.00    +0.000 H 
ATOM    118  H29 UNL A   1      14.103  50.036   2.965  1.00  0.00    +0.000 H 
ATOM    119  H30 UNL A   1      15.938  56.105   3.689  1.00  0.00    +0.000 H 
ATOM    120  H31 UNL A   1      14.399  55.781   5.684  1.00  0.00    +0.000 H 
ATOM    121  H32 UNL A   1      14.461  52.223   3.535  1.00  0.00    +0.000 H 
ATOM    122  H33 UNL A   1      17.650  52.960  -0.281  1.00  0.00    +0.000 H 
ATOM    123  H34 UNL A   1      17.003  50.625  -1.103  1.00  0.00    +0.000 H 
ATOM    124  H35 UNL A   1      11.163  49.303   6.962  1.00  0.00    +0.000 H 
ATOM    125  H36 UNL A   1      11.367  51.796   7.513  1.00  0.00    +0.000 H 
ENDROOT
BRANCH   27   26
ATOM    114  H25 UNL A   1      13.507  54.843  10.143  1.00  0.00    +0.000 H 
ATOM    115  H26 UNL A   1      14.336  53.550   8.264  1.00  0.00    +0.000 H 
ATOM     84  C60 UNL A   1      11.567  54.803   6.844  1.00  0.00    +0.000 C 
ATOM     85  C61 UNL A   1      11.133  55.607   7.898  1.00  0.00    +0.000 C 
ATOM     23  C18 UNL A   1      11.810  55.579   9.120  1.00  0.00    +0.000 C 
ATOM     24  C19 UNL A   1      12.986  54.835   9.251  1.00  0.00    +0.000 C 
ATOM     25  C20 UNL A   1      13.455  54.079   8.174  1.00  0.00    +0.000 C 
ATOM     26  C21 UNL A   1      12.735  54.036   6.970  1.00  0.00    +0.000 C 
ATOM    126  H37 UNL A   1      11.024  54.772   5.966  1.00  0.00    +0.000 H 
ATOM    127  H38 UNL A   1      10.314  56.222   7.775  1.00  0.00    +0.000 H 
BRANCH   23   21
ATOM     21  C17 UNL A   1      11.327  56.349  10.288  1.00  0.00    +0.000 C 
ATOM     22  O3  UNL A   1      11.266  57.574  10.225  1.00  0.00    +0.000 O 
BRANCH   21   20
ATOM    113  H24 UNL A   1      10.698  54.763  11.334  1.00  0.00    +0.000 H 
ATOM     20  N2  UNL A   1      10.970  55.704  11.444  1.00  0.00    +0.000 N 
BRANCH   20   19
ATOM     19  C16 UNL A   1      10.934  56.203  12.807  1.00  0.00    +0.000 C 
ATOM    111  H22 UNL A   1      11.297  57.210  12.814  1.00  0.00    +0.000 H 
ATOM    112  H23 UNL A   1       9.921  56.147  13.147  1.00  0.00    +0.000 H 
BRANCH   19   18
ATOM     18  C15 UNL A   1      11.787  55.371  13.760  1.00  0.00    +0.000 C 
ATOM    109  H20 UNL A   1      12.551  56.004  14.160  1.00  0.00    +0.000 H 
ATOM    110  H21 UNL A   1      11.115  54.989  14.501  1.00  0.00    +0.000 H 
BRANCH   18   17
ATOM     17  C14 UNL A   1      12.465  54.149  13.135  1.00  0.00    +0.000 C 
ATOM    107  H18 UNL A   1      12.128  53.281  13.661  1.00  0.00    +0.000 H 
ATOM    108  H19 UNL A   1      12.193  54.160  12.100  1.00  0.00    +0.000 H 
BRANCH   17   16
ATOM    105  H16 UNL A   1      14.326  55.162  13.031  1.00  0.00    +0.000 H 
ATOM    106  H17 UNL A   1      14.275  53.731  14.107  1.00  0.00    +0.000 H 
ATOM     16  C13 UNL A   1      13.997  54.154  13.165  1.00  0.00    +0.000 C 
BRANCH   16   15
ATOM    103  H14 UNL A   1      13.922  52.919  11.437  1.00  0.00    +0.000 H 
ATOM     15  C12 UNL A   1      14.677  53.289  12.098  1.00  0.00    +0.000 C 
ATOM    104  H15 UNL A   1      15.392  53.918  11.611  1.00  0.00    +0.000 H 
BRANCH   15   14
ATOM    102  H13 UNL A   1      15.341  52.083  13.710  1.00  0.00    +0.000 H 
ATOM    101  H12 UNL A   1      16.483  52.197  12.373  1.00  0.00    +0.000 H 
ATOM     14  C11 UNL A   1      15.454  52.096  12.646  1.00  0.00    +0.000 C 
BRANCH   14   13
ATOM    100  H11 UNL A   1      14.255  50.411  12.669  1.00  0.00    +0.000 H 
ATOM     13  N1  UNL A   1      14.948  50.844  12.122  1.00  0.00    +0.000 N 
BRANCH   13   11
ATOM     11  C10 UNL A   1      15.290  50.178  10.983  1.00  0.00    +0.000 C 
ATOM     12  O2  UNL A   1      16.441  49.733  10.909  1.00  0.00    +0.000 O 
BRANCH   11    9
ATOM      9  C8  UNL A   1      14.296  49.969   9.834  1.00  0.00    +0.000 C 
ATOM     96  H7  UNL A   1      13.934  48.962   9.842  1.00  0.00    +0.000 H 
BRANCH    9    8
ATOM    129  H40 UNL A   1      16.696  52.052   6.398  1.00  0.00    +0.000 H 
ATOM    130  H41 UNL A   1      17.587  50.805   4.471  1.00  0.00    +0.000 H 
ATOM      3  C2  UNL A   1      17.174  48.780   4.064  1.00  0.00    +0.000 C 
ATOM      4  C3  UNL A   1      16.558  47.620   4.527  1.00  0.00    +0.000 C 
ATOM      5  C4  UNL A   1      15.851  47.646   5.731  1.00  0.00    +0.000 C 
ATOM      6  C5  UNL A   1      15.755  48.828   6.483  1.00  0.00    +0.000 C 
ATOM      7  C6  UNL A   1      15.070  48.865   7.709  1.00  0.00    +0.000 C 
ATOM      8  C7  UNL A   1      14.976  50.045   8.472  1.00  0.00    +0.000 C 
ATOM     86  C62 UNL A   1      15.548  51.212   7.954  1.00  0.00    +0.000 C 
ATOM     87  C63 UNL A   1      16.256  51.186   6.748  1.00  0.00    +0.000 C 
ATOM     88  C64 UNL A   1      16.377  50.002   6.008  1.00  0.00    +0.000 C 
ATOM     89  C65 UNL A   1      17.102  49.958   4.807  1.00  0.00    +0.000 C 
ATOM     93  H4  UNL A   1      16.626  46.746   3.984  1.00  0.00    +0.000 H 
ATOM     94  H5  UNL A   1      15.393  46.786   6.072  1.00  0.00    +0.000 H 
ATOM     95  H6  UNL A   1      14.623  48.004   8.059  1.00  0.00    +0.000 H 
ATOM    128  H39 UNL A   1      15.446  52.101   8.468  1.00  0.00    +0.000 H 
BRANCH    3    2
ATOM      2  O1  UNL A   1      17.924  48.817   2.921  1.00  0.00    +0.000 O 
BRANCH    2    1
ATOM      1  C1  UNL A   1      18.644  50.040   2.783  1.00  0.00    +0.000 C 
ATOM     90  H1  UNL A   1      18.746  50.278   1.745  1.00  0.00    +0.000 H 
ATOM     91  H2  UNL A   1      19.613  49.934   3.222  1.00  0.00    +0.000 H 
ATOM     92  H3  UNL A   1      18.111  50.825   3.279  1.00  0.00    +0.000 H 
ENDBRANCH    2    1
ENDBRANCH    3    2
ENDBRANCH    9    8
BRANCH    9   10
ATOM     97  H8  UNL A   1      13.247  51.825  10.020  1.00  0.00    +0.000 H 
ATOM     10  C9  UNL A   1      13.015  50.782  10.046  1.00  0.00    +0.000 C 
ATOM     99  H10 UNL A   1      12.314  50.553   9.270  1.00  0.00    +0.000 H 
ATOM     98  H9  UNL A   1      12.589  50.534  10.995  1.00  0.00    +0.000 H 
ENDBRANCH    9   10
ENDBRANCH   11    9
ENDBRANCH   13   11
ENDBRANCH   14   13
ENDBRANCH   15   14
ENDBRANCH   16   15
ENDBRANCH   17   16
ENDBRANCH   18   17
ENDBRANCH   19   18
ENDBRANCH   20   19
ENDBRANCH   21   20
ENDBRANCH   23   21
ENDBRANCH   27   26
BRANCH   31   32
ATOM     33  C27 UNL A   1      12.226  46.422   6.015  1.00  0.00    +0.000 C 
ATOM     34  F1  UNL A   1      13.556  46.422   6.186  1.00  0.00    +0.000 F 
ATOM     35  C28 UNL A   1      11.470  45.430   6.634  1.00  0.00    +0.000 C 
ATOM     36  F2  UNL A   1      12.076  44.493   7.377  1.00  0.00    +0.000 F 
ATOM     37  C29 UNL A   1      10.092  45.407   6.480  1.00  0.00    +0.000 C 
ATOM     38  F3  UNL A   1       9.363  44.461   7.090  1.00  0.00    +0.000 F 
ATOM     39  C30 UNL A   1       9.468  46.362   5.691  1.00  0.00    +0.000 C 
ATOM     40  F4  UNL A   1       8.135  46.348   5.553  1.00  0.00    +0.000 F 
ATOM     41  C31 UNL A   1      10.224  47.339   5.048  1.00  0.00    +0.000 C 
ATOM     42  F5  UNL A   1       9.593  48.245   4.287  1.00  0.00    +0.000 F 
ATOM     32  C26 UNL A   1      11.618  47.391   5.204  1.00  0.00    +0.000 C 
ENDBRANCH   31   32
BRANCH   48   49
ATOM     49  C37 UNL A   1      15.712  48.401  -0.633  1.00  0.00    +0.000 C 
ATOM     50  C38 UNL A   1      16.952  47.752  -0.711  1.00  0.00    +0.000 C 
ATOM     51  F6  UNL A   1      17.827  47.844   0.302  1.00  0.00    +0.000 F 
ATOM     52  C39 UNL A   1      17.315  47.041  -1.852  1.00  0.00    +0.000 C 
ATOM     53  F7  UNL A   1      18.526  46.472  -1.927  1.00  0.00    +0.000 F 
ATOM     54  C40 UNL A   1      16.434  46.937  -2.918  1.00  0.00    +0.000 C 
ATOM     55  F8  UNL A   1      16.784  46.248  -4.013  1.00  0.00    +0.000 F 
ATOM     56  C41 UNL A   1      15.193  47.550  -2.852  1.00  0.00    +0.000 C 
ATOM     57  F9  UNL A   1      14.335  47.440  -3.875  1.00  0.00    +0.000 F 
ATOM     58  C42 UNL A   1      14.839  48.288  -1.725  1.00  0.00    +0.000 C 
ATOM     59  F10 UNL A   1      13.638  48.884  -1.696  1.00  0.00    +0.000 F 
ENDBRANCH   48   49
BRANCH   63   64
ATOM     65  C47 UNL A   1      18.366  55.126   2.043  1.00  0.00    +0.000 C 
ATOM     66  F11 UNL A   1      18.835  54.368   3.045  1.00  0.00    +0.000 F 
ATOM     67  C48 UNL A   1      19.141  56.189   1.585  1.00  0.00    +0.000 C 
ATOM     68  F12 UNL A   1      20.329  56.441   2.150  1.00  0.00    +0.000 F 
ATOM     69  C49 UNL A   1      18.671  57.001   0.564  1.00  0.00    +0.000 C 
ATOM     70  F13 UNL A   1      19.414  58.028   0.128  1.00  0.00    +0.000 F 
ATOM     71  C50 UNL A   1      17.426  56.756   0.005  1.00  0.00    +0.000 C 
ATOM     72  F14 UNL A   1      16.975  57.532  -0.989  1.00  0.00    +0.000 F 
ATOM     73  C51 UNL A   1      16.638  55.711   0.484  1.00  0.00    +0.000 C 
ATOM     74  F15 UNL A   1      15.428  55.512  -0.059  1.00  0.00    +0.000 F 
ATOM     64  C46 UNL A   1      17.092  54.876   1.515  1.00  0.00    +0.000 C 
ENDBRANCH   63   64
TORSDOF 19
ENDMDL
MODEL 2
REMARK VINA RESULT:      -8.8     38.223     42.982
ROOT
ATOM     27  C22 UNL A   1      38.131  29.795  29.807  1.00  0.00    +0.000 C 
ATOM     28  C23 UNL A   1      38.332  30.337  31.195  1.00  0.00    +0.000 C 
ATOM     29  N3  UNL A   1      39.353  30.190  32.002  1.00  0.00    +0.000 N 
ATOM     30  C24 UNL A   1      39.051  30.932  33.136  1.00  0.00    +0.000 C 
ATOM     31  C25 UNL A   1      39.767  31.059  34.279  1.00  0.00    +0.000 C 
ATOM     43  C32 UNL A   1      41.020  30.396  34.529  1.00  0.00    +0.000 C 
ATOM     44  C33 UNL A   1      41.786  30.409  35.682  1.00  0.00    +0.000 C 
ATOM     45  C34 UNL A   1      42.937  29.647  35.451  1.00  0.00    +0.000 C 
ATOM     46  C35 UNL A   1      42.863  29.123  34.171  1.00  0.00    +0.000 C 
ATOM     47  N4  UNL A   1      41.687  29.597  33.613  1.00  0.00    +0.000 N 
ATOM     48  C36 UNL A   1      43.797  28.253  33.505  1.00  0.00    +0.000 C 
ATOM     60  C43 UNL A   1      43.663  27.799  32.235  1.00  0.00    +0.000 C 
ATOM     61  N5  UNL A   1      42.638  28.031  31.328  1.00  0.00    +0.000 N 
ATOM     62  C44 UNL A   1      42.970  27.387  30.237  1.00  0.00    +0.000 C 
ATOM     63  C45 UNL A   1      42.210  27.249  28.944  1.00  0.00    +0.000 C 
ATOM     75  C52 UNL A   1      41.001  27.828  28.828  1.00  0.00    +0.000 C 
ATOM     76  C53 UNL A   1      40.141  27.767  27.649  1.00  0.00    +0.000 C 
ATOM     77  C54 UNL A   1      39.030  28.484  27.879  1.00  0.00    +0.000 C 
ATOM     78  C55 UNL A   1      39.083  29.029  29.237  1.00  0.00    +0.000 C 
ATOM     79  N6  UNL A   1      40.288  28.587  29.725  1.00  0.00    +0.000 N 
ATOM     80  C56 UNL A   1      44.269  26.704  30.317  1.00  0.00    +0.000 C 
ATOM     81  C57 UNL A   1      44.625  26.946  31.570  1.00  0.00    +0.000 C 
ATOM     82  C58 UNL A   1      37.770  31.563  32.900  1.00  0.00    +0.000 C 
ATOM     83  C59 UNL A   1      37.255  31.178  31.741  1.00  0.00    +0.000 C 
ATOM    116  H27 UNL A   1      41.550  30.896  36.561  1.00  0.00    +0.000 H 
ATOM    117  H28 UNL A   1      43.709  29.502  36.120  1.00  0.00    +0.000 H 
ATOM    118  H29 UNL A   1      41.371  29.397  32.703  1.00  0.00    +0.000 H 
ATOM    119  H30 UNL A   1      40.355  27.256  26.778  1.00  0.00    +0.000 H 
ATOM    120  H31 UNL A   1      38.260  28.627  27.207  1.00  0.00    +0.000 H 
ATOM    121  H32 UNL A   1      40.611  28.794  30.631  1.00  0.00    +0.000 H 
ATOM    122  H33 UNL A   1      44.773  26.173  29.588  1.00  0.00    +0.000 H 
ATOM    123  H34 UNL A   1      45.478  26.575  32.015  1.00  0.00    +0.000 H 
ATOM    124  H35 UNL A   1      37.318  32.227  33.549  1.00  0.00    +0.000 H 
ATOM    125  H36 UNL A   1      36.337  31.406  31.330  1.00  0.00    +0.000 H 
ENDROOT
BRANCH   27   26
ATOM    114  H25 UNL A   1      35.406  32.735  27.503  1.00  0.00    +0.000 H 
ATOM    115  H26 UNL A   1      37.454  32.157  28.670  1.00  0.00    +0.000 H 
ATOM     84  C60 UNL A   1      35.931  29.170  28.794  1.00  0.00    +0.000 C 
ATOM     85  C61 UNL A   1      34.790  29.483  28.057  1.00  0.00    +0.000 C 
ATOM     23  C18 UNL A   1      34.572  30.797  27.633  1.00  0.00    +0.000 C 
ATOM     24  C19 UNL A   1      35.550  31.772  27.848  1.00  0.00    +0.000 C 
ATOM     25  C20 UNL A   1      36.723  31.443  28.533  1.00  0.00    +0.000 C 
ATOM     26  C21 UNL A   1      36.911  30.145  29.035  1.00  0.00    +0.000 C 
ATOM    126  H37 UNL A   1      36.056  28.216  29.167  1.00  0.00    +0.000 H 
ATOM    127  H38 UNL A   1      34.108  28.745  27.823  1.00  0.00    +0.000 H 
BRANCH   23   21
ATOM     21  C17 UNL A   1      33.331  31.184  26.926  1.00  0.00    +0.000 C 
ATOM     22  O3  UNL A   1      32.688  32.156  27.316  1.00  0.00    +0.000 O 
BRANCH   21   20
ATOM    113  H24 UNL A   1      33.474  30.462  25.066  1.00  0.00    +0.000 H 
ATOM     20  N2  UNL A   1      32.885  30.452  25.856  1.00  0.00    +0.000 N 
BRANCH   20   19
ATOM     19  C16 UNL A   1      31.674  29.665  25.716  1.00  0.00    +0.000 C 
ATOM    111  H22 UNL A   1      30.894  30.128  26.285  1.00  0.00    +0.000 H 
ATOM    112  H23 UNL A   1      31.430  29.626  24.674  1.00  0.00    +0.000 H 
BRANCH   19   18
ATOM     18  C15 UNL A   1      31.846  28.230  26.204  1.00  0.00    +0.000 C 
ATOM    109  H20 UNL A   1      32.011  28.257  27.261  1.00  0.00    +0.000 H 
ATOM    110  H21 UNL A   1      30.952  27.713  25.923  1.00  0.00    +0.000 H 
BRANCH   18   17
ATOM     17  C14 UNL A   1      33.001  27.455  25.564  1.00  0.00    +0.000 C 
ATOM    107  H18 UNL A   1      32.864  27.477  24.504  1.00  0.00    +0.000 H 
ATOM    108  H19 UNL A   1      33.897  27.937  25.896  1.00  0.00    +0.000 H 
BRANCH   17   16
ATOM    105  H16 UNL A   1      33.166  25.959  27.061  1.00  0.00    +0.000 H 
ATOM    106  H17 UNL A   1      32.288  25.483  25.575  1.00  0.00    +0.000 H 
ATOM     16  C13 UNL A   1      33.132  25.989  25.993  1.00  0.00    +0.000 C 
BRANCH   16   15
ATOM    103  H14 UNL A   1      34.371  25.341  24.393  1.00  0.00    +0.000 H 
ATOM     15  C12 UNL A   1      34.368  25.258  25.460  1.00  0.00    +0.000 C 
ATOM    104  H15 UNL A   1      35.215  25.721  25.920  1.00  0.00    +0.000 H 
BRANCH   15   14
ATOM    102  H13 UNL A   1      33.530  23.513  26.325  1.00  0.00    +0.000 H 
ATOM    101  H12 UNL A   1      35.285  23.613  26.451  1.00  0.00    +0.000 H 
ATOM     14  C11 UNL A   1      34.437  23.777  25.821  1.00  0.00    +0.000 C 
BRANCH   14   13
ATOM    100  H11 UNL A   1      35.428  22.994  24.183  1.00  0.00    +0.000 H 
ATOM     13  N1  UNL A   1      34.559  22.946  24.642  1.00  0.00    +0.000 N 
BRANCH   13   11
ATOM     11  C10 UNL A   1      33.649  22.105  24.074  1.00  0.00    +0.000 C 
ATOM     12  O2  UNL A   1      33.379  21.065  24.684  1.00  0.00    +0.000 O 
BRANCH   11    9
ATOM      9  C8  UNL A   1      32.967  22.427  22.737  1.00  0.00    +0.000 C 
ATOM     96  H7  UNL A   1      33.688  22.410  21.946  1.00  0.00    +0.000 H 
BRANCH    9    8
ATOM    129  H40 UNL A   1      33.018  26.874  21.281  1.00  0.00    +0.000 H 
ATOM    130  H41 UNL A   1      31.196  28.448  21.794  1.00  0.00    +0.000 H 
ATOM      3  C2  UNL A   1      29.593  28.036  23.097  1.00  0.00    +0.000 C 
ATOM      4  C3  UNL A   1      28.974  27.067  23.882  1.00  0.00    +0.000 C 
ATOM      5  C4  UNL A   1      29.539  25.795  23.983  1.00  0.00    +0.000 C 
ATOM      6  C5  UNL A   1      30.724  25.478  23.300  1.00  0.00    +0.000 C 
ATOM      7  C6  UNL A   1      31.292  24.195  23.370  1.00  0.00    +0.000 C 
ATOM      8  C7  UNL A   1      32.476  23.868  22.681  1.00  0.00    +0.000 C 
ATOM     86  C62 UNL A   1      33.113  24.877  21.951  1.00  0.00    +0.000 C 
ATOM     87  C63 UNL A   1      32.547  26.152  21.849  1.00  0.00    +0.000 C 
ATOM     88  C64 UNL A   1      31.350  26.464  22.508  1.00  0.00    +0.000 C 
ATOM     89  C65 UNL A   1      30.761  27.733  22.398  1.00  0.00    +0.000 C 
ATOM     93  H4  UNL A   1      28.101  27.289  24.386  1.00  0.00    +0.000 H 
ATOM     94  H5  UNL A   1      29.081  25.078  24.569  1.00  0.00    +0.000 H 
ATOM     95  H6  UNL A   1      30.829  23.473  23.942  1.00  0.00    +0.000 H 
ATOM    128  H39 UNL A   1      34.011  24.678  21.481  1.00  0.00    +0.000 H 
BRANCH    3    2
ATOM      2  O1  UNL A   1      29.071  29.287  22.912  1.00  0.00    +0.000 O 
BRANCH    2    1
ATOM      1  C1  UNL A   1      29.623  29.943  21.773  1.00  0.00    +0.000 C 
ATOM     90  H1  UNL A   1      29.304  30.964  21.760  1.00  0.00    +0.000 H 
ATOM     91  H2  UNL A   1      29.289  29.453  20.882  1.00  0.00    +0.000 H 
ATOM     92  H3  UNL A   1      30.692  29.903  21.823  1.00  0.00    +0.000 H 
ENDBRANCH    2    1
ENDBRANCH    3    2
ENDBRANCH    9    8
BRANCH    9   10
ATOM     97  H8  UNL A   1      32.375  20.372  22.646  1.00  0.00    +0.000 H 
ATOM     10  C9  UNL A   1      31.995  21.317  22.323  1.00  0.00    +0.000 C 
ATOM     99  H10 UNL A   1      31.041  21.492  22.775  1.00  0.00    +0.000 H 
ATOM     98  H9  UNL A   1      31.891  21.315  21.258  1.00  0.00    +0.000 H 
ENDBRANCH    9   10
ENDBRANCH   11    9
ENDBRANCH   13   11
ENDBRANCH   14   13
ENDBRANCH   15   14
ENDBRANCH   16   15
ENDBRANCH   17   16
ENDBRANCH   18   17
ENDBRANCH   19   18
ENDBRANCH   20   19
ENDBRANCH   21   20
ENDBRANCH   23   21
ENDBRANCH   27   26
BRANCH   31   32
ATOM     33  C27 UNL A   1      38.428  31.424  36.400  1.00  0.00    +0.000 C 
ATOM     34  F1  UNL A   1      38.088  30.127  36.408  1.00  0.00    +0.000 F 
ATOM     35  C28 UNL A   1      37.966  32.246  37.424  1.00  0.00    +0.000 C 
ATOM     36  F2  UNL A   1      37.188  31.737  38.389  1.00  0.00    +0.000 F 
ATOM     37  C29 UNL A   1      38.305  33.591  37.445  1.00  0.00    +0.000 C 
ATOM     38  F3  UNL A   1      37.873  34.377  38.441  1.00  0.00    +0.000 F 
ATOM     39  C30 UNL A   1      39.090  34.122  36.432  1.00  0.00    +0.000 C 
ATOM     40  F4  UNL A   1      39.430  35.417  36.459  1.00  0.00    +0.000 F 
ATOM     41  C31 UNL A   1      39.531  33.308  35.391  1.00  0.00    +0.000 C 
ATOM     42  F5  UNL A   1      40.284  33.851  34.423  1.00  0.00    +0.000 F 
ATOM     32  C26 UNL A   1      39.214  31.942  35.359  1.00  0.00    +0.000 C 
ENDBRANCH   31   32
BRANCH   48   49
ATOM     49  C37 UNL A   1      44.995  27.788  34.279  1.00  0.00    +0.000 C 
ATOM     50  C38 UNL A   1      44.971  26.612  35.042  1.00  0.00    +0.000 C 
ATOM     51  F6  UNL A   1      43.845  25.888  35.130  1.00  0.00    +0.000 F 
ATOM     52  C39 UNL A   1      46.094  26.199  35.753  1.00  0.00    +0.000 C 
ATOM     53  F7  UNL A   1      46.033  25.099  36.517  1.00  0.00    +0.000 F 
ATOM     54  C40 UNL A   1      47.269  26.932  35.688  1.00  0.00    +0.000 C 
ATOM     55  F8  UNL A   1      48.350  26.529  36.370  1.00  0.00    +0.000 F 
ATOM     56  C41 UNL A   1      47.323  28.085  34.921  1.00  0.00    +0.000 C 
ATOM     57  F9  UNL A   1      48.461  28.788  34.846  1.00  0.00    +0.000 F 
ATOM     58  C42 UNL A   1      46.193  28.518  34.233  1.00  0.00    +0.000 C 
ATOM     59  F10 UNL A   1      46.269  29.646  33.512  1.00  0.00    +0.000 F 
ENDBRANCH   48   49
BRANCH   63   64
ATOM     65  C47 UNL A   1      43.622  27.056  26.874  1.00  0.00    +0.000 C 
ATOM     66  F11 UNL A   1      43.941  28.354  26.988  1.00  0.00    +0.000 F 
ATOM     67  C48 UNL A   1      44.100  26.340  25.779  1.00  0.00    +0.000 C 
ATOM     68  F12 UNL A   1      44.858  26.952  24.860  1.00  0.00    +0.000 F 
ATOM     69  C49 UNL A   1      43.768  25.002  25.627  1.00  0.00    +0.000 C 
ATOM     70  F13 UNL A   1      44.222  24.315  24.570  1.00  0.00    +0.000 F 
ATOM     71  C50 UNL A   1      42.955  24.382  26.563  1.00  0.00    +0.000 C 
ATOM     72  F14 UNL A   1      42.644  23.086  26.425  1.00  0.00    +0.000 F 
ATOM     73  C51 UNL A   1      42.453  25.106  27.643  1.00  0.00    +0.000 C 
ATOM     74  F15 UNL A   1      41.650  24.486  28.520  1.00  0.00    +0.000 F 
ATOM     64  C46 UNL A   1      42.775  26.459  27.818  1.00  0.00    +0.000 C 
ENDBRANCH   63   64
TORSDOF 19
ENDMDL
MODEL 3
REMARK VINA RESULT:      -8.7     38.120     42.881
ROOT
ATOM     27  C22 UNL A   1      38.041  29.715  29.683  1.00  0.00    +0.000 C 
ATOM     28  C23 UNL A   1      38.251  30.282  31.060  1.00  0.00    +0.000 C 
ATOM     29  N3  UNL A   1      39.277  30.150  31.863  1.00  0.00    +0.000 N 
ATOM     30  C24 UNL A   1      38.982  30.912  32.985  1.00  0.00    +0.000 C 
ATOM     31  C25 UNL A   1      39.706  31.060  34.121  1.00  0.00    +0.000 C 
ATOM     43  C32 UNL A   1      40.961  30.403  34.374  1.00  0.00    +0.000 C 
ATOM     44  C33 UNL A   1      41.735  30.437  35.522  1.00  0.00    +0.000 C 
ATOM     45  C34 UNL A   1      42.884  29.672  35.297  1.00  0.00    +0.000 C 
ATOM     46  C35 UNL A   1      42.803  29.125  34.026  1.00  0.00    +0.000 C 
ATOM     47  N4  UNL A   1      41.622  29.588  33.468  1.00  0.00    +0.000 N 
ATOM     48  C36 UNL A   1      43.732  28.243  33.370  1.00  0.00    +0.000 C 
ATOM     60  C43 UNL A   1      43.591  27.767  32.109  1.00  0.00    +0.000 C 
ATOM     61  N5  UNL A   1      42.559  27.981  31.205  1.00  0.00    +0.000 N 
ATOM     62  C44 UNL A   1      42.884  27.318  30.124  1.00  0.00    +0.000 C 
ATOM     63  C45 UNL A   1      42.116  27.156  28.839  1.00  0.00    +0.000 C 
ATOM     75  C52 UNL A   1      40.905  27.732  28.720  1.00  0.00    +0.000 C 
ATOM     76  C53 UNL A   1      40.038  27.650  27.548  1.00  0.00    +0.000 C 
ATOM     77  C54 UNL A   1      38.928  28.370  27.774  1.00  0.00    +0.000 C 
ATOM     78  C55 UNL A   1      38.990  28.940  29.121  1.00  0.00    +0.000 C 
ATOM     79  N6  UNL A   1      40.198  28.506  29.608  1.00  0.00    +0.000 N 
ATOM     80  C56 UNL A   1      44.184  26.637  30.207  1.00  0.00    +0.000 C 
ATOM     81  C57 UNL A   1      44.548  26.902  31.453  1.00  0.00    +0.000 C 
ATOM     82  C58 UNL A   1      37.700  31.539  32.746  1.00  0.00    +0.000 C 
ATOM     83  C59 UNL A   1      37.177  31.132  31.598  1.00  0.00    +0.000 C 
ATOM    116  H27 UNL A   1      41.505  30.939  36.393  1.00  0.00    +0.000 H 
ATOM    117  H28 UNL A   1      43.661  29.539  35.963  1.00  0.00    +0.000 H 
ATOM    118  H29 UNL A   1      41.301  29.371  32.564  1.00  0.00    +0.000 H 
ATOM    119  H30 UNL A   1      40.246  27.123  26.685  1.00  0.00    +0.000 H 
ATOM    120  H31 UNL A   1      38.153  28.500  27.103  1.00  0.00    +0.000 H 
ATOM    121  H32 UNL A   1      40.527  28.731  30.509  1.00  0.00    +0.000 H 
ATOM    122  H33 UNL A   1      44.683  26.094  29.485  1.00  0.00    +0.000 H 
ATOM    123  H34 UNL A   1      45.405  26.539  31.899  1.00  0.00    +0.000 H 
ATOM    124  H35 UNL A   1      37.251  32.213  33.386  1.00  0.00    +0.000 H 
ATOM    125  H36 UNL A   1      36.256  31.353  31.189  1.00  0.00    +0.000 H 
ENDROOT
BRANCH   27   26
ATOM    114  H25 UNL A   1      35.159  32.662  27.588  1.00  0.00    +0.000 H 
ATOM    115  H26 UNL A   1      37.219  32.122  28.753  1.00  0.00    +0.000 H 
ATOM     84  C60 UNL A   1      35.914  29.037  28.555  1.00  0.00    +0.000 C 
ATOM     85  C61 UNL A   1      34.770  29.337  27.818  1.00  0.00    +0.000 C 
ATOM     23  C18 UNL A   1      34.466  30.667  27.513  1.00  0.00    +0.000 C 
ATOM     24  C19 UNL A   1      35.366  31.683  27.846  1.00  0.00    +0.000 C 
ATOM     25  C20 UNL A   1      36.544  31.374  28.530  1.00  0.00    +0.000 C 
ATOM     26  C21 UNL A   1      36.816  30.051  28.913  1.00  0.00    +0.000 C 
ATOM    126  H37 UNL A   1      36.100  28.062  28.840  1.00  0.00    +0.000 H 
ATOM    127  H38 UNL A   1      34.148  28.579  27.497  1.00  0.00    +0.000 H 
BRANCH   23   21
ATOM     21  C17 UNL A   1      33.215  31.032  26.811  1.00  0.00    +0.000 C 
ATOM     22  O3  UNL A   1      32.522  31.949  27.242  1.00  0.00    +0.000 O 
BRANCH   21   20
ATOM    113  H24 UNL A   1      33.466  30.325  24.956  1.00  0.00    +0.000 H 
ATOM     20  N2  UNL A   1      32.818  30.337  25.697  1.00  0.00    +0.000 N 
BRANCH   20   19
ATOM     19  C16 UNL A   1      31.581  29.617  25.451  1.00  0.00    +0.000 C 
ATOM    111  H22 UNL A   1      30.786  30.110  25.971  1.00  0.00    +0.000 H 
ATOM    112  H23 UNL A   1      31.415  29.610  24.394  1.00  0.00    +0.000 H 
BRANCH   19   18
ATOM     18  C15 UNL A   1      31.644  28.166  25.918  1.00  0.00    +0.000 C 
ATOM    109  H20 UNL A   1      31.600  28.161  26.987  1.00  0.00    +0.000 H 
ATOM    110  H21 UNL A   1      30.817  27.670  25.453  1.00  0.00    +0.000 H 
BRANCH   18   17
ATOM     17  C14 UNL A   1      32.895  27.394  25.492  1.00  0.00    +0.000 C 
ATOM    107  H18 UNL A   1      32.795  27.154  24.454  1.00  0.00    +0.000 H 
ATOM    108  H19 UNL A   1      33.723  28.034  25.711  1.00  0.00    +0.000 H 
BRANCH   17   16
ATOM    105  H16 UNL A   1      33.523  26.346  27.227  1.00  0.00    +0.000 H 
ATOM    106  H17 UNL A   1      32.232  25.562  26.266  1.00  0.00    +0.000 H 
ATOM     16  C13 UNL A   1      33.160  26.091  26.254  1.00  0.00    +0.000 C 
BRANCH   16   15
ATOM    103  H14 UNL A   1      34.057  25.207  24.543  1.00  0.00    +0.000 H 
ATOM     15  C12 UNL A   1      34.175  25.146  25.604  1.00  0.00    +0.000 C 
ATOM    104  H15 UNL A   1      35.141  25.463  25.938  1.00  0.00    +0.000 H 
BRANCH   15   14
ATOM    102  H13 UNL A   1      33.003  23.486  26.210  1.00  0.00    +0.000 H 
ATOM    101  H12 UNL A   1      34.630  23.509  26.887  1.00  0.00    +0.000 H 
ATOM     14  C11 UNL A   1      34.036  23.683  26.014  1.00  0.00    +0.000 C 
BRANCH   14   13
ATOM    100  H11 UNL A   1      34.763  21.898  25.262  1.00  0.00    +0.000 H 
ATOM     13  N1  UNL A   1      34.475  22.790  24.962  1.00  0.00    +0.000 N 
BRANCH   13   11
ATOM     11  C10 UNL A   1      34.549  23.002  23.618  1.00  0.00    +0.000 C 
ATOM     12  O2  UNL A   1      35.668  23.206  23.135  1.00  0.00    +0.000 O 
BRANCH   11    9
ATOM      9  C8  UNL A   1      33.304  22.978  22.721  1.00  0.00    +0.000 C 
ATOM     96  H7  UNL A   1      33.591  22.831  21.700  1.00  0.00    +0.000 H 
BRANCH    9    8
ATOM    129  H40 UNL A   1      32.769  27.400  21.286  1.00  0.00    +0.000 H 
ATOM    130  H41 UNL A   1      30.737  28.703  21.768  1.00  0.00    +0.000 H 
ATOM      3  C2  UNL A   1      29.180  28.065  23.034  1.00  0.00    +0.000 C 
ATOM      4  C3  UNL A   1      28.684  27.014  23.802  1.00  0.00    +0.000 C 
ATOM      5  C4  UNL A   1      29.418  25.831  23.909  1.00  0.00    +0.000 C 
ATOM      6  C5  UNL A   1      30.649  25.686  23.250  1.00  0.00    +0.000 C 
ATOM      7  C6  UNL A   1      31.387  24.493  23.326  1.00  0.00    +0.000 C 
ATOM      8  C7  UNL A   1      32.619  24.338  22.661  1.00  0.00    +0.000 C 
ATOM     86  C62 UNL A   1      33.126  25.431  21.949  1.00  0.00    +0.000 C 
ATOM     87  C63 UNL A   1      32.391  26.616  21.841  1.00  0.00    +0.000 C 
ATOM     88  C64 UNL A   1      31.149  26.754  22.476  1.00  0.00    +0.000 C 
ATOM     89  C65 UNL A   1      30.393  27.931  22.359  1.00  0.00    +0.000 C 
ATOM     93  H4  UNL A   1      27.779  27.109  24.288  1.00  0.00    +0.000 H 
ATOM     94  H5  UNL A   1      29.052  25.053  24.481  1.00  0.00    +0.000 H 
ATOM     95  H6  UNL A   1      31.017  23.709  23.885  1.00  0.00    +0.000 H 
ATOM    128  H39 UNL A   1      34.051  25.360  21.498  1.00  0.00    +0.000 H 
BRANCH    3    2
ATOM      2  O1  UNL A   1      28.493  29.232  22.844  1.00  0.00    +0.000 O 
BRANCH    2    1
ATOM      1  C1  UNL A   1      29.335  30.289  22.386  1.00  0.00    +0.000 C 
ATOM     90  H1  UNL A   1      29.826  30.741  23.222  1.00  0.00    +0.000 H 
ATOM     91  H2  UNL A   1      28.743  31.022  21.880  1.00  0.00    +0.000 H 
ATOM     92  H3  UNL A   1      30.067  29.894  21.712  1.00  0.00    +0.000 H 
ENDBRANCH    2    1
ENDBRANCH    3    2
ENDBRANCH    9    8
BRANCH    9   10
ATOM     97  H8  UNL A   1      31.965  21.430  22.094  1.00  0.00    +0.000 H 
ATOM     10  C9  UNL A   1      32.436  21.746  23.000  1.00  0.00    +0.000 C 
ATOM     99  H10 UNL A   1      33.051  20.955  23.377  1.00  0.00    +0.000 H 
ATOM     98  H9  UNL A   1      31.689  21.994  23.724  1.00  0.00    +0.000 H 
ENDBRANCH    9   10
ENDBRANCH   11    9
ENDBRANCH   13   11
ENDBRANCH   14   13
ENDBRANCH   15   14
ENDBRANCH   16   15
ENDBRANCH   17   16
ENDBRANCH   18   17
ENDBRANCH   19   18
ENDBRANCH   20   19
ENDBRANCH   21   20
ENDBRANCH   23   21
ENDBRANCH   27   26
BRANCH   31   32
ATOM     33  C27 UNL A   1      38.382  31.463  36.244  1.00  0.00    +0.000 C 
ATOM     34  F1  UNL A   1      38.044  30.166  36.279  1.00  0.00    +0.000 F 
ATOM     35  C28 UNL A   1      37.926  32.303  37.256  1.00  0.00    +0.000 C 
ATOM     36  F2  UNL A   1      37.156  31.811  38.237  1.00  0.00    +0.000 F 
ATOM     37  C29 UNL A   1      38.264  33.648  37.251  1.00  0.00    +0.000 C 
ATOM     38  F3  UNL A   1      37.837  34.452  38.235  1.00  0.00    +0.000 F 
ATOM     39  C30 UNL A   1      39.040  34.161  36.222  1.00  0.00    +0.000 C 
ATOM     40  F4  UNL A   1      39.379  35.458  36.223  1.00  0.00    +0.000 F 
ATOM     41  C31 UNL A   1      39.475  33.329  35.193  1.00  0.00    +0.000 C 
ATOM     42  F5  UNL A   1      40.220  33.855  34.210  1.00  0.00    +0.000 F 
ATOM     32  C26 UNL A   1      39.159  31.962  35.189  1.00  0.00    +0.000 C 
ENDBRANCH   31   32
BRANCH   48   49
ATOM     49  C37 UNL A   1      44.936  27.793  34.145  1.00  0.00    +0.000 C 
ATOM     50  C38 UNL A   1      46.134  28.522  34.138  1.00  0.00    +0.000 C 
ATOM     51  F6  UNL A   1      46.243  29.633  33.395  1.00  0.00    +0.000 F 
ATOM     52  C39 UNL A   1      47.239  28.087  34.864  1.00  0.00    +0.000 C 
ATOM     53  F7  UNL A   1      48.390  28.771  34.803  1.00  0.00    +0.000 F 
ATOM     54  C40 UNL A   1      47.158  26.936  35.635  1.00  0.00    +0.000 C 
ATOM     55  F8  UNL A   1      48.221  26.522  36.336  1.00  0.00    +0.000 F 
ATOM     56  C41 UNL A   1      45.976  26.213  35.675  1.00  0.00    +0.000 C 
ATOM     57  F9  UNL A   1      45.891  25.109  36.428  1.00  0.00    +0.000 F 
ATOM     58  C42 UNL A   1      44.878  26.629  34.926  1.00  0.00    +0.000 C 
ATOM     59  F10 UNL A   1      43.753  25.900  34.971  1.00  0.00    +0.000 F 
ENDBRANCH   48   49
BRANCH   63   64
ATOM     65  C47 UNL A   1      42.391  24.977  27.618  1.00  0.00    +0.000 C 
ATOM     66  F11 UNL A   1      41.599  24.386  28.525  1.00  0.00    +0.000 F 
ATOM     67  C48 UNL A   1      42.963  24.198  26.616  1.00  0.00    +0.000 C 
ATOM     68  F12 UNL A   1      42.724  22.881  26.575  1.00  0.00    +0.000 F 
ATOM     69  C49 UNL A   1      43.803  24.781  25.677  1.00  0.00    +0.000 C 
ATOM     70  F13 UNL A   1      44.359  24.030  24.717  1.00  0.00    +0.000 F 
ATOM     71  C50 UNL A   1      44.074  26.139  25.744  1.00  0.00    +0.000 C 
ATOM     72  F14 UNL A   1      44.874  26.706  24.832  1.00  0.00    +0.000 F 
ATOM     73  C51 UNL A   1      43.524  26.913  26.765  1.00  0.00    +0.000 C 
ATOM     74  F15 UNL A   1      43.823  28.219  26.818  1.00  0.00    +0.000 F 
ATOM     64  C46 UNL A   1      42.673  26.347  27.724  1.00  0.00    +0.000 C 
ENDBRANCH   63   64
TORSDOF 19
ENDMDL
MODEL 4
REMARK VINA RESULT:      -8.6     38.461     43.082
ROOT
ATOM     27  C22 UNL A   1      41.248  26.384  27.551  1.00  0.00    +0.000 C 
ATOM     28  C23 UNL A   1      42.670  26.624  27.124  1.00  0.00    +0.000 C 
ATOM     29  N3  UNL A   1      43.458  27.634  27.398  1.00  0.00    +0.000 N 
ATOM     30  C24 UNL A   1      44.676  27.338  26.802  1.00  0.00    +0.000 C 
ATOM     31  C25 UNL A   1      45.800  28.093  26.755  1.00  0.00    +0.000 C 
ATOM     43  C32 UNL A   1      45.920  29.406  27.332  1.00  0.00    +0.000 C 
ATOM     44  C33 UNL A   1      46.996  30.276  27.278  1.00  0.00    +0.000 C 
ATOM     45  C34 UNL A   1      46.668  31.423  28.009  1.00  0.00    +0.000 C 
ATOM     46  C35 UNL A   1      45.372  31.285  28.479  1.00  0.00    +0.000 C 
ATOM     47  N4  UNL A   1      44.928  30.040  28.064  1.00  0.00    +0.000 N 
ATOM     48  C36 UNL A   1      44.595  32.221  29.249  1.00  0.00    +0.000 C 
ATOM     60  C43 UNL A   1      43.333  32.001  29.692  1.00  0.00    +0.000 C 
ATOM     61  N5  UNL A   1      42.521  30.892  29.499  1.00  0.00    +0.000 N 
ATOM     62  C44 UNL A   1      41.402  31.151  30.129  1.00  0.00    +0.000 C 
ATOM     63  C45 UNL A   1      40.147  30.323  30.222  1.00  0.00    +0.000 C 
ATOM     75  C52 UNL A   1      40.088  29.145  29.574  1.00  0.00    +0.000 C 
ATOM     76  C53 UNL A   1      38.939  28.244  29.555  1.00  0.00    +0.000 C 
ATOM     77  C54 UNL A   1      39.250  27.153  28.838  1.00  0.00    +0.000 C 
ATOM     78  C55 UNL A   1      40.612  27.291  28.318  1.00  0.00    +0.000 C 
ATOM     79  N6  UNL A   1      41.030  28.505  28.804  1.00  0.00    +0.000 N 
ATOM     80  C56 UNL A   1      41.394  32.444  30.828  1.00  0.00    +0.000 C 
ATOM     81  C57 UNL A   1      42.574  32.941  30.488  1.00  0.00    +0.000 C 
ATOM     82  C58 UNL A   1      44.541  26.036  26.185  1.00  0.00    +0.000 C 
ATOM     83  C59 UNL A   1      43.302  25.580  26.302  1.00  0.00    +0.000 C 
ATOM    116  H27 UNL A   1      47.886  30.109  26.784  1.00  0.00    +0.000 H 
ATOM    117  H28 UNL A   1      47.287  32.232  28.173  1.00  0.00    +0.000 H 
ATOM    118  H29 UNL A   1      44.041  29.662  28.259  1.00  0.00    +0.000 H 
ATOM    119  H30 UNL A   1      38.034  28.419  30.020  1.00  0.00    +0.000 H 
ATOM    120  H31 UNL A   1      38.627  26.345  28.678  1.00  0.00    +0.000 H 
ATOM    121  H32 UNL A   1      41.921  28.881  28.619  1.00  0.00    +0.000 H 
ATOM    122  H33 UNL A   1      40.661  32.858  31.426  1.00  0.00    +0.000 H 
ATOM    123  H34 UNL A   1      42.910  33.879  30.757  1.00  0.00    +0.000 H 
ATOM    124  H35 UNL A   1      45.308  25.529  25.717  1.00  0.00    +0.000 H 
ATOM    125  H36 UNL A   1      42.887  24.718  25.916  1.00  0.00    +0.000 H 
ENDROOT
BRANCH   27   26
ATOM    114  H25 UNL A   1      40.734  21.789  27.595  1.00  0.00    +0.000 H 
ATOM    115  H26 UNL A   1      41.814  23.845  28.302  1.00  0.00    +0.000 H 
ATOM     84  C60 UNL A   1      39.431  25.163  26.343  1.00  0.00    +0.000 C 
ATOM     85  C61 UNL A   1      38.764  23.987  26.000  1.00  0.00    +0.000 C 
ATOM     23  C18 UNL A   1      39.271  22.752  26.411  1.00  0.00    +0.000 C 
ATOM     24  C19 UNL A   1      40.380  22.700  27.261  1.00  0.00    +0.000 C 
ATOM     25  C20 UNL A   1      41.011  23.883  27.655  1.00  0.00    +0.000 C 
ATOM     26  C21 UNL A   1      40.557  25.123  27.178  1.00  0.00    +0.000 C 
ATOM    126  H37 UNL A   1      39.094  26.068  25.979  1.00  0.00    +0.000 H 
ATOM    127  H38 UNL A   1      37.896  24.029  25.444  1.00  0.00    +0.000 H 
BRANCH   23   21
ATOM     21  C17 UNL A   1      38.642  21.480  25.992  1.00  0.00    +0.000 C 
ATOM     22  O3  UNL A   1      39.328  20.466  25.896  1.00  0.00    +0.000 O 
BRANCH   21   20
ATOM    113  H24 UNL A   1      36.714  21.180  26.437  1.00  0.00    +0.000 H 
ATOM     20  N2  UNL A   1      37.305  21.434  25.691  1.00  0.00    +0.000 N 
BRANCH   20   19
ATOM     19  C16 UNL A   1      36.632  21.707  24.433  1.00  0.00    +0.000 C 
ATOM    111  H22 UNL A   1      37.257  22.342  23.840  1.00  0.00    +0.000 H 
ATOM    112  H23 UNL A   1      36.454  20.769  23.951  1.00  0.00    +0.000 H 
BRANCH   19   18
ATOM     18  C15 UNL A   1      35.283  22.392  24.626  1.00  0.00    +0.000 C 
ATOM    109  H20 UNL A   1      34.580  21.932  23.963  1.00  0.00    +0.000 H 
ATOM    110  H21 UNL A   1      35.036  22.273  25.661  1.00  0.00    +0.000 H 
BRANCH   18   17
ATOM     17  C14 UNL A   1      35.269  23.899  24.359  1.00  0.00    +0.000 C 
ATOM    107  H18 UNL A   1      36.284  24.228  24.279  1.00  0.00    +0.000 H 
ATOM    108  H19 UNL A   1      34.698  24.033  23.465  1.00  0.00    +0.000 H 
BRANCH   17   16
ATOM    105  H16 UNL A   1      33.768  24.187  25.832  1.00  0.00    +0.000 H 
ATOM    106  H17 UNL A   1      35.335  24.995  26.145  1.00  0.00    +0.000 H 
ATOM     16  C13 UNL A   1      34.580  24.754  25.428  1.00  0.00    +0.000 C 
BRANCH   16   15
ATOM    103  H14 UNL A   1      34.761  26.558  24.319  1.00  0.00    +0.000 H 
ATOM     15  C12 UNL A   1      34.022  26.094  24.937  1.00  0.00    +0.000 C 
ATOM    104  H15 UNL A   1      33.116  25.870  24.414  1.00  0.00    +0.000 H 
BRANCH   15   14
ATOM    102  H13 UNL A   1      34.026  28.038  25.782  1.00  0.00    +0.000 H 
ATOM    101  H12 UNL A   1      34.075  26.734  26.966  1.00  0.00    +0.000 H 
ATOM     14  C11 UNL A   1      33.648  27.073  26.046  1.00  0.00    +0.000 C 
BRANCH   14   13
ATOM    100  H11 UNL A   1      31.896  27.228  27.136  1.00  0.00    +0.000 H 
ATOM     13  N1  UNL A   1      32.212  27.176  26.205  1.00  0.00    +0.000 N 
BRANCH   13   11
ATOM     11  C10 UNL A   1      31.234  27.213  25.257  1.00  0.00    +0.000 C 
ATOM     12  O2  UNL A   1      31.254  28.154  24.456  1.00  0.00    +0.000 O 
BRANCH   11    9
ATOM      9  C8  UNL A   1      30.149  26.132  25.164  1.00  0.00    +0.000 C 
ATOM     96  H7  UNL A   1      29.538  26.151  26.043  1.00  0.00    +0.000 H 
BRANCH    9    8
ATOM    129  H40 UNL A   1      31.456  22.164  27.274  1.00  0.00    +0.000 H 
ATOM    130  H41 UNL A   1      32.147  20.167  26.010  1.00  0.00    +0.000 H 
ATOM      3  C2  UNL A   1      32.438  20.114  23.926  1.00  0.00    +0.000 C 
ATOM      4  C3  UNL A   1      32.329  20.827  22.734  1.00  0.00    +0.000 C 
ATOM      5  C4  UNL A   1      31.889  22.152  22.759  1.00  0.00    +0.000 C 
ATOM      6  C5  UNL A   1      31.553  22.775  23.972  1.00  0.00    +0.000 C 
ATOM      7  C6  UNL A   1      31.085  24.099  24.012  1.00  0.00    +0.000 C 
ATOM      8  C7  UNL A   1      30.739  24.728  25.224  1.00  0.00    +0.000 C 
ATOM     86  C62 UNL A   1      30.919  24.012  26.413  1.00  0.00    +0.000 C 
ATOM     87  C63 UNL A   1      31.359  22.684  26.388  1.00  0.00    +0.000 C 
ATOM     88  C64 UNL A   1      31.669  22.051  25.177  1.00  0.00    +0.000 C 
ATOM     89  C65 UNL A   1      32.093  20.713  25.136  1.00  0.00    +0.000 C 
ATOM     93  H4  UNL A   1      32.570  20.377  21.837  1.00  0.00    +0.000 H 
ATOM     94  H5  UNL A   1      31.812  22.681  21.876  1.00  0.00    +0.000 H 
ATOM     95  H6  UNL A   1      30.992  24.625  23.130  1.00  0.00    +0.000 H 
ATOM    128  H39 UNL A   1      30.724  24.468  27.317  1.00  0.00    +0.000 H 
BRANCH    3    2
ATOM      2  O1  UNL A   1      32.813  18.800  23.972  1.00  0.00    +0.000 O 
BRANCH    2    1
ATOM      1  C1  UNL A   1      34.162  18.635  24.407  1.00  0.00    +0.000 C 
ATOM     90  H1  UNL A   1      34.791  18.462  23.559  1.00  0.00    +0.000 H 
ATOM     91  H2  UNL A   1      34.222  17.800  25.073  1.00  0.00    +0.000 H 
ATOM     92  H3  UNL A   1      34.482  19.521  24.915  1.00  0.00    +0.000 H 
ENDBRANCH    2    1
ENDBRANCH    3    2
ENDBRANCH    9    8
BRANCH    9   10
ATOM     97  H8  UNL A   1      29.470  25.998  23.138  1.00  0.00    +0.000 H 
ATOM     10  C9  UNL A   1      29.141  26.443  24.053  1.00  0.00    +0.000 C 
ATOM     99  H10 UNL A   1      28.183  26.046  24.319  1.00  0.00    +0.000 H 
ATOM     98  H9  UNL A   1      29.066  27.503  23.928  1.00  0.00    +0.000 H 
ENDBRANCH    9   10
ENDBRANCH   11    9
ENDBRANCH   13   11
ENDBRANCH   14   13
ENDBRANCH   15   14
ENDBRANCH   16   15
ENDBRANCH   17   16
ENDBRANCH   18   17
ENDBRANCH   19   18
ENDBRANCH   20   19
ENDBRANCH   21   20
ENDBRANCH   23   21
ENDBRANCH   27   26
BRANCH   31   32
ATOM     33  C27 UNL A   1      47.195  27.716  24.673  1.00  0.00    +0.000 C 
ATOM     34  F1  UNL A   1      46.269  28.350  23.939  1.00  0.00    +0.000 F 
ATOM     35  C28 UNL A   1      48.336  27.231  24.040  1.00  0.00    +0.000 C 
ATOM     36  F2  UNL A   1      48.488  27.394  22.718  1.00  0.00    +0.000 F 
ATOM     37  C29 UNL A   1      49.314  26.576  24.774  1.00  0.00    +0.000 C 
ATOM     38  F3  UNL A   1      50.420  26.123  24.166  1.00  0.00    +0.000 F 
ATOM     39  C30 UNL A   1      49.144  26.386  26.137  1.00  0.00    +0.000 C 
ATOM     40  F4  UNL A   1      50.095  25.766  26.849  1.00  0.00    +0.000 F 
ATOM     41  C31 UNL A   1      47.991  26.846  26.768  1.00  0.00    +0.000 C 
ATOM     42  F5  UNL A   1      47.853  26.643  28.087  1.00  0.00    +0.000 F 
ATOM     32  C26 UNL A   1      46.997  27.526  26.048  1.00  0.00    +0.000 C 
ENDBRANCH   31   32
BRANCH   48   49
ATOM     49  C37 UNL A   1      45.213  33.552  29.564  1.00  0.00    +0.000 C 
ATOM     50  C38 UNL A   1      45.988  33.752  30.715  1.00  0.00    +0.000 C 
ATOM     51  F6  UNL A   1      46.162  32.754  31.593  1.00  0.00    +0.000 F 
ATOM     52  C39 UNL A   1      46.552  34.995  30.988  1.00  0.00    +0.000 C 
ATOM     53  F7  UNL A   1      47.246  35.179  32.120  1.00  0.00    +0.000 F 
ATOM     54  C40 UNL A   1      46.381  36.048  30.101  1.00  0.00    +0.000 C 
ATOM     55  F8  UNL A   1      46.929  37.242  30.365  1.00  0.00    +0.000 F 
ATOM     56  C41 UNL A   1      45.639  35.865  28.945  1.00  0.00    +0.000 C 
ATOM     57  F9  UNL A   1      45.483  36.877  28.082  1.00  0.00    +0.000 F 
ATOM     58  C42 UNL A   1      45.048  34.633  28.684  1.00  0.00    +0.000 C 
ATOM     59  F10 UNL A   1      44.321  34.489  27.566  1.00  0.00    +0.000 F 
ENDBRANCH   48   49
BRANCH   63   64
ATOM     65  C47 UNL A   1      38.871  30.573  32.372  1.00  0.00    +0.000 C 
ATOM     66  F11 UNL A   1      39.843  29.903  33.009  1.00  0.00    +0.000 F 
ATOM     67  C48 UNL A   1      37.746  30.969  33.090  1.00  0.00    +0.000 C 
ATOM     68  F12 UNL A   1      37.646  30.673  34.392  1.00  0.00    +0.000 F 
ATOM     69  C49 UNL A   1      36.717  31.646  32.450  1.00  0.00    +0.000 C 
ATOM     70  F13 UNL A   1      35.631  32.021  33.139  1.00  0.00    +0.000 F 
ATOM     71  C50 UNL A   1      36.811  31.921  31.094  1.00  0.00    +0.000 C 
ATOM     72  F14 UNL A   1      35.825  32.585  30.477  1.00  0.00    +0.000 F 
ATOM     73  C51 UNL A   1      37.924  31.498  30.370  1.00  0.00    +0.000 C 
ATOM     74  F15 UNL A   1      37.977  31.757  29.055  1.00  0.00    +0.000 F 
ATOM     64  C46 UNL A   1      38.976  30.813  30.995  1.00  0.00    +0.000 C 
ENDBRANCH   63   64
TORSDOF 19
ENDMDL
MODEL 5
REMARK VINA RESULT:      -8.5      1.139      7.535
ROOT
ATOM     27  C22 UNL A   1      13.912  53.655   4.877  1.00  0.00    +0.000 C 
ATOM     28  C23 UNL A   1      14.885  54.105   3.822  1.00  0.00    +0.000 C 
ATOM     29  N3  UNL A   1      15.377  53.436   2.809  1.00  0.00    +0.000 N 
ATOM     30  C24 UNL A   1      16.187  54.330   2.122  1.00  0.00    +0.000 C 
ATOM     31  C25 UNL A   1      16.957  54.105   1.030  1.00  0.00    +0.000 C 
ATOM     43  C32 UNL A   1      17.086  52.829   0.376  1.00  0.00    +0.000 C 
ATOM     44  C33 UNL A   1      17.894  52.487  -0.694  1.00  0.00    +0.000 C 
ATOM     45  C34 UNL A   1      17.660  51.144  -1.007  1.00  0.00    +0.000 C 
ATOM     46  C35 UNL A   1      16.741  50.638  -0.102  1.00  0.00    +0.000 C 
ATOM     47  N4  UNL A   1      16.391  51.685   0.736  1.00  0.00    +0.000 N 
ATOM     48  C36 UNL A   1      16.222  49.299  -0.006  1.00  0.00    +0.000 C 
ATOM     60  C43 UNL A   1      15.303  48.887   0.900  1.00  0.00    +0.000 C 
ATOM     61  N5  UNL A   1      14.692  49.610   1.915  1.00  0.00    +0.000 N 
ATOM     62  C44 UNL A   1      13.875  48.777   2.509  1.00  0.00    +0.000 C 
ATOM     63  C45 UNL A   1      12.987  49.003   3.705  1.00  0.00    +0.000 C 
ATOM     75  C52 UNL A   1      12.997  50.204   4.313  1.00  0.00    +0.000 C 
ATOM     76  C53 UNL A   1      12.209  50.567   5.488  1.00  0.00    +0.000 C 
ATOM     77  C54 UNL A   1      12.449  51.851   5.797  1.00  0.00    +0.000 C 
ATOM     78  C55 UNL A   1      13.433  52.394   4.860  1.00  0.00    +0.000 C 
ATOM     79  N6  UNL A   1      13.703  51.345   4.016  1.00  0.00    +0.000 N 
ATOM     80  C56 UNL A   1      13.847  47.435   1.910  1.00  0.00    +0.000 C 
ATOM     81  C57 UNL A   1      14.770  47.543   0.966  1.00  0.00    +0.000 C 
ATOM     82  C58 UNL A   1      16.090  55.601   2.806  1.00  0.00    +0.000 C 
ATOM     83  C59 UNL A   1      15.348  55.500   3.899  1.00  0.00    +0.000 C 
ATOM    116  H27 UNL A   1      18.555  53.114  -1.179  1.00  0.00    +0.000 H 
ATOM    117  H28 UNL A   1      18.097  50.619  -1.781  1.00  0.00    +0.000 H 
ATOM    118  H29 UNL A   1      15.745  51.625   1.476  1.00  0.00    +0.000 H 
ATOM    119  H30 UNL A   1      11.570  49.936   5.998  1.00  0.00    +0.000 H 
ATOM    120  H31 UNL A   1      12.009  52.371   6.572  1.00  0.00    +0.000 H 
ATOM    121  H32 UNL A   1      14.341  51.405   3.269  1.00  0.00    +0.000 H 
ATOM    122  H33 UNL A   1      13.262  46.622   2.159  1.00  0.00    +0.000 H 
ATOM    123  H34 UNL A   1      15.070  46.768   0.355  1.00  0.00    +0.000 H 
ATOM    124  H35 UNL A   1      16.541  56.473   2.484  1.00  0.00    +0.000 H 
ATOM    125  H36 UNL A   1      15.148  56.212   4.617  1.00  0.00    +0.000 H 
ENDROOT
BRANCH   27   26
ATOM    114  H25 UNL A   1      14.050  55.648   9.046  1.00  0.00    +0.000 H 
ATOM    115  H26 UNL A   1      14.919  54.158   7.339  1.00  0.00    +0.000 H 
ATOM     84  C60 UNL A   1      12.315  55.421   5.642  1.00  0.00    +0.000 C 
ATOM     85  C61 UNL A   1      11.864  56.333   6.595  1.00  0.00    +0.000 C 
ATOM     23  C18 UNL A   1      12.462  56.377   7.857  1.00  0.00    +0.000 C 
ATOM     24  C19 UNL A   1      13.585  55.589   8.126  1.00  0.00    +0.000 C 
ATOM     25  C20 UNL A   1      14.076  54.720   7.148  1.00  0.00    +0.000 C 
ATOM     26  C21 UNL A   1      13.429  54.610   5.907  1.00  0.00    +0.000 C 
ATOM    126  H37 UNL A   1      11.827  55.341   4.736  1.00  0.00    +0.000 H 
ATOM    127  H38 UNL A   1      11.089  56.976   6.368  1.00  0.00    +0.000 H 
BRANCH   23   21
ATOM     21  C17 UNL A   1      11.952  57.268   8.923  1.00  0.00    +0.000 C 
ATOM     22  O3  UNL A   1      12.430  58.392   9.056  1.00  0.00    +0.000 O 
BRANCH   21   20
ATOM    113  H24 UNL A   1      10.067  56.772   9.378  1.00  0.00    +0.000 H 
ATOM     20  N2  UNL A   1      10.967  56.837   9.774  1.00  0.00    +0.000 N 
BRANCH   20   19
ATOM     19  C16 UNL A   1      11.055  56.463  11.174  1.00  0.00    +0.000 C 
ATOM    111  H22 UNL A   1      11.426  57.299  11.731  1.00  0.00    +0.000 H 
ATOM    112  H23 UNL A   1      10.075  56.179  11.497  1.00  0.00    +0.000 H 
BRANCH   19   18
ATOM     18  C15 UNL A   1      11.981  55.273  11.407  1.00  0.00    +0.000 C 
ATOM    109  H20 UNL A   1      12.230  54.856  10.453  1.00  0.00    +0.000 H 
ATOM    110  H21 UNL A   1      12.826  55.656  11.941  1.00  0.00    +0.000 H 
BRANCH   18   17
ATOM     17  C14 UNL A   1      11.403  54.153  12.276  1.00  0.00    +0.000 C 
ATOM    107  H18 UNL A   1      10.429  54.457  12.599  1.00  0.00    +0.000 H 
ATOM    108  H19 UNL A   1      11.402  53.277  11.663  1.00  0.00    +0.000 H 
BRANCH   17   16
ATOM    105  H16 UNL A   1      12.731  54.675  13.848  1.00  0.00    +0.000 H 
ATOM    106  H17 UNL A   1      11.522  53.412  14.234  1.00  0.00    +0.000 H 
ATOM     16  C13 UNL A   1      12.221  53.793  13.521  1.00  0.00    +0.000 C 
BRANCH   16   15
ATOM    103  H14 UNL A   1      13.423  52.207  14.265  1.00  0.00    +0.000 H 
ATOM     15  C12 UNL A   1      13.265  52.689  13.323  1.00  0.00    +0.000 C 
ATOM    104  H15 UNL A   1      12.873  52.033  12.575  1.00  0.00    +0.000 H 
BRANCH   15   14
ATOM    102  H13 UNL A   1      15.376  52.823  13.471  1.00  0.00    +0.000 H 
ATOM    101  H12 UNL A   1      14.608  54.244  12.766  1.00  0.00    +0.000 H 
ATOM     14  C11 UNL A   1      14.615  53.175  12.806  1.00  0.00    +0.000 C 
BRANCH   14   13
ATOM    100  H11 UNL A   1      15.133  53.336  10.809  1.00  0.00    +0.000 H 
ATOM     13  N1  UNL A   1      14.896  52.658  11.482  1.00  0.00    +0.000 N 
BRANCH   13   11
ATOM     11  C10 UNL A   1      14.883  51.372  11.031  1.00  0.00    +0.000 C 
ATOM     12  O2  UNL A   1      15.674  50.579  11.554  1.00  0.00    +0.000 O 
BRANCH   11    9
ATOM      9  C8  UNL A   1      13.924  50.907   9.928  1.00  0.00    +0.000 C 
ATOM     96  H7  UNL A   1      13.311  50.107  10.291  1.00  0.00    +0.000 H 
BRANCH    9    8
ATOM    129  H40 UNL A   1      15.208  47.301   7.236  1.00  0.00    +0.000 H 
ATOM    130  H41 UNL A   1      16.436  47.607   5.124  1.00  0.00    +0.000 H 
ATOM      3  C2  UNL A   1      17.215  49.444   4.451  1.00  0.00    +0.000 C 
ATOM      4  C3  UNL A   1      17.297  50.813   4.693  1.00  0.00    +0.000 C 
ATOM      5  C4  UNL A   1      16.693  51.350   5.832  1.00  0.00    +0.000 C 
ATOM      6  C5  UNL A   1      16.001  50.527   6.735  1.00  0.00    +0.000 C 
ATOM      7  C6  UNL A   1      15.365  51.055   7.871  1.00  0.00    +0.000 C 
ATOM      8  C7  UNL A   1      14.663  50.237   8.776  1.00  0.00    +0.000 C 
ATOM     86  C62 UNL A   1      14.650  48.857   8.544  1.00  0.00    +0.000 C 
ATOM     87  C63 UNL A   1      15.255  48.318   7.404  1.00  0.00    +0.000 C 
ATOM     88  C64 UNL A   1      15.923  49.141   6.487  1.00  0.00    +0.000 C 
ATOM     89  C65 UNL A   1      16.518  48.616   5.328  1.00  0.00    +0.000 C 
ATOM     93  H4  UNL A   1      17.800  51.427   4.034  1.00  0.00    +0.000 H 
ATOM     94  H5  UNL A   1      16.757  52.365   6.013  1.00  0.00    +0.000 H 
ATOM     95  H6  UNL A   1      15.415  52.070   8.047  1.00  0.00    +0.000 H 
ATOM    128  H39 UNL A   1      14.188  48.230   9.222  1.00  0.00    +0.000 H 
BRANCH    3    2
ATOM      2  O1  UNL A   1      17.739  48.857   3.332  1.00  0.00    +0.000 O 
BRANCH    2    1
ATOM      1  C1  UNL A   1      18.746  49.660   2.718  1.00  0.00    +0.000 C 
ATOM     90  H1  UNL A   1      18.289  50.337   2.027  1.00  0.00    +0.000 H 
ATOM     91  H2  UNL A   1      19.435  49.029   2.198  1.00  0.00    +0.000 H 
ATOM     92  H3  UNL A   1      19.267  50.214   3.471  1.00  0.00    +0.000 H 
ENDBRANCH    2    1
ENDBRANCH    3    2
ENDBRANCH    9    8
BRANCH    9   10
ATOM     97  H8  UNL A   1      13.336  52.717   8.949  1.00  0.00    +0.000 H 
ATOM     10  C9  UNL A   1      12.891  51.987   9.591  1.00  0.00    +0.000 C 
ATOM     99  H10 UNL A   1      12.054  51.539   9.097  1.00  0.00    +0.000 H 
ATOM     98  H9  UNL A   1      12.562  52.458  10.494  1.00  0.00    +0.000 H 
ENDBRANCH    9   10
ENDBRANCH   11    9
ENDBRANCH   13   11
ENDBRANCH   14   13
ENDBRANCH   15   14
ENDBRANCH   16   15
ENDBRANCH   17   16
ENDBRANCH   18   17
ENDBRANCH   19   18
ENDBRANCH   20   19
ENDBRANCH   21   20
ENDBRANCH   23   21
ENDBRANCH   27   26
BRANCH   31   32
ATOM     33  C27 UNL A   1      17.233  56.045  -0.577  1.00  0.00    +0.000 C 
ATOM     34  F1  UNL A   1      16.067  55.730  -1.158  1.00  0.00    +0.000 F 
ATOM     35  C28 UNL A   1      17.943  57.146  -1.050  1.00  0.00    +0.000 C 
ATOM     36  F2  UNL A   1      17.460  57.862  -2.076  1.00  0.00    +0.000 F 
ATOM     37  C29 UNL A   1      19.149  57.500  -0.466  1.00  0.00    +0.000 C 
ATOM     38  F3  UNL A   1      19.823  58.570  -0.912  1.00  0.00    +0.000 F 
ATOM     39  C30 UNL A   1      19.660  56.744   0.579  1.00  0.00    +0.000 C 
ATOM     40  F4  UNL A   1      20.819  57.094   1.153  1.00  0.00    +0.000 F 
ATOM     41  C31 UNL A   1      18.966  55.626   1.036  1.00  0.00    +0.000 C 
ATOM     42  F5  UNL A   1      19.488  54.912   2.044  1.00  0.00    +0.000 F 
ATOM     32  C26 UNL A   1      17.736  55.260   0.471  1.00  0.00    +0.000 C 
ENDBRANCH   31   32
BRANCH   48   49
ATOM     49  C37 UNL A   1      16.756  48.272  -0.961  1.00  0.00    +0.000 C 
ATOM     50  C38 UNL A   1      17.977  47.620  -0.738  1.00  0.00    +0.000 C 
ATOM     51  F6  UNL A   1      18.725  47.936   0.330  1.00  0.00    +0.000 F 
ATOM     52  C39 UNL A   1      18.454  46.670  -1.637  1.00  0.00    +0.000 C 
ATOM     53  F7  UNL A   1      19.648  46.096  -1.431  1.00  0.00    +0.000 F 
ATOM     54  C40 UNL A   1      17.706  46.329  -2.754  1.00  0.00    +0.000 C 
ATOM     55  F8  UNL A   1      18.165  45.412  -3.615  1.00  0.00    +0.000 F 
ATOM     56  C41 UNL A   1      16.484  46.944  -2.981  1.00  0.00    +0.000 C 
ATOM     57  F9  UNL A   1      15.754  46.607  -4.053  1.00  0.00    +0.000 F 
ATOM     58  C42 UNL A   1      16.018  47.916  -2.101  1.00  0.00    +0.000 C 
ATOM     59  F10 UNL A   1      14.841  48.506  -2.355  1.00  0.00    +0.000 F 
ENDBRANCH   48   49
BRANCH   63   64
ATOM     65  C47 UNL A   1      10.749  47.898   3.992  1.00  0.00    +0.000 C 
ATOM     66  F11 UNL A   1      10.186  48.884   3.279  1.00  0.00    +0.000 F 
ATOM     67  C48 UNL A   1       9.931  46.910   4.535  1.00  0.00    +0.000 C 
ATOM     68  F12 UNL A   1       8.606  46.962   4.345  1.00  0.00    +0.000 F 
ATOM     69  C49 UNL A   1      10.484  45.890   5.295  1.00  0.00    +0.000 C 
ATOM     70  F13 UNL A   1       9.697  44.944   5.823  1.00  0.00    +0.000 F 
ATOM     71  C50 UNL A   1      11.853  45.860   5.517  1.00  0.00    +0.000 C 
ATOM     72  F14 UNL A   1      12.391  44.870   6.240  1.00  0.00    +0.000 F 
ATOM     73  C51 UNL A   1      12.667  46.866   4.998  1.00  0.00    +0.000 C 
ATOM     74  F15 UNL A   1      13.985  46.824   5.249  1.00  0.00    +0.000 F 
ATOM     64  C46 UNL A   1      12.131  47.906   4.227  1.00  0.00    +0.000 C 
ENDBRANCH   63   64
TORSDOF 19
ENDMDL
MODEL 6
REMARK VINA RESULT:      -8.5     64.989     70.401
ROOT
ATOM     27  C22 UNL A   1      28.984 -13.922  31.037  1.00  0.00    +0.000 C 
ATOM     28  C23 UNL A   1      28.712 -14.048  32.511  1.00  0.00    +0.000 C 
ATOM     29  N3  UNL A   1      27.683 -13.623  33.202  1.00  0.00    +0.000 N 
ATOM     30  C24 UNL A   1      27.905 -14.040  34.508  1.00  0.00    +0.000 C 
ATOM     31  C25 UNL A   1      27.153 -13.804  35.610  1.00  0.00    +0.000 C 
ATOM     43  C32 UNL A   1      25.942 -13.026  35.615  1.00  0.00    +0.000 C 
ATOM     44  C33 UNL A   1      25.148 -12.675  36.693  1.00  0.00    +0.000 C 
ATOM     45  C34 UNL A   1      24.059 -11.941  36.213  1.00  0.00    +0.000 C 
ATOM     46  C35 UNL A   1      24.200 -11.796  34.842  1.00  0.00    +0.000 C 
ATOM     47  N4  UNL A   1      25.355 -12.473  34.487  1.00  0.00    +0.000 N 
ATOM     48  C36 UNL A   1      23.345 -11.090  33.924  1.00  0.00    +0.000 C 
ATOM     60  C43 UNL A   1      23.541 -11.014  32.585  1.00  0.00    +0.000 C 
ATOM     61  N5  UNL A   1      24.571 -11.546  31.822  1.00  0.00    +0.000 N 
ATOM     62  C44 UNL A   1      24.311 -11.210  30.583  1.00  0.00    +0.000 C 
ATOM     63  C45 UNL A   1      25.111 -11.480  29.335  1.00  0.00    +0.000 C 
ATOM     75  C52 UNL A   1      26.281 -12.138  29.434  1.00  0.00    +0.000 C 
ATOM     76  C53 UNL A   1      27.172 -12.456  28.322  1.00  0.00    +0.000 C 
ATOM     77  C54 UNL A   1      28.226 -13.144  28.788  1.00  0.00    +0.000 C 
ATOM     78  C55 UNL A   1      28.101 -13.290  30.239  1.00  0.00    +0.000 C 
ATOM     79  N6  UNL A   1      26.917 -12.660  30.534  1.00  0.00    +0.000 N 
ATOM     80  C56 UNL A   1      23.060 -10.457  30.416  1.00  0.00    +0.000 C 
ATOM     81  C57 UNL A   1      22.657 -10.322  31.671  1.00  0.00    +0.000 C 
ATOM     82  C58 UNL A   1      29.145 -14.786  34.509  1.00  0.00    +0.000 C 
ATOM     83  C59 UNL A   1      29.715 -14.766  33.313  1.00  0.00    +0.000 C 
ATOM    116  H27 UNL A   1      25.328 -12.913  37.681  1.00  0.00    +0.000 H 
ATOM    117  H28 UNL A   1      23.281 -11.571  36.782  1.00  0.00    +0.000 H 
ATOM    118  H29 UNL A   1      25.706 -12.551  33.571  1.00  0.00    +0.000 H 
ATOM    119  H30 UNL A   1      27.016 -12.193  27.336  1.00  0.00    +0.000 H 
ATOM    120  H31 UNL A   1      29.001 -13.512  28.214  1.00  0.00    +0.000 H 
ATOM    121  H32 UNL A   1      26.558 -12.589  31.449  1.00  0.00    +0.000 H 
ATOM    122  H33 UNL A   1      22.613 -10.119  29.549  1.00  0.00    +0.000 H 
ATOM    123  H34 UNL A   1      21.820  -9.793  31.960  1.00  0.00    +0.000 H 
ATOM    124  H35 UNL A   1      29.535 -15.270  35.334  1.00  0.00    +0.000 H 
ATOM    125  H36 UNL A   1      30.625 -15.153  33.019  1.00  0.00    +0.000 H 
ENDROOT
BRANCH   27   26
ATOM    114  H25 UNL A   1      33.436 -13.917  29.791  1.00  0.00    +0.000 H 
ATOM    115  H26 UNL A   1      31.495 -12.925  30.859  1.00  0.00    +0.000 H 
ATOM     84  C60 UNL A   1      30.126 -15.834  29.899  1.00  0.00    +0.000 C 
ATOM     85  C61 UNL A   1      31.261 -16.434  29.355  1.00  0.00    +0.000 C 
ATOM     23  C18 UNL A   1      32.455 -15.714  29.266  1.00  0.00    +0.000 C 
ATOM     24  C19 UNL A   1      32.543 -14.435  29.824  1.00  0.00    +0.000 C 
ATOM     25  C20 UNL A   1      31.422 -13.859  30.425  1.00  0.00    +0.000 C 
ATOM     26  C21 UNL A   1      30.196 -14.543  30.445  1.00  0.00    +0.000 C 
ATOM    126  H37 UNL A   1      29.227 -16.343  29.900  1.00  0.00    +0.000 H 
ATOM    127  H38 UNL A   1      31.220 -17.409  29.020  1.00  0.00    +0.000 H 
BRANCH   23   21
ATOM     21  C17 UNL A   1      33.655 -16.285  28.614  1.00  0.00    +0.000 C 
ATOM     22  O3  UNL A   1      34.495 -16.870  29.293  1.00  0.00    +0.000 O 
BRANCH   21   20
ATOM    113  H24 UNL A   1      34.032 -16.981  26.776  1.00  0.00    +0.000 H 
ATOM     20  N2  UNL A   1      33.842 -16.145  27.263  1.00  0.00    +0.000 N 
BRANCH   20   19
ATOM     19  C16 UNL A   1      33.802 -14.947  26.444  1.00  0.00    +0.000 C 
ATOM    111  H22 UNL A   1      33.373 -14.152  27.019  1.00  0.00    +0.000 H 
ATOM    112  H23 UNL A   1      34.805 -14.722  26.149  1.00  0.00    +0.000 H 
BRANCH   19   18
ATOM     18  C15 UNL A   1      32.976 -15.131  25.175  1.00  0.00    +0.000 C 
ATOM    109  H20 UNL A   1      33.599 -14.896  24.337  1.00  0.00    +0.000 H 
ATOM    110  H21 UNL A   1      32.639 -16.147  25.187  1.00  0.00    +0.000 H 
BRANCH   18   17
ATOM     17  C14 UNL A   1      31.715 -14.268  25.083  1.00  0.00    +0.000 C 
ATOM    107  H18 UNL A   1      31.973 -13.362  24.574  1.00  0.00    +0.000 H 
ATOM    108  H19 UNL A   1      30.990 -14.862  24.568  1.00  0.00    +0.000 H 
BRANCH   17   16
ATOM    105  H16 UNL A   1      30.047 -14.196  26.394  1.00  0.00    +0.000 H 
ATOM    106  H17 UNL A   1      31.647 -14.385  27.175  1.00  0.00    +0.000 H 
ATOM     16  C13 UNL A   1      31.072 -13.890  26.422  1.00  0.00    +0.000 C 
BRANCH   16   15
ATOM    103  H14 UNL A   1      30.473 -12.237  27.615  1.00  0.00    +0.000 H 
ATOM     15  C12 UNL A   1      31.112 -12.400  26.772  1.00  0.00    +0.000 C 
ATOM    104  H15 UNL A   1      32.136 -12.163  26.968  1.00  0.00    +0.000 H 
BRANCH   15   14
ATOM    102  H13 UNL A   1      29.695 -11.085  25.900  1.00  0.00    +0.000 H 
ATOM    101  H12 UNL A   1      30.628 -12.022  24.734  1.00  0.00    +0.000 H 
ATOM     14  C11 UNL A   1      30.662 -11.470  25.649  1.00  0.00    +0.000 C 
BRANCH   14   13
ATOM    100  H11 UNL A   1      32.009 -10.291  24.612  1.00  0.00    +0.000 H 
ATOM     13  N1  UNL A   1      31.567 -10.350  25.490  1.00  0.00    +0.000 N 
BRANCH   13   11
ATOM     11  C10 UNL A   1      31.898  -9.367  26.374  1.00  0.00    +0.000 C 
ATOM     12  O2  UNL A   1      33.092  -9.247  26.668  1.00  0.00    +0.000 O 
BRANCH   11    9
ATOM      9  C8  UNL A   1      30.845  -8.430  26.979  1.00  0.00    +0.000 C 
ATOM     96  H7  UNL A   1      31.307  -7.520  27.301  1.00  0.00    +0.000 H 
BRANCH    9    8
ATOM    129  H40 UNL A   1      30.935 -10.985  30.899  1.00  0.00    +0.000 H 
ATOM    130  H41 UNL A   1      29.229 -10.755  32.660  1.00  0.00    +0.000 H 
ATOM      3  C2  UNL A   1      27.482  -9.593  32.486  1.00  0.00    +0.000 C 
ATOM      4  C3  UNL A   1      26.780  -8.689  31.691  1.00  0.00    +0.000 C 
ATOM      5  C4  UNL A   1      27.294  -8.318  30.448  1.00  0.00    +0.000 C 
ATOM      6  C5  UNL A   1      28.513  -8.842  29.988  1.00  0.00    +0.000 C 
ATOM      7  C6  UNL A   1      29.058  -8.459  28.751  1.00  0.00    +0.000 C 
ATOM      8  C7  UNL A   1      30.284  -8.974  28.288  1.00  0.00    +0.000 C 
ATOM     86  C62 UNL A   1      30.937  -9.929  29.075  1.00  0.00    +0.000 C 
ATOM     87  C63 UNL A   1      30.422 -10.301  30.321  1.00  0.00    +0.000 C 
ATOM     88  C64 UNL A   1      29.219  -9.760  30.794  1.00  0.00    +0.000 C 
ATOM     89  C65 UNL A   1      28.701 -10.110  32.051  1.00  0.00    +0.000 C 
ATOM     93  H4  UNL A   1      25.885  -8.296  32.022  1.00  0.00    +0.000 H 
ATOM     94  H5  UNL A   1      26.772  -7.650  29.858  1.00  0.00    +0.000 H 
ATOM     95  H6  UNL A   1      28.545  -7.781  28.167  1.00  0.00    +0.000 H 
ATOM    128  H39 UNL A   1      31.809 -10.362  28.732  1.00  0.00    +0.000 H 
BRANCH    3    2
ATOM      2  O1  UNL A   1      27.064  -9.964  33.734  1.00  0.00    +0.000 O 
BRANCH    2    1
ATOM      1  C1  UNL A   1      26.432  -8.894  34.435  1.00  0.00    +0.000 C 
ATOM     90  H1  UNL A   1      26.942  -8.724  35.360  1.00  0.00    +0.000 H 
ATOM     91  H2  UNL A   1      25.412  -9.150  34.631  1.00  0.00    +0.000 H 
ATOM     92  H3  UNL A   1      26.470  -8.007  33.838  1.00  0.00    +0.000 H 
ENDBRANCH    2    1
ENDBRANCH    3    2
ENDBRANCH    9    8
BRANCH    9   10
ATOM     97  H8  UNL A   1      30.317  -7.975  24.956  1.00  0.00    +0.000 H 
ATOM     10  C9  UNL A   1      29.854  -7.941  25.919  1.00  0.00    +0.000 C 
ATOM     99  H10 UNL A   1      28.989  -8.571  25.921  1.00  0.00    +0.000 H 
ATOM     98  H9  UNL A   1      29.563  -6.935  26.140  1.00  0.00    +0.000 H 
ENDBRANCH    9   10
ENDBRANCH   11    9
ENDBRANCH   13   11
ENDBRANCH   14   13
ENDBRANCH   15   14
ENDBRANCH   16   15
ENDBRANCH   17   16
ENDBRANCH   18   17
ENDBRANCH   19   18
ENDBRANCH   20   19
ENDBRANCH   21   20
ENDBRANCH   23   21
ENDBRANCH   27   26
BRANCH   31   32
ATOM     33  C27 UNL A   1      28.623 -13.770  37.675  1.00  0.00    +0.000 C 
ATOM     34  F1  UNL A   1      29.249 -12.680  37.210  1.00  0.00    +0.000 F 
ATOM     35  C28 UNL A   1      29.006 -14.291  38.907  1.00  0.00    +0.000 C 
ATOM     36  F2  UNL A   1      29.993 -13.707  39.602  1.00  0.00    +0.000 F 
ATOM     37  C29 UNL A   1      28.373 -15.415  39.416  1.00  0.00    +0.000 C 
ATOM     38  F3  UNL A   1      28.732 -15.906  40.611  1.00  0.00    +0.000 F 
ATOM     39  C30 UNL A   1      27.369 -16.033  38.686  1.00  0.00    +0.000 C 
ATOM     40  F4  UNL A   1      26.747 -17.111  39.182  1.00  0.00    +0.000 F 
ATOM     41  C31 UNL A   1      27.002 -15.531  37.439  1.00  0.00    +0.000 C 
ATOM     42  F5  UNL A   1      26.031 -16.153  36.754  1.00  0.00    +0.000 F 
ATOM     32  C26 UNL A   1      27.618 -14.385  36.914  1.00  0.00    +0.000 C 
ENDBRANCH   31   32
BRANCH   48   49
ATOM     49  C37 UNL A   1      22.162 -10.360  34.489  1.00  0.00    +0.000 C 
ATOM     50  C38 UNL A   1      22.288  -9.094  35.078  1.00  0.00    +0.000 C 
ATOM     51  F6  UNL A   1      23.494  -8.518  35.188  1.00  0.00    +0.000 F 
ATOM     52  C39 UNL A   1      21.177  -8.434  35.596  1.00  0.00    +0.000 C 
ATOM     53  F7  UNL A   1      21.328  -7.247  36.201  1.00  0.00    +0.000 F 
ATOM     54  C40 UNL A   1      19.918  -9.010  35.505  1.00  0.00    +0.000 C 
ATOM     55  F8  UNL A   1      18.851  -8.370  36.001  1.00  0.00    +0.000 F 
ATOM     56  C41 UNL A   1      19.768 -10.250  34.905  1.00  0.00    +0.000 C 
ATOM     57  F9  UNL A   1      18.551 -10.802  34.804  1.00  0.00    +0.000 F 
ATOM     58  C42 UNL A   1      20.880 -10.927  34.413  1.00  0.00    +0.000 C 
ATOM     59  F10 UNL A   1      20.706 -12.133  33.852  1.00  0.00    +0.000 F 
ENDBRANCH   48   49
BRANCH   63   64
ATOM     65  C47 UNL A   1      23.694 -11.739  27.276  1.00  0.00    +0.000 C 
ATOM     66  F11 UNL A   1      23.213 -12.889  27.769  1.00  0.00    +0.000 F 
ATOM     67  C48 UNL A   1      23.291 -11.330  26.007  1.00  0.00    +0.000 C 
ATOM     68  F12 UNL A   1      22.441 -12.087  25.301  1.00  0.00    +0.000 F 
ATOM     69  C49 UNL A   1      23.789 -10.155  25.465  1.00  0.00    +0.000 C 
ATOM     70  F13 UNL A   1      23.406  -9.765  24.241  1.00  0.00    +0.000 F 
ATOM     71  C50 UNL A   1      24.694  -9.392  26.187  1.00  0.00    +0.000 C 
ATOM     72  F14 UNL A   1      25.167  -8.250  25.670  1.00  0.00    +0.000 F 
ATOM     73  C51 UNL A   1      25.121  -9.816  27.444  1.00  0.00    +0.000 C 
ATOM     74  F15 UNL A   1      26.014  -9.069  28.109  1.00  0.00    +0.000 F 
ATOM     64  C46 UNL A   1      24.630 -11.000  28.013  1.00  0.00    +0.000 C 
ENDBRANCH   63   64
TORSDOF 19
ENDMDL
MODEL 7
REMARK VINA RESULT:      -8.4      0.728      2.096
ROOT
ATOM     27  C22 UNL A   1      12.915  53.467   6.163  1.00  0.00    +0.000 C 
ATOM     28  C23 UNL A   1      12.487  52.030   6.051  1.00  0.00    +0.000 C 
ATOM     29  N3  UNL A   1      12.828  51.131   5.161  1.00  0.00    +0.000 N 
ATOM     30  C24 UNL A   1      12.191  49.958   5.544  1.00  0.00    +0.000 C 
ATOM     31  C25 UNL A   1      12.187  48.756   4.919  1.00  0.00    +0.000 C 
ATOM     43  C32 UNL A   1      12.865  48.483   3.678  1.00  0.00    +0.000 C 
ATOM     44  C33 UNL A   1      12.863  47.317   2.933  1.00  0.00    +0.000 C 
ATOM     45  C34 UNL A   1      13.688  47.507   1.820  1.00  0.00    +0.000 C 
ATOM     46  C35 UNL A   1      14.166  48.808   1.848  1.00  0.00    +0.000 C 
ATOM     47  N4  UNL A   1      13.659  49.393   2.997  1.00  0.00    +0.000 N 
ATOM     48  C36 UNL A   1      15.019  49.469   0.897  1.00  0.00    +0.000 C 
ATOM     60  C43 UNL A   1      15.463  50.744   1.008  1.00  0.00    +0.000 C 
ATOM     61  N5  UNL A   1      15.196  51.678   1.999  1.00  0.00    +0.000 N 
ATOM     62  C44 UNL A   1      15.861  52.756   1.667  1.00  0.00    +0.000 C 
ATOM     63  C45 UNL A   1      15.907  54.096   2.353  1.00  0.00    +0.000 C 
ATOM     75  C52 UNL A   1      15.169  54.293   3.461  1.00  0.00    +0.000 C 
ATOM     76  C53 UNL A   1      15.097  55.537   4.222  1.00  0.00    +0.000 C 
ATOM     77  C54 UNL A   1      14.290  55.357   5.280  1.00  0.00    +0.000 C 
ATOM     78  C55 UNL A   1      13.762  53.992   5.254  1.00  0.00    +0.000 C 
ATOM     79  N6  UNL A   1      14.336  53.435   4.138  1.00  0.00    +0.000 N 
ATOM     80  C56 UNL A   1      16.661  52.613   0.442  1.00  0.00    +0.000 C 
ATOM     81  C57 UNL A   1      16.343  51.386   0.055  1.00  0.00    +0.000 C 
ATOM     82  C58 UNL A   1      11.475  50.244   6.768  1.00  0.00    +0.000 C 
ATOM     83  C59 UNL A   1      11.574  51.526   7.089  1.00  0.00    +0.000 C 
ATOM    116  H27 UNL A   1      12.343  46.454   3.160  1.00  0.00    +0.000 H 
ATOM    117  H28 UNL A   1      13.905  46.800   1.101  1.00  0.00    +0.000 H 
ATOM    118  H29 UNL A   1      13.837  50.316   3.288  1.00  0.00    +0.000 H 
ATOM    119  H30 UNL A   1      15.587  56.413   3.985  1.00  0.00    +0.000 H 
ATOM    120  H31 UNL A   1      14.076  56.068   5.997  1.00  0.00    +0.000 H 
ATOM    121  H32 UNL A   1      14.168  52.508   3.852  1.00  0.00    +0.000 H 
ATOM    122  H33 UNL A   1      17.301  53.290  -0.002  1.00  0.00    +0.000 H 
ATOM    123  H34 UNL A   1      16.681  50.944  -0.814  1.00  0.00    +0.000 H 
ATOM    124  H35 UNL A   1      10.955  49.543   7.319  1.00  0.00    +0.000 H 
ATOM    125  H36 UNL A   1      11.127  52.039   7.865  1.00  0.00    +0.000 H 
ENDROOT
BRANCH   27   26
ATOM    114  H25 UNL A   1      13.339  55.256  10.405  1.00  0.00    +0.000 H 
ATOM    115  H26 UNL A   1      14.160  53.977   8.512  1.00  0.00    +0.000 H 
ATOM     84  C60 UNL A   1      11.223  54.969   7.229  1.00  0.00    +0.000 C 
ATOM     85  C61 UNL A   1      10.788  55.766   8.287  1.00  0.00    +0.000 C 
ATOM     23  C18 UNL A   1      11.533  55.827   9.467  1.00  0.00    +0.000 C 
ATOM     24  C19 UNL A   1      12.771  55.181   9.546  1.00  0.00    +0.000 C 
ATOM     25  C20 UNL A   1      13.236  54.433   8.462  1.00  0.00    +0.000 C 
ATOM     26  C21 UNL A   1      12.454  54.299   7.304  1.00  0.00    +0.000 C 
ATOM    126  H37 UNL A   1      10.636  54.870   6.386  1.00  0.00    +0.000 H 
ATOM    127  H38 UNL A   1       9.917  56.312   8.197  1.00  0.00    +0.000 H 
BRANCH   23   21
ATOM     21  C17 UNL A   1      11.058  56.591  10.642  1.00  0.00    +0.000 C 
ATOM     22  O3  UNL A   1      10.990  57.816  10.584  1.00  0.00    +0.000 O 
BRANCH   21   20
ATOM    113  H24 UNL A   1      10.553  54.972  11.706  1.00  0.00    +0.000 H 
ATOM     20  N2  UNL A   1      10.716  55.939  11.800  1.00  0.00    +0.000 N 
BRANCH   20   19
ATOM     19  C16 UNL A   1      10.560  56.466  13.144  1.00  0.00    +0.000 C 
ATOM    111  H22 UNL A   1      10.550  57.536  13.095  1.00  0.00    +0.000 H 
ATOM    112  H23 UNL A   1       9.642  56.082  13.538  1.00  0.00    +0.000 H 
BRANCH   19   18
ATOM     18  C15 UNL A   1      11.683  56.031  14.079  1.00  0.00    +0.000 C 
ATOM    109  H20 UNL A   1      12.540  56.638  13.873  1.00  0.00    +0.000 H 
ATOM    110  H21 UNL A   1      11.302  56.150  15.073  1.00  0.00    +0.000 H 
BRANCH   18   17
ATOM     17  C14 UNL A   1      12.103  54.564  13.961  1.00  0.00    +0.000 C 
ATOM    107  H18 UNL A   1      12.035  54.122  14.933  1.00  0.00    +0.000 H 
ATOM    108  H19 UNL A   1      11.443  54.128  13.240  1.00  0.00    +0.000 H 
BRANCH   17   16
ATOM    105  H16 UNL A   1      13.925  55.263  13.127  1.00  0.00    +0.000 H 
ATOM    106  H17 UNL A   1      14.059  53.860  14.231  1.00  0.00    +0.000 H 
ATOM     16  C13 UNL A   1      13.520  54.321  13.431  1.00  0.00    +0.000 C 
BRANCH   16   15
ATOM    103  H14 UNL A   1      13.343  53.888  11.358  1.00  0.00    +0.000 H 
ATOM     15  C12 UNL A   1      13.621  53.358  12.244  1.00  0.00    +0.000 C 
ATOM    104  H15 UNL A   1      14.632  53.007  12.225  1.00  0.00    +0.000 H 
BRANCH   15   14
ATOM    102  H13 UNL A   1      11.716  52.428  12.282  1.00  0.00    +0.000 H 
ATOM    101  H12 UNL A   1      12.927  51.638  13.290  1.00  0.00    +0.000 H 
ATOM     14  C11 UNL A   1      12.738  52.119  12.353  1.00  0.00    +0.000 C 
BRANCH   14   13
ATOM    100  H11 UNL A   1      12.335  51.174  10.557  1.00  0.00    +0.000 H 
ATOM     13  N1  UNL A   1      13.001  51.180  11.282  1.00  0.00    +0.000 N 
BRANCH   13   11
ATOM     11  C10 UNL A   1      14.034  50.305  11.128  1.00  0.00    +0.000 C 
ATOM     12  O2  UNL A   1      14.959  50.369  11.946  1.00  0.00    +0.000 O 
BRANCH   11    9
ATOM      9  C8  UNL A   1      14.061  49.268   9.998  1.00  0.00    +0.000 C 
ATOM     96  H7  UNL A   1      14.713  48.460  10.259  1.00  0.00    +0.000 H 
BRANCH    9    8
ATOM    129  H40 UNL A   1      16.016  52.573   7.323  1.00  0.00    +0.000 H 
ATOM    130  H41 UNL A   1      17.174  52.045   5.215  1.00  0.00    +0.000 H 
ATOM      3  C2  UNL A   1      17.200  50.145   4.310  1.00  0.00    +0.000 C 
ATOM      4  C3  UNL A   1      16.836  48.807   4.441  1.00  0.00    +0.000 C 
ATOM      5  C4  UNL A   1      16.123  48.392   5.568  1.00  0.00    +0.000 C 
ATOM      6  C5  UNL A   1      15.771  49.307   6.573  1.00  0.00    +0.000 C 
ATOM      7  C6  UNL A   1      15.077  48.902   7.725  1.00  0.00    +0.000 C 
ATOM      8  C7  UNL A   1      14.728  49.813   8.741  1.00  0.00    +0.000 C 
ATOM     86  C62 UNL A   1      15.049  51.162   8.555  1.00  0.00    +0.000 C 
ATOM     87  C63 UNL A   1      15.763  51.578   7.426  1.00  0.00    +0.000 C 
ATOM     88  C64 UNL A   1      16.139  50.662   6.434  1.00  0.00    +0.000 C 
ATOM     89  C65 UNL A   1      16.873  51.063   5.306  1.00  0.00    +0.000 C 
ATOM     93  H4  UNL A   1      17.092  48.126   3.709  1.00  0.00    +0.000 H 
ATOM     94  H5  UNL A   1      15.850  47.401   5.662  1.00  0.00    +0.000 H 
ATOM     95  H6  UNL A   1      14.816  47.909   7.829  1.00  0.00    +0.000 H 
ATOM    128  H39 UNL A   1      14.757  51.857   9.259  1.00  0.00    +0.000 H 
BRANCH    3    2
ATOM      2  O1  UNL A   1      17.941  50.612   3.259  1.00  0.00    +0.000 O 
BRANCH    2    1
ATOM      1  C1  UNL A   1      18.854  49.636   2.762  1.00  0.00    +0.000 C 
ATOM     90  H1  UNL A   1      19.225  49.948   1.808  1.00  0.00    +0.000 H 
ATOM     91  H2  UNL A   1      18.351  48.697   2.660  1.00  0.00    +0.000 H 
ATOM     92  H3  UNL A   1      19.670  49.532   3.446  1.00  0.00    +0.000 H 
ENDBRANCH    2    1
ENDBRANCH    3    2
ENDBRANCH    9    8
BRANCH    9   10
ATOM     97  H8  UNL A   1      11.961  49.285   9.585  1.00  0.00    +0.000 H 
ATOM     10  C9  UNL A   1      12.708  48.566   9.850  1.00  0.00    +0.000 C 
ATOM     99  H10 UNL A   1      12.774  47.822   9.084  1.00  0.00    +0.000 H 
ATOM     98  H9  UNL A   1      12.444  48.102  10.777  1.00  0.00    +0.000 H 
ENDBRANCH    9   10
ENDBRANCH   11    9
ENDBRANCH   13   11
ENDBRANCH   14   13
ENDBRANCH   15   14
ENDBRANCH   16   15
ENDBRANCH   17   16
ENDBRANCH   18   17
ENDBRANCH   19   18
ENDBRANCH   20   19
ENDBRANCH   21   20
ENDBRANCH   23   21
ENDBRANCH   27   26
BRANCH   31   32
ATOM     33  C27 UNL A   1      10.034  47.497   5.374  1.00  0.00    +0.000 C 
ATOM     34  F1  UNL A   1       9.350  48.417   4.680  1.00  0.00    +0.000 F 
ATOM     35  C28 UNL A   1       9.343  46.424   5.929  1.00  0.00    +0.000 C 
ATOM     36  F2  UNL A   1       8.016  46.330   5.771  1.00  0.00    +0.000 F 
ATOM     37  C29 UNL A   1      10.025  45.453   6.648  1.00  0.00    +0.000 C 
ATOM     38  F3  UNL A   1       9.360  44.411   7.167  1.00  0.00    +0.000 F 
ATOM     39  C30 UNL A   1      11.395  45.564   6.832  1.00  0.00    +0.000 C 
ATOM     40  F4  UNL A   1      12.057  44.620   7.515  1.00  0.00    +0.000 F 
ATOM     41  C31 UNL A   1      12.085  46.652   6.302  1.00  0.00    +0.000 C 
ATOM     42  F5  UNL A   1      13.409  46.734   6.501  1.00  0.00    +0.000 F 
ATOM     32  C26 UNL A   1      11.418  47.636   5.557  1.00  0.00    +0.000 C 
ENDBRANCH   31   32
BRANCH   48   49
ATOM     49  C37 UNL A   1      15.429  48.702  -0.327  1.00  0.00    +0.000 C 
ATOM     50  C38 UNL A   1      14.595  48.600  -1.449  1.00  0.00    +0.000 C 
ATOM     51  F6  UNL A   1      13.377  49.161  -1.437  1.00  0.00    +0.000 F 
ATOM     52  C39 UNL A   1      14.995  47.884  -2.574  1.00  0.00    +0.000 C 
ATOM     53  F7  UNL A   1      14.161  47.756  -3.616  1.00  0.00    +0.000 F 
ATOM     54  C40 UNL A   1      16.246  47.286  -2.611  1.00  0.00    +0.000 C 
ATOM     55  F8  UNL A   1      16.630  46.601  -3.696  1.00  0.00    +0.000 F 
ATOM     56  C41 UNL A   1      17.096  47.394  -1.522  1.00  0.00    +0.000 C 
ATOM     57  F9  UNL A   1      18.310  46.828  -1.560  1.00  0.00    +0.000 F 
ATOM     58  C42 UNL A   1      16.688  48.084  -0.384  1.00  0.00    +0.000 C 
ATOM     59  F10 UNL A   1      17.525  48.158   0.661  1.00  0.00    +0.000 F 
ENDBRANCH   48   49
BRANCH   63   64
ATOM     65  C47 UNL A   1      16.196  56.111   0.879  1.00  0.00    +0.000 C 
ATOM     66  F11 UNL A   1      14.915  55.999   0.500  1.00  0.00    +0.000 F 
ATOM     67  C48 UNL A   1      16.984  57.105   0.304  1.00  0.00    +0.000 C 
ATOM     68  F12 UNL A   1      16.458  57.924  -0.616  1.00  0.00    +0.000 F 
ATOM     69  C49 UNL A   1      18.317  57.230   0.664  1.00  0.00    +0.000 C 
ATOM     70  F13 UNL A   1      19.077  58.182   0.105  1.00  0.00    +0.000 F 
ATOM     71  C50 UNL A   1      18.865  56.358   1.592  1.00  0.00    +0.000 C 
ATOM     72  F14 UNL A   1      20.150  56.484   1.950  1.00  0.00    +0.000 F 
ATOM     73  C51 UNL A   1      18.085  55.344   2.145  1.00  0.00    +0.000 C 
ATOM     74  F15 UNL A   1      18.649  54.501   3.024  1.00  0.00    +0.000 F 
ATOM     64  C46 UNL A   1      16.735  55.199   1.798  1.00  0.00    +0.000 C 
ENDBRANCH   63   64
TORSDOF 19
ENDMDL
MODEL 8
REMARK VINA RESULT:      -8.4     38.235     42.998
ROOT
ATOM     27  C22 UNL A   1      38.097  29.739  29.879  1.00  0.00    +0.000 C 
ATOM     28  C23 UNL A   1      38.359  30.293  31.253  1.00  0.00    +0.000 C 
ATOM     29  N3  UNL A   1      39.407  30.138  32.022  1.00  0.00    +0.000 N 
ATOM     30  C24 UNL A   1      39.159  30.897  33.159  1.00  0.00    +0.000 C 
ATOM     31  C25 UNL A   1      39.920  31.025  34.272  1.00  0.00    +0.000 C 
ATOM     43  C32 UNL A   1      41.172  30.345  34.483  1.00  0.00    +0.000 C 
ATOM     44  C33 UNL A   1      41.981  30.358  35.605  1.00  0.00    +0.000 C 
ATOM     45  C34 UNL A   1      43.110  29.576  35.340  1.00  0.00    +0.000 C 
ATOM     46  C35 UNL A   1      42.981  29.040  34.069  1.00  0.00    +0.000 C 
ATOM     47  N4  UNL A   1      41.791  29.526  33.551  1.00  0.00    +0.000 N 
ATOM     48  C36 UNL A   1      43.875  28.149  33.378  1.00  0.00    +0.000 C 
ATOM     60  C43 UNL A   1      43.687  27.684  32.119  1.00  0.00    +0.000 C 
ATOM     61  N5  UNL A   1      42.631  27.921  31.249  1.00  0.00    +0.000 N 
ATOM     62  C44 UNL A   1      42.912  27.261  30.153  1.00  0.00    +0.000 C 
ATOM     63  C45 UNL A   1      42.102  27.122  28.891  1.00  0.00    +0.000 C 
ATOM     75  C52 UNL A   1      40.897  27.718  28.814  1.00  0.00    +0.000 C 
ATOM     76  C53 UNL A   1      39.993  27.658  27.669  1.00  0.00    +0.000 C 
ATOM     77  C54 UNL A   1      38.902  28.394  27.934  1.00  0.00    +0.000 C 
ATOM     78  C55 UNL A   1      39.016  28.953  29.282  1.00  0.00    +0.000 C 
ATOM     79  N6  UNL A   1      40.231  28.497  29.729  1.00  0.00    +0.000 N 
ATOM     80  C56 UNL A   1      44.203  26.559  30.191  1.00  0.00    +0.000 C 
ATOM     81  C57 UNL A   1      44.609  26.809  31.427  1.00  0.00    +0.000 C 
ATOM     82  C58 UNL A   1      37.880  31.545  32.964  1.00  0.00    +0.000 C 
ATOM     83  C59 UNL A   1      37.316  31.156  31.830  1.00  0.00    +0.000 C 
ATOM    116  H27 UNL A   1      41.786  30.857  36.487  1.00  0.00    +0.000 H 
ATOM    117  H28 UNL A   1      43.905  29.426  35.980  1.00  0.00    +0.000 H 
ATOM    118  H29 UNL A   1      41.438  29.321  32.656  1.00  0.00    +0.000 H 
ATOM    119  H30 UNL A   1      40.166  27.134  26.797  1.00  0.00    +0.000 H 
ATOM    120  H31 UNL A   1      38.110  28.542  27.289  1.00  0.00    +0.000 H 
ATOM    121  H32 UNL A   1      40.591  28.709  30.621  1.00  0.00    +0.000 H 
ATOM    122  H33 UNL A   1      44.670  26.013  29.451  1.00  0.00    +0.000 H 
ATOM    123  H34 UNL A   1      45.473  26.429  31.844  1.00  0.00    +0.000 H 
ATOM    124  H35 UNL A   1      37.463  32.223  33.622  1.00  0.00    +0.000 H 
ATOM    125  H36 UNL A   1      36.387  31.394  31.451  1.00  0.00    +0.000 H 
ENDROOT
BRANCH   27   26
ATOM    114  H25 UNL A   1      33.850  28.867  28.275  1.00  0.00    +0.000 H 
ATOM    115  H26 UNL A   1      35.828  28.296  29.560  1.00  0.00    +0.000 H 
ATOM     84  C60 UNL A   1      36.746  31.355  28.530  1.00  0.00    +0.000 C 
ATOM     85  C61 UNL A   1      35.578  31.712  27.858  1.00  0.00    +0.000 C 
ATOM     23  C18 UNL A   1      34.543  30.784  27.717  1.00  0.00    +0.000 C 
ATOM     24  C19 UNL A   1      34.630  29.539  28.348  1.00  0.00    +0.000 C 
ATOM     25  C20 UNL A   1      35.776  29.205  29.075  1.00  0.00    +0.000 C 
ATOM     26  C21 UNL A   1      36.854  30.101  29.150  1.00  0.00    +0.000 C 
ATOM    126  H37 UNL A   1      37.537  32.017  28.572  1.00  0.00    +0.000 H 
ATOM    127  H38 UNL A   1      35.478  32.661  27.465  1.00  0.00    +0.000 H 
BRANCH   23   21
ATOM     21  C17 UNL A   1      33.327  31.096  26.934  1.00  0.00    +0.000 C 
ATOM     22  O3  UNL A   1      32.815  32.209  27.025  1.00  0.00    +0.000 O 
BRANCH   21   20
ATOM    113  H24 UNL A   1      31.852  29.860  26.387  1.00  0.00    +0.000 H 
ATOM     20  N2  UNL A   1      32.759  30.144  26.127  1.00  0.00    +0.000 N 
BRANCH   20   19
ATOM     19  C16 UNL A   1      33.297  29.493  24.946  1.00  0.00    +0.000 C 
ATOM    111  H22 UNL A   1      32.595  29.596  24.146  1.00  0.00    +0.000 H 
ATOM    112  H23 UNL A   1      34.230  29.963  24.714  1.00  0.00    +0.000 H 
BRANCH   19   18
ATOM     18  C15 UNL A   1      33.570  28.008  25.167  1.00  0.00    +0.000 C 
ATOM    109  H20 UNL A   1      33.544  27.522  24.215  1.00  0.00    +0.000 H 
ATOM    110  H21 UNL A   1      34.523  27.952  25.651  1.00  0.00    +0.000 H 
BRANCH   18   17
ATOM     17  C14 UNL A   1      32.583  27.291  26.092  1.00  0.00    +0.000 C 
ATOM    107  H18 UNL A   1      32.686  27.710  27.071  1.00  0.00    +0.000 H 
ATOM    108  H19 UNL A   1      31.616  27.437  25.658  1.00  0.00    +0.000 H 
BRANCH   17   16
ATOM    105  H16 UNL A   1      32.694  25.510  27.240  1.00  0.00    +0.000 H 
ATOM    106  H17 UNL A   1      32.002  25.338  25.598  1.00  0.00    +0.000 H 
ATOM     16  C13 UNL A   1      32.765  25.774  26.206  1.00  0.00    +0.000 C 
BRANCH   16   15
ATOM    103  H14 UNL A   1      34.064  25.272  24.601  1.00  0.00    +0.000 H 
ATOM     15  C12 UNL A   1      34.093  25.230  25.670  1.00  0.00    +0.000 C 
ATOM    104  H15 UNL A   1      34.863  25.840  26.094  1.00  0.00    +0.000 H 
BRANCH   15   14
ATOM    102  H13 UNL A   1      33.636  23.461  26.745  1.00  0.00    +0.000 H 
ATOM    101  H12 UNL A   1      35.361  23.771  26.560  1.00  0.00    +0.000 H 
ATOM     14  C11 UNL A   1      34.405  23.794  26.080  1.00  0.00    +0.000 C 
BRANCH   14   13
ATOM    100  H11 UNL A   1      35.313  22.796  24.512  1.00  0.00    +0.000 H 
ATOM     13  N1  UNL A   1      34.431  22.907  24.936  1.00  0.00    +0.000 N 
BRANCH   13   11
ATOM     11  C10 UNL A   1      33.418  22.201  24.361  1.00  0.00    +0.000 C 
ATOM     12  O2  UNL A   1      32.897  21.304  25.034  1.00  0.00    +0.000 O 
BRANCH   11    9
ATOM      9  C8  UNL A   1      32.920  22.502  22.942  1.00  0.00    +0.000 C 
ATOM     96  H7  UNL A   1      33.742  22.492  22.256  1.00  0.00    +0.000 H 
BRANCH    9    8
ATOM    129  H40 UNL A   1      32.988  26.886  21.305  1.00  0.00    +0.000 H 
ATOM    130  H41 UNL A   1      31.131  28.459  21.680  1.00  0.00    +0.000 H 
ATOM      3  C2  UNL A   1      29.481  28.084  22.933  1.00  0.00    +0.000 C 
ATOM      4  C3  UNL A   1      28.839  27.141  23.732  1.00  0.00    +0.000 C 
ATOM      5  C4  UNL A   1      29.412  25.880  23.909  1.00  0.00    +0.000 C 
ATOM      6  C5  UNL A   1      30.627  25.549  23.287  1.00  0.00    +0.000 C 
ATOM      7  C6  UNL A   1      31.204  24.276  23.433  1.00  0.00    +0.000 C 
ATOM      8  C7  UNL A   1      32.418  23.934  22.806  1.00  0.00    +0.000 C 
ATOM     86  C62 UNL A   1      33.074  24.920  22.061  1.00  0.00    +0.000 C 
ATOM     87  C63 UNL A   1      32.501  26.183  21.884  1.00  0.00    +0.000 C 
ATOM     88  C64 UNL A   1      31.275  26.508  22.481  1.00  0.00    +0.000 C 
ATOM     89  C65 UNL A   1      30.679  27.765  22.295  1.00  0.00    +0.000 C 
ATOM     93  H4  UNL A   1      27.945  27.373  24.191  1.00  0.00    +0.000 H 
ATOM     94  H5  UNL A   1      28.937  25.183  24.504  1.00  0.00    +0.000 H 
ATOM     95  H6  UNL A   1      30.724  23.572  24.015  1.00  0.00    +0.000 H 
ATOM    128  H39 UNL A   1      33.992  24.711  21.636  1.00  0.00    +0.000 H 
BRANCH    3    2
ATOM      2  O1  UNL A   1      28.954  29.319  22.675  1.00  0.00    +0.000 O 
BRANCH    2    1
ATOM      1  C1  UNL A   1      27.559  29.385  22.962  1.00  0.00    +0.000 C 
ATOM     90  H1  UNL A   1      27.002  29.129  22.085  1.00  0.00    +0.000 H 
ATOM     91  H2  UNL A   1      27.305  30.378  23.269  1.00  0.00    +0.000 H 
ATOM     92  H3  UNL A   1      27.324  28.698  23.748  1.00  0.00    +0.000 H 
ENDBRANCH    2    1
ENDBRANCH    3    2
ENDBRANCH    9    8
BRANCH    9   10
ATOM     97  H8  UNL A   1      32.262  21.194  21.380  1.00  0.00    +0.000 H 
ATOM     10  C9  UNL A   1      32.032  21.373  22.408  1.00  0.00    +0.000 C 
ATOM     99  H10 UNL A   1      32.209  20.482  22.974  1.00  0.00    +0.000 H 
ATOM     98  H9  UNL A   1      31.004  21.656  22.500  1.00  0.00    +0.000 H 
ENDBRANCH    9   10
ENDBRANCH   11    9
ENDBRANCH   13   11
ENDBRANCH   14   13
ENDBRANCH   15   14
ENDBRANCH   16   15
ENDBRANCH   17   16
ENDBRANCH   18   17
ENDBRANCH   19   18
ENDBRANCH   20   19
ENDBRANCH   21   20
ENDBRANCH   23   21
ENDBRANCH   27   26
BRANCH   31   32
ATOM     33  C27 UNL A   1      39.738  33.293  35.388  1.00  0.00    +0.000 C 
ATOM     34  F1  UNL A   1      40.566  33.811  34.468  1.00  0.00    +0.000 F 
ATOM     35  C28 UNL A   1      39.226  34.129  36.376  1.00  0.00    +0.000 C 
ATOM     36  F2  UNL A   1      39.569  35.424  36.401  1.00  0.00    +0.000 F 
ATOM     37  C29 UNL A   1      38.363  33.623  37.337  1.00  0.00    +0.000 C 
ATOM     38  F3  UNL A   1      37.857  34.433  38.279  1.00  0.00    +0.000 F 
ATOM     39  C30 UNL A   1      38.027  32.277  37.326  1.00  0.00    +0.000 C 
ATOM     40  F4  UNL A   1      37.184  31.790  38.246  1.00  0.00    +0.000 F 
ATOM     41  C31 UNL A   1      38.561  31.433  36.355  1.00  0.00    +0.000 C 
ATOM     42  F5  UNL A   1      38.222  30.135  36.372  1.00  0.00    +0.000 F 
ATOM     32  C26 UNL A   1      39.421  31.927  35.363  1.00  0.00    +0.000 C 
ENDBRANCH   31   32
BRANCH   48   49
ATOM     49  C37 UNL A   1      45.095  27.673  34.112  1.00  0.00    +0.000 C 
ATOM     50  C38 UNL A   1      46.307  28.376  34.062  1.00  0.00    +0.000 C 
ATOM     51  F6  UNL A   1      46.415  29.484  33.313  1.00  0.00    +0.000 F 
ATOM     52  C39 UNL A   1      47.426  27.918  34.751  1.00  0.00    +0.000 C 
ATOM     53  F7  UNL A   1      48.589  28.577  34.649  1.00  0.00    +0.000 F 
ATOM     54  C40 UNL A   1      47.347  26.770  35.527  1.00  0.00    +0.000 C 
ATOM     55  F8  UNL A   1      48.425  26.334  36.192  1.00  0.00    +0.000 F 
ATOM     56  C41 UNL A   1      46.151  26.073  35.608  1.00  0.00    +0.000 C 
ATOM     57  F9  UNL A   1      46.068  24.972  36.367  1.00  0.00    +0.000 F 
ATOM     58  C42 UNL A   1      45.038  26.511  34.897  1.00  0.00    +0.000 C 
ATOM     59  F10 UNL A   1      43.900  25.808  34.982  1.00  0.00    +0.000 F 
ENDBRANCH   48   49
BRANCH   63   64
ATOM     65  C47 UNL A   1      43.475  26.870  26.802  1.00  0.00    +0.000 C 
ATOM     66  F11 UNL A   1      43.860  28.150  26.919  1.00  0.00    +0.000 F 
ATOM     67  C48 UNL A   1      43.902  26.138  25.697  1.00  0.00    +0.000 C 
ATOM     68  F12 UNL A   1      44.678  26.717  24.772  1.00  0.00    +0.000 F 
ATOM     69  C49 UNL A   1      43.501  24.819  25.541  1.00  0.00    +0.000 C 
ATOM     70  F13 UNL A   1      43.907  24.117  24.475  1.00  0.00    +0.000 F 
ATOM     71  C50 UNL A   1      42.671  24.235  26.485  1.00  0.00    +0.000 C 
ATOM     72  F14 UNL A   1      42.292  22.958  26.344  1.00  0.00    +0.000 F 
ATOM     73  C51 UNL A   1      42.219  24.977  27.575  1.00  0.00    +0.000 C 
ATOM     74  F15 UNL A   1      41.398  24.393  28.460  1.00  0.00    +0.000 F 
ATOM     64  C46 UNL A   1      42.611  26.311  27.754  1.00  0.00    +0.000 C 
ENDBRANCH   63   64
TORSDOF 19
ENDMDL
MODEL 9
REMARK VINA RESULT:      -8.4     38.032     42.820
ROOT
ATOM     27  C22 UNL A   1      37.933  30.094  29.852  1.00  0.00    +0.000 C 
ATOM     28  C23 UNL A   1      38.954  29.156  29.271  1.00  0.00    +0.000 C 
ATOM     29  N3  UNL A   1      40.070  28.716  29.798  1.00  0.00    +0.000 N 
ATOM     30  C24 UNL A   1      40.611  27.841  28.866  1.00  0.00    +0.000 C 
ATOM     31  C25 UNL A   1      41.785  27.167  28.921  1.00  0.00    +0.000 C 
ATOM     43  C32 UNL A   1      42.726  27.263  30.006  1.00  0.00    +0.000 C 
ATOM     44  C33 UNL A   1      43.972  26.671  30.122  1.00  0.00    +0.000 C 
ATOM     45  C34 UNL A   1      44.511  27.024  31.363  1.00  0.00    +0.000 C 
ATOM     46  C35 UNL A   1      43.619  27.872  32.001  1.00  0.00    +0.000 C 
ATOM     47  N4  UNL A   1      42.525  28.004  31.161  1.00  0.00    +0.000 N 
ATOM     48  C36 UNL A   1      43.756  28.517  33.280  1.00  0.00    +0.000 C 
ATOM     60  C43 UNL A   1      42.824  29.319  33.848  1.00  0.00    +0.000 C 
ATOM     61  N5  UNL A   1      41.590  29.713  33.348  1.00  0.00    +0.000 N 
ATOM     62  C44 UNL A   1      41.056  30.477  34.268  1.00  0.00    +0.000 C 
ATOM     63  C45 UNL A   1      39.745  31.218  34.248  1.00  0.00    +0.000 C 
ATOM     75  C52 UNL A   1      38.966  31.145  33.152  1.00  0.00    +0.000 C 
ATOM     76  C53 UNL A   1      37.682  31.819  32.978  1.00  0.00    +0.000 C 
ATOM     77  C54 UNL A   1      37.176  31.493  31.778  1.00  0.00    +0.000 C 
ATOM     78  C55 UNL A   1      38.115  30.612  31.084  1.00  0.00    +0.000 C 
ATOM     79  N6  UNL A   1      39.149  30.462  31.975  1.00  0.00    +0.000 N 
ATOM     80  C56 UNL A   1      41.879  30.623  35.477  1.00  0.00    +0.000 C 
ATOM     81  C57 UNL A   1      42.965  29.939  35.148  1.00  0.00    +0.000 C 
ATOM     82  C58 UNL A   1      39.684  27.778  27.756  1.00  0.00    +0.000 C 
ATOM     83  C59 UNL A   1      38.676  28.620  27.929  1.00  0.00    +0.000 C 
ATOM    116  H27 UNL A   1      44.426  26.073  29.414  1.00  0.00    +0.000 H 
ATOM    117  H28 UNL A   1      45.416  26.705  31.741  1.00  0.00    +0.000 H 
ATOM    118  H29 UNL A   1      41.725  28.543  31.355  1.00  0.00    +0.000 H 
ATOM    119  H30 UNL A   1      37.236  32.445  33.667  1.00  0.00    +0.000 H 
ATOM    120  H31 UNL A   1      36.268  31.815  31.405  1.00  0.00    +0.000 H 
ATOM    121  H32 UNL A   1      39.947  29.915  31.787  1.00  0.00    +0.000 H 
ATOM    122  H33 UNL A   1      41.668  31.128  36.352  1.00  0.00    +0.000 H 
ATOM    123  H34 UNL A   1      43.803  29.857  35.743  1.00  0.00    +0.000 H 
ATOM    124  H35 UNL A   1      39.795  27.159  26.937  1.00  0.00    +0.000 H 
ATOM    125  H36 UNL A   1      37.898  28.843  27.289  1.00  0.00    +0.000 H 
ENDROOT
BRANCH   27   26
ATOM    114  H25 UNL A   1      35.146  32.927  27.489  1.00  0.00    +0.000 H 
ATOM    115  H26 UNL A   1      37.226  32.402  28.624  1.00  0.00    +0.000 H 
ATOM     84  C60 UNL A   1      35.705  29.427  28.932  1.00  0.00    +0.000 C 
ATOM     85  C61 UNL A   1      34.544  29.707  28.213  1.00  0.00    +0.000 C 
ATOM     23  C18 UNL A   1      34.315  30.999  27.734  1.00  0.00    +0.000 C 
ATOM     24  C19 UNL A   1      35.300  31.982  27.876  1.00  0.00    +0.000 C 
ATOM     25  C20 UNL A   1      36.490  31.683  28.542  1.00  0.00    +0.000 C 
ATOM     26  C21 UNL A   1      36.692  30.410  29.099  1.00  0.00    +0.000 C 
ATOM    126  H37 UNL A   1      35.839  28.490  29.346  1.00  0.00    +0.000 H 
ATOM    127  H38 UNL A   1      33.855  28.960  28.033  1.00  0.00    +0.000 H 
BRANCH   23   21
ATOM     21  C17 UNL A   1      33.055  31.356  27.045  1.00  0.00    +0.000 C 
ATOM     22  O3  UNL A   1      32.649  32.514  27.082  1.00  0.00    +0.000 O 
BRANCH   21   20
ATOM    113  H24 UNL A   1      31.420  30.245  26.732  1.00  0.00    +0.000 H 
ATOM     20  N2  UNL A   1      32.330  30.396  26.386  1.00  0.00    +0.000 N 
BRANCH   20   19
ATOM     19  C16 UNL A   1      32.706  29.571  25.252  1.00  0.00    +0.000 C 
ATOM    111  H22 UNL A   1      32.085  29.827  24.419  1.00  0.00    +0.000 H 
ATOM    112  H23 UNL A   1      33.739  29.756  25.045  1.00  0.00    +0.000 H 
BRANCH   19   18
ATOM     18  C15 UNL A   1      32.551  28.079  25.535  1.00  0.00    +0.000 C 
ATOM    109  H20 UNL A   1      31.818  27.963  26.304  1.00  0.00    +0.000 H 
ATOM    110  H21 UNL A   1      32.271  27.630  24.604  1.00  0.00    +0.000 H 
BRANCH   18   17
ATOM     17  C14 UNL A   1      33.827  27.362  25.983  1.00  0.00    +0.000 C 
ATOM    107  H18 UNL A   1      34.662  27.961  25.687  1.00  0.00    +0.000 H 
ATOM    108  H19 UNL A   1      33.736  27.238  27.042  1.00  0.00    +0.000 H 
BRANCH   17   16
ATOM    105  H16 UNL A   1      33.636  25.940  24.418  1.00  0.00    +0.000 H 
ATOM    106  H17 UNL A   1      35.081  25.765  25.461  1.00  0.00    +0.000 H 
ATOM     16  C13 UNL A   1      34.030  25.954  25.413  1.00  0.00    +0.000 C 
BRANCH   16   15
ATOM    103  H14 UNL A   1      33.239  25.149  27.213  1.00  0.00    +0.000 H 
ATOM     15  C12 UNL A   1      33.362  24.824  26.202  1.00  0.00    +0.000 C 
ATOM    104  H15 UNL A   1      32.434  24.619  25.710  1.00  0.00    +0.000 H 
BRANCH   15   14
ATOM    102  H13 UNL A   1      33.950  23.020  27.148  1.00  0.00    +0.000 H 
ATOM    101  H12 UNL A   1      35.182  23.725  26.104  1.00  0.00    +0.000 H 
ATOM     14  C11 UNL A   1      34.140  23.512  26.217  1.00  0.00    +0.000 C 
BRANCH   14   13
ATOM    100  H11 UNL A   1      33.051  21.956  25.397  1.00  0.00    +0.000 H 
ATOM     13  N1  UNL A   1      33.722  22.631  25.146  1.00  0.00    +0.000 N 
BRANCH   13   11
ATOM     11  C10 UNL A   1      34.119  22.598  23.843  1.00  0.00    +0.000 C 
ATOM     12  O2  UNL A   1      35.320  22.406  23.620  1.00  0.00    +0.000 O 
BRANCH   11    9
ATOM      9  C8  UNL A   1      33.128  22.777  22.686  1.00  0.00    +0.000 C 
ATOM     96  H7  UNL A   1      33.644  22.715  21.750  1.00  0.00    +0.000 H 
BRANCH    9    8
ATOM    129  H40 UNL A   1      32.992  27.250  21.317  1.00  0.00    +0.000 H 
ATOM    130  H41 UNL A   1      31.065  28.711  21.783  1.00  0.00    +0.000 H 
ATOM      3  C2  UNL A   1      29.436  28.185  23.009  1.00  0.00    +0.000 C 
ATOM      4  C3  UNL A   1      28.840  27.168  23.750  1.00  0.00    +0.000 C 
ATOM      5  C4  UNL A   1      29.471  25.926  23.851  1.00  0.00    +0.000 C 
ATOM      6  C5  UNL A   1      30.698  25.689  23.212  1.00  0.00    +0.000 C 
ATOM      7  C6  UNL A   1      31.333  24.438  23.281  1.00  0.00    +0.000 C 
ATOM      8  C7  UNL A   1      32.560  24.191  22.636  1.00  0.00    +0.000 C 
ATOM     86  C62 UNL A   1      33.170  25.248  21.952  1.00  0.00    +0.000 C 
ATOM     87  C63 UNL A   1      32.539  26.492  21.851  1.00  0.00    +0.000 C 
ATOM     88  C64 UNL A   1      31.300  26.724  22.465  1.00  0.00    +0.000 C 
ATOM     89  C65 UNL A   1      30.647  27.961  22.355  1.00  0.00    +0.000 C 
ATOM     93  H4  UNL A   1      27.937  27.331  24.221  1.00  0.00    +0.000 H 
ATOM     94  H5  UNL A   1      29.030  25.173  24.403  1.00  0.00    +0.000 H 
ATOM     95  H6  UNL A   1      30.888  23.679  23.820  1.00  0.00    +0.000 H 
ATOM    128  H39 UNL A   1      34.095  25.108  21.517  1.00  0.00    +0.000 H 
BRANCH    3    2
ATOM      2  O1  UNL A   1      28.853  29.409  22.827  1.00  0.00    +0.000 O 
BRANCH    2    1
ATOM      1  C1  UNL A   1      29.420  30.122  21.729  1.00  0.00    +0.000 C 
ATOM     90  H1  UNL A   1      29.842  31.040  22.080  1.00  0.00    +0.000 H 
ATOM     91  H2  UNL A   1      28.658  30.332  21.009  1.00  0.00    +0.000 H 
ATOM     92  H3  UNL A   1      30.186  29.527  21.276  1.00  0.00    +0.000 H 
ENDBRANCH    2    1
ENDBRANCH    3    2
ENDBRANCH    9    8
BRANCH    9   10
ATOM     97  H8  UNL A   1      32.296  20.954  23.437  1.00  0.00    +0.000 H 
ATOM     10  C9  UNL A   1      32.147  21.603  22.601  1.00  0.00    +0.000 C 
ATOM     99  H10 UNL A   1      31.144  21.975  22.612  1.00  0.00    +0.000 H 
ATOM     98  H9  UNL A   1      32.318  21.063  21.694  1.00  0.00    +0.000 H 
ENDBRANCH    9   10
ENDBRANCH   11    9
ENDBRANCH   13   11
ENDBRANCH   14   13
ENDBRANCH   15   14
ENDBRANCH   16   15
ENDBRANCH   17   16
ENDBRANCH   18   17
ENDBRANCH   19   18
ENDBRANCH   20   19
ENDBRANCH   21   20
ENDBRANCH   23   21
ENDBRANCH   27   26
BRANCH   31   32
ATOM     33  C27 UNL A   1      43.041  26.660  26.779  1.00  0.00    +0.000 C 
ATOM     34  F1  UNL A   1      43.567  27.894  26.796  1.00  0.00    +0.000 F 
ATOM     35  C28 UNL A   1      43.394  25.795  25.747  1.00  0.00    +0.000 C 
ATOM     36  F2  UNL A   1      44.238  26.204  24.790  1.00  0.00    +0.000 F 
ATOM     37  C29 UNL A   1      42.870  24.511  25.705  1.00  0.00    +0.000 C 
ATOM     38  F3  UNL A   1      43.224  23.673  24.720  1.00  0.00    +0.000 F 
ATOM     39  C30 UNL A   1      41.977  24.096  26.682  1.00  0.00    +0.000 C 
ATOM     40  F4  UNL A   1      41.482  22.852  26.651  1.00  0.00    +0.000 F 
ATOM     41  C31 UNL A   1      41.601  24.969  27.700  1.00  0.00    +0.000 C 
ATOM     42  F5  UNL A   1      40.732  24.542  28.628  1.00  0.00    +0.000 F 
ATOM     32  C26 UNL A   1      42.132  26.266  27.771  1.00  0.00    +0.000 C 
ENDBRANCH   31   32
BRANCH   48   49
ATOM     49  C37 UNL A   1      45.037  28.310  34.035  1.00  0.00    +0.000 C 
ATOM     50  C38 UNL A   1      45.205  27.241  34.926  1.00  0.00    +0.000 C 
ATOM     51  F6  UNL A   1      44.193  26.391  35.158  1.00  0.00    +0.000 F 
ATOM     52  C39 UNL A   1      46.401  27.067  35.616  1.00  0.00    +0.000 C 
ATOM     53  F7  UNL A   1      46.522  26.069  36.502  1.00  0.00    +0.000 F 
ATOM     54  C40 UNL A   1      47.461  27.936  35.403  1.00  0.00    +0.000 C 
ATOM     55  F8  UNL A   1      48.613  27.764  36.065  1.00  0.00    +0.000 F 
ATOM     56  C41 UNL A   1      47.325  28.985  34.508  1.00  0.00    +0.000 C 
ATOM     57  F9  UNL A   1      48.352  29.818  34.290  1.00  0.00    +0.000 F 
ATOM     58  C42 UNL A   1      46.120  29.180  33.839  1.00  0.00    +0.000 C 
ATOM     59  F10 UNL A   1      46.012  30.214  32.991  1.00  0.00    +0.000 F 
ENDBRANCH   48   49
BRANCH   63   64
ATOM     65  C47 UNL A   1      38.515  31.507  36.420  1.00  0.00    +0.000 C 
ATOM     66  F11 UNL A   1      38.115  30.228  36.346  1.00  0.00    +0.000 F 
ATOM     67  C48 UNL A   1      38.063  32.293  37.477  1.00  0.00    +0.000 C 
ATOM     68  F12 UNL A   1      37.239  31.769  38.394  1.00  0.00    +0.000 F 
ATOM     69  C49 UNL A   1      38.445  33.623  37.566  1.00  0.00    +0.000 C 
ATOM     70  F13 UNL A   1      38.006  34.381  38.579  1.00  0.00    +0.000 F 
ATOM     71  C50 UNL A   1      39.272  34.169  36.595  1.00  0.00    +0.000 C 
ATOM     72  F14 UNL A   1      39.652  35.451  36.685  1.00  0.00    +0.000 F 
ATOM     73  C51 UNL A   1      39.699  33.390  35.521  1.00  0.00    +0.000 C 
ATOM     74  F15 UNL A   1      40.479  33.952  34.585  1.00  0.00    +0.000 F 
ATOM     64  C46 UNL A   1      39.327  32.044  35.411  1.00  0.00    +0.000 C 
ENDBRANCH   63   64
TORSDOF 19
ENDMDL
MODEL 10
REMARK VINA RESULT:      -8.3     39.149     43.725
ROOT
ATOM     27  C22 UNL A   1      40.091  28.867  29.164  1.00  0.00    +0.000 C 
ATOM     28  C23 UNL A   1      40.972  29.805  29.942  1.00  0.00    +0.000 C 
ATOM     29  N3  UNL A   1      42.238  29.682  30.259  1.00  0.00    +0.000 N 
ATOM     30  C24 UNL A   1      42.574  30.846  30.937  1.00  0.00    +0.000 C 
ATOM     31  C25 UNL A   1      43.755  31.178  31.512  1.00  0.00    +0.000 C 
ATOM     43  C32 UNL A   1      44.915  30.326  31.533  1.00  0.00    +0.000 C 
ATOM     44  C33 UNL A   1      46.135  30.546  32.150  1.00  0.00    +0.000 C 
ATOM     45  C34 UNL A   1      46.968  29.458  31.873  1.00  0.00    +0.000 C 
ATOM     46  C35 UNL A   1      46.251  28.539  31.123  1.00  0.00    +0.000 C 
ATOM     47  N4  UNL A   1      44.996  29.088  30.914  1.00  0.00    +0.000 N 
ATOM     48  C36 UNL A   1      46.679  27.255  30.633  1.00  0.00    +0.000 C 
ATOM     60  C43 UNL A   1      45.921  26.420  29.882  1.00  0.00    +0.000 C 
ATOM     61  N5  UNL A   1      44.612  26.581  29.448  1.00  0.00    +0.000 N 
ATOM     62  C44 UNL A   1      44.330  25.512  28.748  1.00  0.00    +0.000 C 
ATOM     63  C45 UNL A   1      43.039  25.127  28.074  1.00  0.00    +0.000 C 
ATOM     75  C52 UNL A   1      41.973  25.942  28.182  1.00  0.00    +0.000 C 
ATOM     76  C53 UNL A   1      40.656  25.696  27.603  1.00  0.00    +0.000 C 
ATOM     77  C54 UNL A   1      39.852  26.734  27.885  1.00  0.00    +0.000 C 
ATOM     78  C55 UNL A   1      40.590  27.706  28.695  1.00  0.00    +0.000 C 
ATOM     79  N6  UNL A   1      41.839  27.150  28.822  1.00  0.00    +0.000 N 
ATOM     80  C56 UNL A   1      45.448  24.565  28.624  1.00  0.00    +0.000 C 
ATOM     81  C57 UNL A   1      46.375  25.143  29.374  1.00  0.00    +0.000 C 
ATOM     82  C58 UNL A   1      41.394  31.683  30.952  1.00  0.00    +0.000 C 
ATOM     83  C59 UNL A   1      40.359  31.060  30.406  1.00  0.00    +0.000 C 
ATOM    116  H27 UNL A   1      46.386  31.371  32.717  1.00  0.00    +0.000 H 
ATOM    117  H28 UNL A   1      47.950  29.357  32.174  1.00  0.00    +0.000 H 
ATOM    118  H29 UNL A   1      44.271  28.663  30.403  1.00  0.00    +0.000 H 
ATOM    119  H30 UNL A   1      40.386  24.859  27.062  1.00  0.00    +0.000 H 
ATOM    120  H31 UNL A   1      38.871  26.831  27.581  1.00  0.00    +0.000 H 
ATOM    121  H32 UNL A   1      42.570  27.578  29.324  1.00  0.00    +0.000 H 
ATOM    122  H33 UNL A   1      45.498  23.681  28.094  1.00  0.00    +0.000 H 
ATOM    123  H34 UNL A   1      47.302  24.736  29.570  1.00  0.00    +0.000 H 
ATOM    124  H35 UNL A   1      41.362  32.640  31.338  1.00  0.00    +0.000 H 
ATOM    125  H36 UNL A   1      39.380  31.372  30.327  1.00  0.00    +0.000 H 
ENDROOT
BRANCH   27   26
ATOM    114  H25 UNL A   1      36.766  30.536  26.420  1.00  0.00    +0.000 H 
ATOM    115  H26 UNL A   1      39.047  29.836  26.861  1.00  0.00    +0.000 H 
ATOM     84  C60 UNL A   1      37.691  29.077  29.835  1.00  0.00    +0.000 C 
ATOM     85  C61 UNL A   1      36.366  29.407  29.554  1.00  0.00    +0.000 C 
ATOM     23  C18 UNL A   1      36.037  29.991  28.328  1.00  0.00    +0.000 C 
ATOM     24  C19 UNL A   1      37.016  30.139  27.340  1.00  0.00    +0.000 C 
ATOM     25  C20 UNL A   1      38.332  29.749  27.599  1.00  0.00    +0.000 C 
ATOM     26  C21 UNL A   1      38.686  29.240  28.859  1.00  0.00    +0.000 C 
ATOM    126  H37 UNL A   1      37.943  28.712  30.767  1.00  0.00    +0.000 H 
ATOM    127  H38 UNL A   1      35.628  29.220  30.251  1.00  0.00    +0.000 H 
BRANCH   23   21
ATOM     21  C17 UNL A   1      34.658  30.437  28.029  1.00  0.00    +0.000 C 
ATOM     22  O3  UNL A   1      34.325  31.592  28.282  1.00  0.00    +0.000 O 
BRANCH   21   20
ATOM    113  H24 UNL A   1      33.730  28.668  27.908  1.00  0.00    +0.000 H 
ATOM     20  N2  UNL A   1      33.748  29.562  27.494  1.00  0.00    +0.000 N 
BRANCH   20   19
ATOM     19  C16 UNL A   1      32.806  29.760  26.407  1.00  0.00    +0.000 C 
ATOM    111  H22 UNL A   1      31.921  30.218  26.798  1.00  0.00    +0.000 H 
ATOM    112  H23 UNL A   1      33.280  30.381  25.676  1.00  0.00    +0.000 H 
BRANCH   19   18
ATOM     18  C15 UNL A   1      32.417  28.454  25.721  1.00  0.00    +0.000 C 
ATOM    109  H20 UNL A   1      31.720  27.944  26.353  1.00  0.00    +0.000 H 
ATOM    110  H21 UNL A   1      32.012  28.730  24.770  1.00  0.00    +0.000 H 
BRANCH   18   17
ATOM     17  C14 UNL A   1      33.576  27.499  25.426  1.00  0.00    +0.000 C 
ATOM    107  H18 UNL A   1      33.726  27.481  24.367  1.00  0.00    +0.000 H 
ATOM    108  H19 UNL A   1      34.413  27.875  25.976  1.00  0.00    +0.000 H 
BRANCH   17   16
ATOM    105  H16 UNL A   1      33.285  26.065  26.965  1.00  0.00    +0.000 H 
ATOM    106  H17 UNL A   1      32.511  25.693  25.393  1.00  0.00    +0.000 H 
ATOM     16  C13 UNL A   1      33.381  26.054  25.899  1.00  0.00    +0.000 C 
BRANCH   16   15
ATOM    103  H14 UNL A   1      34.563  25.017  24.471  1.00  0.00    +0.000 H 
ATOM     15  C12 UNL A   1      34.511  25.086  25.537  1.00  0.00    +0.000 C 
ATOM    104  H15 UNL A   1      35.401  25.483  25.977  1.00  0.00    +0.000 H 
BRANCH   15   14
ATOM    102  H13 UNL A   1      33.558  23.693  26.820  1.00  0.00    +0.000 H 
ATOM    101  H12 UNL A   1      35.268  23.369  26.542  1.00  0.00    +0.000 H 
ATOM     14  C11 UNL A   1      34.345  23.676  26.096  1.00  0.00    +0.000 C 
BRANCH   14   13
ATOM    100  H11 UNL A   1      33.448  21.963  25.360  1.00  0.00    +0.000 H 
ATOM     13  N1  UNL A   1      33.987  22.730  25.059  1.00  0.00    +0.000 N 
BRANCH   13   11
ATOM     11  C10 UNL A   1      34.285  22.744  23.730  1.00  0.00    +0.000 C 
ATOM     12  O2  UNL A   1      35.471  22.608  23.412  1.00  0.00    +0.000 O 
BRANCH   11    9
ATOM      9  C8  UNL A   1      33.202  22.910  22.655  1.00  0.00    +0.000 C 
ATOM     96  H7  UNL A   1      33.640  22.839  21.681  1.00  0.00    +0.000 H 
BRANCH    9    8
ATOM    129  H40 UNL A   1      33.093  27.432  21.459  1.00  0.00    +0.000 H 
ATOM    130  H41 UNL A   1      31.139  28.865  21.903  1.00  0.00    +0.000 H 
ATOM      3  C2  UNL A   1      29.465  28.282  23.039  1.00  0.00    +0.000 C 
ATOM      4  C3  UNL A   1      28.845  27.233  23.714  1.00  0.00    +0.000 C 
ATOM      5  C4  UNL A   1      29.479  25.991  23.792  1.00  0.00    +0.000 C 
ATOM      6  C5  UNL A   1      30.734  25.786  23.195  1.00  0.00    +0.000 C 
ATOM      7  C6  UNL A   1      31.373  24.536  23.241  1.00  0.00    +0.000 C 
ATOM      8  C7  UNL A   1      32.628  24.321  22.638  1.00  0.00    +0.000 C 
ATOM     86  C62 UNL A   1      33.258  25.408  22.022  1.00  0.00    +0.000 C 
ATOM     87  C63 UNL A   1      32.623  26.652  21.944  1.00  0.00    +0.000 C 
ATOM     88  C64 UNL A   1      31.359  26.853  22.515  1.00  0.00    +0.000 C 
ATOM     89  C65 UNL A   1      30.703  28.090  22.427  1.00  0.00    +0.000 C 
ATOM     93  H4  UNL A   1      27.922  27.373  24.153  1.00  0.00    +0.000 H 
ATOM     94  H5  UNL A   1      29.021  25.215  24.295  1.00  0.00    +0.000 H 
ATOM     95  H6  UNL A   1      30.911  23.755  23.730  1.00  0.00    +0.000 H 
ATOM    128  H39 UNL A   1      34.201  25.290  21.620  1.00  0.00    +0.000 H 
BRANCH    3    2
ATOM      2  O1  UNL A   1      28.882  29.509  22.881  1.00  0.00    +0.000 O 
BRANCH    2    1
ATOM      1  C1  UNL A   1      29.338  30.180  21.708  1.00  0.00    +0.000 C 
ATOM     90  H1  UNL A   1      30.272  30.660  21.912  1.00  0.00    +0.000 H 
ATOM     91  H2  UNL A   1      28.616  30.913  21.413  1.00  0.00    +0.000 H 
ATOM     92  H3  UNL A   1      29.467  29.468  20.919  1.00  0.00    +0.000 H 
ENDBRANCH    2    1
ENDBRANCH    3    2
ENDBRANCH    9    8
BRANCH    9   10
ATOM     97  H8  UNL A   1      31.843  21.578  21.674  1.00  0.00    +0.000 H 
ATOM     10  C9  UNL A   1      32.221  21.733  22.662  1.00  0.00    +0.000 C 
ATOM     99  H10 UNL A   1      32.727  20.849  22.993  1.00  0.00    +0.000 H 
ATOM     98  H9  UNL A   1      31.410  21.949  23.326  1.00  0.00    +0.000 H 
ENDBRANCH    9   10
ENDBRANCH   11    9
ENDBRANCH   13   11
ENDBRANCH   14   13
ENDBRANCH   15   14
ENDBRANCH   16   15
ENDBRANCH   17   16
ENDBRANCH   18   17
ENDBRANCH   19   18
ENDBRANCH   20   19
ENDBRANCH   21   20
ENDBRANCH   23   21
ENDBRANCH   27   26
BRANCH   31   32
ATOM     33  C27 UNL A   1      44.266  33.660  31.475  1.00  0.00    +0.000 C 
ATOM     34  F1  UNL A   1      44.650  33.561  30.194  1.00  0.00    +0.000 F 
ATOM     35  C28 UNL A   1      44.306  34.906  32.093  1.00  0.00    +0.000 C 
ATOM     36  F2  UNL A   1      44.733  35.978  31.410  1.00  0.00    +0.000 F 
ATOM     37  C29 UNL A   1      43.910  35.041  33.416  1.00  0.00    +0.000 C 
ATOM     38  F3  UNL A   1      43.934  36.245  34.005  1.00  0.00    +0.000 F 
ATOM     39  C30 UNL A   1      43.492  33.927  34.129  1.00  0.00    +0.000 C 
ATOM     40  F4  UNL A   1      43.096  34.058  35.402  1.00  0.00    +0.000 F 
ATOM     41  C31 UNL A   1      43.477  32.674  33.521  1.00  0.00    +0.000 C 
ATOM     42  F5  UNL A   1      43.073  31.615  34.238  1.00  0.00    +0.000 F 
ATOM     32  C26 UNL A   1      43.858  32.518  32.180  1.00  0.00    +0.000 C 
ENDBRANCH   31   32
BRANCH   48   49
ATOM     49  C37 UNL A   1      48.057  26.789  31.002  1.00  0.00    +0.000 C 
ATOM     50  C38 UNL A   1      48.288  25.985  32.127  1.00  0.00    +0.000 C 
ATOM     51  F6  UNL A   1      47.271  25.644  32.933  1.00  0.00    +0.000 F 
ATOM     52  C39 UNL A   1      49.574  25.563  32.451  1.00  0.00    +0.000 C 
ATOM     53  F7  UNL A   1      49.780  24.838  33.559  1.00  0.00    +0.000 F 
ATOM     54  C40 UNL A   1      50.646  25.907  31.640  1.00  0.00    +0.000 C 
ATOM     55  F8  UNL A   1      51.882  25.496  31.952  1.00  0.00    +0.000 F 
ATOM     56  C41 UNL A   1      50.437  26.681  30.510  1.00  0.00    +0.000 C 
ATOM     57  F9  UNL A   1      51.468  27.005  29.719  1.00  0.00    +0.000 F 
ATOM     58  C42 UNL A   1      49.156  27.131  30.199  1.00  0.00    +0.000 C 
ATOM     59  F10 UNL A   1      48.986  27.892  29.108  1.00  0.00    +0.000 F 
ENDBRANCH   48   49
BRANCH   63   64
ATOM     65  C47 UNL A   1      42.462  22.684  27.948  1.00  0.00    +0.000 C 
ATOM     66  F11 UNL A   1      42.092  22.720  29.237  1.00  0.00    +0.000 F 
ATOM     67  C48 UNL A   1      42.423  21.468  27.271  1.00  0.00    +0.000 C 
ATOM     68  F12 UNL A   1      42.027  20.360  27.912  1.00  0.00    +0.000 F 
ATOM     69  C49 UNL A   1      42.820  21.399  25.944  1.00  0.00    +0.000 C 
ATOM     70  F13 UNL A   1      42.789  20.227  25.295  1.00  0.00    +0.000 F 
ATOM     71  C50 UNL A   1      43.260  22.543  25.296  1.00  0.00    +0.000 C 
ATOM     72  F14 UNL A   1      43.632  22.481  24.010  1.00  0.00    +0.000 F 
ATOM     73  C51 UNL A   1      43.328  23.754  25.983  1.00  0.00    +0.000 C 
ATOM     74  F15 UNL A   1      43.780  24.839  25.336  1.00  0.00    +0.000 F 
ATOM     64  C46 UNL A   1      42.932  23.848  27.324  1.00  0.00    +0.000 C 
ENDBRANCH   63   64
TORSDOF 19
ENDMDL
