MODEL 1
REMARK VINA RESULT:      -9.7      0.000      0.000
ROOT
ATOM    136  H36 UNL A   1      43.077  31.678  33.440  1.00  0.00    +0.000 H 
ATOM    137  H37 UNL A   1      44.832  32.161  31.497  1.00  0.00    +0.000 H 
ATOM    138  H38 UNL A   1      44.946  28.254  32.434  1.00  0.00    +0.000 H 
ATOM    139  H39 UNL A   1      41.350  27.648  24.965  1.00  0.00    +0.000 H 
ATOM    140  H40 UNL A   1      39.659  29.194  26.081  1.00  0.00    +0.000 H 
ATOM    141  H41 UNL A   1      42.517  28.220  28.936  1.00  0.00    +0.000 H 
ATOM    142  H42 UNL A   1      43.955  25.278  29.231  1.00  0.00    +0.000 H 
ATOM    143  H43 UNL A   1      44.906  26.872  31.016  1.00  0.00    +0.000 H 
ATOM    144  H44 UNL A   1      39.572  27.765  33.229  1.00  0.00    +0.000 H 
ATOM    145  H45 UNL A   1      38.404  27.945  30.948  1.00  0.00    +0.000 H 
ATOM     42  C30 UNL A   1      39.958  29.292  28.966  1.00  0.00    +0.000 C 
ATOM     43  C31 UNL A   1      40.314  29.036  30.397  1.00  0.00    +0.000 C 
ATOM     44  N9  UNL A   1      41.377  29.395  31.050  1.00  0.00    +0.000 N 
ATOM     45  C32 UNL A   1      41.277  28.806  32.311  1.00  0.00    +0.000 C 
ATOM     46  C33 UNL A   1      42.318  28.719  33.185  1.00  0.00    +0.000 C 
ATOM     58  C40 UNL A   1      43.390  29.613  32.863  1.00  0.00    +0.000 C 
ATOM     59  C41 UNL A   1      43.544  30.984  32.836  1.00  0.00    +0.000 C 
ATOM     60  C42 UNL A   1      44.484  31.237  31.795  1.00  0.00    +0.000 C 
ATOM     61  C43 UNL A   1      44.846  30.002  31.256  1.00  0.00    +0.000 C 
ATOM     62  N10 UNL A   1      44.493  29.104  32.229  1.00  0.00    +0.000 N 
ATOM     63  C44 UNL A   1      45.295  29.622  29.939  1.00  0.00    +0.000 C 
ATOM     75  C51 UNL A   1      45.176  28.367  29.418  1.00  0.00    +0.000 C 
ATOM     76  N11 UNL A   1      45.069  28.172  28.049  1.00  0.00    +0.000 N 
ATOM     77  C52 UNL A   1      44.383  27.069  27.921  1.00  0.00    +0.000 C 
ATOM     78  C53 UNL A   1      43.461  26.788  26.795  1.00  0.00    +0.000 C 
ATOM     90  C60 UNL A   1      42.397  27.615  26.916  1.00  0.00    +0.000 C 
ATOM     91  C61 UNL A   1      41.372  27.954  25.950  1.00  0.00    +0.000 C 
ATOM     92  C62 UNL A   1      40.454  28.735  26.553  1.00  0.00    +0.000 C 
ATOM     93  C63 UNL A   1      40.759  28.831  27.983  1.00  0.00    +0.000 C 
ATOM     94  N12 UNL A   1      41.988  28.224  28.106  1.00  0.00    +0.000 N 
ATOM     95  C64 UNL A   1      44.300  26.243  29.114  1.00  0.00    +0.000 C 
ATOM     96  C65 UNL A   1      44.799  27.092  30.014  1.00  0.00    +0.000 C 
ATOM     97  C66 UNL A   1      39.967  28.207  32.383  1.00  0.00    +0.000 C 
ATOM     98  C67 UNL A   1      39.336  28.299  31.213  1.00  0.00    +0.000 C 
ENDROOT
BRANCH   42   41
ATOM     99  C68 UNL A   1      38.382  31.226  28.933  1.00  0.00    +0.000 C 
ATOM    100  C69 UNL A   1      37.097  31.724  28.740  1.00  0.00    +0.000 C 
ATOM     38  C26 UNL A   1      36.063  30.899  28.260  1.00  0.00    +0.000 C 
ATOM     39  C27 UNL A   1      36.371  29.584  27.914  1.00  0.00    +0.000 C 
ATOM    134  H34 UNL A   1      35.647  28.984  27.487  1.00  0.00    +0.000 H 
ATOM     40  C28 UNL A   1      37.649  29.068  28.138  1.00  0.00    +0.000 C 
ATOM    135  H35 UNL A   1      37.857  28.087  27.900  1.00  0.00    +0.000 H 
ATOM     41  C29 UNL A   1      38.645  29.879  28.685  1.00  0.00    +0.000 C 
ATOM    146  H46 UNL A   1      39.135  31.850  29.260  1.00  0.00    +0.000 H 
ATOM    147  H47 UNL A   1      36.899  32.715  28.950  1.00  0.00    +0.000 H 
BRANCH   38   36
ATOM     36  C25 UNL A   1      34.718  31.537  28.179  1.00  0.00    +0.000 C 
ATOM     37  O3  UNL A   1      33.848  30.992  27.512  1.00  0.00    +0.000 O 
BRANCH   36   35
ATOM     35  N8  UNL A   1      34.386  32.733  28.758  1.00  0.00    +0.000 N 
ATOM    133  H33 UNL A   1      34.783  32.839  29.652  1.00  0.00    +0.000 H 
BRANCH   35   34
ATOM     34  C24 UNL A   1      33.592  33.878  28.371  1.00  0.00    +0.000 C 
ATOM    131  H31 UNL A   1      34.078  34.357  27.547  1.00  0.00    +0.000 H 
ATOM    132  H32 UNL A   1      32.620  33.501  28.131  1.00  0.00    +0.000 H 
BRANCH   34   33
ATOM     33  C23 UNL A   1      33.385  34.922  29.469  1.00  0.00    +0.000 C 
ATOM    130  H30 UNL A   1      32.344  34.884  29.715  1.00  0.00    +0.000 H 
ATOM    129  H29 UNL A   1      33.705  35.869  29.087  1.00  0.00    +0.000 H 
BRANCH   33   32
ATOM    128  H28 UNL A   1      35.157  34.908  30.574  1.00  0.00    +0.000 H 
ATOM    127  H27 UNL A   1      33.965  33.645  31.057  1.00  0.00    +0.000 H 
ATOM     32  C22 UNL A   1      34.135  34.665  30.781  1.00  0.00    +0.000 C 
BRANCH   32   31
ATOM    125  H25 UNL A   1      34.156  36.519  31.819  1.00  0.00    +0.000 H 
ATOM    126  H26 UNL A   1      32.679  35.523  32.025  1.00  0.00    +0.000 H 
ATOM     31  C21 UNL A   1      33.748  35.542  31.980  1.00  0.00    +0.000 C 
BRANCH   31   30
ATOM    123  H23 UNL A   1      35.228  35.414  33.502  1.00  0.00    +0.000 H 
ATOM    124  H24 UNL A   1      33.537  35.412  34.070  1.00  0.00    +0.000 H 
ATOM     30  C20 UNL A   1      34.234  35.046  33.347  1.00  0.00    +0.000 C 
BRANCH   30   29
ATOM    121  H21 UNL A   1      33.663  33.251  34.342  1.00  0.00    +0.000 H 
ATOM    122  H22 UNL A   1      33.872  33.100  32.593  1.00  0.00    +0.000 H 
ATOM     29  C19 UNL A   1      34.259  33.524  33.497  1.00  0.00    +0.000 C 
BRANCH   29   28
ATOM     28  N7  UNL A   1      35.601  33.010  33.687  1.00  0.00    +0.000 N 
ATOM    120  H20 UNL A   1      36.053  33.409  34.464  1.00  0.00    +0.000 H 
BRANCH   28   26
ATOM     26  C18 UNL A   1      36.375  32.110  33.041  1.00  0.00    +0.000 C 
ATOM     27  O2  UNL A   1      35.838  31.588  32.047  1.00  0.00    +0.000 O 
BRANCH   26    2
ATOM      2  C1  UNL A   1      37.844  31.721  33.354  1.00  0.00    +0.000 C 
ATOM    104  H4  UNL A   1      38.188  32.610  33.840  1.00  0.00    +0.000 H 
BRANCH    2    1
ATOM      1  N1  UNL A   1      37.886  30.561  34.266  1.00  0.00    +0.000 N 
ATOM    101  H1  UNL A   1      38.742  30.031  34.102  1.00  0.00    +0.000 H 
ATOM    102  H2  UNL A   1      37.078  29.963  34.094  1.00  0.00    +0.000 H 
ATOM    103  H3  UNL A   1      37.868  30.887  35.232  1.00  0.00    +0.000 H 
ENDBRANCH    2    1
BRANCH    2    3
ATOM    105  H5  UNL A   1      38.509  32.173  31.425  1.00  0.00    +0.000 H 
ATOM    106  H6  UNL A   1      39.379  30.830  32.383  1.00  0.00    +0.000 H 
ATOM      3  C2  UNL A   1      38.969  31.817  32.324  1.00  0.00    +0.000 C 
BRANCH    3    4
ATOM      4  C3  UNL A   1      40.213  32.649  32.499  1.00  0.00    +0.000 C 
ATOM      5  C4  UNL A   1      40.689  32.945  33.769  1.00  0.00    +0.000 C 
ATOM      6  N2  UNL A   1      41.687  33.879  33.673  1.00  0.00    +0.000 N 
ATOM    107  H7  UNL A   1      40.345  32.527  34.648  1.00  0.00    +0.000 H 
ATOM     20  C12 UNL A   1      41.980  34.104  32.343  1.00  0.00    +0.000 C 
ATOM     21  C13 UNL A   1      42.949  34.943  31.759  1.00  0.00    +0.000 C 
ATOM    116  H16 UNL A   1      43.558  35.534  32.346  1.00  0.00    +0.000 H 
ATOM     23  C15 UNL A   1      42.249  34.158  29.588  1.00  0.00    +0.000 C 
ATOM     24  C16 UNL A   1      41.283  33.333  30.179  1.00  0.00    +0.000 C 
ATOM     25  C17 UNL A   1      41.122  33.292  31.583  1.00  0.00    +0.000 C 
ATOM    119  H19 UNL A   1      40.678  32.748  29.582  1.00  0.00    +0.000 H 
ATOM    118  H18 UNL A   1      42.352  34.169  28.561  1.00  0.00    +0.000 H 
ATOM     22  C14 UNL A   1      43.068  34.955  30.370  1.00  0.00    +0.000 C 
ATOM    117  H17 UNL A   1      43.771  35.563  29.922  1.00  0.00    +0.000 H 
BRANCH    6    7
ATOM      7  C5  UNL A   1      42.241  34.564  34.780  1.00  0.00    +0.000 C 
ATOM      8  N3  UNL A   1      43.539  34.394  35.003  1.00  0.00    +0.000 N 
ATOM      9  C6  UNL A   1      43.984  35.181  35.970  1.00  0.00    +0.000 C 
ATOM     10 Cl1  UNL A   1      45.656  35.072  36.307  1.00  0.00    +0.000 Cl
ATOM     11  N4  UNL A   1      43.285  36.009  36.730  1.00  0.00    +0.000 N 
ATOM     12  C7  UNL A   1      41.980  36.004  36.498  1.00  0.00    +0.000 C 
ATOM     19  N6  UNL A   1      41.422  35.348  35.486  1.00  0.00    +0.000 N 
BRANCH   12   13
ATOM    108  H8  UNL A   1      41.402  37.815  39.115  1.00  0.00    +0.000 H 
ATOM    109  H9  UNL A   1      42.831  36.884  38.657  1.00  0.00    +0.000 H 
ATOM     13  N5  UNL A   1      41.181  36.596  37.450  1.00  0.00    +0.000 N 
ATOM     14  C8  UNL A   1      41.767  36.871  38.765  1.00  0.00    +0.000 C 
ATOM     15  C9  UNL A   1      41.408  35.792  39.791  1.00  0.00    +0.000 C 
ATOM     17  C10 UNL A   1      39.501  35.150  38.567  1.00  0.00    +0.000 C 
ATOM     18  C11 UNL A   1      39.773  36.188  37.462  1.00  0.00    +0.000 C 
ATOM    114  H14 UNL A   1      39.526  35.758  36.514  1.00  0.00    +0.000 H 
ATOM    115  H15 UNL A   1      39.172  37.052  37.655  1.00  0.00    +0.000 H 
ATOM    110  H10 UNL A   1      41.756  36.097  40.756  1.00  0.00    +0.000 H 
ATOM    111  H11 UNL A   1      41.874  34.875  39.498  1.00  0.00    +0.000 H 
ATOM     16  O1  UNL A   1      39.988  35.587  39.846  1.00  0.00    +0.000 O 
ATOM    112  H12 UNL A   1      38.446  34.987  38.637  1.00  0.00    +0.000 H 
ATOM    113  H13 UNL A   1      40.015  34.248  38.308  1.00  0.00    +0.000 H 
ENDBRANCH   12   13
ENDBRANCH    6    7
ENDBRANCH    3    4
ENDBRANCH    2    3
ENDBRANCH   26    2
ENDBRANCH   28   26
ENDBRANCH   29   28
ENDBRANCH   30   29
ENDBRANCH   31   30
ENDBRANCH   32   31
ENDBRANCH   33   32
ENDBRANCH   34   33
ENDBRANCH   35   34
ENDBRANCH   36   35
ENDBRANCH   38   36
ENDBRANCH   42   41
BRANCH   46   47
ATOM     47  C34 UNL A   1      42.468  27.643  34.225  1.00  0.00    +0.000 C 
ATOM     48  C35 UNL A   1      43.066  26.410  33.901  1.00  0.00    +0.000 C 
ATOM     49  F1  UNL A   1      43.676  26.237  32.719  1.00  0.00    +0.000 F 
ATOM     50  C36 UNL A   1      42.995  25.309  34.761  1.00  0.00    +0.000 C 
ATOM     51  F2  UNL A   1      43.505  24.130  34.378  1.00  0.00    +0.000 F 
ATOM     52  C37 UNL A   1      42.355  25.413  35.983  1.00  0.00    +0.000 C 
ATOM     53  F3  UNL A   1      42.255  24.350  36.792  1.00  0.00    +0.000 F 
ATOM     54  C38 UNL A   1      41.777  26.615  36.345  1.00  0.00    +0.000 C 
ATOM     55  F4  UNL A   1      41.132  26.725  37.514  1.00  0.00    +0.000 F 
ATOM     56  C39 UNL A   1      41.808  27.700  35.470  1.00  0.00    +0.000 C 
ATOM     57  F5  UNL A   1      41.096  28.776  35.832  1.00  0.00    +0.000 F 
ENDBRANCH   46   47
BRANCH   63   64
ATOM     65  C46 UNL A   1      44.635  31.473  28.304  1.00  0.00    +0.000 C 
ATOM     66  F6  UNL A   1      43.336  31.174  28.443  1.00  0.00    +0.000 F 
ATOM     67  C47 UNL A   1      44.974  32.567  27.511  1.00  0.00    +0.000 C 
ATOM     68  F7  UNL A   1      44.020  33.244  26.854  1.00  0.00    +0.000 F 
ATOM     69  C48 UNL A   1      46.294  32.980  27.426  1.00  0.00    +0.000 C 
ATOM     70  F8  UNL A   1      46.617  34.059  26.698  1.00  0.00    +0.000 F 
ATOM     71  C49 UNL A   1      47.277  32.292  28.120  1.00  0.00    +0.000 C 
ATOM     72  F9  UNL A   1      48.547  32.720  28.081  1.00  0.00    +0.000 F 
ATOM     73  C50 UNL A   1      46.945  31.175  28.882  1.00  0.00    +0.000 C 
ATOM     74  F10 UNL A   1      47.917  30.549  29.565  1.00  0.00    +0.000 F 
ATOM     64  C45 UNL A   1      45.618  30.738  28.988  1.00  0.00    +0.000 C 
ENDBRANCH   63   64
BRANCH   78   79
ATOM     79  C54 UNL A   1      43.574  25.577  25.952  1.00  0.00    +0.000 C 
ATOM     80  C55 UNL A   1      44.751  25.299  25.242  1.00  0.00    +0.000 C 
ATOM     81  F11 UNL A   1      45.721  26.220  25.155  1.00  0.00    +0.000 F 
ATOM     82  C56 UNL A   1      44.979  24.043  24.667  1.00  0.00    +0.000 C 
ATOM     83  F12 UNL A   1      46.141  23.794  24.049  1.00  0.00    +0.000 F 
ATOM     84  C57 UNL A   1      44.031  23.039  24.778  1.00  0.00    +0.000 C 
ATOM     85  F13 UNL A   1      44.273  21.821  24.275  1.00  0.00    +0.000 F 
ATOM     86  C58 UNL A   1      42.850  23.290  25.450  1.00  0.00    +0.000 C 
ATOM     87  F14 UNL A   1      41.938  22.317  25.593  1.00  0.00    +0.000 F 
ATOM     88  C59 UNL A   1      42.627  24.536  26.034  1.00  0.00    +0.000 C 
ATOM     89  F15 UNL A   1      41.509  24.675  26.760  1.00  0.00    +0.000 F 
ENDBRANCH   78   79
TORSDOF 20
ENDMDL
MODEL 2
REMARK VINA RESULT:      -9.7      1.960      3.624
ROOT
ATOM    136  H36 UNL A   1      43.059  31.591  33.363  1.00  0.00    +0.000 H 
ATOM    137  H37 UNL A   1      44.815  32.003  31.404  1.00  0.00    +0.000 H 
ATOM    138  H38 UNL A   1      44.888  28.121  32.447  1.00  0.00    +0.000 H 
ATOM    139  H39 UNL A   1      41.272  27.353  25.002  1.00  0.00    +0.000 H 
ATOM    140  H40 UNL A   1      39.601  28.947  26.079  1.00  0.00    +0.000 H 
ATOM    141  H41 UNL A   1      42.453  28.019  28.955  1.00  0.00    +0.000 H 
ATOM    142  H42 UNL A   1      43.859  25.070  29.327  1.00  0.00    +0.000 H 
ATOM    143  H43 UNL A   1      44.831  26.702  31.067  1.00  0.00    +0.000 H 
ATOM    144  H44 UNL A   1      39.511  27.713  33.263  1.00  0.00    +0.000 H 
ATOM    145  H45 UNL A   1      38.340  27.844  30.980  1.00  0.00    +0.000 H 
ATOM     42  C30 UNL A   1      39.906  29.119  28.959  1.00  0.00    +0.000 C 
ATOM     43  C31 UNL A   1      40.262  28.898  30.397  1.00  0.00    +0.000 C 
ATOM     44  N9  UNL A   1      41.329  29.264  31.038  1.00  0.00    +0.000 N 
ATOM     45  C32 UNL A   1      41.225  28.710  32.315  1.00  0.00    +0.000 C 
ATOM     46  C33 UNL A   1      42.267  28.635  33.190  1.00  0.00    +0.000 C 
ATOM     58  C40 UNL A   1      43.348  29.508  32.841  1.00  0.00    +0.000 C 
ATOM     59  C41 UNL A   1      43.516  30.876  32.777  1.00  0.00    +0.000 C 
ATOM     60  C42 UNL A   1      44.458  31.090  31.729  1.00  0.00    +0.000 C 
ATOM     61  C43 UNL A   1      44.805  29.837  31.222  1.00  0.00    +0.000 C 
ATOM     62  N10 UNL A   1      44.445  28.970  32.220  1.00  0.00    +0.000 N 
ATOM     63  C44 UNL A   1      45.248  29.417  29.915  1.00  0.00    +0.000 C 
ATOM     75  C51 UNL A   1      45.114  28.149  29.428  1.00  0.00    +0.000 C 
ATOM     76  N11 UNL A   1      45.002  27.919  28.066  1.00  0.00    +0.000 N 
ATOM     77  C52 UNL A   1      44.305  26.821  27.969  1.00  0.00    +0.000 C 
ATOM     78  C53 UNL A   1      43.377  26.520  26.852  1.00  0.00    +0.000 C 
ATOM     90  C60 UNL A   1      42.322  27.361  26.952  1.00  0.00    +0.000 C 
ATOM     91  C61 UNL A   1      41.300  27.685  25.979  1.00  0.00    +0.000 C 
ATOM     92  C62 UNL A   1      40.391  28.492  26.562  1.00  0.00    +0.000 C 
ATOM     93  C63 UNL A   1      40.700  28.624  27.988  1.00  0.00    +0.000 C 
ATOM     94  N12 UNL A   1      41.922  28.006  28.126  1.00  0.00    +0.000 N 
ATOM     95  C64 UNL A   1      44.215  26.028  29.184  1.00  0.00    +0.000 C 
ATOM     96  C65 UNL A   1      44.724  26.896  30.060  1.00  0.00    +0.000 C 
ATOM     97  C66 UNL A   1      39.909  28.127  32.405  1.00  0.00    +0.000 C 
ATOM     98  C67 UNL A   1      39.277  28.194  31.234  1.00  0.00    +0.000 C 
ENDROOT
BRANCH   42   41
ATOM     99  C68 UNL A   1      38.339  31.061  28.912  1.00  0.00    +0.000 C 
ATOM    100  C69 UNL A   1      37.059  31.566  28.704  1.00  0.00    +0.000 C 
ATOM     38  C26 UNL A   1      36.027  30.746  28.213  1.00  0.00    +0.000 C 
ATOM     39  C27 UNL A   1      36.332  29.429  27.869  1.00  0.00    +0.000 C 
ATOM    134  H34 UNL A   1      35.610  28.834  27.433  1.00  0.00    +0.000 H 
ATOM     40  C28 UNL A   1      37.605  28.908  28.106  1.00  0.00    +0.000 C 
ATOM    135  H35 UNL A   1      37.811  27.925  27.870  1.00  0.00    +0.000 H 
ATOM     41  C29 UNL A   1      38.599  29.713  28.664  1.00  0.00    +0.000 C 
ATOM    146  H46 UNL A   1      39.092  31.681  29.247  1.00  0.00    +0.000 H 
ATOM    147  H47 UNL A   1      36.864  32.557  28.914  1.00  0.00    +0.000 H 
BRANCH   38   36
ATOM     36  C25 UNL A   1      34.686  31.391  28.117  1.00  0.00    +0.000 C 
ATOM     37  O3  UNL A   1      33.857  30.913  27.354  1.00  0.00    +0.000 O 
BRANCH   36   35
ATOM     35  N8  UNL A   1      34.317  32.527  28.788  1.00  0.00    +0.000 N 
ATOM    133  H33 UNL A   1      34.530  32.480  29.748  1.00  0.00    +0.000 H 
BRANCH   35   34
ATOM     34  C24 UNL A   1      33.689  33.778  28.425  1.00  0.00    +0.000 C 
ATOM    131  H31 UNL A   1      34.265  34.224  27.641  1.00  0.00    +0.000 H 
ATOM    132  H32 UNL A   1      32.689  33.537  28.132  1.00  0.00    +0.000 H 
BRANCH   34   33
ATOM     33  C23 UNL A   1      33.568  34.794  29.561  1.00  0.00    +0.000 C 
ATOM    130  H30 UNL A   1      32.520  34.896  29.750  1.00  0.00    +0.000 H 
ATOM    129  H29 UNL A   1      34.042  35.700  29.244  1.00  0.00    +0.000 H 
BRANCH   33   32
ATOM    128  H28 UNL A   1      35.252  34.459  30.749  1.00  0.00    +0.000 H 
ATOM    127  H27 UNL A   1      33.851  33.388  31.121  1.00  0.00    +0.000 H 
ATOM     32  C22 UNL A   1      34.195  34.376  30.896  1.00  0.00    +0.000 C 
BRANCH   32   31
ATOM    125  H25 UNL A   1      33.915  36.284  31.788  1.00  0.00    +0.000 H 
ATOM    126  H26 UNL A   1      32.929  34.950  32.468  1.00  0.00    +0.000 H 
ATOM     31  C21 UNL A   1      33.887  35.264  32.111  1.00  0.00    +0.000 C 
BRANCH   31   30
ATOM    123  H23 UNL A   1      35.796  35.521  33.011  1.00  0.00    +0.000 H 
ATOM    124  H24 UNL A   1      34.401  35.641  34.116  1.00  0.00    +0.000 H 
ATOM     30  C20 UNL A   1      34.847  35.117  33.297  1.00  0.00    +0.000 C 
BRANCH   30   29
ATOM    121  H21 UNL A   1      34.186  33.349  34.285  1.00  0.00    +0.000 H 
ATOM    122  H22 UNL A   1      35.248  33.076  32.898  1.00  0.00    +0.000 H 
ATOM     29  C19 UNL A   1      35.061  33.676  33.765  1.00  0.00    +0.000 C 
BRANCH   29   28
ATOM     28  N7  UNL A   1      36.203  33.547  34.647  1.00  0.00    +0.000 N 
ATOM    120  H20 UNL A   1      36.171  34.174  35.404  1.00  0.00    +0.000 H 
BRANCH   28   26
ATOM     26  C18 UNL A   1      37.304  32.763  34.668  1.00  0.00    +0.000 C 
ATOM     27  O2  UNL A   1      37.181  31.684  34.061  1.00  0.00    +0.000 O 
BRANCH   26    2
ATOM      2  C1  UNL A   1      38.690  33.086  35.289  1.00  0.00    +0.000 C 
ATOM    104  H4  UNL A   1      38.406  33.752  36.077  1.00  0.00    +0.000 H 
BRANCH    2    1
ATOM      1  N1  UNL A   1      39.313  31.859  35.823  1.00  0.00    +0.000 N 
ATOM    101  H1  UNL A   1      39.490  31.207  35.059  1.00  0.00    +0.000 H 
ATOM    102  H2  UNL A   1      38.685  31.425  36.500  1.00  0.00    +0.000 H 
ATOM    103  H3  UNL A   1      40.193  32.095  36.280  1.00  0.00    +0.000 H 
ENDBRANCH    2    1
BRANCH    2    3
ATOM    105  H5  UNL A   1      40.532  34.072  35.295  1.00  0.00    +0.000 H 
ATOM    106  H6  UNL A   1      39.017  35.004  34.735  1.00  0.00    +0.000 H 
ATOM      3  C2  UNL A   1      39.639  34.133  34.708  1.00  0.00    +0.000 C 
BRANCH    3    4
ATOM      4  C3  UNL A   1      40.098  34.161  33.273  1.00  0.00    +0.000 C 
ATOM      5  C4  UNL A   1      41.451  34.108  32.965  1.00  0.00    +0.000 C 
ATOM      6  N2  UNL A   1      41.623  34.364  31.631  1.00  0.00    +0.000 N 
ATOM    107  H7  UNL A   1      42.208  33.907  33.637  1.00  0.00    +0.000 H 
ATOM     20  C12 UNL A   1      40.390  34.447  31.015  1.00  0.00    +0.000 C 
ATOM     21  C13 UNL A   1      40.067  34.657  29.661  1.00  0.00    +0.000 C 
ATOM    116  H16 UNL A   1      40.808  34.808  28.959  1.00  0.00    +0.000 H 
ATOM     23  C15 UNL A   1      37.733  34.452  30.237  1.00  0.00    +0.000 C 
ATOM     24  C16 UNL A   1      38.066  34.253  31.584  1.00  0.00    +0.000 C 
ATOM     25  C17 UNL A   1      39.415  34.251  32.007  1.00  0.00    +0.000 C 
ATOM    119  H19 UNL A   1      37.316  34.106  32.277  1.00  0.00    +0.000 H 
ATOM    118  H18 UNL A   1      36.742  34.446  29.949  1.00  0.00    +0.000 H 
ATOM     22  C14 UNL A   1      38.723  34.656  29.290  1.00  0.00    +0.000 C 
ATOM    117  H17 UNL A   1      38.465  34.809  28.303  1.00  0.00    +0.000 H 
BRANCH    6    7
ATOM      7  C5  UNL A   1      42.879  34.603  31.025  1.00  0.00    +0.000 C 
ATOM      8  N3  UNL A   1      43.941  34.607  31.823  1.00  0.00    +0.000 N 
ATOM      9  C6  UNL A   1      45.073  34.700  31.145  1.00  0.00    +0.000 C 
ATOM     10 Cl1  UNL A   1      46.504  34.668  32.077  1.00  0.00    +0.000 Cl
ATOM     11  N4  UNL A   1      45.226  34.855  29.839  1.00  0.00    +0.000 N 
ATOM     12  C7  UNL A   1      44.095  34.961  29.158  1.00  0.00    +0.000 C 
ATOM     19  N6  UNL A   1      42.896  34.772  29.700  1.00  0.00    +0.000 N 
BRANCH   12   13
ATOM    108  H8  UNL A   1      45.623  36.299  26.640  1.00  0.00    +0.000 H 
ATOM    109  H9  UNL A   1      45.897  36.478  28.375  1.00  0.00    +0.000 H 
ATOM     13  N5  UNL A   1      44.192  35.431  27.867  1.00  0.00    +0.000 N 
ATOM     14  C8  UNL A   1      45.170  36.487  27.591  1.00  0.00    +0.000 C 
ATOM     15  C9  UNL A   1      44.522  37.875  27.562  1.00  0.00    +0.000 C 
ATOM     17  C10 UNL A   1      42.403  36.964  27.088  1.00  0.00    +0.000 C 
ATOM     18  C11 UNL A   1      42.940  35.520  27.111  1.00  0.00    +0.000 C 
ATOM    114  H14 UNL A   1      42.210  34.886  27.569  1.00  0.00    +0.000 H 
ATOM    115  H15 UNL A   1      43.129  35.214  26.104  1.00  0.00    +0.000 H 
ATOM    110  H10 UNL A   1      45.248  38.593  27.242  1.00  0.00    +0.000 H 
ATOM    111  H11 UNL A   1      44.174  38.108  28.547  1.00  0.00    +0.000 H 
ATOM     16  O1  UNL A   1      43.404  37.902  26.662  1.00  0.00    +0.000 O 
ATOM    112  H12 UNL A   1      41.574  37.014  26.413  1.00  0.00    +0.000 H 
ATOM    113  H13 UNL A   1      42.108  37.224  28.083  1.00  0.00    +0.000 H 
ENDBRANCH   12   13
ENDBRANCH    6    7
ENDBRANCH    3    4
ENDBRANCH    2    3
ENDBRANCH   26    2
ENDBRANCH   28   26
ENDBRANCH   29   28
ENDBRANCH   30   29
ENDBRANCH   31   30
ENDBRANCH   32   31
ENDBRANCH   33   32
ENDBRANCH   34   33
ENDBRANCH   35   34
ENDBRANCH   36   35
ENDBRANCH   38   36
ENDBRANCH   42   41
BRANCH   46   47
ATOM     47  C34 UNL A   1      42.407  27.586  34.258  1.00  0.00    +0.000 C 
ATOM     48  C35 UNL A   1      43.027  26.353  33.977  1.00  0.00    +0.000 C 
ATOM     49  F1  UNL A   1      43.665  26.160  32.813  1.00  0.00    +0.000 F 
ATOM     50  C36 UNL A   1      42.950  25.272  34.861  1.00  0.00    +0.000 C 
ATOM     51  F2  UNL A   1      43.484  24.092  34.518  1.00  0.00    +0.000 F 
ATOM     52  C37 UNL A   1      42.282  25.397  36.066  1.00  0.00    +0.000 C 
ATOM     53  F3  UNL A   1      42.178  24.353  36.897  1.00  0.00    +0.000 F 
ATOM     54  C38 UNL A   1      41.682  26.600  36.386  1.00  0.00    +0.000 C 
ATOM     55  F4  UNL A   1      41.009  26.729  37.538  1.00  0.00    +0.000 F 
ATOM     56  C39 UNL A   1      41.718  27.664  35.486  1.00  0.00    +0.000 C 
ATOM     57  F5  UNL A   1      40.985  28.739  35.806  1.00  0.00    +0.000 F 
ENDBRANCH   46   47
BRANCH   63   64
ATOM     65  C46 UNL A   1      46.897  30.903  28.648  1.00  0.00    +0.000 C 
ATOM     66  F6  UNL A   1      47.936  30.344  29.284  1.00  0.00    +0.000 F 
ATOM     67  C47 UNL A   1      47.166  31.844  27.657  1.00  0.00    +0.000 C 
ATOM     68  F7  UNL A   1      48.429  32.222  27.412  1.00  0.00    +0.000 F 
ATOM     69  C48 UNL A   1      46.131  32.367  26.898  1.00  0.00    +0.000 C 
ATOM     70  F8  UNL A   1      46.391  33.241  25.914  1.00  0.00    +0.000 F 
ATOM     71  C49 UNL A   1      44.827  31.963  27.139  1.00  0.00    +0.000 C 
ATOM     72  F9  UNL A   1      43.830  32.428  26.373  1.00  0.00    +0.000 F 
ATOM     73  C50 UNL A   1      44.553  31.051  28.155  1.00  0.00    +0.000 C 
ATOM     74  F10 UNL A   1      43.283  30.658  28.343  1.00  0.00    +0.000 F 
ATOM     64  C45 UNL A   1      45.581  30.504  28.934  1.00  0.00    +0.000 C 
ENDBRANCH   63   64
BRANCH   78   79
ATOM     79  C54 UNL A   1      43.476  25.285  26.042  1.00  0.00    +0.000 C 
ATOM     80  C55 UNL A   1      44.601  25.032  25.244  1.00  0.00    +0.000 C 
ATOM     81  F11 UNL A   1      45.516  25.992  25.045  1.00  0.00    +0.000 F 
ATOM     82  C56 UNL A   1      44.837  23.768  24.692  1.00  0.00    +0.000 C 
ATOM     83  F12 UNL A   1      45.954  23.547  23.987  1.00  0.00    +0.000 F 
ATOM     84  C57 UNL A   1      43.950  22.729  24.916  1.00  0.00    +0.000 C 
ATOM     85  F13 UNL A   1      44.205  21.505  24.434  1.00  0.00    +0.000 F 
ATOM     86  C58 UNL A   1      42.819  22.952  25.677  1.00  0.00    +0.000 C 
ATOM     87  F14 UNL A   1      41.969  21.946  25.929  1.00  0.00    +0.000 F 
ATOM     88  C59 UNL A   1      42.588  24.207  26.238  1.00  0.00    +0.000 C 
ATOM     89  F15 UNL A   1      41.529  24.324  27.051  1.00  0.00    +0.000 F 
ENDBRANCH   78   79
TORSDOF 20
ENDMDL
MODEL 3
REMARK VINA RESULT:      -9.4      2.642      3.913
ROOT
ATOM    136  H36 UNL A   1      43.341  31.506  33.458  1.00  0.00    +0.000 H 
ATOM    137  H37 UNL A   1      45.106  31.886  31.501  1.00  0.00    +0.000 H 
ATOM    138  H38 UNL A   1      45.027  27.985  32.466  1.00  0.00    +0.000 H 
ATOM    139  H39 UNL A   1      41.356  27.510  25.024  1.00  0.00    +0.000 H 
ATOM    140  H40 UNL A   1      39.754  29.148  26.139  1.00  0.00    +0.000 H 
ATOM    141  H41 UNL A   1      42.577  28.049  28.984  1.00  0.00    +0.000 H 
ATOM    142  H42 UNL A   1      43.865  25.040  29.291  1.00  0.00    +0.000 H 
ATOM    143  H43 UNL A   1      44.908  26.597  31.059  1.00  0.00    +0.000 H 
ATOM    144  H44 UNL A   1      39.640  27.777  33.297  1.00  0.00    +0.000 H 
ATOM    145  H45 UNL A   1      38.468  28.000  31.023  1.00  0.00    +0.000 H 
ATOM     42  C30 UNL A   1      40.077  29.251  29.021  1.00  0.00    +0.000 C 
ATOM     43  C31 UNL A   1      40.428  28.987  30.452  1.00  0.00    +0.000 C 
ATOM     44  N9  UNL A   1      41.512  29.297  31.096  1.00  0.00    +0.000 N 
ATOM     45  C32 UNL A   1      41.390  28.722  32.362  1.00  0.00    +0.000 C 
ATOM     46  C33 UNL A   1      42.431  28.589  33.230  1.00  0.00    +0.000 C 
ATOM     58  C40 UNL A   1      43.545  29.425  32.894  1.00  0.00    +0.000 C 
ATOM     59  C41 UNL A   1      43.768  30.786  32.857  1.00  0.00    +0.000 C 
ATOM     60  C42 UNL A   1      44.714  30.983  31.809  1.00  0.00    +0.000 C 
ATOM     61  C43 UNL A   1      45.008  29.727  31.276  1.00  0.00    +0.000 C 
ATOM     62  N10 UNL A   1      44.617  28.855  32.258  1.00  0.00    +0.000 N 
ATOM     63  C44 UNL A   1      45.430  29.315  29.959  1.00  0.00    +0.000 C 
ATOM     75  C51 UNL A   1      45.243  28.064  29.448  1.00  0.00    +0.000 C 
ATOM     76  N11 UNL A   1      45.117  27.866  28.081  1.00  0.00    +0.000 N 
ATOM     77  C52 UNL A   1      44.376  26.798  27.966  1.00  0.00    +0.000 C 
ATOM     78  C53 UNL A   1      43.433  26.557  26.847  1.00  0.00    +0.000 C 
ATOM     90  C60 UNL A   1      42.413  27.437  26.969  1.00  0.00    +0.000 C 
ATOM     91  C61 UNL A   1      41.401  27.821  26.007  1.00  0.00    +0.000 C 
ATOM     92  C62 UNL A   1      40.528  28.652  26.609  1.00  0.00    +0.000 C 
ATOM     93  C63 UNL A   1      40.847  28.743  28.036  1.00  0.00    +0.000 C 
ATOM     94  N12 UNL A   1      42.043  28.075  28.157  1.00  0.00    +0.000 N 
ATOM     95  C64 UNL A   1      44.258  25.986  29.165  1.00  0.00    +0.000 C 
ATOM     96  C65 UNL A   1      44.805  26.815  30.056  1.00  0.00    +0.000 C 
ATOM     97  C66 UNL A   1      40.052  28.192  32.446  1.00  0.00    +0.000 C 
ATOM     98  C67 UNL A   1      39.419  28.307  31.279  1.00  0.00    +0.000 C 
ENDROOT
BRANCH   42   41
ATOM     99  C68 UNL A   1      38.607  31.267  28.964  1.00  0.00    +0.000 C 
ATOM    100  C69 UNL A   1      37.348  31.830  28.776  1.00  0.00    +0.000 C 
ATOM     38  C26 UNL A   1      36.264  31.052  28.329  1.00  0.00    +0.000 C 
ATOM     39  C27 UNL A   1      36.495  29.714  28.009  1.00  0.00    +0.000 C 
ATOM    134  H34 UNL A   1      35.734  29.146  27.605  1.00  0.00    +0.000 H 
ATOM     40  C28 UNL A   1      37.747  29.135  28.229  1.00  0.00    +0.000 C 
ATOM    135  H35 UNL A   1      37.898  28.138  28.011  1.00  0.00    +0.000 H 
ATOM     41  C29 UNL A   1      38.793  29.903  28.743  1.00  0.00    +0.000 C 
ATOM    146  H46 UNL A   1      39.398  31.856  29.267  1.00  0.00    +0.000 H 
ATOM    147  H47 UNL A   1      37.208  32.835  28.966  1.00  0.00    +0.000 H 
BRANCH   38   36
ATOM     36  C25 UNL A   1      34.955  31.761  28.251  1.00  0.00    +0.000 C 
ATOM     37  O3  UNL A   1      34.070  31.285  27.551  1.00  0.00    +0.000 O 
BRANCH   36   35
ATOM     35  N8  UNL A   1      34.673  32.950  28.868  1.00  0.00    +0.000 N 
ATOM    133  H33 UNL A   1      34.671  32.871  29.849  1.00  0.00    +0.000 H 
BRANCH   35   34
ATOM     34  C24 UNL A   1      34.379  34.295  28.425  1.00  0.00    +0.000 C 
ATOM    131  H31 UNL A   1      35.270  34.707  28.000  1.00  0.00    +0.000 H 
ATOM    132  H32 UNL A   1      33.574  34.211  27.726  1.00  0.00    +0.000 H 
BRANCH   34   33
ATOM     33  C23 UNL A   1      33.895  35.246  29.521  1.00  0.00    +0.000 C 
ATOM    130  H30 UNL A   1      32.930  35.584  29.207  1.00  0.00    +0.000 H 
ATOM    129  H29 UNL A   1      34.618  36.028  29.621  1.00  0.00    +0.000 H 
BRANCH   33   32
ATOM    128  H28 UNL A   1      34.442  33.859  30.984  1.00  0.00    +0.000 H 
ATOM    127  H27 UNL A   1      32.683  34.252  30.948  1.00  0.00    +0.000 H 
ATOM     32  C22 UNL A   1      33.689  34.616  30.904  1.00  0.00    +0.000 C 
BRANCH   32   31
ATOM    125  H25 UNL A   1      33.939  36.541  31.767  1.00  0.00    +0.000 H 
ATOM    126  H26 UNL A   1      33.095  35.330  32.785  1.00  0.00    +0.000 H 
ATOM     31  C21 UNL A   1      33.907  35.530  32.118  1.00  0.00    +0.000 C 
BRANCH   31   30
ATOM    123  H23 UNL A   1      36.022  35.570  32.326  1.00  0.00    +0.000 H 
ATOM    124  H24 UNL A   1      35.096  35.827  33.828  1.00  0.00    +0.000 H 
ATOM     30  C20 UNL A   1      35.186  35.268  32.922  1.00  0.00    +0.000 C 
BRANCH   30   29
ATOM    121  H21 UNL A   1      35.727  33.777  34.343  1.00  0.00    +0.000 H 
ATOM    122  H22 UNL A   1      34.455  33.301  33.210  1.00  0.00    +0.000 H 
ATOM     29  C19 UNL A   1      35.391  33.807  33.328  1.00  0.00    +0.000 C 
BRANCH   29   28
ATOM     28  N7  UNL A   1      36.366  33.135  32.493  1.00  0.00    +0.000 N 
ATOM    120  H20 UNL A   1      36.034  32.280  32.136  1.00  0.00    +0.000 H 
BRANCH   28   26
ATOM     26  C18 UNL A   1      37.627  33.410  32.094  1.00  0.00    +0.000 C 
ATOM     27  O2  UNL A   1      37.708  34.261  31.189  1.00  0.00    +0.000 O 
BRANCH   26    2
ATOM      2  C1  UNL A   1      38.953  32.850  32.675  1.00  0.00    +0.000 C 
ATOM    104  H4  UNL A   1      39.368  33.733  33.115  1.00  0.00    +0.000 H 
BRANCH    2    1
ATOM      1  N1  UNL A   1      38.673  31.824  33.698  1.00  0.00    +0.000 N 
ATOM    101  H1  UNL A   1      39.219  30.986  33.498  1.00  0.00    +0.000 H 
ATOM    102  H2  UNL A   1      37.679  31.592  33.685  1.00  0.00    +0.000 H 
ATOM    103  H3  UNL A   1      38.925  32.183  34.619  1.00  0.00    +0.000 H 
ENDBRANCH    2    1
BRANCH    2    3
ATOM    105  H5  UNL A   1      39.876  32.219  30.910  1.00  0.00    +0.000 H 
ATOM    106  H6  UNL A   1      40.818  32.084  32.513  1.00  0.00    +0.000 H 
ATOM      3  C2  UNL A   1      40.211  32.645  31.833  1.00  0.00    +0.000 C 
BRANCH    3    4
ATOM      4  C3  UNL A   1      41.165  33.745  31.448  1.00  0.00    +0.000 C 
ATOM      5  C4  UNL A   1      41.016  34.418  30.242  1.00  0.00    +0.000 C 
ATOM      6  N2  UNL A   1      42.113  35.208  30.025  1.00  0.00    +0.000 N 
ATOM    107  H7  UNL A   1      40.205  34.334  29.609  1.00  0.00    +0.000 H 
ATOM     20  C12 UNL A   1      42.928  35.181  31.139  1.00  0.00    +0.000 C 
ATOM     21  C13 UNL A   1      44.136  35.859  31.394  1.00  0.00    +0.000 C 
ATOM    116  H16 UNL A   1      44.559  36.471  30.678  1.00  0.00    +0.000 H 
ATOM     23  C15 UNL A   1      44.172  34.866  33.592  1.00  0.00    +0.000 C 
ATOM     24  C16 UNL A   1      42.975  34.189  33.324  1.00  0.00    +0.000 C 
ATOM     25  C17 UNL A   1      42.323  34.329  32.078  1.00  0.00    +0.000 C 
ATOM    119  H19 UNL A   1      42.563  33.578  34.047  1.00  0.00    +0.000 H 
ATOM    118  H18 UNL A   1      44.630  34.752  34.510  1.00  0.00    +0.000 H 
ATOM     22  C14 UNL A   1      44.747  35.687  32.635  1.00  0.00    +0.000 C 
ATOM    117  H17 UNL A   1      45.632  36.174  32.842  1.00  0.00    +0.000 H 
BRANCH    6    7
ATOM      7  C5  UNL A   1      42.392  35.859  28.800  1.00  0.00    +0.000 C 
ATOM      8  N3  UNL A   1      42.604  35.083  27.742  1.00  0.00    +0.000 N 
ATOM      9  C6  UNL A   1      42.717  35.784  26.626  1.00  0.00    +0.000 C 
ATOM     10 Cl1  UNL A   1      42.949  34.876  25.198  1.00  0.00    +0.000 Cl
ATOM     11  N4  UNL A   1      42.712  37.101  26.490  1.00  0.00    +0.000 N 
ATOM     12  C7  UNL A   1      42.617  37.773  27.628  1.00  0.00    +0.000 C 
ATOM     19  N6  UNL A   1      42.385  37.194  28.801  1.00  0.00    +0.000 N 
BRANCH   12   13
ATOM    108  H8  UNL A   1      44.585  40.317  27.277  1.00  0.00    +0.000 H 
ATOM    109  H9  UNL A   1      44.919  38.676  27.837  1.00  0.00    +0.000 H 
ATOM     13  N5  UNL A   1      42.919  39.117  27.579  1.00  0.00    +0.000 N 
ATOM     14  C8  UNL A   1      44.280  39.528  27.933  1.00  0.00    +0.000 C 
ATOM     15  C9  UNL A   1      44.371  40.027  29.379  1.00  0.00    +0.000 C 
ATOM     17  C10 UNL A   1      42.071  40.531  29.433  1.00  0.00    +0.000 C 
ATOM     18  C11 UNL A   1      41.856  40.038  27.990  1.00  0.00    +0.000 C 
ATOM    114  H14 UNL A   1      40.915  39.532  27.932  1.00  0.00    +0.000 H 
ATOM    115  H15 UNL A   1      41.871  40.886  27.338  1.00  0.00    +0.000 H 
ATOM    110  H10 UNL A   1      45.349  40.425  29.551  1.00  0.00    +0.000 H 
ATOM    111  H11 UNL A   1      44.181  39.203  30.035  1.00  0.00    +0.000 H 
ATOM     16  O1  UNL A   1      43.396  41.050  29.632  1.00  0.00    +0.000 O 
ATOM    112  H12 UNL A   1      41.362  41.304  29.644  1.00  0.00    +0.000 H 
ATOM    113  H13 UNL A   1      41.941  39.697  30.091  1.00  0.00    +0.000 H 
ENDBRANCH   12   13
ENDBRANCH    6    7
ENDBRANCH    3    4
ENDBRANCH    2    3
ENDBRANCH   26    2
ENDBRANCH   28   26
ENDBRANCH   29   28
ENDBRANCH   30   29
ENDBRANCH   31   30
ENDBRANCH   32   31
ENDBRANCH   33   32
ENDBRANCH   34   33
ENDBRANCH   35   34
ENDBRANCH   36   35
ENDBRANCH   38   36
ENDBRANCH   42   41
BRANCH   46   47
ATOM     47  C34 UNL A   1      42.533  27.514  34.277  1.00  0.00    +0.000 C 
ATOM     48  C35 UNL A   1      43.081  26.255  33.963  1.00  0.00    +0.000 C 
ATOM     49  F1  UNL A   1      43.687  26.049  32.785  1.00  0.00    +0.000 F 
ATOM     50  C36 UNL A   1      42.961  25.163  34.829  1.00  0.00    +0.000 C 
ATOM     51  F2  UNL A   1      43.423  23.962  34.455  1.00  0.00    +0.000 F 
ATOM     52  C37 UNL A   1      42.321  25.301  36.048  1.00  0.00    +0.000 C 
ATOM     53  F3  UNL A   1      42.175  24.249  36.862  1.00  0.00    +0.000 F 
ATOM     54  C38 UNL A   1      41.792  26.528  36.400  1.00  0.00    +0.000 C 
ATOM     55  F4  UNL A   1      41.147  26.672  37.566  1.00  0.00    +0.000 F 
ATOM     56  C39 UNL A   1      41.870  27.606  35.519  1.00  0.00    +0.000 C 
ATOM     57  F5  UNL A   1      41.203  28.712  35.872  1.00  0.00    +0.000 F 
ENDBRANCH   46   47
BRANCH   63   64
ATOM     65  C46 UNL A   1      47.133  30.747  28.700  1.00  0.00    +0.000 C 
ATOM     66  F6  UNL A   1      48.151  30.122  29.307  1.00  0.00    +0.000 F 
ATOM     67  C47 UNL A   1      47.433  31.697  27.727  1.00  0.00    +0.000 C 
ATOM     68  F7  UNL A   1      48.711  32.017  27.471  1.00  0.00    +0.000 F 
ATOM     69  C48 UNL A   1      46.415  32.289  26.997  1.00  0.00    +0.000 C 
ATOM     70  F8  UNL A   1      46.705  33.171  26.030  1.00  0.00    +0.000 F 
ATOM     71  C49 UNL A   1      45.097  31.944  27.249  1.00  0.00    +0.000 C 
ATOM     72  F9  UNL A   1      44.113  32.476  26.509  1.00  0.00    +0.000 F 
ATOM     73  C50 UNL A   1      44.792  31.023  28.248  1.00  0.00    +0.000 C 
ATOM     74  F10 UNL A   1      43.507  30.689  28.447  1.00  0.00    +0.000 F 
ATOM     64  C45 UNL A   1      45.803  30.407  28.998  1.00  0.00    +0.000 C 
ENDBRANCH   63   64
BRANCH   78   79
ATOM     79  C54 UNL A   1      43.479  25.335  26.012  1.00  0.00    +0.000 C 
ATOM     80  C55 UNL A   1      44.589  25.055  25.202  1.00  0.00    +0.000 C 
ATOM     81  F11 UNL A   1      45.539  25.983  25.016  1.00  0.00    +0.000 F 
ATOM     82  C56 UNL A   1      44.773  23.794  24.625  1.00  0.00    +0.000 C 
ATOM     83  F12 UNL A   1      45.876  23.544  23.908  1.00  0.00    +0.000 F 
ATOM     84  C57 UNL A   1      43.847  22.786  24.834  1.00  0.00    +0.000 C 
ATOM     85  F13 UNL A   1      44.052  21.563  24.327  1.00  0.00    +0.000 F 
ATOM     86  C58 UNL A   1      42.730  23.037  25.607  1.00  0.00    +0.000 C 
ATOM     87  F14 UNL A   1      41.843  22.060  25.845  1.00  0.00    +0.000 F 
ATOM     88  C59 UNL A   1      42.551  24.289  26.193  1.00  0.00    +0.000 C 
ATOM     89  F15 UNL A   1      41.502  24.430  27.016  1.00  0.00    +0.000 F 
ENDBRANCH   78   79
TORSDOF 20
ENDMDL
MODEL 4
REMARK VINA RESULT:      -9.3     32.019     37.706
ROOT
ATOM    136  H36 UNL A   1      24.061  27.099   1.705  1.00  0.00    +0.000 H 
ATOM    137  H37 UNL A   1      23.416  24.727   2.730  1.00  0.00    +0.000 H 
ATOM    138  H38 UNL A   1      20.052  26.757   1.882  1.00  0.00    +0.000 H 
ATOM    139  H39 UNL A   1      19.567  20.978  -4.072  1.00  0.00    +0.000 H 
ATOM    140  H40 UNL A   1      21.845  21.952  -4.667  1.00  0.00    +0.000 H 
ATOM    141  H41 UNL A   1      20.350  24.160  -1.479  1.00  0.00    +0.000 H 
ATOM    142  H42 UNL A   1      17.190  24.973  -1.072  1.00  0.00    +0.000 H 
ATOM    143  H43 UNL A   1      18.565  25.887   0.904  1.00  0.00    +0.000 H 
ATOM    144  H44 UNL A   1      21.946  28.977  -2.725  1.00  0.00    +0.000 H 
ATOM    145  H45 UNL A   1      22.152  27.119  -4.486  1.00  0.00    +0.000 H 
ATOM     42  C30 UNL A   1      22.353  24.497  -3.369  1.00  0.00    +0.000 C 
ATOM     43  C31 UNL A   1      22.248  25.802  -2.642  1.00  0.00    +0.000 C 
ATOM     44  N9  UNL A   1      22.261  26.026  -1.364  1.00  0.00    +0.000 N 
ATOM     45  C32 UNL A   1      22.012  27.391  -1.206  1.00  0.00    +0.000 C 
ATOM     46  C33 UNL A   1      21.676  27.960  -0.015  1.00  0.00    +0.000 C 
ATOM     58  C40 UNL A   1      21.979  27.122   1.107  1.00  0.00    +0.000 C 
ATOM     59  C41 UNL A   1      23.138  26.640   1.680  1.00  0.00    +0.000 C 
ATOM     60  C42 UNL A   1      22.787  25.372   2.227  1.00  0.00    +0.000 C 
ATOM     61  C43 UNL A   1      21.434  25.164   1.955  1.00  0.00    +0.000 C 
ATOM     62  N10 UNL A   1      20.957  26.421   1.691  1.00  0.00    +0.000 N 
ATOM     63  C44 UNL A   1      20.664  23.958   1.768  1.00  0.00    +0.000 C 
ATOM     75  C51 UNL A   1      19.492  23.894   1.073  1.00  0.00    +0.000 C 
ATOM     76  N11 UNL A   1      19.105  22.723   0.440  1.00  0.00    +0.000 N 
ATOM     77  C52 UNL A   1      18.372  23.114  -0.567  1.00  0.00    +0.000 C 
ATOM     78  C53 UNL A   1      18.284  22.396  -1.860  1.00  0.00    +0.000 C 
ATOM     90  C60 UNL A   1      19.478  22.520  -2.485  1.00  0.00    +0.000 C 
ATOM     91  C61 UNL A   1      20.016  21.784  -3.610  1.00  0.00    +0.000 C 
ATOM     92  C62 UNL A   1      21.201  22.328  -3.953  1.00  0.00    +0.000 C 
ATOM     93  C63 UNL A   1      21.431  23.535  -3.157  1.00  0.00    +0.000 C 
ATOM     94  N12 UNL A   1      20.412  23.529  -2.232  1.00  0.00    +0.000 N 
ATOM     95  C64 UNL A   1      17.892  24.484  -0.494  1.00  0.00    +0.000 C 
ATOM     96  C65 UNL A   1      18.618  24.926   0.533  1.00  0.00    +0.000 C 
ATOM     97  C66 UNL A   1      22.021  27.967  -2.527  1.00  0.00    +0.000 C 
ATOM     98  C67 UNL A   1      22.140  27.021  -3.459  1.00  0.00    +0.000 C 
ENDROOT
BRANCH   42   41
ATOM     99  C68 UNL A   1      24.569  23.727  -4.219  1.00  0.00    +0.000 C 
ATOM    100  C69 UNL A   1      25.535  23.723  -5.221  1.00  0.00    +0.000 C 
ATOM     38  C26 UNL A   1      25.298  24.344  -6.461  1.00  0.00    +0.000 C 
ATOM     39  C27 UNL A   1      24.042  24.904  -6.692  1.00  0.00    +0.000 C 
ATOM    134  H34 UNL A   1      23.819  25.295  -7.622  1.00  0.00    +0.000 H 
ATOM     40  C28 UNL A   1      23.081  24.942  -5.680  1.00  0.00    +0.000 C 
ATOM    135  H35 UNL A   1      22.164  25.381  -5.856  1.00  0.00    +0.000 H 
ATOM     41  C29 UNL A   1      23.359  24.387  -4.430  1.00  0.00    +0.000 C 
ATOM    146  H46 UNL A   1      24.748  23.244  -3.326  1.00  0.00    +0.000 H 
ATOM    147  H47 UNL A   1      26.440  23.256  -5.052  1.00  0.00    +0.000 H 
BRANCH   38   36
ATOM     36  C25 UNL A   1      26.446  24.339  -7.412  1.00  0.00    +0.000 C 
ATOM     37  O3  UNL A   1      26.502  25.209  -8.270  1.00  0.00    +0.000 O 
BRANCH   36   35
ATOM     35  N8  UNL A   1      27.434  23.390  -7.436  1.00  0.00    +0.000 N 
ATOM    133  H33 UNL A   1      27.984  23.444  -8.251  1.00  0.00    +0.000 H 
BRANCH   35   34
ATOM     34  C24 UNL A   1      27.864  22.329  -6.552  1.00  0.00    +0.000 C 
ATOM    131  H31 UNL A   1      27.036  22.058  -5.931  1.00  0.00    +0.000 H 
ATOM    132  H32 UNL A   1      28.200  21.533  -7.182  1.00  0.00    +0.000 H 
BRANCH   34   33
ATOM     33  C23 UNL A   1      29.042  22.681  -5.644  1.00  0.00    +0.000 C 
ATOM    130  H30 UNL A   1      29.344  23.668  -5.928  1.00  0.00    +0.000 H 
ATOM    129  H29 UNL A   1      29.800  21.938  -5.785  1.00  0.00    +0.000 H 
BRANCH   33   32
ATOM    128  H28 UNL A   1      28.281  23.717  -3.998  1.00  0.00    +0.000 H 
ATOM    127  H27 UNL A   1      29.643  22.601  -3.613  1.00  0.00    +0.000 H 
ATOM     32  C22 UNL A   1      28.727  22.755  -4.145  1.00  0.00    +0.000 C 
BRANCH   32   31
ATOM    125  H25 UNL A   1      27.007  22.284  -2.990  1.00  0.00    +0.000 H 
ATOM    126  H26 UNL A   1      27.253  21.297  -4.466  1.00  0.00    +0.000 H 
ATOM     31  C21 UNL A   1      27.700  21.749  -3.606  1.00  0.00    +0.000 C 
BRANCH   31   30
ATOM    123  H23 UNL A   1      27.536  19.826  -2.715  1.00  0.00    +0.000 H 
ATOM    124  H24 UNL A   1      29.168  20.278  -3.274  1.00  0.00    +0.000 H 
ATOM     30  C20 UNL A   1      28.277  20.596  -2.776  1.00  0.00    +0.000 C 
BRANCH   30   29
ATOM    121  H21 UNL A   1      29.664  20.599  -1.160  1.00  0.00    +0.000 H 
ATOM    122  H22 UNL A   1      28.661  22.049  -1.284  1.00  0.00    +0.000 H 
ATOM     29  C19 UNL A   1      28.684  20.981  -1.353  1.00  0.00    +0.000 C 
BRANCH   29   28
ATOM     28  N7  UNL A   1      27.773  20.454  -0.357  1.00  0.00    +0.000 N 
ATOM    120  H20 UNL A   1      26.832  20.661  -0.556  1.00  0.00    +0.000 H 
BRANCH   28   26
ATOM     26  C18 UNL A   1      27.919  19.745   0.784  1.00  0.00    +0.000 C 
ATOM     27  O2  UNL A   1      28.368  18.596   0.623  1.00  0.00    +0.000 O 
BRANCH   26    2
ATOM      2  C1  UNL A   1      27.663  20.220   2.239  1.00  0.00    +0.000 C 
ATOM    104  H4  UNL A   1      28.465  19.734   2.754  1.00  0.00    +0.000 H 
BRANCH    2    1
ATOM      1  N1  UNL A   1      27.781  21.688   2.329  1.00  0.00    +0.000 N 
ATOM    101  H1  UNL A   1      28.758  21.959   2.210  1.00  0.00    +0.000 H 
ATOM    102  H2  UNL A   1      27.451  22.002   3.242  1.00  0.00    +0.000 H 
ATOM    103  H3  UNL A   1      27.217  22.121   1.598  1.00  0.00    +0.000 H 
ENDBRANCH    2    1
BRANCH    2    3
ATOM    105  H5  UNL A   1      26.174  18.794   2.579  1.00  0.00    +0.000 H 
ATOM    106  H6  UNL A   1      26.083  20.420   3.487  1.00  0.00    +0.000 H 
ATOM      3  C2  UNL A   1      26.636  19.563   3.161  1.00  0.00    +0.000 C 
BRANCH    3    4
ATOM      4  C3  UNL A   1      26.969  18.925   4.485  1.00  0.00    +0.000 C 
ATOM      5  C4  UNL A   1      25.960  18.576   5.373  1.00  0.00    +0.000 C 
ATOM      6  N2  UNL A   1      26.516  18.221   6.574  1.00  0.00    +0.000 N 
ATOM    107  H7  UNL A   1      24.950  18.584   5.161  1.00  0.00    +0.000 H 
ATOM     20  C12 UNL A   1      27.890  18.190   6.454  1.00  0.00    +0.000 C 
ATOM     21  C13 UNL A   1      28.874  17.848   7.402  1.00  0.00    +0.000 C 
ATOM    116  H16 UNL A   1      28.611  17.593   8.367  1.00  0.00    +0.000 H 
ATOM     23  C15 UNL A   1      30.557  18.201   5.710  1.00  0.00    +0.000 C 
ATOM     24  C16 UNL A   1      29.570  18.549   4.778  1.00  0.00    +0.000 C 
ATOM     25  C17 UNL A   1      28.203  18.556   5.134  1.00  0.00    +0.000 C 
ATOM    119  H19 UNL A   1      29.846  18.804   3.817  1.00  0.00    +0.000 H 
ATOM    118  H18 UNL A   1      31.550  18.198   5.427  1.00  0.00    +0.000 H 
ATOM     22  C14 UNL A   1      30.211  17.859   7.007  1.00  0.00    +0.000 C 
ATOM    117  H17 UNL A   1      30.947  17.612   7.686  1.00  0.00    +0.000 H 
BRANCH    6    7
ATOM      7  C5  UNL A   1      25.774  18.021   7.762  1.00  0.00    +0.000 C 
ATOM      8  N3  UNL A   1      25.188  16.839   7.913  1.00  0.00    +0.000 N 
ATOM      9  C6  UNL A   1      24.640  16.705   9.110  1.00  0.00    +0.000 C 
ATOM     10 Cl1  UNL A   1      23.896  15.199   9.423  1.00  0.00    +0.000 Cl
ATOM     11  N4  UNL A   1      24.565  17.609  10.074  1.00  0.00    +0.000 N 
ATOM     12  C7  UNL A   1      25.076  18.791   9.765  1.00  0.00    +0.000 C 
ATOM     19  N6  UNL A   1      25.753  19.023   8.645  1.00  0.00    +0.000 N 
BRANCH   12   13
ATOM    108  H8  UNL A   1      24.812  21.916  10.560  1.00  0.00    +0.000 H 
ATOM    109  H9  UNL A   1      25.930  21.103   9.462  1.00  0.00    +0.000 H 
ATOM     13  N5  UNL A   1      24.750  19.842  10.594  1.00  0.00    +0.000 N 
ATOM     14  C8  UNL A   1      25.490  21.097  10.437  1.00  0.00    +0.000 C 
ATOM     15  C9  UNL A   1      26.617  21.231  11.465  1.00  0.00    +0.000 C 
ATOM     17  C10 UNL A   1      25.563  19.723  12.935  1.00  0.00    +0.000 C 
ATOM     18  C11 UNL A   1      24.385  19.495  11.970  1.00  0.00    +0.000 C 
ATOM    114  H14 UNL A   1      24.101  18.463  12.006  1.00  0.00    +0.000 H 
ATOM    115  H15 UNL A   1      23.573  20.121  12.274  1.00  0.00    +0.000 H 
ATOM    110  H10 UNL A   1      27.047  22.209  11.388  1.00  0.00    +0.000 H 
ATOM    111  H11 UNL A   1      27.353  20.481  11.263  1.00  0.00    +0.000 H 
ATOM     16  O1  UNL A   1      26.121  21.040  12.799  1.00  0.00    +0.000 O 
ATOM    112  H12 UNL A   1      25.217  19.597  13.940  1.00  0.00    +0.000 H 
ATOM    113  H13 UNL A   1      26.328  19.013  12.698  1.00  0.00    +0.000 H 
ENDBRANCH   12   13
ENDBRANCH    6    7
ENDBRANCH    3    4
ENDBRANCH    2    3
ENDBRANCH   26    2
ENDBRANCH   28   26
ENDBRANCH   29   28
ENDBRANCH   30   29
ENDBRANCH   31   30
ENDBRANCH   32   31
ENDBRANCH   33   32
ENDBRANCH   34   33
ENDBRANCH   35   34
ENDBRANCH   36   35
ENDBRANCH   38   36
ENDBRANCH   42   41
BRANCH   46   47
ATOM     47  C34 UNL A   1      20.848  29.207   0.127  1.00  0.00    +0.000 C 
ATOM     48  C35 UNL A   1      19.472  29.127   0.416  1.00  0.00    +0.000 C 
ATOM     49  F1  UNL A   1      18.912  27.955   0.750  1.00  0.00    +0.000 F 
ATOM     50  C36 UNL A   1      18.630  30.239   0.306  1.00  0.00    +0.000 C 
ATOM     51  F2  UNL A   1      17.313  30.101   0.510  1.00  0.00    +0.000 F 
ATOM     52  C37 UNL A   1      19.140  31.471  -0.062  1.00  0.00    +0.000 C 
ATOM     53  F3  UNL A   1      18.330  32.529  -0.201  1.00  0.00    +0.000 F 
ATOM     54  C38 UNL A   1      20.490  31.593  -0.330  1.00  0.00    +0.000 C 
ATOM     55  F4  UNL A   1      20.995  32.774  -0.712  1.00  0.00    +0.000 F 
ATOM     56  C39 UNL A   1      21.322  30.477  -0.265  1.00  0.00    +0.000 C 
ATOM     57  F5  UNL A   1      22.583  30.649  -0.685  1.00  0.00    +0.000 F 
ENDBRANCH   46   47
BRANCH   63   64
ATOM     65  C46 UNL A   1      22.214  22.010   1.187  1.00  0.00    +0.000 C 
ATOM     66  F6  UNL A   1      22.429  22.508  -0.038  1.00  0.00    +0.000 F 
ATOM     67  C47 UNL A   1      22.911  20.864   1.561  1.00  0.00    +0.000 C 
ATOM     68  F7  UNL A   1      23.715  20.248   0.681  1.00  0.00    +0.000 F 
ATOM     69  C48 UNL A   1      22.804  20.376   2.853  1.00  0.00    +0.000 C 
ATOM     70  F8  UNL A   1      23.509  19.298   3.228  1.00  0.00    +0.000 F 
ATOM     71  C49 UNL A   1      21.988  21.023   3.768  1.00  0.00    +0.000 C 
ATOM     72  F9  UNL A   1      21.922  20.585   5.034  1.00  0.00    +0.000 F 
ATOM     73  C50 UNL A   1      21.260  22.147   3.386  1.00  0.00    +0.000 C 
ATOM     74  F10 UNL A   1      20.502  22.768   4.303  1.00  0.00    +0.000 F 
ATOM     64  C45 UNL A   1      21.353  22.663   2.086  1.00  0.00    +0.000 C 
ENDBRANCH   63   64
BRANCH   78   79
ATOM     79  C54 UNL A   1      16.996  21.964  -2.449  1.00  0.00    +0.000 C 
ATOM     80  C55 UNL A   1      16.309  20.850  -1.945  1.00  0.00    +0.000 C 
ATOM     81  F11 UNL A   1      16.899  20.040  -1.054  1.00  0.00    +0.000 F 
ATOM     82  C56 UNL A   1      14.981  20.590  -2.297  1.00  0.00    +0.000 C 
ATOM     83  F12 UNL A   1      14.336  19.552  -1.748  1.00  0.00    +0.000 F 
ATOM     84  C57 UNL A   1      14.309  21.430  -3.170  1.00  0.00    +0.000 C 
ATOM     85  F13 UNL A   1      13.020  21.212  -3.464  1.00  0.00    +0.000 F 
ATOM     86  C58 UNL A   1      14.967  22.522  -3.703  1.00  0.00    +0.000 C 
ATOM     87  F14 UNL A   1      14.318  23.362  -4.524  1.00  0.00    +0.000 F 
ATOM     88  C59 UNL A   1      16.286  22.789  -3.344  1.00  0.00    +0.000 C 
ATOM     89  F15 UNL A   1      16.826  23.922  -3.815  1.00  0.00    +0.000 F 
ENDBRANCH   78   79
TORSDOF 20
ENDMDL
MODEL 5
REMARK VINA RESULT:      -9.2     30.037     35.619
ROOT
ATOM    136  H36 UNL A   1      24.988  20.448   9.526  1.00  0.00    +0.000 H 
ATOM    137  H37 UNL A   1      26.738  19.409   7.809  1.00  0.00    +0.000 H 
ATOM    138  H38 UNL A   1      25.300  16.482  10.159  1.00  0.00    +0.000 H 
ATOM    139  H39 UNL A   1      21.569  14.330   3.051  1.00  0.00    +0.000 H 
ATOM    140  H40 UNL A   1      20.670  16.706   3.253  1.00  0.00    +0.000 H 
ATOM    141  H41 UNL A   1      22.971  15.963   6.633  1.00  0.00    +0.000 H 
ATOM    142  H42 UNL A   1      23.115  13.084   8.214  1.00  0.00    +0.000 H 
ATOM    143  H43 UNL A   1      24.672  14.774   9.379  1.00  0.00    +0.000 H 
ATOM    144  H44 UNL A   1      20.204  18.419  10.323  1.00  0.00    +0.000 H 
ATOM    145  H45 UNL A   1      19.146  18.093   8.005  1.00  0.00    +0.000 H 
ATOM     42  C30 UNL A   1      21.058  17.834   5.898  1.00  0.00    +0.000 C 
ATOM     43  C31 UNL A   1      21.319  18.061   7.355  1.00  0.00    +0.000 C 
ATOM     44  N9  UNL A   1      22.453  18.223   7.964  1.00  0.00    +0.000 N 
ATOM     45  C32 UNL A   1      22.158  18.276   9.328  1.00  0.00    +0.000 C 
ATOM     46  C33 UNL A   1      23.100  18.163  10.305  1.00  0.00    +0.000 C 
ATOM     58  C40 UNL A   1      24.432  18.375   9.821  1.00  0.00    +0.000 C 
ATOM     59  C41 UNL A   1      25.121  19.450   9.301  1.00  0.00    +0.000 C 
ATOM     60  C42 UNL A   1      26.057  18.889   8.384  1.00  0.00    +0.000 C 
ATOM     61  C43 UNL A   1      25.878  17.505   8.407  1.00  0.00    +0.000 C 
ATOM     62  N10 UNL A   1      25.221  17.280   9.588  1.00  0.00    +0.000 N 
ATOM     63  C44 UNL A   1      26.103  16.488   7.408  1.00  0.00    +0.000 C 
ATOM     75  C51 UNL A   1      25.477  15.277   7.388  1.00  0.00    +0.000 C 
ATOM     76  N11 UNL A   1      25.265  14.605   6.194  1.00  0.00    +0.000 N 
ATOM     77  C52 UNL A   1      24.192  13.891   6.398  1.00  0.00    +0.000 C 
ATOM     78  C53 UNL A   1      23.205  13.552   5.345  1.00  0.00    +0.000 C 
ATOM     90  C60 UNL A   1      22.565  14.692   4.996  1.00  0.00    +0.000 C 
ATOM     91  C61 UNL A   1      21.738  14.972   3.841  1.00  0.00    +0.000 C 
ATOM     92  C62 UNL A   1      21.226  16.213   3.969  1.00  0.00    +0.000 C 
ATOM     93  C63 UNL A   1      21.581  16.753   5.284  1.00  0.00    +0.000 C 
ATOM     94  N12 UNL A   1      22.466  15.832   5.798  1.00  0.00    +0.000 N 
ATOM     95  C64 UNL A   1      23.816  13.713   7.791  1.00  0.00    +0.000 C 
ATOM     96  C65 UNL A   1      24.636  14.595   8.363  1.00  0.00    +0.000 C 
ATOM     97  C66 UNL A   1      20.721  18.299   9.437  1.00  0.00    +0.000 C 
ATOM     98  C67 UNL A   1      20.149  18.143   8.243  1.00  0.00    +0.000 C 
ENDROOT
BRANCH   42   41
ATOM     99  C68 UNL A   1      20.468  19.909   4.643  1.00  0.00    +0.000 C 
ATOM    100  C69 UNL A   1      19.501  20.752   4.105  1.00  0.00    +0.000 C 
ATOM     38  C26 UNL A   1      18.140  20.396   4.116  1.00  0.00    +0.000 C 
ATOM     39  C27 UNL A   1      17.787  19.141   4.614  1.00  0.00    +0.000 C 
ATOM    134  H34 UNL A   1      16.805  18.827   4.559  1.00  0.00    +0.000 H 
ATOM     40  C28 UNL A   1      18.748  18.306   5.186  1.00  0.00    +0.000 C 
ATOM    135  H35 UNL A   1      18.470  17.391   5.573  1.00  0.00    +0.000 H 
ATOM     41  C29 UNL A   1      20.084  18.706   5.236  1.00  0.00    +0.000 C 
ATOM    146  H46 UNL A   1      21.465  20.172   4.604  1.00  0.00    +0.000 H 
ATOM    147  H47 UNL A   1      19.786  21.654   3.692  1.00  0.00    +0.000 H 
BRANCH   38   36
ATOM     36  C25 UNL A   1      17.202  21.426   3.584  1.00  0.00    +0.000 C 
ATOM     37  O3  UNL A   1      17.409  21.890   2.471  1.00  0.00    +0.000 O 
BRANCH   36   35
ATOM     35  N8  UNL A   1      16.138  21.941   4.275  1.00  0.00    +0.000 N 
ATOM    133  H33 UNL A   1      16.301  22.862   4.582  1.00  0.00    +0.000 H 
BRANCH   35   34
ATOM     34  C24 UNL A   1      14.830  21.457   4.662  1.00  0.00    +0.000 C 
ATOM    131  H31 UNL A   1      14.095  22.086   4.205  1.00  0.00    +0.000 H 
ATOM    132  H32 UNL A   1      14.780  20.440   4.336  1.00  0.00    +0.000 H 
BRANCH   34   33
ATOM     33  C23 UNL A   1      14.568  21.437   6.168  1.00  0.00    +0.000 C 
ATOM    130  H30 UNL A   1      13.529  21.207   6.279  1.00  0.00    +0.000 H 
ATOM    129  H29 UNL A   1      14.846  22.392   6.563  1.00  0.00    +0.000 H 
BRANCH   33   32
ATOM    128  H28 UNL A   1      15.680  19.671   6.225  1.00  0.00    +0.000 H 
ATOM    127  H27 UNL A   1      14.640  19.945   7.670  1.00  0.00    +0.000 H 
ATOM     32  C22 UNL A   1      15.322  20.362   6.959  1.00  0.00    +0.000 C 
BRANCH   32   31
ATOM    125  H25 UNL A   1      17.349  20.996   7.011  1.00  0.00    +0.000 H 
ATOM    126  H26 UNL A   1      16.279  21.692   8.270  1.00  0.00    +0.000 H 
ATOM     31  C21 UNL A   1      16.571  20.819   7.725  1.00  0.00    +0.000 C 
BRANCH   31   30
ATOM    123  H23 UNL A   1      16.695  18.866   8.557  1.00  0.00    +0.000 H 
ATOM    124  H24 UNL A   1      18.171  19.856   8.695  1.00  0.00    +0.000 H 
ATOM     30  C20 UNL A   1      17.105  19.831   8.769  1.00  0.00    +0.000 C 
BRANCH   30   29
ATOM    121  H21 UNL A   1      17.614  20.001  10.831  1.00  0.00    +0.000 H 
ATOM    122  H22 UNL A   1      16.482  21.223  10.239  1.00  0.00    +0.000 H 
ATOM     29  C19 UNL A   1      16.759  20.189  10.216  1.00  0.00    +0.000 C 
BRANCH   29   28
ATOM     28  N7  UNL A   1      15.641  19.420  10.722  1.00  0.00    +0.000 N 
ATOM    120  H20 UNL A   1      14.827  19.961  10.833  1.00  0.00    +0.000 H 
BRANCH   28   26
ATOM     26  C18 UNL A   1      15.459  18.129  11.079  1.00  0.00    +0.000 C 
ATOM     27  O2  UNL A   1      15.371  17.940  12.305  1.00  0.00    +0.000 O 
BRANCH   26    2
ATOM      2  C1  UNL A   1      15.282  16.901  10.147  1.00  0.00    +0.000 C 
ATOM    104  H4  UNL A   1      16.292  16.741   9.831  1.00  0.00    +0.000 H 
BRANCH    2    1
ATOM      1  N1  UNL A   1      14.770  15.746  10.909  1.00  0.00    +0.000 N 
ATOM    101  H1  UNL A   1      13.751  15.729  10.859  1.00  0.00    +0.000 H 
ATOM    102  H2  UNL A   1      15.060  15.825  11.884  1.00  0.00    +0.000 H 
ATOM    103  H3  UNL A   1      15.144  14.884  10.514  1.00  0.00    +0.000 H 
ENDBRANCH    2    1
BRANCH    2    3
ATOM    105  H5  UNL A   1      14.683  18.063   8.517  1.00  0.00    +0.000 H 
ATOM    106  H6  UNL A   1      13.985  16.344   8.697  1.00  0.00    +0.000 H 
ATOM      3  C2  UNL A   1      14.817  17.017   8.695  1.00  0.00    +0.000 C 
BRANCH    3    4
ATOM      4  C3  UNL A   1      15.592  16.500   7.511  1.00  0.00    +0.000 C 
ATOM      5  C4  UNL A   1      15.075  16.612   6.227  1.00  0.00    +0.000 C 
ATOM      6  N2  UNL A   1      15.851  15.887   5.361  1.00  0.00    +0.000 N 
ATOM    107  H7  UNL A   1      14.237  17.156   5.967  1.00  0.00    +0.000 H 
ATOM     20  C12 UNL A   1      16.961  15.410   6.027  1.00  0.00    +0.000 C 
ATOM     21  C13 UNL A   1      18.048  14.653   5.549  1.00  0.00    +0.000 C 
ATOM    116  H16 UNL A   1      18.083  14.345   4.564  1.00  0.00    +0.000 H 
ATOM     23  C15 UNL A   1      19.024  14.750   7.753  1.00  0.00    +0.000 C 
ATOM     24  C16 UNL A   1      17.933  15.495   8.221  1.00  0.00    +0.000 C 
ATOM     25  C17 UNL A   1      16.865  15.840   7.362  1.00  0.00    +0.000 C 
ATOM    119  H19 UNL A   1      17.908  15.795   9.208  1.00  0.00    +0.000 H 
ATOM    118  H18 UNL A   1      19.794  14.512   8.397  1.00  0.00    +0.000 H 
ATOM     22  C14 UNL A   1      19.076  14.331   6.433  1.00  0.00    +0.000 C 
ATOM    117  H17 UNL A   1      19.881  13.777   6.103  1.00  0.00    +0.000 H 
BRANCH    6    7
ATOM      7  C5  UNL A   1      15.491  15.603   4.023  1.00  0.00    +0.000 C 
ATOM      8  N3  UNL A   1      14.652  14.592   3.827  1.00  0.00    +0.000 N 
ATOM      9  C6  UNL A   1      14.273  14.498   2.563  1.00  0.00    +0.000 C 
ATOM     10 Cl1  UNL A   1      13.156  13.254   2.212  1.00  0.00    +0.000 Cl
ATOM     11  N4  UNL A   1      14.684  15.224   1.536  1.00  0.00    +0.000 N 
ATOM     12  C7  UNL A   1      15.613  16.122   1.830  1.00  0.00    +0.000 C 
ATOM     19  N6  UNL A   1      15.997  16.395   3.073  1.00  0.00    +0.000 N 
BRANCH   12   13
ATOM    108  H8  UNL A   1      18.029  17.770   0.446  1.00  0.00    +0.000 H 
ATOM    109  H9  UNL A   1      17.358  17.871   2.076  1.00  0.00    +0.000 H 
ATOM     13  N5  UNL A   1      16.294  16.678   0.770  1.00  0.00    +0.000 N 
ATOM     14  C8  UNL A   1      17.136  17.849   1.030  1.00  0.00    +0.000 C 
ATOM     15  C9  UNL A   1      16.426  19.158   0.670  1.00  0.00    +0.000 C 
ATOM     17  C10 UNL A   1      14.975  18.053  -0.820  1.00  0.00    +0.000 C 
ATOM     18  C11 UNL A   1      15.599  16.677  -0.521  1.00  0.00    +0.000 C 
ATOM    114  H14 UNL A   1      14.823  15.941  -0.499  1.00  0.00    +0.000 H 
ATOM    115  H15 UNL A   1      16.310  16.455  -1.289  1.00  0.00    +0.000 H 
ATOM    110  H10 UNL A   1      17.118  19.969   0.764  1.00  0.00    +0.000 H 
ATOM    111  H11 UNL A   1      15.600  19.291   1.336  1.00  0.00    +0.000 H 
ATOM     16  O1  UNL A   1      15.927  19.118  -0.676  1.00  0.00    +0.000 O 
ATOM    112  H12 UNL A   1      14.604  18.054  -1.824  1.00  0.00    +0.000 H 
ATOM    113  H13 UNL A   1      14.185  18.218  -0.117  1.00  0.00    +0.000 H 
ENDBRANCH   12   13
ENDBRANCH    6    7
ENDBRANCH    3    4
ENDBRANCH    2    3
ENDBRANCH   26    2
ENDBRANCH   28   26
ENDBRANCH   29   28
ENDBRANCH   30   29
ENDBRANCH   31   30
ENDBRANCH   32   31
ENDBRANCH   33   32
ENDBRANCH   34   33
ENDBRANCH   35   34
ENDBRANCH   36   35
ENDBRANCH   38   36
ENDBRANCH   42   41
BRANCH   46   47
ATOM     47  C34 UNL A   1      22.833  17.626  11.684  1.00  0.00    +0.000 C 
ATOM     48  C35 UNL A   1      22.497  18.495  12.741  1.00  0.00    +0.000 C 
ATOM     49  F1  UNL A   1      22.229  19.787  12.502  1.00  0.00    +0.000 F 
ATOM     50  C36 UNL A   1      22.490  18.067  14.072  1.00  0.00    +0.000 C 
ATOM     51  F2  UNL A   1      22.246  18.946  15.053  1.00  0.00    +0.000 F 
ATOM     52  C37 UNL A   1      22.785  16.753  14.388  1.00  0.00    +0.000 C 
ATOM     53  F3  UNL A   1      22.814  16.351  15.665  1.00  0.00    +0.000 F 
ATOM     54  C38 UNL A   1      23.097  15.866  13.376  1.00  0.00    +0.000 C 
ATOM     55  F4  UNL A   1      23.410  14.596  13.668  1.00  0.00    +0.000 F 
ATOM     56  C39 UNL A   1      23.148  16.301  12.053  1.00  0.00    +0.000 C 
ATOM     57  F5  UNL A   1      23.604  15.419  11.153  1.00  0.00    +0.000 F 
ENDBRANCH   46   47
BRANCH   63   64
ATOM     65  C46 UNL A   1      26.192  17.603   5.109  1.00  0.00    +0.000 C 
ATOM     66  F6  UNL A   1      24.880  17.875   5.157  1.00  0.00    +0.000 F 
ATOM     67  C47 UNL A   1      26.919  18.071   4.016  1.00  0.00    +0.000 C 
ATOM     68  F7  UNL A   1      26.293  18.710   3.016  1.00  0.00    +0.000 F 
ATOM     69  C48 UNL A   1      28.294  17.908   3.977  1.00  0.00    +0.000 C 
ATOM     70  F8  UNL A   1      29.001  18.397   2.947  1.00  0.00    +0.000 F 
ATOM     71  C49 UNL A   1      28.942  17.265   5.019  1.00  0.00    +0.000 C 
ATOM     72  F9  UNL A   1      30.278  17.152   5.009  1.00  0.00    +0.000 F 
ATOM     73  C50 UNL A   1      28.213  16.763   6.094  1.00  0.00    +0.000 C 
ATOM     74  F10 UNL A   1      28.874  16.171   7.101  1.00  0.00    +0.000 F 
ATOM     64  C45 UNL A   1      26.822  16.917   6.161  1.00  0.00    +0.000 C 
ENDBRANCH   63   64
BRANCH   78   79
ATOM     79  C54 UNL A   1      22.801  12.160   5.047  1.00  0.00    +0.000 C 
ATOM     80  C55 UNL A   1      21.732  11.556   5.726  1.00  0.00    +0.000 C 
ATOM     81  F11 UNL A   1      21.186  12.157   6.793  1.00  0.00    +0.000 F 
ATOM     82  C56 UNL A   1      21.164  10.359   5.278  1.00  0.00    +0.000 C 
ATOM     83  F12 UNL A   1      20.105   9.844   5.916  1.00  0.00    +0.000 F 
ATOM     84  C57 UNL A   1      21.657   9.729   4.147  1.00  0.00    +0.000 C 
ATOM     85  F13 UNL A   1      21.077   8.612   3.687  1.00  0.00    +0.000 F 
ATOM     86  C58 UNL A   1      22.725  10.285   3.470  1.00  0.00    +0.000 C 
ATOM     87  F14 UNL A   1      23.190   9.703   2.355  1.00  0.00    +0.000 F 
ATOM     88  C59 UNL A   1      23.284  11.485   3.908  1.00  0.00    +0.000 C 
ATOM     89  F15 UNL A   1      24.246  12.021   3.143  1.00  0.00    +0.000 F 
ENDBRANCH   78   79
TORSDOF 20
ENDMDL
MODEL 6
REMARK VINA RESULT:      -9.2     32.337     38.095
ROOT
ATOM    136  H36 UNL A   1      23.324  27.772   1.423  1.00  0.00    +0.000 H 
ATOM    137  H37 UNL A   1      23.048  25.419   2.638  1.00  0.00    +0.000 H 
ATOM    138  H38 UNL A   1      19.413  26.841   1.677  1.00  0.00    +0.000 H 
ATOM    139  H39 UNL A   1      19.810  20.606  -3.805  1.00  0.00    +0.000 H 
ATOM    140  H40 UNL A   1      21.914  21.864  -4.501  1.00  0.00    +0.000 H 
ATOM    141  H41 UNL A   1      20.101  24.064  -1.477  1.00  0.00    +0.000 H 
ATOM    142  H42 UNL A   1      16.855  24.417  -1.095  1.00  0.00    +0.000 H 
ATOM    143  H43 UNL A   1      18.076  25.682   0.788  1.00  0.00    +0.000 H 
ATOM    144  H44 UNL A   1      20.945  28.954  -3.113  1.00  0.00    +0.000 H 
ATOM    145  H45 UNL A   1      21.431  27.016  -4.727  1.00  0.00    +0.000 H 
ATOM     42  C30 UNL A   1      22.029  24.551  -3.412  1.00  0.00    +0.000 C 
ATOM     43  C31 UNL A   1      21.727  25.878  -2.787  1.00  0.00    +0.000 C 
ATOM     44  N9  UNL A   1      21.707  26.201  -1.531  1.00  0.00    +0.000 N 
ATOM     45  C32 UNL A   1      21.252  27.520  -1.476  1.00  0.00    +0.000 C 
ATOM     46  C33 UNL A   1      20.834  28.124  -0.329  1.00  0.00    +0.000 C 
ATOM     58  C40 UNL A   1      21.263  27.433   0.851  1.00  0.00    +0.000 C 
ATOM     59  C41 UNL A   1      22.482  27.178   1.445  1.00  0.00    +0.000 C 
ATOM     60  C42 UNL A   1      22.328  25.919   2.094  1.00  0.00    +0.000 C 
ATOM     61  C43 UNL A   1      21.022  25.487   1.855  1.00  0.00    +0.000 C 
ATOM     62  N10 UNL A   1      20.359  26.633   1.500  1.00  0.00    +0.000 N 
ATOM     63  C44 UNL A   1      20.444  24.168   1.773  1.00  0.00    +0.000 C 
ATOM     75  C51 UNL A   1      19.296  23.872   1.099  1.00  0.00    +0.000 C 
ATOM     76  N11 UNL A   1      19.091  22.610   0.564  1.00  0.00    +0.000 N 
ATOM     77  C52 UNL A   1      18.307  22.805  -0.461  1.00  0.00    +0.000 C 
ATOM     78  C53 UNL A   1      18.328  21.982  -1.694  1.00  0.00    +0.000 C 
ATOM     90  C60 UNL A   1      19.489  22.236  -2.341  1.00  0.00    +0.000 C 
ATOM     91  C61 UNL A   1      20.132  21.504  -3.412  1.00  0.00    +0.000 C 
ATOM     92  C62 UNL A   1      21.220  22.193  -3.812  1.00  0.00    +0.000 C 
ATOM     93  C63 UNL A   1      21.264  23.480  -3.114  1.00  0.00    +0.000 C 
ATOM     94  N12 UNL A   1      20.259  23.392  -2.179  1.00  0.00    +0.000 N 
ATOM     95  C64 UNL A   1      17.623  24.087  -0.489  1.00  0.00    +0.000 C 
ATOM     96  C65 UNL A   1      18.274  24.714   0.492  1.00  0.00    +0.000 C 
ATOM     97  C66 UNL A   1      21.173  27.985  -2.838  1.00  0.00    +0.000 C 
ATOM     98  C67 UNL A   1      21.434  26.999  -3.695  1.00  0.00    +0.000 C 
ENDROOT
BRANCH   42   41
ATOM     99  C68 UNL A   1      24.384  24.273  -4.190  1.00  0.00    +0.000 C 
ATOM    100  C69 UNL A   1      25.325  24.334  -5.213  1.00  0.00    +0.000 C 
ATOM     38  C26 UNL A   1      24.939  24.597  -6.540  1.00  0.00    +0.000 C 
ATOM     39  C27 UNL A   1      23.579  24.725  -6.822  1.00  0.00    +0.000 C 
ATOM    134  H34 UNL A   1      23.268  24.839  -7.800  1.00  0.00    +0.000 H 
ATOM     40  C28 UNL A   1      22.633  24.698  -5.795  1.00  0.00    +0.000 C 
ATOM    135  H35 UNL A   1      21.632  24.819  -6.014  1.00  0.00    +0.000 H 
ATOM     41  C29 UNL A   1      23.039  24.511  -4.473  1.00  0.00    +0.000 C 
ATOM    146  H46 UNL A   1      24.679  24.053  -3.227  1.00  0.00    +0.000 H 
ATOM    147  H47 UNL A   1      26.322  24.184  -4.995  1.00  0.00    +0.000 H 
BRANCH   38   36
ATOM     36  C25 UNL A   1      26.055  24.718  -7.521  1.00  0.00    +0.000 C 
ATOM     37  O3  UNL A   1      25.965  25.552  -8.413  1.00  0.00    +0.000 O 
BRANCH   36   35
ATOM     35  N8  UNL A   1      27.169  23.922  -7.537  1.00  0.00    +0.000 N 
ATOM    133  H33 UNL A   1      27.918  24.337  -8.024  1.00  0.00    +0.000 H 
BRANCH   35   34
ATOM     34  C24 UNL A   1      27.511  22.619  -7.010  1.00  0.00    +0.000 C 
ATOM    131  H31 UNL A   1      26.671  22.254  -6.457  1.00  0.00    +0.000 H 
ATOM    132  H32 UNL A   1      27.760  22.011  -7.854  1.00  0.00    +0.000 H 
BRANCH   34   33
ATOM     33  C23 UNL A   1      28.732  22.593  -6.091  1.00  0.00    +0.000 C 
ATOM    130  H30 UNL A   1      29.341  23.420  -6.392  1.00  0.00    +0.000 H 
ATOM    129  H29 UNL A   1      29.207  21.641  -6.202  1.00  0.00    +0.000 H 
BRANCH   33   32
ATOM    128  H28 UNL A   1      28.041  23.795  -4.529  1.00  0.00    +0.000 H 
ATOM    127  H27 UNL A   1      29.362  22.660  -4.068  1.00  0.00    +0.000 H 
ATOM     32  C22 UNL A   1      28.445  22.806  -4.599  1.00  0.00    +0.000 C 
BRANCH   32   31
ATOM    125  H25 UNL A   1      26.817  22.481  -3.273  1.00  0.00    +0.000 H 
ATOM    126  H26 UNL A   1      26.811  21.501  -4.775  1.00  0.00    +0.000 H 
ATOM     31  C21 UNL A   1      27.387  21.893  -3.963  1.00  0.00    +0.000 C 
BRANCH   31   30
ATOM    123  H23 UNL A   1      27.123  19.994  -3.046  1.00  0.00    +0.000 H 
ATOM    124  H24 UNL A   1      28.710  20.264  -3.815  1.00  0.00    +0.000 H 
ATOM     30  C20 UNL A   1      27.932  20.676  -3.208  1.00  0.00    +0.000 C 
BRANCH   30   29
ATOM    121  H21 UNL A   1      29.485  20.467  -1.765  1.00  0.00    +0.000 H 
ATOM    122  H22 UNL A   1      28.717  22.059  -1.809  1.00  0.00    +0.000 H 
ATOM     29  C19 UNL A   1      28.562  21.001  -1.852  1.00  0.00    +0.000 C 
BRANCH   29   28
ATOM     28  N7  UNL A   1      27.704  20.634  -0.743  1.00  0.00    +0.000 N 
ATOM    120  H20 UNL A   1      26.766  20.892  -0.888  1.00  0.00    +0.000 H 
BRANCH   28   26
ATOM     26  C18 UNL A   1      27.897  20.020   0.445  1.00  0.00    +0.000 C 
ATOM     27  O2  UNL A   1      28.256  18.832   0.359  1.00  0.00    +0.000 O 
BRANCH   26    2
ATOM      2  C1  UNL A   1      27.791  20.640   1.864  1.00  0.00    +0.000 C 
ATOM    104  H4  UNL A   1      28.589  20.131   2.365  1.00  0.00    +0.000 H 
BRANCH    2    1
ATOM      1  N1  UNL A   1      28.035  22.095   1.809  1.00  0.00    +0.000 N 
ATOM    101  H1  UNL A   1      27.202  22.591   2.126  1.00  0.00    +0.000 H 
ATOM    102  H2  UNL A   1      28.249  22.368   0.850  1.00  0.00    +0.000 H 
ATOM    103  H3  UNL A   1      28.821  22.331   2.413  1.00  0.00    +0.000 H 
ENDBRANCH    2    1
BRANCH    2    3
ATOM    105  H5  UNL A   1      26.011  19.666   2.364  1.00  0.00    +0.000 H 
ATOM    106  H6  UNL A   1      26.602  21.067   3.444  1.00  0.00    +0.000 H 
ATOM      3  C2  UNL A   1      26.788  20.157   2.911  1.00  0.00    +0.000 C 
BRANCH    3    4
ATOM      4  C3  UNL A   1      27.129  19.231   4.051  1.00  0.00    +0.000 C 
ATOM      5  C4  UNL A   1      26.456  19.327   5.262  1.00  0.00    +0.000 C 
ATOM      6  N2  UNL A   1      27.083  18.540   6.191  1.00  0.00    +0.000 N 
ATOM    107  H7  UNL A   1      25.616  19.902   5.433  1.00  0.00    +0.000 H 
ATOM     20  C12 UNL A   1      28.080  17.809   5.579  1.00  0.00    +0.000 C 
ATOM     21  C13 UNL A   1      28.958  16.848   6.116  1.00  0.00    +0.000 C 
ATOM    116  H16 UNL A   1      28.935  16.616   7.122  1.00  0.00    +0.000 H 
ATOM     23  C15 UNL A   1      29.885  16.533   3.911  1.00  0.00    +0.000 C 
ATOM     24  C16 UNL A   1      29.012  17.497   3.389  1.00  0.00    +0.000 C 
ATOM     25  C17 UNL A   1      28.086  18.167   4.220  1.00  0.00    +0.000 C 
ATOM    119  H19 UNL A   1      29.047  17.723   2.383  1.00  0.00    +0.000 H 
ATOM    118  H18 UNL A   1      30.551  16.054   3.285  1.00  0.00    +0.000 H 
ATOM     22  C14 UNL A   1      29.859  16.217   5.260  1.00  0.00    +0.000 C 
ATOM    117  H17 UNL A   1      30.512  15.511   5.634  1.00  0.00    +0.000 H 
BRANCH    6    7
ATOM      7  C5  UNL A   1      26.797  18.570   7.576  1.00  0.00    +0.000 C 
ATOM      8  N3  UNL A   1      27.687  19.166   8.362  1.00  0.00    +0.000 N 
ATOM      9  C6  UNL A   1      27.263  19.261   9.611  1.00  0.00    +0.000 C 
ATOM     10 Cl1  UNL A   1      28.319  20.054  10.696  1.00  0.00    +0.000 Cl
ATOM     11  N4  UNL A   1      26.142  18.784  10.127  1.00  0.00    +0.000 N 
ATOM     12  C7  UNL A   1      25.388  18.102   9.276  1.00  0.00    +0.000 C 
ATOM     19  N6  UNL A   1      25.642  18.028   7.974  1.00  0.00    +0.000 N 
BRANCH   12   13
ATOM    108  H8  UNL A   1      23.980  15.317  10.128  1.00  0.00    +0.000 H 
ATOM    109  H9  UNL A   1      25.129  15.673   8.836  1.00  0.00    +0.000 H 
ATOM     13  N5  UNL A   1      24.387  17.329   9.821  1.00  0.00    +0.000 N 
ATOM     14  C8  UNL A   1      24.216  15.965   9.310  1.00  0.00    +0.000 C 
ATOM     15  C9  UNL A   1      23.095  15.878   8.271  1.00  0.00    +0.000 C 
ATOM     17  C10 UNL A   1      22.064  17.825   9.103  1.00  0.00    +0.000 C 
ATOM     18  C11 UNL A   1      23.148  18.026  10.178  1.00  0.00    +0.000 C 
ATOM    114  H14 UNL A   1      23.352  19.072  10.274  1.00  0.00    +0.000 H 
ATOM    115  H15 UNL A   1      22.787  17.624  11.101  1.00  0.00    +0.000 H 
ATOM    110  H10 UNL A   1      22.930  14.850   8.020  1.00  0.00    +0.000 H 
ATOM    111  H11 UNL A   1      23.389  16.433   7.405  1.00  0.00    +0.000 H 
ATOM     16  O1  UNL A   1      21.875  16.437   8.783  1.00  0.00    +0.000 O 
ATOM    112  H12 UNL A   1      21.140  18.225   9.464  1.00  0.00    +0.000 H 
ATOM    113  H13 UNL A   1      22.382  18.329   8.214  1.00  0.00    +0.000 H 
ENDBRANCH   12   13
ENDBRANCH    6    7
ENDBRANCH    3    4
ENDBRANCH    2    3
ENDBRANCH   26    2
ENDBRANCH   28   26
ENDBRANCH   29   28
ENDBRANCH   30   29
ENDBRANCH   31   30
ENDBRANCH   32   31
ENDBRANCH   33   32
ENDBRANCH   34   33
ENDBRANCH   35   34
ENDBRANCH   36   35
ENDBRANCH   38   36
ENDBRANCH   42   41
BRANCH   46   47
ATOM     47  C34 UNL A   1      19.826  29.238  -0.273  1.00  0.00    +0.000 C 
ATOM     48  C35 UNL A   1      19.990  30.312   0.624  1.00  0.00    +0.000 C 
ATOM     49  F1  UNL A   1      21.132  30.457   1.313  1.00  0.00    +0.000 F 
ATOM     50  C36 UNL A   1      18.960  31.222   0.879  1.00  0.00    +0.000 C 
ATOM     51  F2  UNL A   1      19.129  32.179   1.802  1.00  0.00    +0.000 F 
ATOM     52  C37 UNL A   1      17.747  31.111   0.223  1.00  0.00    +0.000 C 
ATOM     53  F3  UNL A   1      16.747  31.961   0.492  1.00  0.00    +0.000 F 
ATOM     54  C38 UNL A   1      17.558  30.085  -0.682  1.00  0.00    +0.000 C 
ATOM     55  F4  UNL A   1      16.380  29.948  -1.308  1.00  0.00    +0.000 F 
ATOM     56  C39 UNL A   1      18.568  29.149  -0.904  1.00  0.00    +0.000 C 
ATOM     57  F5  UNL A   1      18.251  28.104  -1.680  1.00  0.00    +0.000 F 
ENDBRANCH   46   47
BRANCH   63   64
ATOM     65  C46 UNL A   1      21.246  22.405   3.442  1.00  0.00    +0.000 C 
ATOM     66  F6  UNL A   1      20.392  22.855   4.372  1.00  0.00    +0.000 F 
ATOM     67  C47 UNL A   1      22.009  21.279   3.742  1.00  0.00    +0.000 C 
ATOM     68  F7  UNL A   1      21.932  20.719   4.958  1.00  0.00    +0.000 F 
ATOM     69  C48 UNL A   1      22.825  20.716   2.774  1.00  0.00    +0.000 C 
ATOM     70  F8  UNL A   1      23.527  19.606   3.047  1.00  0.00    +0.000 F 
ATOM     71  C49 UNL A   1      22.891  21.284   1.512  1.00  0.00    +0.000 C 
ATOM     72  F9  UNL A   1      23.638  20.711   0.558  1.00  0.00    +0.000 F 
ATOM     73  C50 UNL A   1      22.158  22.432   1.222  1.00  0.00    +0.000 C 
ATOM     74  F10 UNL A   1      22.221  22.942  -0.019  1.00  0.00    +0.000 F 
ATOM     64  C45 UNL A   1      21.323  23.021   2.181  1.00  0.00    +0.000 C 
ENDBRANCH   63   64
BRANCH   78   79
ATOM     79  C54 UNL A   1      17.121  21.314  -2.231  1.00  0.00    +0.000 C 
ATOM     80  C55 UNL A   1      16.478  20.296  -1.512  1.00  0.00    +0.000 C 
ATOM     81  F11 UNL A   1      17.056  19.772  -0.422  1.00  0.00    +0.000 F 
ATOM     82  C56 UNL A   1      15.201  19.847  -1.864  1.00  0.00    +0.000 C 
ATOM     83  F12 UNL A   1      14.592  18.916  -1.117  1.00  0.00    +0.000 F 
ATOM     84  C57 UNL A   1      14.538  20.398  -2.949  1.00  0.00    +0.000 C 
ATOM     85  F13 UNL A   1      13.293  20.006  -3.251  1.00  0.00    +0.000 F 
ATOM     86  C58 UNL A   1      15.155  21.385  -3.692  1.00  0.00    +0.000 C 
ATOM     87  F14 UNL A   1      14.512  21.950  -4.725  1.00  0.00    +0.000 F 
ATOM     88  C59 UNL A   1      16.423  21.842  -3.336  1.00  0.00    +0.000 C 
ATOM     89  F15 UNL A   1      16.915  22.874  -4.036  1.00  0.00    +0.000 F 
ENDBRANCH   78   79
TORSDOF 20
ENDMDL
MODEL 7
REMARK VINA RESULT:      -9.1     30.243     36.041
ROOT
ATOM    136  H36 UNL A   1      19.601  16.282   7.981  1.00  0.00    +0.000 H 
ATOM    137  H37 UNL A   1      21.172  17.030   9.996  1.00  0.00    +0.000 H 
ATOM    138  H38 UNL A   1      22.993  14.110   7.920  1.00  0.00    +0.000 H 
ATOM    139  H39 UNL A   1      27.865  20.462   5.685  1.00  0.00    +0.000 H 
ATOM    140  H40 UNL A   1      25.628  21.400   4.903  1.00  0.00    +0.000 H 
ATOM    141  H41 UNL A   1      24.920  17.579   6.377  1.00  0.00    +0.000 H 
ATOM    142  H42 UNL A   1      26.947  15.017   6.011  1.00  0.00    +0.000 H 
ATOM    143  H43 UNL A   1      24.889  14.286   7.376  1.00  0.00    +0.000 H 
ATOM    144  H44 UNL A   1      21.306  15.837   3.029  1.00  0.00    +0.000 H 
ATOM    145  H45 UNL A   1      22.544  18.019   2.477  1.00  0.00    +0.000 H 
ATOM     42  C30 UNL A   1      23.545  19.384   4.779  1.00  0.00    +0.000 C 
ATOM     43  C31 UNL A   1      22.759  18.110   4.733  1.00  0.00    +0.000 C 
ATOM     44  N9  UNL A   1      22.337  17.377   5.717  1.00  0.00    +0.000 N 
ATOM     45  C32 UNL A   1      21.765  16.242   5.140  1.00  0.00    +0.000 C 
ATOM     46  C33 UNL A   1      21.458  15.115   5.841  1.00  0.00    +0.000 C 
ATOM     58  C40 UNL A   1      21.410  15.337   7.255  1.00  0.00    +0.000 C 
ATOM     59  C41 UNL A   1      20.602  16.068   8.102  1.00  0.00    +0.000 C 
ATOM     60  C42 UNL A   1      21.448  16.465   9.178  1.00  0.00    +0.000 C 
ATOM     61  C43 UNL A   1      22.718  15.948   8.919  1.00  0.00    +0.000 C 
ATOM     62  N10 UNL A   1      22.484  14.948   8.012  1.00  0.00    +0.000 N 
ATOM     63  C44 UNL A   1      24.036  16.399   9.295  1.00  0.00    +0.000 C 
ATOM     75  C51 UNL A   1      25.178  16.085   8.618  1.00  0.00    +0.000 C 
ATOM     76  N11 UNL A   1      26.269  16.940   8.629  1.00  0.00    +0.000 N 
ATOM     77  C52 UNL A   1      26.879  16.718   7.498  1.00  0.00    +0.000 C 
ATOM     78  C53 UNL A   1      27.634  17.746   6.742  1.00  0.00    +0.000 C 
ATOM     90  C60 UNL A   1      26.742  18.642   6.260  1.00  0.00    +0.000 C 
ATOM     91  C61 UNL A   1      26.960  19.967   5.718  1.00  0.00    +0.000 C 
ATOM     92  C62 UNL A   1      25.785  20.445   5.263  1.00  0.00    +0.000 C 
ATOM     93  C63 UNL A   1      24.764  19.399   5.358  1.00  0.00    +0.000 C 
ATOM     94  N12 UNL A   1      25.382  18.388   6.056  1.00  0.00    +0.000 N 
ATOM     95  C64 UNL A   1      26.512  15.485   6.821  1.00  0.00    +0.000 C 
ATOM     96  C65 UNL A   1      25.451  15.134   7.549  1.00  0.00    +0.000 C 
ATOM     97  C66 UNL A   1      21.746  16.470   3.716  1.00  0.00    +0.000 C 
ATOM     98  C67 UNL A   1      22.373  17.604   3.406  1.00  0.00    +0.000 C 
ENDROOT
BRANCH   42   41
ATOM     99  C68 UNL A   1      21.746  21.025   4.236  1.00  0.00    +0.000 C 
ATOM    100  C69 UNL A   1      21.263  22.055   3.434  1.00  0.00    +0.000 C 
ATOM     38  C26 UNL A   1      22.064  22.631   2.432  1.00  0.00    +0.000 C 
ATOM     39  C27 UNL A   1      23.384  22.197   2.305  1.00  0.00    +0.000 C 
ATOM    134  H34 UNL A   1      24.012  22.660   1.630  1.00  0.00    +0.000 H 
ATOM     40  C28 UNL A   1      23.863  21.141   3.083  1.00  0.00    +0.000 C 
ATOM    135  H35 UNL A   1      24.834  20.813   2.963  1.00  0.00    +0.000 H 
ATOM     41  C29 UNL A   1      23.032  20.529   4.022  1.00  0.00    +0.000 C 
ATOM    146  H46 UNL A   1      21.156  20.631   4.984  1.00  0.00    +0.000 H 
ATOM    147  H47 UNL A   1      20.301  22.401   3.577  1.00  0.00    +0.000 H 
BRANCH   38   36
ATOM     36  C25 UNL A   1      21.396  23.666   1.591  1.00  0.00    +0.000 C 
ATOM     37  O3  UNL A   1      22.031  24.187   0.684  1.00  0.00    +0.000 O 
BRANCH   36   35
ATOM     35  N8  UNL A   1      20.120  24.126   1.788  1.00  0.00    +0.000 N 
ATOM    133  H33 UNL A   1      20.099  24.946   2.331  1.00  0.00    +0.000 H 
BRANCH   35   34
ATOM     34  C24 UNL A   1      18.799  23.696   1.387  1.00  0.00    +0.000 C 
ATOM    131  H31 UNL A   1      18.327  23.240   2.232  1.00  0.00    +0.000 H 
ATOM    132  H32 UNL A   1      18.292  24.572   1.040  1.00  0.00    +0.000 H 
BRANCH   34   33
ATOM     33  C23 UNL A   1      18.766  22.697   0.230  1.00  0.00    +0.000 C 
ATOM    130  H30 UNL A   1      17.777  22.290   0.225  1.00  0.00    +0.000 H 
ATOM    129  H29 UNL A   1      19.534  21.972   0.401  1.00  0.00    +0.000 H 
BRANCH   33   32
ATOM    128  H28 UNL A   1      19.978  23.683  -1.156  1.00  0.00    +0.000 H 
ATOM    127  H27 UNL A   1      18.217  24.022  -1.330  1.00  0.00    +0.000 H 
ATOM     32  C22 UNL A   1      18.981  23.292  -1.167  1.00  0.00    +0.000 C 
BRANCH   32   31
ATOM    125  H25 UNL A   1      18.883  21.318  -1.948  1.00  0.00    +0.000 H 
ATOM    126  H26 UNL A   1      18.101  22.592  -2.939  1.00  0.00    +0.000 H 
ATOM     31  C21 UNL A   1      18.947  22.310  -2.347  1.00  0.00    +0.000 C 
BRANCH   31   30
ATOM    123  H23 UNL A   1      20.223  21.426  -3.800  1.00  0.00    +0.000 H 
ATOM    124  H24 UNL A   1      19.992  23.188  -3.948  1.00  0.00    +0.000 H 
ATOM     30  C20 UNL A   1      20.156  22.364  -3.288  1.00  0.00    +0.000 C 
BRANCH   30   29
ATOM    121  H21 UNL A   1      21.875  23.566  -2.920  1.00  0.00    +0.000 H 
ATOM    122  H22 UNL A   1      21.314  22.623  -1.533  1.00  0.00    +0.000 H 
ATOM     29  C19 UNL A   1      21.492  22.624  -2.589  1.00  0.00    +0.000 C 
BRANCH   29   28
ATOM     28  N7  UNL A   1      22.472  21.595  -2.873  1.00  0.00    +0.000 N 
ATOM    120  H20 UNL A   1      22.692  21.534  -3.830  1.00  0.00    +0.000 H 
BRANCH   28   26
ATOM     26  C18 UNL A   1      23.153  20.698  -2.125  1.00  0.00    +0.000 C 
ATOM     27  O2  UNL A   1      22.922  20.763  -0.905  1.00  0.00    +0.000 O 
BRANCH   26    2
ATOM      2  C1  UNL A   1      24.110  19.581  -2.619  1.00  0.00    +0.000 C 
ATOM    104  H4  UNL A   1      24.877  19.631  -1.874  1.00  0.00    +0.000 H 
BRANCH    2    1
ATOM      1  N1  UNL A   1      23.428  18.273  -2.597  1.00  0.00    +0.000 N 
ATOM    101  H1  UNL A   1      23.758  17.704  -3.377  1.00  0.00    +0.000 H 
ATOM    102  H2  UNL A   1      22.421  18.412  -2.682  1.00  0.00    +0.000 H 
ATOM    103  H3  UNL A   1      23.631  17.796  -1.719  1.00  0.00    +0.000 H 
ENDBRANCH    2    1
BRANCH    2    3
ATOM    105  H5  UNL A   1      24.574  19.853  -4.638  1.00  0.00    +0.000 H 
ATOM    106  H6  UNL A   1      25.805  18.979  -3.544  1.00  0.00    +0.000 H 
ATOM      3  C2  UNL A   1      25.137  19.794  -3.730  1.00  0.00    +0.000 C 
BRANCH    3    4
ATOM      4  C3  UNL A   1      26.108  20.946  -3.781  1.00  0.00    +0.000 C 
ATOM      5  C4  UNL A   1      25.903  22.001  -4.660  1.00  0.00    +0.000 C 
ATOM      6  N2  UNL A   1      27.015  22.801  -4.674  1.00  0.00    +0.000 N 
ATOM    107  H7  UNL A   1      25.048  22.157  -5.216  1.00  0.00    +0.000 H 
ATOM     20  C12 UNL A   1      27.903  22.373  -3.708  1.00  0.00    +0.000 C 
ATOM     21  C13 UNL A   1      29.152  22.900  -3.329  1.00  0.00    +0.000 C 
ATOM    116  H16 UNL A   1      29.550  23.718  -3.817  1.00  0.00    +0.000 H 
ATOM     23  C15 UNL A   1      29.299  21.198  -1.626  1.00  0.00    +0.000 C 
ATOM     24  C16 UNL A   1      28.059  20.676  -2.017  1.00  0.00    +0.000 C 
ATOM     25  C17 UNL A   1      27.329  21.254  -3.080  1.00  0.00    +0.000 C 
ATOM    119  H19 UNL A   1      27.673  19.856  -1.523  1.00  0.00    +0.000 H 
ATOM    118  H18 UNL A   1      29.814  20.762  -0.844  1.00  0.00    +0.000 H 
ATOM     22  C14 UNL A   1      29.840  22.294  -2.278  1.00  0.00    +0.000 C 
ATOM    117  H17 UNL A   1      30.757  22.664  -1.985  1.00  0.00    +0.000 H 
BRANCH    6    7
ATOM      7  C5  UNL A   1      27.235  23.836  -5.613  1.00  0.00    +0.000 C 
ATOM      8  N3  UNL A   1      26.188  24.586  -5.938  1.00  0.00    +0.000 N 
ATOM      9  C6  UNL A   1      26.527  25.605  -6.711  1.00  0.00    +0.000 C 
ATOM     10 Cl1  UNL A   1      25.257  26.659  -7.150  1.00  0.00    +0.000 Cl
ATOM     11  N4  UNL A   1      27.719  25.881  -7.215  1.00  0.00    +0.000 N 
ATOM     12  C7  UNL A   1      28.661  24.995  -6.923  1.00  0.00    +0.000 C 
ATOM     19  N6  UNL A   1      28.481  23.993  -6.069  1.00  0.00    +0.000 N 
BRANCH   12   13
ATOM    108  H8  UNL A   1      30.396  25.556  -9.595  1.00  0.00    +0.000 H 
ATOM    109  H9  UNL A   1      28.707  25.077  -9.404  1.00  0.00    +0.000 H 
ATOM     13  N5  UNL A   1      29.820  25.058  -7.665  1.00  0.00    +0.000 N 
ATOM     14  C8  UNL A   1      29.718  24.880  -9.116  1.00  0.00    +0.000 C 
ATOM     15  C9  UNL A   1      30.063  23.450  -9.544  1.00  0.00    +0.000 C 
ATOM     17  C10 UNL A   1      31.317  23.081  -7.586  1.00  0.00    +0.000 C 
ATOM     18  C11 UNL A   1      31.021  24.492  -7.044  1.00  0.00    +0.000 C 
ATOM    114  H14 UNL A   1      30.872  24.434  -5.986  1.00  0.00    +0.000 H 
ATOM    115  H15 UNL A   1      31.852  25.124  -7.276  1.00  0.00    +0.000 H 
ATOM    110  H10 UNL A   1      30.091  23.402 -10.613  1.00  0.00    +0.000 H 
ATOM    111  H11 UNL A   1      29.314  22.790  -9.159  1.00  0.00    +0.000 H 
ATOM     16  O1  UNL A   1      31.339  23.050  -9.022  1.00  0.00    +0.000 O 
ATOM    112  H12 UNL A   1      32.271  22.763  -7.219  1.00  0.00    +0.000 H 
ATOM    113  H13 UNL A   1      30.538  22.428  -7.253  1.00  0.00    +0.000 H 
ENDBRANCH   12   13
ENDBRANCH    6    7
ENDBRANCH    3    4
ENDBRANCH    2    3
ENDBRANCH   26    2
ENDBRANCH   28   26
ENDBRANCH   29   28
ENDBRANCH   30   29
ENDBRANCH   31   30
ENDBRANCH   32   31
ENDBRANCH   33   32
ENDBRANCH   34   33
ENDBRANCH   35   34
ENDBRANCH   36   35
ENDBRANCH   38   36
ENDBRANCH   42   41
BRANCH   46   47
ATOM     47  C34 UNL A   1      21.422  13.732   5.253  1.00  0.00    +0.000 C 
ATOM     48  C35 UNL A   1      20.205  13.033   5.136  1.00  0.00    +0.000 C 
ATOM     49  F1  UNL A   1      19.038  13.650   5.373  1.00  0.00    +0.000 F 
ATOM     50  C36 UNL A   1      20.166  11.668   4.833  1.00  0.00    +0.000 C 
ATOM     51  F2  UNL A   1      18.992  11.023   4.813  1.00  0.00    +0.000 F 
ATOM     52  C37 UNL A   1      21.336  10.966   4.606  1.00  0.00    +0.000 C 
ATOM     53  F3  UNL A   1      21.303   9.652   4.351  1.00  0.00    +0.000 F 
ATOM     54  C38 UNL A   1      22.548  11.624   4.688  1.00  0.00    +0.000 C 
ATOM     55  F4  UNL A   1      23.692  10.953   4.495  1.00  0.00    +0.000 F 
ATOM     56  C39 UNL A   1      22.591  12.974   5.034  1.00  0.00    +0.000 C 
ATOM     57  F5  UNL A   1      23.808  13.497   5.240  1.00  0.00    +0.000 F 
ENDBRANCH   46   47
BRANCH   63   64
ATOM     65  C46 UNL A   1      24.263  18.868   9.916  1.00  0.00    +0.000 C 
ATOM     66  F6  UNL A   1      24.402  19.210   8.627  1.00  0.00    +0.000 F 
ATOM     67  C47 UNL A   1      24.221  19.888  10.864  1.00  0.00    +0.000 C 
ATOM     68  F7  UNL A   1      24.390  21.164  10.487  1.00  0.00    +0.000 F 
ATOM     69  C48 UNL A   1      23.970  19.590  12.193  1.00  0.00    +0.000 C 
ATOM     70  F8  UNL A   1      23.885  20.574  13.100  1.00  0.00    +0.000 F 
ATOM     71  C49 UNL A   1      23.776  18.273  12.579  1.00  0.00    +0.000 C 
ATOM     72  F9  UNL A   1      23.482  17.986  13.855  1.00  0.00    +0.000 F 
ATOM     73  C50 UNL A   1      23.857  17.248  11.639  1.00  0.00    +0.000 C 
ATOM     74  F10 UNL A   1      23.636  15.986  12.040  1.00  0.00    +0.000 F 
ATOM     64  C45 UNL A   1      24.106  17.523  10.288  1.00  0.00    +0.000 C 
ENDBRANCH   63   64
BRANCH   78   79
ATOM     79  C54 UNL A   1      29.044  17.563   6.332  1.00  0.00    +0.000 C 
ATOM     80  C55 UNL A   1      29.373  17.214   5.014  1.00  0.00    +0.000 C 
ATOM     81  F11 UNL A   1      28.413  16.846   4.154  1.00  0.00    +0.000 F 
ATOM     82  C56 UNL A   1      30.687  17.303   4.541  1.00  0.00    +0.000 C 
ATOM     83  F12 UNL A   1      30.954  17.020   3.259  1.00  0.00    +0.000 F 
ATOM     84  C57 UNL A   1      31.705  17.732   5.375  1.00  0.00    +0.000 C 
ATOM     85  F13 UNL A   1      32.953  17.870   4.906  1.00  0.00    +0.000 F 
ATOM     86  C58 UNL A   1      31.417  18.060   6.686  1.00  0.00    +0.000 C 
ATOM     87  F14 UNL A   1      32.388  18.508   7.495  1.00  0.00    +0.000 F 
ATOM     88  C59 UNL A   1      30.107  17.984   7.156  1.00  0.00    +0.000 C 
ATOM     89  F15 UNL A   1      29.884  18.418   8.405  1.00  0.00    +0.000 F 
ENDBRANCH   78   79
TORSDOF 20
ENDMDL
MODEL 8
REMARK VINA RESULT:      -8.9     40.377     45.671
ROOT
ATOM    136  H36 UNL A   1       1.693  14.527  36.984  1.00  0.00    +0.000 H 
ATOM    137  H37 UNL A   1       4.277  14.909  37.500  1.00  0.00    +0.000 H 
ATOM    138  H38 UNL A   1       2.082  16.922  40.200  1.00  0.00    +0.000 H 
ATOM    139  H39 UNL A   1       5.031  10.956  45.179  1.00  0.00    +0.000 H 
ATOM    140  H40 UNL A   1       3.899   9.479  43.438  1.00  0.00    +0.000 H 
ATOM    141  H41 UNL A   1       3.135  13.429  42.394  1.00  0.00    +0.000 H 
ATOM    142  H42 UNL A   1       2.554  15.860  44.530  1.00  0.00    +0.000 H 
ATOM    143  H43 UNL A   1       2.495  16.801  42.133  1.00  0.00    +0.000 H 
ATOM    144  H44 UNL A   1      -1.784  13.103  40.661  1.00  0.00    +0.000 H 
ATOM    145  H45 UNL A   1      -0.775  11.083  41.886  1.00  0.00    +0.000 H 
ATOM     42  C30 UNL A   1       2.075  10.952  41.729  1.00  0.00    +0.000 C 
ATOM     43  C31 UNL A   1       1.164  11.969  41.113  1.00  0.00    +0.000 C 
ATOM     44  N9  UNL A   1       1.465  12.979  40.355  1.00  0.00    +0.000 N 
ATOM     45  C32 UNL A   1       0.275  13.680  40.152  1.00  0.00    +0.000 C 
ATOM     46  C33 UNL A   1       0.224  14.943  39.642  1.00  0.00    +0.000 C 
ATOM     58  C40 UNL A   1       1.437  15.325  38.982  1.00  0.00    +0.000 C 
ATOM     59  C41 UNL A   1       2.105  14.908  37.850  1.00  0.00    +0.000 C 
ATOM     60  C42 UNL A   1       3.487  15.115  38.131  1.00  0.00    +0.000 C 
ATOM     61  C43 UNL A   1       3.572  15.648  39.418  1.00  0.00    +0.000 C 
ATOM     62  N10 UNL A   1       2.313  16.137  39.652  1.00  0.00    +0.000 N 
ATOM     63  C44 UNL A   1       4.606  15.581  40.421  1.00  0.00    +0.000 C 
ATOM     75  C51 UNL A   1       4.391  15.739  41.759  1.00  0.00    +0.000 C 
ATOM     76  N11 UNL A   1       5.216  15.126  42.689  1.00  0.00    +0.000 N 
ATOM     77  C52 UNL A   1       4.460  14.940  43.736  1.00  0.00    +0.000 C 
ATOM     78  C53 UNL A   1       4.607  13.805  44.678  1.00  0.00    +0.000 C 
ATOM     90  C60 UNL A   1       4.244  12.676  44.027  1.00  0.00    +0.000 C 
ATOM     91  C61 UNL A   1       4.473  11.290  44.377  1.00  0.00    +0.000 C 
ATOM     92  C62 UNL A   1       3.837  10.509  43.482  1.00  0.00    +0.000 C 
ATOM     93  C63 UNL A   1       3.043  11.348  42.581  1.00  0.00    +0.000 C 
ATOM     94  N12 UNL A   1       3.417  12.632  42.901  1.00  0.00    +0.000 N 
ATOM     95  C64 UNL A   1       3.231  15.716  43.764  1.00  0.00    +0.000 C 
ATOM     96  C65 UNL A   1       3.231  16.188  42.517  1.00  0.00    +0.000 C 
ATOM     97  C66 UNL A   1      -0.778  12.881  40.728  1.00  0.00    +0.000 C 
ATOM     98  C67 UNL A   1      -0.279  11.819  41.360  1.00  0.00    +0.000 C 
ENDROOT
BRANCH   42   41
ATOM     99  C68 UNL A   1       1.063   8.798  42.481  1.00  0.00    +0.000 C 
ATOM    100  C69 UNL A   1       0.859   7.436  42.287  1.00  0.00    +0.000 C 
ATOM     38  C26 UNL A   1       1.308   6.794  41.118  1.00  0.00    +0.000 C 
ATOM     39  C27 UNL A   1       1.901   7.569  40.121  1.00  0.00    +0.000 C 
ATOM    134  H34 UNL A   1       2.165   7.133  39.224  1.00  0.00    +0.000 H 
ATOM     40  C28 UNL A   1       2.139   8.930  40.325  1.00  0.00    +0.000 C 
ATOM    135  H35 UNL A   1       2.600   9.487  39.589  1.00  0.00    +0.000 H 
ATOM     41  C29 UNL A   1       1.755   9.537  41.521  1.00  0.00    +0.000 C 
ATOM    146  H46 UNL A   1       0.705   9.260  43.331  1.00  0.00    +0.000 H 
ATOM    147  H47 UNL A   1       0.371   6.887  43.011  1.00  0.00    +0.000 H 
BRANCH   38   36
ATOM     36  C25 UNL A   1       1.100   5.318  41.075  1.00  0.00    +0.000 C 
ATOM     37  O3  UNL A   1       1.904   4.594  41.647  1.00  0.00    +0.000 O 
BRANCH   36   35
ATOM     35  N8  UNL A   1       0.090   4.693  40.393  1.00  0.00    +0.000 N 
ATOM    133  H33 UNL A   1      -0.418   4.072  40.963  1.00  0.00    +0.000 H 
BRANCH   35   34
ATOM     34  C24 UNL A   1      -0.408   4.725  39.035  1.00  0.00    +0.000 C 
ATOM    131  H31 UNL A   1       0.427   4.628  38.372  1.00  0.00    +0.000 H 
ATOM    132  H32 UNL A   1      -1.110   3.922  38.954  1.00  0.00    +0.000 H 
BRANCH   34   33
ATOM     33  C23 UNL A   1      -1.169   5.996  38.656  1.00  0.00    +0.000 C 
ATOM    130  H30 UNL A   1      -1.673   5.771  37.740  1.00  0.00    +0.000 H 
ATOM    129  H29 UNL A   1      -0.458   6.793  38.577  1.00  0.00    +0.000 H 
BRANCH   33   32
ATOM    128  H28 UNL A   1      -2.168   5.775  40.476  1.00  0.00    +0.000 H 
ATOM    127  H27 UNL A   1      -3.199   6.377  39.127  1.00  0.00    +0.000 H 
ATOM     32  C22 UNL A   1      -2.261   6.434  39.638  1.00  0.00    +0.000 C 
BRANCH   32   31
ATOM    125  H25 UNL A   1      -3.115   8.178  40.503  1.00  0.00    +0.000 H 
ATOM    126  H26 UNL A   1      -1.458   7.765  41.048  1.00  0.00    +0.000 H 
ATOM     31  C21 UNL A   1      -2.135   7.848  40.224  1.00  0.00    +0.000 C 
BRANCH   31   30
ATOM    123  H23 UNL A   1      -0.718   9.375  39.797  1.00  0.00    +0.000 H 
ATOM    124  H24 UNL A   1      -1.225   8.383  38.404  1.00  0.00    +0.000 H 
ATOM     30  C20 UNL A   1      -1.532   8.901  39.287  1.00  0.00    +0.000 C 
BRANCH   30   29
ATOM    121  H21 UNL A   1      -2.832  10.537  39.698  1.00  0.00    +0.000 H 
ATOM    122  H22 UNL A   1      -2.003  10.617  38.139  1.00  0.00    +0.000 H 
ATOM     29  C19 UNL A   1      -2.512   9.987  38.839  1.00  0.00    +0.000 C 
BRANCH   29   28
ATOM     28  N7  UNL A   1      -3.677   9.438  38.175  1.00  0.00    +0.000 N 
ATOM    120  H20 UNL A   1      -4.441   9.324  38.784  1.00  0.00    +0.000 H 
BRANCH   28   26
ATOM     26  C18 UNL A   1      -3.955   9.046  36.912  1.00  0.00    +0.000 C 
ATOM     27  O2  UNL A   1      -4.769   9.772  36.314  1.00  0.00    +0.000 O 
BRANCH   26    2
ATOM      2  C1  UNL A   1      -3.332   7.862  36.125  1.00  0.00    +0.000 C 
ATOM    104  H4  UNL A   1      -2.666   7.460  36.861  1.00  0.00    +0.000 H 
BRANCH    2    1
ATOM      1  N1  UNL A   1      -4.374   6.885  35.755  1.00  0.00    +0.000 N 
ATOM    101  H1  UNL A   1      -4.608   6.994  34.768  1.00  0.00    +0.000 H 
ATOM    102  H2  UNL A   1      -5.208   7.045  36.321  1.00  0.00    +0.000 H 
ATOM    103  H3  UNL A   1      -4.029   5.940  35.921  1.00  0.00    +0.000 H 
ENDBRANCH    2    1
BRANCH    2    3
ATOM    105  H5  UNL A   1      -2.474   8.829  34.483  1.00  0.00    +0.000 H 
ATOM    106  H6  UNL A   1      -2.073   7.031  34.776  1.00  0.00    +0.000 H 
ATOM      3  C2  UNL A   1      -2.179   8.034  35.136  1.00  0.00    +0.000 C 
BRANCH    3    4
ATOM      4  C3  UNL A   1      -0.758   8.341  35.532  1.00  0.00    +0.000 C 
ATOM      5  C4  UNL A   1       0.215   7.351  35.490  1.00  0.00    +0.000 C 
ATOM      6  N2  UNL A   1       1.355   7.810  36.094  1.00  0.00    +0.000 N 
ATOM    107  H7  UNL A   1       0.096   6.416  35.069  1.00  0.00    +0.000 H 
ATOM     20  C12 UNL A   1       1.203   9.144  36.411  1.00  0.00    +0.000 C 
ATOM     21  C13 UNL A   1       2.111  10.043  37.004  1.00  0.00    +0.000 C 
ATOM    116  H16 UNL A   1       3.048   9.728  37.300  1.00  0.00    +0.000 H 
ATOM     23  C15 UNL A   1       0.457  11.785  36.779  1.00  0.00    +0.000 C 
ATOM     24  C16 UNL A   1      -0.441  10.880  36.199  1.00  0.00    +0.000 C 
ATOM     25  C17 UNL A   1      -0.087   9.526  36.005  1.00  0.00    +0.000 C 
ATOM    119  H19 UNL A   1      -1.377  11.207  35.909  1.00  0.00    +0.000 H 
ATOM    118  H18 UNL A   1       0.178  12.771  36.908  1.00  0.00    +0.000 H 
ATOM     22  C14 UNL A   1       1.716  11.368  37.181  1.00  0.00    +0.000 C 
ATOM    117  H17 UNL A   1       2.366  12.043  37.613  1.00  0.00    +0.000 H 
BRANCH    6    7
ATOM      7  C5  UNL A   1       2.463   6.993  36.420  1.00  0.00    +0.000 C 
ATOM      8  N3  UNL A   1       2.208   5.868  37.078  1.00  0.00    +0.000 N 
ATOM      9  C6  UNL A   1       3.286   5.114  37.211  1.00  0.00    +0.000 C 
ATOM     10 Cl1  UNL A   1       3.056   3.619  38.006  1.00  0.00    +0.000 Cl
ATOM     11  N4  UNL A   1       4.525   5.395  36.839  1.00  0.00    +0.000 N 
ATOM     12  C7  UNL A   1       4.682   6.597  36.303  1.00  0.00    +0.000 C 
ATOM     19  N6  UNL A   1       3.667   7.403  36.011  1.00  0.00    +0.000 N 
BRANCH   12   13
ATOM    108  H8  UNL A   1       7.884   6.466  36.745  1.00  0.00    +0.000 H 
ATOM    109  H9  UNL A   1       6.566   5.778  37.697  1.00  0.00    +0.000 H 
ATOM     13  N5  UNL A   1       5.974   7.060  36.191  1.00  0.00    +0.000 N 
ATOM     14  C8  UNL A   1       6.941   6.656  37.215  1.00  0.00    +0.000 C 
ATOM     15  C9  UNL A   1       7.132   7.737  38.283  1.00  0.00    +0.000 C 
ATOM     17  C10 UNL A   1       6.383   9.425  36.821  1.00  0.00    +0.000 C 
ATOM     18  C11 UNL A   1       6.134   8.424  35.678  1.00  0.00    +0.000 C 
ATOM    114  H14 UNL A   1       5.244   8.707  35.156  1.00  0.00    +0.000 H 
ATOM    115  H15 UNL A   1       6.979   8.442  35.023  1.00  0.00    +0.000 H 
ATOM    110  H10 UNL A   1       7.929   7.447  38.936  1.00  0.00    +0.000 H 
ATOM    111  H11 UNL A   1       6.218   7.840  38.830  1.00  0.00    +0.000 H 
ATOM     16  O1  UNL A   1       7.452   9.001  37.683  1.00  0.00    +0.000 O 
ATOM    112  H12 UNL A   1       6.635  10.376  36.400  1.00  0.00    +0.000 H 
ATOM    113  H13 UNL A   1       5.490   9.487  37.407  1.00  0.00    +0.000 H 
ENDBRANCH   12   13
ENDBRANCH    6    7
ENDBRANCH    3    4
ENDBRANCH    2    3
ENDBRANCH   26    2
ENDBRANCH   28   26
ENDBRANCH   29   28
ENDBRANCH   30   29
ENDBRANCH   31   30
ENDBRANCH   32   31
ENDBRANCH   33   32
ENDBRANCH   34   33
ENDBRANCH   35   34
ENDBRANCH   36   35
ENDBRANCH   38   36
ENDBRANCH   42   41
BRANCH   46   47
ATOM     47  C34 UNL A   1      -0.864  15.937  39.940  1.00  0.00    +0.000 C 
ATOM     48  C35 UNL A   1      -0.962  16.533  41.212  1.00  0.00    +0.000 C 
ATOM     49  F1  UNL A   1       0.012  16.370  42.120  1.00  0.00    +0.000 F 
ATOM     50  C36 UNL A   1      -2.094  17.259  41.600  1.00  0.00    +0.000 C 
ATOM     51  F2  UNL A   1      -2.182  17.740  42.847  1.00  0.00    +0.000 F 
ATOM     52  C37 UNL A   1      -3.146  17.440  40.720  1.00  0.00    +0.000 C 
ATOM     53  F3  UNL A   1      -4.245  18.104  41.102  1.00  0.00    +0.000 F 
ATOM     54  C38 UNL A   1      -3.074  16.889  39.456  1.00  0.00    +0.000 C 
ATOM     55  F4  UNL A   1      -4.097  17.034  38.600  1.00  0.00    +0.000 F 
ATOM     56  C39 UNL A   1      -1.968  16.127  39.083  1.00  0.00    +0.000 C 
ATOM     57  F5  UNL A   1      -2.045  15.505  37.899  1.00  0.00    +0.000 F 
ENDBRANCH   46   47
BRANCH   63   64
ATOM     65  C46 UNL A   1       7.099  15.749  39.883  1.00  0.00    +0.000 C 
ATOM     66  F6  UNL A   1       7.091  17.069  40.117  1.00  0.00    +0.000 F 
ATOM     67  C47 UNL A   1       8.318  15.144  39.584  1.00  0.00    +0.000 C 
ATOM     68  F7  UNL A   1       9.428  15.889  39.465  1.00  0.00    +0.000 F 
ATOM     69  C48 UNL A   1       8.393  13.768  39.441  1.00  0.00    +0.000 C 
ATOM     70  F8  UNL A   1       9.573  13.179  39.197  1.00  0.00    +0.000 F 
ATOM     71  C49 UNL A   1       7.250  12.997  39.583  1.00  0.00    +0.000 C 
ATOM     72  F9  UNL A   1       7.329  11.662  39.497  1.00  0.00    +0.000 F 
ATOM     73  C50 UNL A   1       6.024  13.604  39.844  1.00  0.00    +0.000 C 
ATOM     74  F10 UNL A   1       4.941  12.827  40.004  1.00  0.00    +0.000 F 
ATOM     64  C45 UNL A   1       5.921  14.993  39.996  1.00  0.00    +0.000 C 
ENDBRANCH   63   64
BRANCH   78   79
ATOM     79  C54 UNL A   1       4.772  13.994  46.137  1.00  0.00    +0.000 C 
ATOM     80  C55 UNL A   1       3.807  13.523  47.040  1.00  0.00    +0.000 C 
ATOM     81  F11 UNL A   1       2.627  13.072  46.592  1.00  0.00    +0.000 F 
ATOM     82  C56 UNL A   1       4.067  13.446  48.413  1.00  0.00    +0.000 C 
ATOM     83  F12 UNL A   1       3.145  12.934  49.238  1.00  0.00    +0.000 F 
ATOM     84  C57 UNL A   1       5.293  13.847  48.918  1.00  0.00    +0.000 C 
ATOM     85  F13 UNL A   1       5.561  13.721  50.225  1.00  0.00    +0.000 F 
ATOM     86  C58 UNL A   1       6.255  14.338  48.057  1.00  0.00    +0.000 C 
ATOM     87  F14 UNL A   1       7.458  14.699  48.529  1.00  0.00    +0.000 F 
ATOM     88  C59 UNL A   1       6.003  14.404  46.688  1.00  0.00    +0.000 C 
ATOM     89  F15 UNL A   1       7.018  14.790  45.902  1.00  0.00    +0.000 F 
ENDBRANCH   78   79
TORSDOF 20
ENDMDL
MODEL 9
REMARK VINA RESULT:      -8.9     40.998     45.792
ROOT
ATOM    136  H36 UNL A   1       0.299   5.839  37.183  1.00  0.00    +0.000 H 
ATOM    137  H37 UNL A   1       2.941   5.644  36.921  1.00  0.00    +0.000 H 
ATOM    138  H38 UNL A   1       1.730   9.186  35.457  1.00  0.00    +0.000 H 
ATOM    139  H39 UNL A   1       5.604  11.910  42.287  1.00  0.00    +0.000 H 
ATOM    140  H40 UNL A   1       3.937  10.333  43.394  1.00  0.00    +0.000 H 
ATOM    141  H41 UNL A   1       3.149  10.300  39.314  1.00  0.00    +0.000 H 
ATOM    142  H42 UNL A   1       3.347  12.920  37.339  1.00  0.00    +0.000 H 
ATOM    143  H43 UNL A   1       2.667  10.859  35.952  1.00  0.00    +0.000 H 
ATOM    144  H44 UNL A   1      -2.070  10.040  39.274  1.00  0.00    +0.000 H 
ATOM    145  H45 UNL A   1      -0.879  10.527  41.498  1.00  0.00    +0.000 H 
ATOM     42  C30 UNL A   1       1.795   9.528  41.610  1.00  0.00    +0.000 C 
ATOM     43  C31 UNL A   1       0.810   9.401  40.488  1.00  0.00    +0.000 C 
ATOM     44  N9  UNL A   1       0.944   8.787  39.352  1.00  0.00    +0.000 N 
ATOM     45  C32 UNL A   1      -0.210   9.070  38.620  1.00  0.00    +0.000 C 
ATOM     46  C33 UNL A   1      -0.327   8.838  37.282  1.00  0.00    +0.000 C 
ATOM     58  C40 UNL A   1       0.670   7.937  36.786  1.00  0.00    +0.000 C 
ATOM     59  C41 UNL A   1       0.962   6.602  36.979  1.00  0.00    +0.000 C 
ATOM     60  C42 UNL A   1       2.377   6.503  36.836  1.00  0.00    +0.000 C 
ATOM     61  C43 UNL A   1       2.856   7.785  36.563  1.00  0.00    +0.000 C 
ATOM     62  N10 UNL A   1       1.748   8.461  36.122  1.00  0.00    +0.000 N 
ATOM     63  C44 UNL A   1       4.126   8.415  36.828  1.00  0.00    +0.000 C 
ATOM     75  C51 UNL A   1       4.311   9.763  36.930  1.00  0.00    +0.000 C 
ATOM     76  N11 UNL A   1       5.327  10.284  37.716  1.00  0.00    +0.000 N 
ATOM     77  C52 UNL A   1       4.889  11.452  38.097  1.00  0.00    +0.000 C 
ATOM     78  C53 UNL A   1       5.229  12.086  39.393  1.00  0.00    +0.000 C 
ATOM     90  C60 UNL A   1       4.628  11.372  40.373  1.00  0.00    +0.000 C 
ATOM     91  C61 UNL A   1       4.863  11.381  41.802  1.00  0.00    +0.000 C 
ATOM     92  C62 UNL A   1       3.952  10.581  42.392  1.00  0.00    +0.000 C 
ATOM     93  C63 UNL A   1       2.988  10.120  41.391  1.00  0.00    +0.000 C 
ATOM     94  N12 UNL A   1       3.514  10.547  40.194  1.00  0.00    +0.000 N 
ATOM     95  C64 UNL A   1       3.768  11.978  37.335  1.00  0.00    +0.000 C 
ATOM     96  C65 UNL A   1       3.443  10.893  36.631  1.00  0.00    +0.000 C 
ATOM     97  C66 UNL A   1      -1.102   9.771  39.510  1.00  0.00    +0.000 C 
ATOM     98  C67 UNL A   1      -0.509  10.024  40.676  1.00  0.00    +0.000 C 
ENDROOT
BRANCH   42   41
ATOM     99  C68 UNL A   1       0.771  10.108  43.810  1.00  0.00    +0.000 C 
ATOM    100  C69 UNL A   1       0.440   9.747  45.113  1.00  0.00    +0.000 C 
ATOM     38  C26 UNL A   1       0.640   8.433  45.575  1.00  0.00    +0.000 C 
ATOM     39  C27 UNL A   1       1.112   7.478  44.674  1.00  0.00    +0.000 C 
ATOM    134  H34 UNL A   1       1.191   6.492  44.969  1.00  0.00    +0.000 H 
ATOM     40  C28 UNL A   1       1.478   7.842  43.377  1.00  0.00    +0.000 C 
ATOM    135  H35 UNL A   1       1.849   7.130  42.728  1.00  0.00    +0.000 H 
ATOM     41  C29 UNL A   1       1.344   9.166  42.956  1.00  0.00    +0.000 C 
ATOM    146  H46 UNL A   1       0.594  11.068  43.478  1.00  0.00    +0.000 H 
ATOM    147  H47 UNL A   1       0.042  10.453  45.750  1.00  0.00    +0.000 H 
BRANCH   38   36
ATOM     36  C25 UNL A   1       0.322   8.203  47.013  1.00  0.00    +0.000 C 
ATOM     37  O3  UNL A   1       0.860   8.910  47.855  1.00  0.00    +0.000 O 
BRANCH   36   35
ATOM     35  N8  UNL A   1      -0.499   7.211  47.481  1.00  0.00    +0.000 N 
ATOM    133  H33 UNL A   1      -0.071   6.671  48.184  1.00  0.00    +0.000 H 
BRANCH   35   34
ATOM     34  C24 UNL A   1      -1.845   6.767  47.191  1.00  0.00    +0.000 C 
ATOM    131  H31 UNL A   1      -1.793   5.759  46.835  1.00  0.00    +0.000 H 
ATOM    132  H32 UNL A   1      -2.396   6.869  48.101  1.00  0.00    +0.000 H 
BRANCH   34   33
ATOM     33  C23 UNL A   1      -2.589   7.600  46.146  1.00  0.00    +0.000 C 
ATOM    130  H30 UNL A   1      -1.981   8.463  45.975  1.00  0.00    +0.000 H 
ATOM    129  H29 UNL A   1      -3.560   7.824  46.536  1.00  0.00    +0.000 H 
BRANCH   33   32
ATOM    128  H28 UNL A   1      -3.824   6.760  44.686  1.00  0.00    +0.000 H 
ATOM    127  H27 UNL A   1      -2.166   6.056  44.758  1.00  0.00    +0.000 H 
ATOM     32  C22 UNL A   1      -2.772   6.938  44.775  1.00  0.00    +0.000 C 
BRANCH   32   31
ATOM    125  H25 UNL A   1      -1.334   7.792  43.465  1.00  0.00    +0.000 H 
ATOM    126  H26 UNL A   1      -2.894   7.321  42.716  1.00  0.00    +0.000 H 
ATOM     31  C21 UNL A   1      -2.401   7.781  43.547  1.00  0.00    +0.000 C 
BRANCH   31   30
ATOM    123  H23 UNL A   1      -2.941   9.552  44.593  1.00  0.00    +0.000 H 
ATOM    124  H24 UNL A   1      -2.186   9.801  42.997  1.00  0.00    +0.000 H 
ATOM     30  C20 UNL A   1      -2.887   9.235  43.572  1.00  0.00    +0.000 C 
BRANCH   30   29
ATOM    121  H21 UNL A   1      -4.830   8.557  43.023  1.00  0.00    +0.000 H 
ATOM    122  H22 UNL A   1      -4.728  10.273  43.436  1.00  0.00    +0.000 H 
ATOM     29  C19 UNL A   1      -4.258   9.456  42.929  1.00  0.00    +0.000 C 
BRANCH   29   28
ATOM     28  N7  UNL A   1      -4.160   9.803  41.526  1.00  0.00    +0.000 N 
ATOM    120  H20 UNL A   1      -3.581   9.186  41.023  1.00  0.00    +0.000 H 
BRANCH   28   26
ATOM     26  C18 UNL A   1      -4.679  10.780  40.750  1.00  0.00    +0.000 C 
ATOM     27  O2  UNL A   1      -5.884  10.636  40.477  1.00  0.00    +0.000 O 
BRANCH   26    2
ATOM      2  C1  UNL A   1      -3.973  12.062  40.235  1.00  0.00    +0.000 C 
ATOM    104  H4  UNL A   1      -3.080  11.645  39.816  1.00  0.00    +0.000 H 
BRANCH    2    1
ATOM      1  N1  UNL A   1      -4.793  12.721  39.200  1.00  0.00    +0.000 N 
ATOM    101  H1  UNL A   1      -4.759  12.175  38.340  1.00  0.00    +0.000 H 
ATOM    102  H2  UNL A   1      -4.429  13.658  39.023  1.00  0.00    +0.000 H 
ATOM    103  H3  UNL A   1      -5.758  12.789  39.522  1.00  0.00    +0.000 H 
ENDBRANCH    2    1
BRANCH    2    3
ATOM    105  H5  UNL A   1      -3.045  12.456  42.066  1.00  0.00    +0.000 H 
ATOM    106  H6  UNL A   1      -3.722  13.885  41.077  1.00  0.00    +0.000 H 
ATOM      3  C2  UNL A   1      -3.152  12.981  41.139  1.00  0.00    +0.000 C 
BRANCH    3    4
ATOM      4  C3  UNL A   1      -1.775  13.494  40.804  1.00  0.00    +0.000 C 
ATOM      5  C4  UNL A   1      -0.843  13.721  41.808  1.00  0.00    +0.000 C 
ATOM      6  N2  UNL A   1       0.236  14.380  41.284  1.00  0.00    +0.000 N 
ATOM    107  H7  UNL A   1      -0.949  13.437  42.795  1.00  0.00    +0.000 H 
ATOM     20  C12 UNL A   1       0.101  14.470  39.914  1.00  0.00    +0.000 C 
ATOM     21  C13 UNL A   1       0.968  15.024  38.953  1.00  0.00    +0.000 C 
ATOM    116  H16 UNL A   1       1.852  15.476  39.237  1.00  0.00    +0.000 H 
ATOM     23  C15 UNL A   1      -0.578  14.338  37.233  1.00  0.00    +0.000 C 
ATOM     24  C16 UNL A   1      -1.438  13.798  38.199  1.00  0.00    +0.000 C 
ATOM     25  C17 UNL A   1      -1.117  13.858  39.574  1.00  0.00    +0.000 C 
ATOM    119  H19 UNL A   1      -2.320  13.352  37.902  1.00  0.00    +0.000 H 
ATOM    118  H18 UNL A   1      -0.831  14.280  36.234  1.00  0.00    +0.000 H 
ATOM     22  C14 UNL A   1       0.608  14.947  37.608  1.00  0.00    +0.000 C 
ATOM    117  H17 UNL A   1       1.229  15.347  36.888  1.00  0.00    +0.000 H 
BRANCH    6    7
ATOM      7  C5  UNL A   1       1.266  14.959  42.063  1.00  0.00    +0.000 C 
ATOM      8  N3  UNL A   1       1.319  16.286  42.100  1.00  0.00    +0.000 N 
ATOM      9  C6  UNL A   1       2.224  16.723  42.960  1.00  0.00    +0.000 C 
ATOM     10 Cl1  UNL A   1       2.342  18.421  43.116  1.00  0.00    +0.000 Cl
ATOM     11  N4  UNL A   1       3.073  16.007  43.681  1.00  0.00    +0.000 N 
ATOM     12  C7  UNL A   1       3.011  14.701  43.470  1.00  0.00    +0.000 C 
ATOM     19  N6  UNL A   1       2.076  14.125  42.722  1.00  0.00    +0.000 N 
BRANCH   12   13
ATOM    108  H8  UNL A   1       4.350  12.227  45.068  1.00  0.00    +0.000 H 
ATOM    109  H9  UNL A   1       2.800  13.039  45.303  1.00  0.00    +0.000 H 
ATOM     13  N5  UNL A   1       4.063  13.948  43.945  1.00  0.00    +0.000 N 
ATOM     14  C8  UNL A   1       3.853  13.169  45.169  1.00  0.00    +0.000 C 
ATOM     15  C9  UNL A   1       4.403  13.886  46.406  1.00  0.00    +0.000 C 
ATOM     17  C10 UNL A   1       5.888  15.167  45.103  1.00  0.00    +0.000 C 
ATOM     18  C11 UNL A   1       5.400  14.527  43.790  1.00  0.00    +0.000 C 
ATOM    114  H14 UNL A   1       5.368  15.279  43.029  1.00  0.00    +0.000 H 
ATOM    115  H15 UNL A   1       6.079  13.746  43.522  1.00  0.00    +0.000 H 
ATOM    110  H10 UNL A   1       4.334  13.230  47.250  1.00  0.00    +0.000 H 
ATOM    111  H11 UNL A   1       3.824  14.770  46.572  1.00  0.00    +0.000 H 
ATOM     16  O1  UNL A   1       5.774  14.264  46.215  1.00  0.00    +0.000 O 
ATOM    112  H12 UNL A   1       6.914  15.448  44.991  1.00  0.00    +0.000 H 
ATOM    113  H13 UNL A   1       5.273  16.019  45.305  1.00  0.00    +0.000 H 
ENDBRANCH   12   13
ENDBRANCH    6    7
ENDBRANCH    3    4
ENDBRANCH    2    3
ENDBRANCH   26    2
ENDBRANCH   28   26
ENDBRANCH   29   28
ENDBRANCH   30   29
ENDBRANCH   31   30
ENDBRANCH   32   31
ENDBRANCH   33   32
ENDBRANCH   34   33
ENDBRANCH   35   34
ENDBRANCH   36   35
ENDBRANCH   38   36
ENDBRANCH   42   41
BRANCH   46   47
ATOM     47  C34 UNL A   1      -1.223   9.617  36.360  1.00  0.00    +0.000 C 
ATOM     48  C35 UNL A   1      -2.365   9.019  35.793  1.00  0.00    +0.000 C 
ATOM     49  F1  UNL A   1      -2.777   7.811  36.203  1.00  0.00    +0.000 F 
ATOM     50  C36 UNL A   1      -3.070   9.623  34.747  1.00  0.00    +0.000 C 
ATOM     51  F2  UNL A   1      -4.101   8.981  34.180  1.00  0.00    +0.000 F 
ATOM     52  C37 UNL A   1      -2.679  10.857  34.257  1.00  0.00    +0.000 C 
ATOM     53  F3  UNL A   1      -3.332  11.420  33.233  1.00  0.00    +0.000 F 
ATOM     54  C38 UNL A   1      -1.578  11.484  34.806  1.00  0.00    +0.000 C 
ATOM     55  F4  UNL A   1      -1.171  12.668  34.326  1.00  0.00    +0.000 F 
ATOM     56  C39 UNL A   1      -0.846  10.863  35.817  1.00  0.00    +0.000 C 
ATOM     57  F5  UNL A   1       0.291  11.468  36.187  1.00  0.00    +0.000 F 
ENDBRANCH   46   47
BRANCH   63   64
ATOM     65  C46 UNL A   1       5.287   7.044  38.647  1.00  0.00    +0.000 C 
ATOM     66  F6  UNL A   1       4.362   7.401  39.548  1.00  0.00    +0.000 F 
ATOM     67  C47 UNL A   1       6.271   6.139  39.040  1.00  0.00    +0.000 C 
ATOM     68  F7  UNL A   1       6.317   5.706  40.309  1.00  0.00    +0.000 F 
ATOM     69  C48 UNL A   1       7.182   5.659  38.114  1.00  0.00    +0.000 C 
ATOM     70  F8  UNL A   1       8.102   4.755  38.481  1.00  0.00    +0.000 F 
ATOM     71  C49 UNL A   1       7.122   6.092  36.799  1.00  0.00    +0.000 C 
ATOM     72  F9  UNL A   1       7.969   5.590  35.889  1.00  0.00    +0.000 F 
ATOM     73  C50 UNL A   1       6.163   7.026  36.413  1.00  0.00    +0.000 C 
ATOM     74  F10 UNL A   1       6.113   7.403  35.125  1.00  0.00    +0.000 F 
ATOM     64  C45 UNL A   1       5.228   7.525  37.328  1.00  0.00    +0.000 C 
ENDBRANCH   63   64
BRANCH   78   79
ATOM     79  C54 UNL A   1       5.813  13.443  39.491  1.00  0.00    +0.000 C 
ATOM     80  C55 UNL A   1       5.059  14.520  39.980  1.00  0.00    +0.000 C 
ATOM     81  F11 UNL A   1       3.741  14.385  40.181  1.00  0.00    +0.000 F 
ATOM     82  C56 UNL A   1       5.661  15.732  40.335  1.00  0.00    +0.000 C 
ATOM     83  F12 UNL A   1       4.919  16.718  40.857  1.00  0.00    +0.000 F 
ATOM     84  C57 UNL A   1       7.029  15.901  40.199  1.00  0.00    +0.000 C 
ATOM     85  F13 UNL A   1       7.613  17.042  40.590  1.00  0.00    +0.000 F 
ATOM     86  C58 UNL A   1       7.796  14.868  39.696  1.00  0.00    +0.000 C 
ATOM     87  F14 UNL A   1       9.126  15.007  39.590  1.00  0.00    +0.000 F 
ATOM     88  C59 UNL A   1       7.199  13.655  39.354  1.00  0.00    +0.000 C 
ATOM     89  F15 UNL A   1       8.016  12.663  38.974  1.00  0.00    +0.000 F 
ENDBRANCH   78   79
TORSDOF 20
ENDMDL
MODEL 10
REMARK VINA RESULT:      -8.8      2.592      3.258
ROOT
ATOM    136  H36 UNL A   1      43.171  31.668  33.354  1.00  0.00    +0.000 H 
ATOM    137  H37 UNL A   1      44.882  32.048  31.349  1.00  0.00    +0.000 H 
ATOM    138  H38 UNL A   1      44.923  28.169  32.400  1.00  0.00    +0.000 H 
ATOM    139  H39 UNL A   1      41.102  27.439  25.054  1.00  0.00    +0.000 H 
ATOM    140  H40 UNL A   1      39.484  29.060  26.170  1.00  0.00    +0.000 H 
ATOM    141  H41 UNL A   1      42.396  28.095  28.973  1.00  0.00    +0.000 H 
ATOM    142  H42 UNL A   1      43.766  25.127  29.316  1.00  0.00    +0.000 H 
ATOM    143  H43 UNL A   1      44.808  26.747  31.026  1.00  0.00    +0.000 H 
ATOM    144  H44 UNL A   1      39.563  27.845  33.357  1.00  0.00    +0.000 H 
ATOM    145  H45 UNL A   1      38.335  27.988  31.105  1.00  0.00    +0.000 H 
ATOM     42  C30 UNL A   1      39.867  29.235  29.041  1.00  0.00    +0.000 C 
ATOM     43  C31 UNL A   1      40.257  29.011  30.469  1.00  0.00    +0.000 C 
ATOM     44  N9  UNL A   1      41.346  29.362  31.081  1.00  0.00    +0.000 N 
ATOM     45  C32 UNL A   1      41.267  28.813  32.362  1.00  0.00    +0.000 C 
ATOM     46  C33 UNL A   1      42.330  28.724  33.209  1.00  0.00    +0.000 C 
ATOM     58  C40 UNL A   1      43.415  29.580  32.830  1.00  0.00    +0.000 C 
ATOM     59  C41 UNL A   1      43.602  30.945  32.758  1.00  0.00    +0.000 C 
ATOM     60  C42 UNL A   1      44.519  31.142  31.685  1.00  0.00    +0.000 C 
ATOM     61  C43 UNL A   1      44.834  29.883  31.173  1.00  0.00    +0.000 C 
ATOM     62  N10 UNL A   1      44.486  29.024  32.182  1.00  0.00    +0.000 N 
ATOM     63  C44 UNL A   1      45.236  29.453  29.856  1.00  0.00    +0.000 C 
ATOM     75  C51 UNL A   1      45.070  28.186  29.376  1.00  0.00    +0.000 C 
ATOM     76  N11 UNL A   1      44.919  27.955  28.018  1.00  0.00    +0.000 N 
ATOM     77  C52 UNL A   1      44.203  26.867  27.942  1.00  0.00    +0.000 C 
ATOM     78  C53 UNL A   1      43.242  26.578  26.850  1.00  0.00    +0.000 C 
ATOM     90  C60 UNL A   1      42.203  27.435  26.976  1.00  0.00    +0.000 C 
ATOM     91  C61 UNL A   1      41.161  27.772  26.029  1.00  0.00    +0.000 C 
ATOM     92  C62 UNL A   1      40.280  28.595  26.633  1.00  0.00    +0.000 C 
ATOM     93  C63 UNL A   1      40.628  28.725  28.050  1.00  0.00    +0.000 C 
ATOM     94  N12 UNL A   1      41.843  28.089  28.158  1.00  0.00    +0.000 N 
ATOM     95  C64 UNL A   1      44.133  26.079  29.161  1.00  0.00    +0.000 C 
ATOM     96  C65 UNL A   1      44.678  26.941  30.021  1.00  0.00    +0.000 C 
ATOM     97  C66 UNL A   1      39.945  28.251  32.488  1.00  0.00    +0.000 C 
ATOM     98  C67 UNL A   1      39.284  28.325  31.333  1.00  0.00    +0.000 C 
ENDROOT
BRANCH   42   41
ATOM     99  C68 UNL A   1      38.352  31.216  28.952  1.00  0.00    +0.000 C 
ATOM    100  C69 UNL A   1      37.076  31.745  28.781  1.00  0.00    +0.000 C 
ATOM     38  C26 UNL A   1      35.997  30.927  28.399  1.00  0.00    +0.000 C 
ATOM     39  C27 UNL A   1      36.248  29.583  28.125  1.00  0.00    +0.000 C 
ATOM    134  H34 UNL A   1      35.487  28.983  27.767  1.00  0.00    +0.000 H 
ATOM     40  C28 UNL A   1      37.518  29.039  28.327  1.00  0.00    +0.000 C 
ATOM    135  H35 UNL A   1      37.684  28.038  28.144  1.00  0.00    +0.000 H 
ATOM     41  C29 UNL A   1      38.562  29.848  28.778  1.00  0.00    +0.000 C 
ATOM    146  H46 UNL A   1      39.139  31.833  29.206  1.00  0.00    +0.000 H 
ATOM    147  H47 UNL A   1      36.919  32.753  28.936  1.00  0.00    +0.000 H 
BRANCH   38   36
ATOM     36  C25 UNL A   1      34.670  31.604  28.334  1.00  0.00    +0.000 C 
ATOM     37  O3  UNL A   1      33.967  31.425  27.349  1.00  0.00    +0.000 O 
BRANCH   36   35
ATOM     35  N8  UNL A   1      34.188  32.468  29.282  1.00  0.00    +0.000 N 
ATOM    133  H33 UNL A   1      33.671  32.006  29.980  1.00  0.00    +0.000 H 
BRANCH   35   34
ATOM     34  C24 UNL A   1      34.256  33.896  29.502  1.00  0.00    +0.000 C 
ATOM    131  H31 UNL A   1      35.068  34.283  28.923  1.00  0.00    +0.000 H 
ATOM    132  H32 UNL A   1      33.304  34.289  29.215  1.00  0.00    +0.000 H 
BRANCH   34   33
ATOM     33  C23 UNL A   1      34.470  34.316  30.957  1.00  0.00    +0.000 C 
ATOM    130  H30 UNL A   1      33.590  34.857  31.236  1.00  0.00    +0.000 H 
ATOM    129  H29 UNL A   1      35.369  34.895  31.003  1.00  0.00    +0.000 H 
BRANCH   33   32
ATOM    128  H28 UNL A   1      35.448  32.606  31.651  1.00  0.00    +0.000 H 
ATOM    127  H27 UNL A   1      33.672  32.627  31.959  1.00  0.00    +0.000 H 
ATOM     32  C22 UNL A   1      34.595  33.170  31.968  1.00  0.00    +0.000 C 
BRANCH   32   31
ATOM    125  H25 UNL A   1      34.351  34.463  33.637  1.00  0.00    +0.000 H 
ATOM    126  H26 UNL A   1      34.588  32.727  34.019  1.00  0.00    +0.000 H 
ATOM     31  C21 UNL A   1      34.890  33.562  33.423  1.00  0.00    +0.000 C 
BRANCH   31   30
ATOM    123  H23 UNL A   1      36.706  34.641  33.178  1.00  0.00    +0.000 H 
ATOM    124  H24 UNL A   1      36.417  33.979  34.809  1.00  0.00    +0.000 H 
ATOM     30  C20 UNL A   1      36.367  33.806  33.756  1.00  0.00    +0.000 C 
BRANCH   30   29
ATOM    121  H21 UNL A   1      37.987  32.520  34.266  1.00  0.00    +0.000 H 
ATOM    122  H22 UNL A   1      36.673  31.745  33.373  1.00  0.00    +0.000 H 
ATOM     29  C19 UNL A   1      37.286  32.618  33.464  1.00  0.00    +0.000 C 
BRANCH   29   28
ATOM     28  N7  UNL A   1      38.016  32.777  32.223  1.00  0.00    +0.000 N 
ATOM    120  H20 UNL A   1      37.884  32.021  31.606  1.00  0.00    +0.000 H 
BRANCH   28   26
ATOM     26  C18 UNL A   1      38.837  33.724  31.717  1.00  0.00    +0.000 C 
ATOM     27  O2  UNL A   1      38.258  34.620  31.078  1.00  0.00    +0.000 O 
BRANCH   26    2
ATOM      2  C1  UNL A   1      40.372  33.849  31.904  1.00  0.00    +0.000 C 
ATOM    104  H4  UNL A   1      40.484  34.912  31.940  1.00  0.00    +0.000 H 
BRANCH    2    1
ATOM      1  N1  UNL A   1      40.788  33.224  33.175  1.00  0.00    +0.000 N 
ATOM    101  H1  UNL A   1      40.433  33.774  33.957  1.00  0.00    +0.000 H 
ATOM    102  H2  UNL A   1      41.807  33.189  33.220  1.00  0.00    +0.000 H 
ATOM    103  H3  UNL A   1      40.414  32.277  33.228  1.00  0.00    +0.000 H 
ENDBRANCH    2    1
BRANCH    2    3
ATOM    105  H5  UNL A   1      40.779  33.510  29.883  1.00  0.00    +0.000 H 
ATOM    106  H6  UNL A   1      42.077  33.065  31.146  1.00  0.00    +0.000 H 
ATOM      3  C2  UNL A   1      41.363  33.755  30.745  1.00  0.00    +0.000 C 
BRANCH    3    4
ATOM      4  C3  UNL A   1      42.272  34.877  30.311  1.00  0.00    +0.000 C 
ATOM      5  C4  UNL A   1      43.129  35.481  31.222  1.00  0.00    +0.000 C 
ATOM      6  N2  UNL A   1      43.682  36.597  30.651  1.00  0.00    +0.000 N 
ATOM    107  H7  UNL A   1      43.318  35.142  32.178  1.00  0.00    +0.000 H 
ATOM     20  C12 UNL A   1      43.316  36.664  29.322  1.00  0.00    +0.000 C 
ATOM     21  C13 UNL A   1      43.668  37.603  28.333  1.00  0.00    +0.000 C 
ATOM    116  H16 UNL A   1      44.269  38.410  28.561  1.00  0.00    +0.000 H 
ATOM     23  C15 UNL A   1      42.382  36.330  26.737  1.00  0.00    +0.000 C 
ATOM     24  C16 UNL A   1      42.031  35.407  27.732  1.00  0.00    +0.000 C 
ATOM     25  C17 UNL A   1      42.490  35.558  29.060  1.00  0.00    +0.000 C 
ATOM    119  H19 UNL A   1      41.426  34.606  27.492  1.00  0.00    +0.000 H 
ATOM    118  H18 UNL A   1      42.038  36.197  25.773  1.00  0.00    +0.000 H 
ATOM     22  C14 UNL A   1      43.187  37.416  27.038  1.00  0.00    +0.000 C 
ATOM    117  H17 UNL A   1      43.433  38.092  26.298  1.00  0.00    +0.000 H 
BRANCH    6    7
ATOM      7  C5  UNL A   1      44.427  37.565  31.364  1.00  0.00    +0.000 C 
ATOM      8  N3  UNL A   1      45.551  37.155  31.941  1.00  0.00    +0.000 N 
ATOM      9  C6  UNL A   1      46.238  38.158  32.461  1.00  0.00    +0.000 C 
ATOM     10 Cl1  UNL A   1      47.726  37.742  33.190  1.00  0.00    +0.000 Cl
ATOM     11  N4  UNL A   1      45.894  39.435  32.519  1.00  0.00    +0.000 N 
ATOM     12  C7  UNL A   1      44.696  39.707  32.021  1.00  0.00    +0.000 C 
ATOM     19  N6  UNL A   1      43.956  38.816  31.371  1.00  0.00    +0.000 N 
BRANCH   12   13
ATOM    108  H8  UNL A   1      42.478  41.699  33.275  1.00  0.00    +0.000 H 
ATOM    109  H9  UNL A   1      42.317  40.062  32.634  1.00  0.00    +0.000 H 
ATOM     13  N5  UNL A   1      44.162  40.938  32.333  1.00  0.00    +0.000 N 
ATOM     14  C8  UNL A   1      42.706  41.043  32.461  1.00  0.00    +0.000 C 
ATOM     15  C9  UNL A   1      42.056  41.593  31.188  1.00  0.00    +0.000 C 
ATOM     17  C10 UNL A   1      44.065  42.619  30.510  1.00  0.00    +0.000 C 
ATOM     18  C11 UNL A   1      44.828  42.104  31.745  1.00  0.00    +0.000 C 
ATOM    114  H14 UNL A   1      45.819  41.828  31.450  1.00  0.00    +0.000 H 
ATOM    115  H15 UNL A   1      44.853  42.884  32.476  1.00  0.00    +0.000 H 
ATOM    110  H10 UNL A   1      41.015  41.763  31.371  1.00  0.00    +0.000 H 
ATOM    111  H11 UNL A   1      42.186  40.877  30.403  1.00  0.00    +0.000 H 
ATOM     16  O1  UNL A   1      42.671  42.828  30.789  1.00  0.00    +0.000 O 
ATOM    112  H12 UNL A   1      44.497  43.547  30.198  1.00  0.00    +0.000 H 
ATOM    113  H13 UNL A   1      44.141  41.879  29.741  1.00  0.00    +0.000 H 
ENDBRANCH   12   13
ENDBRANCH    6    7
ENDBRANCH    3    4
ENDBRANCH    2    3
ENDBRANCH   26    2
ENDBRANCH   28   26
ENDBRANCH   29   28
ENDBRANCH   30   29
ENDBRANCH   31   30
ENDBRANCH   32   31
ENDBRANCH   33   32
ENDBRANCH   34   33
ENDBRANCH   35   34
ENDBRANCH   36   35
ENDBRANCH   38   36
ENDBRANCH   42   41
BRANCH   46   47
ATOM     47  C34 UNL A   1      42.482  27.676  34.276  1.00  0.00    +0.000 C 
ATOM     48  C35 UNL A   1      43.135  26.459  34.000  1.00  0.00    +0.000 C 
ATOM     49  F1  UNL A   1      43.793  26.285  32.844  1.00  0.00    +0.000 F 
ATOM     50  C36 UNL A   1      43.073  25.374  34.879  1.00  0.00    +0.000 C 
ATOM     51  F2  UNL A   1      43.639  24.207  34.540  1.00  0.00    +0.000 F 
ATOM     52  C37 UNL A   1      42.387  25.479  36.076  1.00  0.00    +0.000 C 
ATOM     53  F3  UNL A   1      42.298  24.429  36.904  1.00  0.00    +0.000 F 
ATOM     54  C38 UNL A   1      41.754  26.665  36.392  1.00  0.00    +0.000 C 
ATOM     55  F4  UNL A   1      41.064  26.775  37.536  1.00  0.00    +0.000 F 
ATOM     56  C39 UNL A   1      41.776  27.733  35.496  1.00  0.00    +0.000 C 
ATOM     57  F5  UNL A   1      41.013  28.789  35.810  1.00  0.00    +0.000 F 
ENDBRANCH   46   47
BRANCH   63   64
ATOM     65  C46 UNL A   1      44.578  31.252  28.163  1.00  0.00    +0.000 C 
ATOM     66  F6  UNL A   1      43.277  30.969  28.325  1.00  0.00    +0.000 F 
ATOM     67  C47 UNL A   1      44.919  32.314  27.329  1.00  0.00    +0.000 C 
ATOM     68  F7  UNL A   1      43.965  32.976  26.658  1.00  0.00    +0.000 F 
ATOM     69  C48 UNL A   1      46.242  32.710  27.217  1.00  0.00    +0.000 C 
ATOM     70  F8  UNL A   1      46.568  33.761  26.449  1.00  0.00    +0.000 F 
ATOM     71  C49 UNL A   1      47.225  32.039  27.926  1.00  0.00    +0.000 C 
ATOM     72  F9  UNL A   1      48.499  32.453  27.861  1.00  0.00    +0.000 F 
ATOM     73  C50 UNL A   1      46.890  30.952  28.731  1.00  0.00    +0.000 C 
ATOM     74  F10 UNL A   1      47.862  30.341  29.426  1.00  0.00    +0.000 F 
ATOM     64  C45 UNL A   1      45.560  30.532  28.864  1.00  0.00    +0.000 C 
ENDBRANCH   63   64
BRANCH   78   79
ATOM     79  C54 UNL A   1      43.301  25.339  26.041  1.00  0.00    +0.000 C 
ATOM     80  C55 UNL A   1      44.400  25.069  25.213  1.00  0.00    +0.000 C 
ATOM     81  F11 UNL A   1      45.323  26.015  24.986  1.00  0.00    +0.000 F 
ATOM     82  C56 UNL A   1      44.603  23.801  24.659  1.00  0.00    +0.000 C 
ATOM     83  F12 UNL A   1      45.696  23.562  23.923  1.00  0.00    +0.000 F 
ATOM     84  C57 UNL A   1      43.707  22.774  24.910  1.00  0.00    +0.000 C 
ATOM     85  F13 UNL A   1      43.932  21.546  24.425  1.00  0.00    +0.000 F 
ATOM     86  C58 UNL A   1      42.601  23.016  25.701  1.00  0.00    +0.000 C 
ATOM     87  F14 UNL A   1      41.744  22.022  25.979  1.00  0.00    +0.000 F 
ATOM     88  C59 UNL A   1      42.404  24.275  26.264  1.00  0.00    +0.000 C 
ATOM     89  F15 UNL A   1      41.369  24.409  27.107  1.00  0.00    +0.000 F 
ENDBRANCH   78   79
TORSDOF 20
ENDMDL
