MODEL 1
REMARK VINA RESULT:      -9.5      0.000      0.000
ROOT
ATOM    129  H31 UNL A   1      18.440  53.792  -1.668  1.00  0.00    +0.000 H 
ATOM    130  H32 UNL A   1      12.464  52.835   6.348  1.00  0.00    +0.000 H 
ATOM    131  H33 UNL A   1      12.294  50.318   5.914  1.00  0.00    +0.000 H 
ATOM     30  C22 UNL A   1      13.518  49.494   3.475  1.00  0.00    +0.000 C 
ATOM     31  C23 UNL A   1      13.554  50.858   4.106  1.00  0.00    +0.000 C 
ATOM     32  N3  UNL A   1      14.144  51.950   3.690  1.00  0.00    +0.000 N 
ATOM     33  C24 UNL A   1      13.822  52.931   4.618  1.00  0.00    +0.000 C 
ATOM     34  C25 UNL A   1      14.250  54.215   4.674  1.00  0.00    +0.000 C 
ATOM     46  C32 UNL A   1      15.151  54.807   3.721  1.00  0.00    +0.000 C 
ATOM     47  C33 UNL A   1      15.684  56.084   3.715  1.00  0.00    +0.000 C 
ATOM     48  C34 UNL A   1      16.460  56.229   2.561  1.00  0.00    +0.000 C 
ATOM     49  C35 UNL A   1      16.467  55.021   1.882  1.00  0.00    +0.000 C 
ATOM     50  N4  UNL A   1      15.652  54.159   2.601  1.00  0.00    +0.000 N 
ATOM     51  C36 UNL A   1      17.166  54.678   0.669  1.00  0.00    +0.000 C 
ATOM     63  C43 UNL A   1      17.120  53.467   0.062  1.00  0.00    +0.000 C 
ATOM     64  N5  UNL A   1      16.438  52.321   0.450  1.00  0.00    +0.000 N 
ATOM     65  C44 UNL A   1      16.701  51.418  -0.464  1.00  0.00    +0.000 C 
ATOM     66  C45 UNL A   1      16.261  49.979  -0.536  1.00  0.00    +0.000 C 
ATOM     78  C52 UNL A   1      15.494  49.479   0.452  1.00  0.00    +0.000 C 
ATOM     79  C53 UNL A   1      14.989  48.111   0.522  1.00  0.00    +0.000 C 
ATOM     80  C54 UNL A   1      14.210  47.987   1.608  1.00  0.00    +0.000 C 
ATOM     81  C55 UNL A   1      14.195  49.257   2.336  1.00  0.00    +0.000 C 
ATOM     82  N6  UNL A   1      14.995  50.080   1.582  1.00  0.00    +0.000 N 
ATOM     83  C56 UNL A   1      17.553  51.905  -1.558  1.00  0.00    +0.000 C 
ATOM     84  C57 UNL A   1      17.817  53.142  -1.165  1.00  0.00    +0.000 C 
ATOM     85  C58 UNL A   1      12.932  52.324   5.583  1.00  0.00    +0.000 C 
ATOM     86  C59 UNL A   1      12.798  51.027   5.357  1.00  0.00    +0.000 C 
ATOM    122  H24 UNL A   1      15.534  56.805   4.438  1.00  0.00    +0.000 H 
ATOM    123  H25 UNL A   1      16.946  57.090   2.265  1.00  0.00    +0.000 H 
ATOM    124  H26 UNL A   1      15.458  53.227   2.352  1.00  0.00    +0.000 H 
ATOM    125  H27 UNL A   1      15.199  47.359  -0.153  1.00  0.00    +0.000 H 
ATOM    126  H28 UNL A   1      13.700  47.133   1.885  1.00  0.00    +0.000 H 
ATOM    127  H29 UNL A   1      15.192  51.013   1.827  1.00  0.00    +0.000 H 
ATOM    128  H30 UNL A   1      17.863  51.412  -2.410  1.00  0.00    +0.000 H 
ENDROOT
BRANCH   30   29
ATOM    132  H34 UNL A   1      14.284  47.517   5.104  1.00  0.00    +0.000 H 
ATOM    133  H35 UNL A   1      12.969  45.675   5.972  1.00  0.00    +0.000 H 
ATOM    120  H22 UNL A   1       9.503  47.327   4.251  1.00  0.00    +0.000 H 
ATOM     87  C60 UNL A   1      13.275  47.461   4.897  1.00  0.00    +0.000 C 
ATOM     88  C61 UNL A   1      12.513  46.430   5.438  1.00  0.00    +0.000 C 
ATOM    121  H23 UNL A   1      10.861  49.022   3.164  1.00  0.00    +0.000 H 
ATOM     26  C18 UNL A   1      11.127  46.421   5.254  1.00  0.00    +0.000 C 
ATOM     27  C19 UNL A   1      10.521  47.360   4.418  1.00  0.00    +0.000 C 
ATOM     28  C20 UNL A   1      11.300  48.347   3.809  1.00  0.00    +0.000 C 
ATOM     29  C21 UNL A   1      12.677  48.424   4.070  1.00  0.00    +0.000 C 
BRANCH   26   24
ATOM     25  O6  UNL A   1      10.788  44.408   6.411  1.00  0.00    +0.000 O 
ATOM     24  C17 UNL A   1      10.282  45.421   5.939  1.00  0.00    +0.000 C 
BRANCH   24   23
ATOM    119  H21 UNL A   1       8.401  45.352   5.248  1.00  0.00    +0.000 H 
ATOM     23  N2  UNL A   1       8.929  45.628   6.033  1.00  0.00    +0.000 N 
BRANCH   23   22
ATOM    118  H20 UNL A   1       7.662  45.396   7.631  1.00  0.00    +0.000 H 
ATOM    117  H19 UNL A   1       7.472  46.909   6.735  1.00  0.00    +0.000 H 
ATOM     22  C16 UNL A   1       8.166  46.198   7.131  1.00  0.00    +0.000 C 
BRANCH   22   21
ATOM    115  H17 UNL A   1       8.566  46.862   9.101  1.00  0.00    +0.000 H 
ATOM    116  H18 UNL A   1       9.992  46.376   8.142  1.00  0.00    +0.000 H 
ATOM     21  C15 UNL A   1       9.057  46.896   8.151  1.00  0.00    +0.000 C 
BRANCH   21   20
ATOM    113  H15 UNL A   1       9.634  48.420   6.793  1.00  0.00    +0.000 H 
ATOM    114  H16 UNL A   1       8.493  48.913   8.084  1.00  0.00    +0.000 H 
ATOM     20  C14 UNL A   1       9.372  48.359   7.829  1.00  0.00    +0.000 C 
BRANCH   20   19
ATOM     19  C13 UNL A   1      10.512  48.979   8.643  1.00  0.00    +0.000 C 
ATOM    111  H13 UNL A   1      10.392  50.042   8.625  1.00  0.00    +0.000 H 
ATOM    112  H14 UNL A   1      10.441  48.559   9.624  1.00  0.00    +0.000 H 
BRANCH   19   18
ATOM     18  C12 UNL A   1      11.919  48.653   8.141  1.00  0.00    +0.000 C 
ATOM    109  H11 UNL A   1      11.836  48.253   7.152  1.00  0.00    +0.000 H 
ATOM    110  H12 UNL A   1      12.475  49.565   8.177  1.00  0.00    +0.000 H 
BRANCH   18   17
ATOM     17  C11 UNL A   1      12.675  47.649   8.998  1.00  0.00    +0.000 C 
ATOM    107  H9  UNL A   1      12.629  47.970  10.018  1.00  0.00    +0.000 H 
ATOM    108  H10 UNL A   1      12.210  46.696   8.856  1.00  0.00    +0.000 H 
BRANCH   17   16
ATOM    106  H8  UNL A   1      14.234  46.884   7.881  1.00  0.00    +0.000 H 
ATOM     16  N1  UNL A   1      14.065  47.511   8.622  1.00  0.00    +0.000 N 
BRANCH   16   14
ATOM     14  C10 UNL A   1      15.180  48.113   9.134  1.00  0.00    +0.000 C 
ATOM     15  O5  UNL A   1      16.182  47.406   9.252  1.00  0.00    +0.000 O 
BRANCH   14   13
ATOM      1  O1  UNL A   1      18.427  50.887   8.661  1.00  0.00    +0.000 O 
ATOM      2  C1  UNL A   1      17.383  50.525   9.175  1.00  0.00    +0.000 C 
ATOM      3  O2  UNL A   1      17.217  50.236  10.489  1.00  0.00    +0.000 O 
ATOM      4  C2  UNL A   1      15.837  49.949  10.778  1.00  0.00    +0.000 C 
ATOM     99  H1  UNL A   1      15.726  49.110  11.434  1.00  0.00    +0.000 H 
ATOM    105  H7  UNL A   1      14.146  49.888   9.394  1.00  0.00    +0.000 H 
ATOM     13  C9  UNL A   1      15.180  49.616   9.442  1.00  0.00    +0.000 C 
ATOM     89  C62 UNL A   1      16.084  50.345   8.504  1.00  0.00    +0.000 C 
BRANCH    4    5
ATOM    100  H2  UNL A   1      16.506  51.039  13.208  1.00  0.00    +0.000 H 
ATOM      5  C3  UNL A   1      15.176  51.088  11.562  1.00  0.00    +0.000 C 
ATOM      6  C4  UNL A   1      15.708  51.543  12.790  1.00  0.00    +0.000 C 
ATOM      7  C5  UNL A   1      15.185  52.656  13.457  1.00  0.00    +0.000 C 
ATOM    104  H6  UNL A   1      13.658  51.480  10.139  1.00  0.00    +0.000 H 
ATOM    101  H3  UNL A   1      15.602  52.980  14.343  1.00  0.00    +0.000 H 
ATOM     10  C7  UNL A   1      13.545  52.873  11.714  1.00  0.00    +0.000 C 
ATOM      8  C6  UNL A   1      14.100  53.319  12.908  1.00  0.00    +0.000 C 
ATOM     12  C8  UNL A   1      14.075  51.782  11.034  1.00  0.00    +0.000 C 
BRANCH    8    9
ATOM      9  O3  UNL A   1      13.547  54.416  13.505  1.00  0.00    +0.000 O 
ATOM    102  H4  UNL A   1      13.407  55.198  13.009  1.00  0.00    +0.000 H 
ENDBRANCH    8    9
BRANCH   10   11
ATOM     11  O4  UNL A   1      12.466  53.523  11.186  1.00  0.00    +0.000 O 
ATOM    103  H5  UNL A   1      12.569  54.381  10.820  1.00  0.00    +0.000 H 
ENDBRANCH   10   11
ENDBRANCH    4    5
BRANCH   89   90
ATOM     90  C63 UNL A   1      15.890  50.828   7.269  1.00  0.00    +0.000 C 
ATOM    134  H36 UNL A   1      15.304  51.673   7.167  1.00  0.00    +0.000 H 
BRANCH   90   91
ATOM     98  C69 UNL A   1      17.018  51.073   5.086  1.00  0.00    +0.000 C 
ATOM    135  H37 UNL A   1      15.963  48.237   6.540  1.00  0.00    +0.000 H 
ATOM    136  H38 UNL A   1      16.903  47.277   4.511  1.00  0.00    +0.000 H 
ATOM    139  H41 UNL A   1      17.050  52.094   5.234  1.00  0.00    +0.000 H 
ATOM     91  C64 UNL A   1      16.453  50.237   6.055  1.00  0.00    +0.000 C 
ATOM     92  C65 UNL A   1      16.399  48.852   5.834  1.00  0.00    +0.000 C 
ATOM     93  C66 UNL A   1      16.931  48.298   4.666  1.00  0.00    +0.000 C 
ATOM     94  C67 UNL A   1      17.500  49.139   3.718  1.00  0.00    +0.000 C 
ATOM     96  C68 UNL A   1      17.536  50.515   3.927  1.00  0.00    +0.000 C 
BRANCH   94   95
ATOM    137  H39 UNL A   1      17.879  49.106   1.747  1.00  0.00    +0.000 H 
ATOM     95  O7  UNL A   1      18.035  48.658   2.555  1.00  0.00    +0.000 O 
ENDBRANCH   94   95
BRANCH   96   97
ATOM     97  O8  UNL A   1      18.082  51.333   2.980  1.00  0.00    +0.000 O 
ATOM    138  H40 UNL A   1      18.866  51.077   2.535  1.00  0.00    +0.000 H 
ENDBRANCH   96   97
ENDBRANCH   90   91
ENDBRANCH   89   90
ENDBRANCH   14   13
ENDBRANCH   16   14
ENDBRANCH   17   16
ENDBRANCH   18   17
ENDBRANCH   19   18
ENDBRANCH   20   19
ENDBRANCH   21   20
ENDBRANCH   22   21
ENDBRANCH   23   22
ENDBRANCH   24   23
ENDBRANCH   26   24
ENDBRANCH   30   29
BRANCH   34   35
ATOM     35  C26 UNL A   1      13.743  55.069   5.802  1.00  0.00    +0.000 C 
ATOM     36  C27 UNL A   1      12.748  56.039   5.604  1.00  0.00    +0.000 C 
ATOM     37  F1  UNL A   1      12.252  56.259   4.377  1.00  0.00    +0.000 F 
ATOM     38  C28 UNL A   1      12.289  56.823   6.660  1.00  0.00    +0.000 C 
ATOM     39  F2  UNL A   1      11.382  57.783   6.435  1.00  0.00    +0.000 F 
ATOM     40  C29 UNL A   1      12.783  56.624   7.940  1.00  0.00    +0.000 C 
ATOM     41  F3  UNL A   1      12.335  57.373   8.957  1.00  0.00    +0.000 F 
ATOM     42  C30 UNL A   1      13.747  55.652   8.165  1.00  0.00    +0.000 C 
ATOM     43  F4  UNL A   1      14.215  55.447   9.404  1.00  0.00    +0.000 F 
ATOM     44  C31 UNL A   1      14.234  54.892   7.104  1.00  0.00    +0.000 C 
ATOM     45  F5  UNL A   1      15.182  53.976   7.352  1.00  0.00    +0.000 F 
ENDBRANCH   34   35
BRANCH   51   52
ATOM     52  C37 UNL A   1      18.040  55.731   0.049  1.00  0.00    +0.000 C 
ATOM     53  C38 UNL A   1      17.607  56.511  -1.033  1.00  0.00    +0.000 C 
ATOM     54  F6  UNL A   1      16.405  56.291  -1.585  1.00  0.00    +0.000 F 
ATOM     55  C39 UNL A   1      18.427  57.496  -1.578  1.00  0.00    +0.000 C 
ATOM     56  F7  UNL A   1      18.013  58.195  -2.644  1.00  0.00    +0.000 F 
ATOM     57  C40 UNL A   1      19.675  57.747  -1.028  1.00  0.00    +0.000 C 
ATOM     58  F8  UNL A   1      20.457  58.704  -1.547  1.00  0.00    +0.000 F 
ATOM     59  C41 UNL A   1      20.116  57.002   0.054  1.00  0.00    +0.000 C 
ATOM     60  F9  UNL A   1      21.314  57.255   0.599  1.00  0.00    +0.000 F 
ATOM     61  C42 UNL A   1      19.314  55.993   0.579  1.00  0.00    +0.000 C 
ATOM     62  F10 UNL A   1      19.773  55.282   1.620  1.00  0.00    +0.000 F 
ENDBRANCH   51   52
BRANCH   66   67
ATOM     67  C46 UNL A   1      16.681  49.110  -1.667  1.00  0.00    +0.000 C 
ATOM     68  C47 UNL A   1      17.909  48.434  -1.638  1.00  0.00    +0.000 C 
ATOM     69  F11 UNL A   1      18.724  48.573  -0.583  1.00  0.00    +0.000 F 
ATOM     70  C48 UNL A   1      18.327  47.651  -2.713  1.00  0.00    +0.000 C 
ATOM     71  F12 UNL A   1      19.529  47.062  -2.680  1.00  0.00    +0.000 F 
ATOM     72  C49 UNL A   1      17.509  47.498  -3.822  1.00  0.00    +0.000 C 
ATOM     73  F13 UNL A   1      17.910  46.744  -4.854  1.00  0.00    +0.000 F 
ATOM     74  C50 UNL A   1      16.279  48.137  -3.863  1.00  0.00    +0.000 C 
ATOM     75  F14 UNL A   1      15.478  47.980  -4.925  1.00  0.00    +0.000 F 
ATOM     76  C51 UNL A   1      15.875  48.947  -2.803  1.00  0.00    +0.000 C 
ATOM     77  F15 UNL A   1      14.688  49.565  -2.879  1.00  0.00    +0.000 F 
ENDBRANCH   66   67
TORSDOF 22
ENDMDL
MODEL 2
REMARK VINA RESULT:      -9.1      0.620      2.046
ROOT
ATOM    129  H31 UNL A   1      18.405  53.409  -2.171  1.00  0.00    +0.000 H 
ATOM    130  H32 UNL A   1      12.395  52.913   5.862  1.00  0.00    +0.000 H 
ATOM    131  H33 UNL A   1      12.277  50.368   5.609  1.00  0.00    +0.000 H 
ATOM     30  C22 UNL A   1      13.533  49.395   3.243  1.00  0.00    +0.000 C 
ATOM     31  C23 UNL A   1      13.538  50.801   3.774  1.00  0.00    +0.000 C 
ATOM     32  N3  UNL A   1      14.110  51.872   3.283  1.00  0.00    +0.000 N 
ATOM     33  C24 UNL A   1      13.762  52.911   4.137  1.00  0.00    +0.000 C 
ATOM     34  C25 UNL A   1      14.164  54.204   4.101  1.00  0.00    +0.000 C 
ATOM     46  C32 UNL A   1      15.060  54.744   3.113  1.00  0.00    +0.000 C 
ATOM     47  C33 UNL A   1      15.568  56.027   3.018  1.00  0.00    +0.000 C 
ATOM     48  C34 UNL A   1      16.349  56.104   1.861  1.00  0.00    +0.000 C 
ATOM     49  C35 UNL A   1      16.384  54.851   1.271  1.00  0.00    +0.000 C 
ATOM     50  N4  UNL A   1      15.582  54.027   2.045  1.00  0.00    +0.000 N 
ATOM     51  C36 UNL A   1      17.098  54.435   0.089  1.00  0.00    +0.000 C 
ATOM     63  C43 UNL A   1      17.079  53.183  -0.429  1.00  0.00    +0.000 C 
ATOM     64  N5  UNL A   1      16.417  52.054   0.037  1.00  0.00    +0.000 N 
ATOM     65  C44 UNL A   1      16.705  51.094  -0.808  1.00  0.00    +0.000 C 
ATOM     66  C45 UNL A   1      16.293  49.645  -0.778  1.00  0.00    +0.000 C 
ATOM     78  C52 UNL A   1      15.529  49.201   0.239  1.00  0.00    +0.000 C 
ATOM     79  C53 UNL A   1      15.051  47.832   0.406  1.00  0.00    +0.000 C 
ATOM     80  C54 UNL A   1      14.267  47.772   1.493  1.00  0.00    +0.000 C 
ATOM     81  C55 UNL A   1      14.223  49.090   2.127  1.00  0.00    +0.000 C 
ATOM     82  N6  UNL A   1      15.011  49.872   1.320  1.00  0.00    +0.000 N 
ATOM     83  C56 UNL A   1      17.554  51.517  -1.930  1.00  0.00    +0.000 C 
ATOM     84  C57 UNL A   1      17.791  52.785  -1.625  1.00  0.00    +0.000 C 
ATOM     85  C58 UNL A   1      12.878  52.357   5.138  1.00  0.00    +0.000 C 
ATOM     86  C59 UNL A   1      12.770  51.045   5.006  1.00  0.00    +0.000 C 
ATOM    122  H24 UNL A   1      15.399  56.795   3.686  1.00  0.00    +0.000 H 
ATOM    123  H25 UNL A   1      16.820  56.951   1.507  1.00  0.00    +0.000 H 
ATOM    124  H26 UNL A   1      15.408  53.075   1.864  1.00  0.00    +0.000 H 
ATOM    125  H27 UNL A   1      15.280  47.039  -0.213  1.00  0.00    +0.000 H 
ATOM    126  H28 UNL A   1      13.772  46.930   1.828  1.00  0.00    +0.000 H 
ATOM    127  H29 UNL A   1      15.188  50.824   1.499  1.00  0.00    +0.000 H 
ATOM    128  H30 UNL A   1      17.879  50.971  -2.742  1.00  0.00    +0.000 H 
ENDROOT
BRANCH   30   29
ATOM    132  H34 UNL A   1      14.344  47.494   4.939  1.00  0.00    +0.000 H 
ATOM    133  H35 UNL A   1      13.055  45.695   5.927  1.00  0.00    +0.000 H 
ATOM    120  H22 UNL A   1       9.542  47.268   4.227  1.00  0.00    +0.000 H 
ATOM     87  C60 UNL A   1      13.330  47.429   4.763  1.00  0.00    +0.000 C 
ATOM     88  C61 UNL A   1      12.583  46.425   5.371  1.00  0.00    +0.000 C 
ATOM    121  H23 UNL A   1      10.869  48.911   3.026  1.00  0.00    +0.000 H 
ATOM     26  C18 UNL A   1      11.194  46.408   5.226  1.00  0.00    +0.000 C 
ATOM     27  C19 UNL A   1      10.564  47.309   4.364  1.00  0.00    +0.000 C 
ATOM     28  C20 UNL A   1      11.325  48.266   3.689  1.00  0.00    +0.000 C 
ATOM     29  C21 UNL A   1      12.710  48.354   3.909  1.00  0.00    +0.000 C 
BRANCH   26   24
ATOM     25  O6  UNL A   1      10.869  44.407   6.406  1.00  0.00    +0.000 O 
ATOM     24  C17 UNL A   1      10.368  45.442   5.979  1.00  0.00    +0.000 C 
BRANCH   24   23
ATOM    119  H21 UNL A   1       8.481  45.746   5.374  1.00  0.00    +0.000 H 
ATOM     23  N2  UNL A   1       9.037  45.704   6.186  1.00  0.00    +0.000 N 
BRANCH   23   22
ATOM    118  H20 UNL A   1       8.158  44.975   7.891  1.00  0.00    +0.000 H 
ATOM    117  H19 UNL A   1       7.417  46.438   7.232  1.00  0.00    +0.000 H 
ATOM     22  C16 UNL A   1       8.335  45.929   7.439  1.00  0.00    +0.000 C 
BRANCH   22   21
ATOM    115  H17 UNL A   1       8.690  46.697   9.379  1.00  0.00    +0.000 H 
ATOM    116  H18 UNL A   1      10.145  46.368   8.397  1.00  0.00    +0.000 H 
ATOM     21  C15 UNL A   1       9.152  46.764   8.416  1.00  0.00    +0.000 C 
BRANCH   21   20
ATOM    113  H15 UNL A   1       9.353  48.315   6.982  1.00  0.00    +0.000 H 
ATOM    114  H16 UNL A   1       8.395  48.718   8.442  1.00  0.00    +0.000 H 
ATOM     20  C14 UNL A   1       9.270  48.245   8.047  1.00  0.00    +0.000 C 
BRANCH   20   19
ATOM     19  C13 UNL A   1      10.463  48.982   8.664  1.00  0.00    +0.000 C 
ATOM    111  H13 UNL A   1      10.300  50.033   8.547  1.00  0.00    +0.000 H 
ATOM    112  H14 UNL A   1      10.511  48.670   9.686  1.00  0.00    +0.000 H 
BRANCH   19   18
ATOM     18  C12 UNL A   1      11.822  48.642   8.051  1.00  0.00    +0.000 C 
ATOM    109  H11 UNL A   1      11.653  48.099   7.145  1.00  0.00    +0.000 H 
ATOM    110  H12 UNL A   1      12.327  49.572   7.893  1.00  0.00    +0.000 H 
BRANCH   18   17
ATOM     17  C11 UNL A   1      12.723  47.805   8.946  1.00  0.00    +0.000 C 
ATOM    107  H9  UNL A   1      12.744  48.249   9.919  1.00  0.00    +0.000 H 
ATOM    108  H10 UNL A   1      12.319  46.814   8.966  1.00  0.00    +0.000 H 
BRANCH   17   16
ATOM    106  H8  UNL A   1      14.203  47.095   7.694  1.00  0.00    +0.000 H 
ATOM     16  N1  UNL A   1      14.080  47.707   8.456  1.00  0.00    +0.000 N 
BRANCH   16   14
ATOM     14  C10 UNL A   1      15.220  48.328   8.887  1.00  0.00    +0.000 C 
ATOM     15  O5  UNL A   1      16.246  47.648   8.903  1.00  0.00    +0.000 O 
BRANCH   14   13
ATOM      1  O1  UNL A   1      18.420  51.156   8.409  1.00  0.00    +0.000 O 
ATOM      2  C1  UNL A   1      17.391  50.768   8.937  1.00  0.00    +0.000 C 
ATOM      3  O2  UNL A   1      17.257  50.447  10.246  1.00  0.00    +0.000 O 
ATOM      4  C2  UNL A   1      15.887  50.136  10.558  1.00  0.00    +0.000 C 
ATOM     99  H1  UNL A   1      15.800  49.281  11.196  1.00  0.00    +0.000 H 
ATOM    105  H7  UNL A   1      14.169  50.084   9.208  1.00  0.00    +0.000 H 
ATOM     13  C9  UNL A   1      15.206  49.825   9.228  1.00  0.00    +0.000 C 
ATOM     89  C62 UNL A   1      16.081  50.587   8.289  1.00  0.00    +0.000 C 
BRANCH    4    5
ATOM    100  H2  UNL A   1      15.961  50.611  13.261  1.00  0.00    +0.000 H 
ATOM      5  C3  UNL A   1      15.227  51.248  11.380  1.00  0.00    +0.000 C 
ATOM      6  C4  UNL A   1      15.430  51.350  12.776  1.00  0.00    +0.000 C 
ATOM      7  C5  UNL A   1      14.932  52.426  13.520  1.00  0.00    +0.000 C 
ATOM    104  H6  UNL A   1      14.310  52.220   9.739  1.00  0.00    +0.000 H 
ATOM    101  H3  UNL A   1      15.107  52.487  14.535  1.00  0.00    +0.000 H 
ATOM     10  C7  UNL A   1      13.967  53.313  11.506  1.00  0.00    +0.000 C 
ATOM      8  C6  UNL A   1      14.199  53.407  12.874  1.00  0.00    +0.000 C 
ATOM     12  C8  UNL A   1      14.480  52.259  10.757  1.00  0.00    +0.000 C 
BRANCH    8    9
ATOM      9  O3  UNL A   1      13.691  54.485  13.540  1.00  0.00    +0.000 O 
ATOM    102  H4  UNL A   1      14.268  55.093  13.956  1.00  0.00    +0.000 H 
ENDBRANCH    8    9
BRANCH   10   11
ATOM     11  O4  UNL A   1      13.231  54.278  10.877  1.00  0.00    +0.000 O 
ATOM    103  H5  UNL A   1      13.282  54.372   9.946  1.00  0.00    +0.000 H 
ENDBRANCH   10   11
ENDBRANCH    4    5
BRANCH   89   90
ATOM     90  C63 UNL A   1      15.855  51.094   7.069  1.00  0.00    +0.000 C 
ATOM    134  H36 UNL A   1      15.227  51.910   6.995  1.00  0.00    +0.000 H 
BRANCH   90   91
ATOM     98  C69 UNL A   1      16.365  49.197   5.574  1.00  0.00    +0.000 C 
ATOM    135  H37 UNL A   1      17.183  52.423   5.140  1.00  0.00    +0.000 H 
ATOM    136  H38 UNL A   1      18.154  51.524   3.098  1.00  0.00    +0.000 H 
ATOM    139  H41 UNL A   1      15.888  48.565   6.237  1.00  0.00    +0.000 H 
ATOM     91  C64 UNL A   1      16.441  50.568   5.836  1.00  0.00    +0.000 C 
ATOM     92  C65 UNL A   1      17.109  51.413   4.936  1.00  0.00    +0.000 C 
ATOM     93  C66 UNL A   1      17.675  50.900   3.766  1.00  0.00    +0.000 C 
ATOM     94  C67 UNL A   1      17.581  49.537   3.512  1.00  0.00    +0.000 C 
ATOM     96  C68 UNL A   1      16.936  48.695   4.414  1.00  0.00    +0.000 C 
BRANCH   94   95
ATOM    137  H39 UNL A   1      18.981  49.206   2.112  1.00  0.00    +0.000 H 
ATOM     95  O7  UNL A   1      18.116  48.973   2.387  1.00  0.00    +0.000 O 
ENDBRANCH   94   95
BRANCH   96   97
ATOM     97  O8  UNL A   1      16.866  47.354   4.163  1.00  0.00    +0.000 O 
ATOM    138  H40 UNL A   1      17.652  46.848   4.094  1.00  0.00    +0.000 H 
ENDBRANCH   96   97
ENDBRANCH   90   91
ENDBRANCH   89   90
ENDBRANCH   14   13
ENDBRANCH   16   14
ENDBRANCH   17   16
ENDBRANCH   18   17
ENDBRANCH   19   18
ENDBRANCH   20   19
ENDBRANCH   21   20
ENDBRANCH   22   21
ENDBRANCH   23   22
ENDBRANCH   24   23
ENDBRANCH   26   24
ENDBRANCH   30   29
BRANCH   34   35
ATOM     35  C26 UNL A   1      13.634  55.126   5.162  1.00  0.00    +0.000 C 
ATOM     36  C27 UNL A   1      14.209  55.189   6.441  1.00  0.00    +0.000 C 
ATOM     37  F1  UNL A   1      15.232  54.383   6.763  1.00  0.00    +0.000 F 
ATOM     38  C28 UNL A   1      13.706  56.049   7.414  1.00  0.00    +0.000 C 
ATOM     39  F2  UNL A   1      14.235  56.048   8.645  1.00  0.00    +0.000 F 
ATOM     40  C29 UNL A   1      12.648  56.894   7.115  1.00  0.00    +0.000 C 
ATOM     41  F3  UNL A   1      12.170  57.728   8.050  1.00  0.00    +0.000 F 
ATOM     42  C30 UNL A   1      12.081  56.870   5.850  1.00  0.00    +0.000 C 
ATOM     43  F4  UNL A   1      11.068  57.696   5.555  1.00  0.00    +0.000 F 
ATOM     44  C31 UNL A   1      12.558  55.984   4.887  1.00  0.00    +0.000 C 
ATOM     45  F5  UNL A   1      11.973  55.971   3.680  1.00  0.00    +0.000 F 
ENDBRANCH   34   35
BRANCH   51   52
ATOM     52  C37 UNL A   1      17.955  55.458  -0.600  1.00  0.00    +0.000 C 
ATOM     53  C38 UNL A   1      19.308  55.634  -0.275  1.00  0.00    +0.000 C 
ATOM     54  F6  UNL A   1      19.862  54.921   0.717  1.00  0.00    +0.000 F 
ATOM     55  C39 UNL A   1      20.088  56.575  -0.943  1.00  0.00    +0.000 C 
ATOM     56  F7  UNL A   1      21.365  56.762  -0.581  1.00  0.00    +0.000 F 
ATOM     57  C40 UNL A   1      19.543  57.327  -1.973  1.00  0.00    +0.000 C 
ATOM     58  F8  UNL A   1      20.299  58.223  -2.622  1.00  0.00    +0.000 F 
ATOM     59  C41 UNL A   1      18.214  57.156  -2.325  1.00  0.00    +0.000 C 
ATOM     60  F9  UNL A   1      17.690  57.868  -3.333  1.00  0.00    +0.000 F 
ATOM     61  C42 UNL A   1      17.422  56.242  -1.637  1.00  0.00    +0.000 C 
ATOM     62  F10 UNL A   1      16.136  56.107  -1.994  1.00  0.00    +0.000 F 
ENDBRANCH   51   52
BRANCH   66   67
ATOM     67  C46 UNL A   1      16.737  48.705  -1.841  1.00  0.00    +0.000 C 
ATOM     68  C47 UNL A   1      15.919  48.431  -2.948  1.00  0.00    +0.000 C 
ATOM     69  F11 UNL A   1      14.717  49.016  -3.052  1.00  0.00    +0.000 F 
ATOM     70  C48 UNL A   1      16.312  47.520  -3.927  1.00  0.00    +0.000 C 
ATOM     71  F12 UNL A   1      15.487  47.237  -4.943  1.00  0.00    +0.000 F 
ATOM     72  C49 UNL A   1      17.545  46.893  -3.839  1.00  0.00    +0.000 C 
ATOM     73  F13 UNL A   1      17.923  46.017  -4.780  1.00  0.00    +0.000 F 
ATOM     74  C50 UNL A   1      18.381  47.166  -2.767  1.00  0.00    +0.000 C 
ATOM     75  F14 UNL A   1      19.581  46.575  -2.686  1.00  0.00    +0.000 F 
ATOM     76  C51 UNL A   1      17.976  48.052  -1.770  1.00  0.00    +0.000 C 
ATOM     77  F15 UNL A   1      18.799  48.283  -0.738  1.00  0.00    +0.000 F 
ENDBRANCH   66   67
TORSDOF 22
ENDMDL
MODEL 3
REMARK VINA RESULT:      -9.0      1.475      7.996
ROOT
ATOM    129  H31 UNL A   1      17.146  56.666   2.026  1.00  0.00    +0.000 H 
ATOM    130  H32 UNL A   1      15.238  46.970   0.223  1.00  0.00    +0.000 H 
ATOM    131  H33 UNL A   1      13.370  47.018   1.972  1.00  0.00    +0.000 H 
ATOM     30  C22 UNL A   1      13.232  49.464   3.431  1.00  0.00    +0.000 C 
ATOM     31  C23 UNL A   1      14.103  49.148   2.246  1.00  0.00    +0.000 C 
ATOM     32  N3  UNL A   1      14.973  49.907   1.630  1.00  0.00    +0.000 N 
ATOM     33  C24 UNL A   1      15.532  49.111   0.638  1.00  0.00    +0.000 C 
ATOM     34  C25 UNL A   1      16.429  49.457  -0.316  1.00  0.00    +0.000 C 
ATOM     46  C32 UNL A   1      16.987  50.776  -0.460  1.00  0.00    +0.000 C 
ATOM     47  C33 UNL A   1      17.865  51.241  -1.423  1.00  0.00    +0.000 C 
ATOM     48  C34 UNL A   1      18.176  52.572  -1.125  1.00  0.00    +0.000 C 
ATOM     49  C35 UNL A   1      17.440  52.957  -0.016  1.00  0.00    +0.000 C 
ATOM     50  N4  UNL A   1      16.721  51.842   0.387  1.00  0.00    +0.000 N 
ATOM     51  C36 UNL A   1      17.395  54.247   0.627  1.00  0.00    +0.000 C 
ATOM     63  C43 UNL A   1      16.646  54.545   1.717  1.00  0.00    +0.000 C 
ATOM     64  N5  UNL A   1      15.775  53.730   2.429  1.00  0.00    +0.000 N 
ATOM     65  C44 UNL A   1      15.297  54.472   3.398  1.00  0.00    +0.000 C 
ATOM     66  C45 UNL A   1      14.282  54.122   4.454  1.00  0.00    +0.000 C 
ATOM     78  C52 UNL A   1      13.737  52.890   4.456  1.00  0.00    +0.000 C 
ATOM     79  C53 UNL A   1      12.746  52.403   5.411  1.00  0.00    +0.000 C 
ATOM     80  C54 UNL A   1      12.483  51.113   5.149  1.00  0.00    +0.000 C 
ATOM     81  C55 UNL A   1      13.253  50.694   3.977  1.00  0.00    +0.000 C 
ATOM     82  N6  UNL A   1      13.960  51.818   3.627  1.00  0.00    +0.000 N 
ATOM     83  C56 UNL A   1      15.843  55.837   3.431  1.00  0.00    +0.000 C 
ATOM     84  C57 UNL A   1      16.622  55.842   2.360  1.00  0.00    +0.000 C 
ATOM     85  C58 UNL A   1      14.953  47.794   0.775  1.00  0.00    +0.000 C 
ATOM     86  C59 UNL A   1      14.008  47.783   1.702  1.00  0.00    +0.000 C 
ATOM    122  H24 UNL A   1      18.228  50.700  -2.223  1.00  0.00    +0.000 H 
ATOM    123  H25 UNL A   1      18.842  53.166  -1.643  1.00  0.00    +0.000 H 
ATOM    124  H26 UNL A   1      16.112  51.812   1.161  1.00  0.00    +0.000 H 
ATOM    125  H27 UNL A   1      12.317  52.960   6.166  1.00  0.00    +0.000 H 
ATOM    126  H28 UNL A   1      11.839  50.513   5.687  1.00  0.00    +0.000 H 
ATOM    127  H29 UNL A   1      14.569  51.852   2.854  1.00  0.00    +0.000 H 
ATOM    128  H30 UNL A   1      15.666  56.591   4.112  1.00  0.00    +0.000 H 
ENDROOT
BRANCH   30   29
ATOM    132  H34 UNL A   1      13.938  47.702   5.314  1.00  0.00    +0.000 H 
ATOM    133  H35 UNL A   1      12.650  45.862   6.225  1.00  0.00    +0.000 H 
ATOM    120  H22 UNL A   1       9.293  47.105   4.015  1.00  0.00    +0.000 H 
ATOM     87  C60 UNL A   1      12.961  47.558   5.014  1.00  0.00    +0.000 C 
ATOM     88  C61 UNL A   1      12.209  46.531   5.576  1.00  0.00    +0.000 C 
ATOM    121  H23 UNL A   1      10.655  48.783   2.906  1.00  0.00    +0.000 H 
ATOM     26  C18 UNL A   1      10.854  46.409   5.258  1.00  0.00    +0.000 C 
ATOM     27  C19 UNL A   1      10.284  47.224   4.278  1.00  0.00    +0.000 C 
ATOM     28  C20 UNL A   1      11.063  48.202   3.654  1.00  0.00    +0.000 C 
ATOM     29  C21 UNL A   1      12.398  48.398   4.042  1.00  0.00    +0.000 C 
BRANCH   26   24
ATOM     25  O6  UNL A   1      10.501  44.407   6.428  1.00  0.00    +0.000 O 
ATOM     24  C17 UNL A   1      10.002  45.421   5.951  1.00  0.00    +0.000 C 
BRANCH   24   23
ATOM    119  H21 UNL A   1       8.136  45.486   5.220  1.00  0.00    +0.000 H 
ATOM     23  N2  UNL A   1       8.650  45.640   6.046  1.00  0.00    +0.000 N 
BRANCH   23   22
ATOM    118  H20 UNL A   1       7.694  45.206   7.809  1.00  0.00    +0.000 H 
ATOM    117  H19 UNL A   1       6.957  46.498   6.854  1.00  0.00    +0.000 H 
ATOM     22  C16 UNL A   1       7.873  46.066   7.198  1.00  0.00    +0.000 C 
BRANCH   22   21
ATOM    115  H17 UNL A   1       8.119  47.163   8.991  1.00  0.00    +0.000 H 
ATOM    116  H18 UNL A   1       9.624  46.752   8.121  1.00  0.00    +0.000 H 
ATOM     21  C15 UNL A   1       8.613  47.094   8.044  1.00  0.00    +0.000 C 
BRANCH   21   20
ATOM    113  H15 UNL A   1       8.543  48.405   6.378  1.00  0.00    +0.000 H 
ATOM    114  H16 UNL A   1       7.906  49.062   7.918  1.00  0.00    +0.000 H 
ATOM     20  C14 UNL A   1       8.676  48.497   7.436  1.00  0.00    +0.000 C 
BRANCH   20   19
ATOM     19  C13 UNL A   1       9.979  49.263   7.683  1.00  0.00    +0.000 C 
ATOM    111  H13 UNL A   1      10.699  48.575   8.072  1.00  0.00    +0.000 H 
ATOM    112  H14 UNL A   1      10.260  49.687   6.742  1.00  0.00    +0.000 H 
BRANCH   19   18
ATOM     18  C12 UNL A   1       9.868  50.434   8.660  1.00  0.00    +0.000 C 
ATOM    109  H11 UNL A   1       8.930  50.921   8.492  1.00  0.00    +0.000 H 
ATOM    110  H12 UNL A   1       9.952  50.021   9.643  1.00  0.00    +0.000 H 
BRANCH   18   17
ATOM     17  C11 UNL A   1      10.973  51.471   8.528  1.00  0.00    +0.000 C 
ATOM    107  H9  UNL A   1      11.280  51.512   7.504  1.00  0.00    +0.000 H 
ATOM    108  H10 UNL A   1      10.574  52.405   8.865  1.00  0.00    +0.000 H 
BRANCH   17   16
ATOM    106  H8  UNL A   1      11.927  50.878  10.260  1.00  0.00    +0.000 H 
ATOM     16  N1  UNL A   1      12.130  51.178   9.344  1.00  0.00    +0.000 N 
BRANCH   16   14
ATOM     14  C10 UNL A   1      13.462  51.253   9.044  1.00  0.00    +0.000 C 
ATOM     15  O5  UNL A   1      14.107  52.132   9.617  1.00  0.00    +0.000 O 
BRANCH   14   13
ATOM      1  O1  UNL A   1      15.735  47.783  10.162  1.00  0.00    +0.000 O 
ATOM      2  C1  UNL A   1      15.427  48.665   9.379  1.00  0.00    +0.000 C 
ATOM      3  O2  UNL A   1      16.261  49.629   8.919  1.00  0.00    +0.000 O 
ATOM      4  C2  UNL A   1      15.606  50.440   7.927  1.00  0.00    +0.000 C 
ATOM     99  H1  UNL A   1      15.816  51.482   8.052  1.00  0.00    +0.000 H 
ATOM    105  H7  UNL A   1      13.547  50.301   7.207  1.00  0.00    +0.000 H 
ATOM     13  C9  UNL A   1      14.108  50.218   8.114  1.00  0.00    +0.000 C 
ATOM     89  C62 UNL A   1      14.110  48.868   8.751  1.00  0.00    +0.000 C 
BRANCH    4    5
ATOM    100  H2  UNL A   1      16.761  52.126   6.093  1.00  0.00    +0.000 H 
ATOM      5  C3  UNL A   1      16.136  50.149   6.519  1.00  0.00    +0.000 C 
ATOM      6  C4  UNL A   1      16.749  51.157   5.740  1.00  0.00    +0.000 C 
ATOM      7  C5  UNL A   1      17.342  50.879   4.503  1.00  0.00    +0.000 C 
ATOM    104  H6  UNL A   1      15.677  48.082   6.535  1.00  0.00    +0.000 H 
ATOM    101  H3  UNL A   1      17.799  51.628   3.961  1.00  0.00    +0.000 H 
ATOM     10  C7  UNL A   1      16.686  48.581   4.756  1.00  0.00    +0.000 C 
ATOM      8  C6  UNL A   1      17.306  49.583   4.017  1.00  0.00    +0.000 C 
ATOM     12  C8  UNL A   1      16.116  48.846   5.997  1.00  0.00    +0.000 C 
BRANCH    8    9
ATOM      9  O3  UNL A   1      17.871  49.244   2.821  1.00  0.00    +0.000 O 
ATOM    102  H4  UNL A   1      18.467  48.523   2.772  1.00  0.00    +0.000 H 
ENDBRANCH    8    9
BRANCH   10   11
ATOM     11  O4  UNL A   1      16.643  47.307   4.264  1.00  0.00    +0.000 O 
ATOM    103  H5  UNL A   1      16.029  47.086   3.590  1.00  0.00    +0.000 H 
ENDBRANCH   10   11
ENDBRANCH    4    5
BRANCH   89   90
ATOM     90  C63 UNL A   1      13.180  47.903   8.806  1.00  0.00    +0.000 C 
ATOM    134  H36 UNL A   1      12.818  47.530   7.914  1.00  0.00    +0.000 H 
BRANCH   90   91
ATOM     98  C69 UNL A   1      12.803  45.980  10.308  1.00  0.00    +0.000 C 
ATOM    135  H37 UNL A   1      11.809  49.155  10.756  1.00  0.00    +0.000 H 
ATOM    136  H38 UNL A   1      10.924  48.203  12.813  1.00  0.00    +0.000 H 
ATOM    139  H41 UNL A   1      13.306  45.377   9.638  1.00  0.00    +0.000 H 
ATOM     91  C64 UNL A   1      12.645  47.346  10.048  1.00  0.00    +0.000 C 
ATOM     92  C65 UNL A   1      11.944  48.151  10.959  1.00  0.00    +0.000 C 
ATOM     93  C66 UNL A   1      11.427  47.607  12.138  1.00  0.00    +0.000 C 
ATOM     94  C67 UNL A   1      11.603  46.252  12.389  1.00  0.00    +0.000 C 
ATOM     96  C68 UNL A   1      12.280  45.447  11.477  1.00  0.00    +0.000 C 
BRANCH   94   95
ATOM    137  H39 UNL A   1      10.734  44.806  13.478  1.00  0.00    +0.000 H 
ATOM     95  O7  UNL A   1      11.119  45.659  13.523  1.00  0.00    +0.000 O 
ENDBRANCH   94   95
BRANCH   96   97
ATOM     97  O8  UNL A   1      12.431  44.113  11.726  1.00  0.00    +0.000 O 
ATOM    138  H40 UNL A   1      13.150  43.644  11.350  1.00  0.00    +0.000 H 
ENDBRANCH   96   97
ENDBRANCH   90   91
ENDBRANCH   89   90
ENDBRANCH   14   13
ENDBRANCH   16   14
ENDBRANCH   17   16
ENDBRANCH   18   17
ENDBRANCH   19   18
ENDBRANCH   20   19
ENDBRANCH   21   20
ENDBRANCH   22   21
ENDBRANCH   23   22
ENDBRANCH   24   23
ENDBRANCH   26   24
ENDBRANCH   30   29
BRANCH   34   35
ATOM     35  C26 UNL A   1      16.867  48.390  -1.279  1.00  0.00    +0.000 C 
ATOM     36  C27 UNL A   1      16.133  48.096  -2.439  1.00  0.00    +0.000 C 
ATOM     37  F1  UNL A   1      14.986  48.742  -2.695  1.00  0.00    +0.000 F 
ATOM     38  C28 UNL A   1      16.552  47.104  -3.323  1.00  0.00    +0.000 C 
ATOM     39  F2  UNL A   1      15.805  46.802  -4.392  1.00  0.00    +0.000 F 
ATOM     40  C29 UNL A   1      17.733  46.416  -3.086  1.00  0.00    +0.000 C 
ATOM     41  F3  UNL A   1      18.139  45.467  -3.941  1.00  0.00    +0.000 F 
ATOM     42  C30 UNL A   1      18.488  46.707  -1.960  1.00  0.00    +0.000 C 
ATOM     43  F4  UNL A   1      19.637  46.054  -1.738  1.00  0.00    +0.000 F 
ATOM     44  C31 UNL A   1      18.053  47.673  -1.057  1.00  0.00    +0.000 C 
ATOM     45  F5  UNL A   1      18.796  47.915   0.033  1.00  0.00    +0.000 F 
ENDBRANCH   34   35
BRANCH   51   52
ATOM     52  C37 UNL A   1      18.213  55.353   0.024  1.00  0.00    +0.000 C 
ATOM     53  C38 UNL A   1      17.816  56.015  -1.146  1.00  0.00    +0.000 C 
ATOM     54  F6  UNL A   1      16.708  55.630  -1.798  1.00  0.00    +0.000 F 
ATOM     55  C39 UNL A   1      18.581  57.052  -1.676  1.00  0.00    +0.000 C 
ATOM     56  F7  UNL A   1      18.210  57.637  -2.823  1.00  0.00    +0.000 F 
ATOM     57  C40 UNL A   1      19.731  57.473  -1.025  1.00  0.00    +0.000 C 
ATOM     58  F8  UNL A   1      20.458  58.479  -1.529  1.00  0.00    +0.000 F 
ATOM     59  C41 UNL A   1      20.131  56.846   0.145  1.00  0.00    +0.000 C 
ATOM     60  F9  UNL A   1      21.232  57.262   0.786  1.00  0.00    +0.000 F 
ATOM     61  C42 UNL A   1      19.389  55.786   0.658  1.00  0.00    +0.000 C 
ATOM     62  F10 UNL A   1      19.809  55.192   1.785  1.00  0.00    +0.000 F 
ENDBRANCH   51   52
BRANCH   66   67
ATOM     67  C46 UNL A   1      13.864  55.123   5.471  1.00  0.00    +0.000 C 
ATOM     68  C47 UNL A   1      14.305  55.027   6.799  1.00  0.00    +0.000 C 
ATOM     69  F11 UNL A   1      15.108  54.019   7.166  1.00  0.00    +0.000 F 
ATOM     70  C48 UNL A   1      13.884  55.938   7.766  1.00  0.00    +0.000 C 
ATOM     71  F12 UNL A   1      14.277  55.789   9.038  1.00  0.00    +0.000 F 
ATOM     72  C49 UNL A   1      13.044  56.984   7.417  1.00  0.00    +0.000 C 
ATOM     73  F13 UNL A   1      12.640  57.861   8.347  1.00  0.00    +0.000 F 
ATOM     74  C50 UNL A   1      12.615  57.115   6.105  1.00  0.00    +0.000 C 
ATOM     75  F14 UNL A   1      11.816  58.134   5.759  1.00  0.00    +0.000 F 
ATOM     76  C51 UNL A   1      13.009  56.185   5.144  1.00  0.00    +0.000 C 
ATOM     77  F15 UNL A   1      12.564  56.328   3.888  1.00  0.00    +0.000 F 
ENDBRANCH   66   67
TORSDOF 22
ENDMDL
MODEL 4
REMARK VINA RESULT:      -8.8      1.433      4.250
ROOT
ATOM    129  H31 UNL A   1      18.690  53.260  -1.701  1.00  0.00    +0.000 H 
ATOM    130  H32 UNL A   1      12.189  52.960   5.950  1.00  0.00    +0.000 H 
ATOM    131  H33 UNL A   1      12.024  50.418   5.703  1.00  0.00    +0.000 H 
ATOM     30  C22 UNL A   1      13.398  49.400   3.422  1.00  0.00    +0.000 C 
ATOM     31  C23 UNL A   1      13.406  50.809   3.947  1.00  0.00    +0.000 C 
ATOM     32  N3  UNL A   1      14.032  51.862   3.486  1.00  0.00    +0.000 N 
ATOM     33  C24 UNL A   1      13.659  52.915   4.312  1.00  0.00    +0.000 C 
ATOM     34  C25 UNL A   1      14.094  54.197   4.296  1.00  0.00    +0.000 C 
ATOM     46  C32 UNL A   1      15.062  54.709   3.362  1.00  0.00    +0.000 C 
ATOM     47  C33 UNL A   1      15.607  55.979   3.292  1.00  0.00    +0.000 C 
ATOM     48  C34 UNL A   1      16.459  56.030   2.185  1.00  0.00    +0.000 C 
ATOM     49  C35 UNL A   1      16.498  54.772   1.604  1.00  0.00    +0.000 C 
ATOM     50  N4  UNL A   1      15.630  53.973   2.331  1.00  0.00    +0.000 N 
ATOM     51  C36 UNL A   1      17.273  54.332   0.470  1.00  0.00    +0.000 C 
ATOM     63  C43 UNL A   1      17.255  53.077  -0.042  1.00  0.00    +0.000 C 
ATOM     64  N5  UNL A   1      16.538  51.968   0.387  1.00  0.00    +0.000 N 
ATOM     65  C44 UNL A   1      16.853  50.995  -0.434  1.00  0.00    +0.000 C 
ATOM     66  C45 UNL A   1      16.404  49.557  -0.423  1.00  0.00    +0.000 C 
ATOM     78  C52 UNL A   1      15.569  49.139   0.548  1.00  0.00    +0.000 C 
ATOM     79  C53 UNL A   1      15.048  47.783   0.691  1.00  0.00    +0.000 C 
ATOM     80  C54 UNL A   1      14.197  47.748   1.728  1.00  0.00    +0.000 C 
ATOM     81  C55 UNL A   1      14.147  49.071   2.353  1.00  0.00    +0.000 C 
ATOM     82  N6  UNL A   1      15.002  49.829   1.592  1.00  0.00    +0.000 N 
ATOM     83  C56 UNL A   1      17.779  51.391  -1.504  1.00  0.00    +0.000 C 
ATOM     84  C57 UNL A   1      18.028  52.654  -1.191  1.00  0.00    +0.000 C 
ATOM     85  C58 UNL A   1      12.702  52.389   5.260  1.00  0.00    +0.000 C 
ATOM     86  C59 UNL A   1      12.570  51.078   5.128  1.00  0.00    +0.000 C 
ATOM    122  H24 UNL A   1      15.416  56.755   3.945  1.00  0.00    +0.000 H 
ATOM    123  H25 UNL A   1      16.971  56.863   1.856  1.00  0.00    +0.000 H 
ATOM    124  H26 UNL A   1      15.444  53.025   2.144  1.00  0.00    +0.000 H 
ATOM    125  H27 UNL A   1      15.294  46.980   0.091  1.00  0.00    +0.000 H 
ATOM    126  H28 UNL A   1      13.663  46.921   2.037  1.00  0.00    +0.000 H 
ATOM    127  H29 UNL A   1      15.192  50.778   1.777  1.00  0.00    +0.000 H 
ATOM    128  H30 UNL A   1      18.140  50.832  -2.292  1.00  0.00    +0.000 H 
ENDROOT
BRANCH   30   29
ATOM    132  H34 UNL A   1      13.861  47.923   5.603  1.00  0.00    +0.000 H 
ATOM    133  H35 UNL A   1      12.499  46.157   6.552  1.00  0.00    +0.000 H 
ATOM    120  H22 UNL A   1       9.477  46.962   3.738  1.00  0.00    +0.000 H 
ATOM     87  C60 UNL A   1      12.944  47.699   5.187  1.00  0.00    +0.000 C 
ATOM     88  C61 UNL A   1      12.142  46.719   5.765  1.00  0.00    +0.000 C 
ATOM    121  H23 UNL A   1      10.946  48.545   2.626  1.00  0.00    +0.000 H 
ATOM     26  C18 UNL A   1      10.853  46.498   5.273  1.00  0.00    +0.000 C 
ATOM     27  C19 UNL A   1      10.415  47.157   4.123  1.00  0.00    +0.000 C 
ATOM     28  C20 UNL A   1      11.252  48.081   3.495  1.00  0.00    +0.000 C 
ATOM     29  C21 UNL A   1      12.510  48.384   4.042  1.00  0.00    +0.000 C 
BRANCH   26   24
ATOM     25  O6  UNL A   1      10.369  44.553   6.492  1.00  0.00    +0.000 O 
ATOM     24  C17 UNL A   1       9.933  45.569   5.960  1.00  0.00    +0.000 C 
BRANCH   24   23
ATOM    119  H21 UNL A   1       8.143  45.877   5.111  1.00  0.00    +0.000 H 
ATOM     23  N2  UNL A   1       8.588  45.843   5.989  1.00  0.00    +0.000 N 
BRANCH   23   22
ATOM    118  H20 UNL A   1       8.070  45.469   7.938  1.00  0.00    +0.000 H 
ATOM    117  H19 UNL A   1       6.721  45.862   6.866  1.00  0.00    +0.000 H 
ATOM     22  C16 UNL A   1       7.731  46.090   7.136  1.00  0.00    +0.000 C 
BRANCH   22   21
ATOM    115  H17 UNL A   1       6.909  47.751   8.160  1.00  0.00    +0.000 H 
ATOM    116  H18 UNL A   1       8.690  47.624   8.191  1.00  0.00    +0.000 H 
ATOM     21  C15 UNL A   1       7.800  47.538   7.605  1.00  0.00    +0.000 C 
BRANCH   21   20
ATOM    113  H15 UNL A   1       8.031  48.040   5.558  1.00  0.00    +0.000 H 
ATOM    114  H16 UNL A   1       7.031  49.164   6.531  1.00  0.00    +0.000 H 
ATOM     20  C14 UNL A   1       7.919  48.570   6.481  1.00  0.00    +0.000 C 
BRANCH   20   19
ATOM     19  C13 UNL A   1       9.090  49.548   6.610  1.00  0.00    +0.000 C 
ATOM    111  H13 UNL A   1       9.604  49.577   5.672  1.00  0.00    +0.000 H 
ATOM    112  H14 UNL A   1       8.664  50.489   6.891  1.00  0.00    +0.000 H 
BRANCH   19   18
ATOM     18  C12 UNL A   1      10.108  49.202   7.697  1.00  0.00    +0.000 C 
ATOM    109  H11 UNL A   1       9.594  48.698   8.488  1.00  0.00    +0.000 H 
ATOM    110  H12 UNL A   1      10.856  48.594   7.233  1.00  0.00    +0.000 H 
BRANCH   18   17
ATOM     17  C11 UNL A   1      10.830  50.403   8.289  1.00  0.00    +0.000 C 
ATOM    107  H9  UNL A   1      10.972  51.130   7.516  1.00  0.00    +0.000 H 
ATOM    108  H10 UNL A   1      10.222  50.778   9.086  1.00  0.00    +0.000 H 
BRANCH   17   16
ATOM    106  H8  UNL A   1      12.116  49.319   9.487  1.00  0.00    +0.000 H 
ATOM     16  N1  UNL A   1      12.121  50.072   8.852  1.00  0.00    +0.000 N 
BRANCH   16   14
ATOM     14  C10 UNL A   1      13.346  50.642   8.641  1.00  0.00    +0.000 C 
ATOM     15  O5  UNL A   1      13.524  51.760   9.124  1.00  0.00    +0.000 O 
BRANCH   14   13
ATOM      1  O1  UNL A   1      17.078  49.277  10.276  1.00  0.00    +0.000 O 
ATOM      2  C1  UNL A   1      16.367  49.618   9.346  1.00  0.00    +0.000 C 
ATOM      3  O2  UNL A   1      16.583  50.694   8.550  1.00  0.00    +0.000 O 
ATOM      4  C2  UNL A   1      15.617  50.743   7.485  1.00  0.00    +0.000 C 
ATOM     99  H1  UNL A   1      15.250  51.734   7.315  1.00  0.00    +0.000 H 
ATOM    105  H7  UNL A   1      13.946  49.386   7.108  1.00  0.00    +0.000 H 
ATOM     13  C9  UNL A   1      14.453  49.859   7.922  1.00  0.00    +0.000 C 
ATOM     89  C62 UNL A   1      15.149  48.941   8.870  1.00  0.00    +0.000 C 
BRANCH    4    5
ATOM    100  H2  UNL A   1      16.880  52.328   5.631  1.00  0.00    +0.000 H 
ATOM      5  C3  UNL A   1      16.244  50.372   6.136  1.00  0.00    +0.000 C 
ATOM      6  C4  UNL A   1      16.900  51.338   5.339  1.00  0.00    +0.000 C 
ATOM      7  C5  UNL A   1      17.578  50.992   4.165  1.00  0.00    +0.000 C 
ATOM    104  H6  UNL A   1      15.803  48.305   6.251  1.00  0.00    +0.000 H 
ATOM    101  H3  UNL A   1      18.065  51.713   3.609  1.00  0.00    +0.000 H 
ATOM     10  C7  UNL A   1      16.926  48.706   4.516  1.00  0.00    +0.000 C 
ATOM      8  C6  UNL A   1      17.587  49.668   3.760  1.00  0.00    +0.000 C 
ATOM     12  C8  UNL A   1      16.271  49.039   5.697  1.00  0.00    +0.000 C 
BRANCH    8    9
ATOM      9  O3  UNL A   1      18.235  49.264   2.628  1.00  0.00    +0.000 O 
ATOM    102  H4  UNL A   1      17.943  48.502   2.168  1.00  0.00    +0.000 H 
ENDBRANCH    8    9
BRANCH   10   11
ATOM     11  O4  UNL A   1      16.928  47.404   4.102  1.00  0.00    +0.000 O 
ATOM    103  H5  UNL A   1      17.566  47.111   3.481  1.00  0.00    +0.000 H 
ENDBRANCH   10   11
ENDBRANCH    4    5
BRANCH   89   90
ATOM     90  C63 UNL A   1      14.858  47.701   9.291  1.00  0.00    +0.000 C 
ATOM    134  H36 UNL A   1      15.483  46.933   8.999  1.00  0.00    +0.000 H 
BRANCH   90   91
ATOM     98  C69 UNL A   1      13.533  48.050  11.345  1.00  0.00    +0.000 C 
ATOM    135  H37 UNL A   1      12.969  45.825   8.896  1.00  0.00    +0.000 H 
ATOM    136  H38 UNL A   1      11.075  45.281  10.324  1.00  0.00    +0.000 H 
ATOM    139  H41 UNL A   1      14.191  48.794  11.626  1.00  0.00    +0.000 H 
ATOM     91  C64 UNL A   1      13.714  47.366  10.138  1.00  0.00    +0.000 C 
ATOM     92  C65 UNL A   1      12.822  46.344   9.776  1.00  0.00    +0.000 C 
ATOM     93  C66 UNL A   1      11.738  46.024  10.598  1.00  0.00    +0.000 C 
ATOM     94  C67 UNL A   1      11.563  46.720  11.787  1.00  0.00    +0.000 C 
ATOM     96  C68 UNL A   1      12.458  47.720  12.157  1.00  0.00    +0.000 C 
BRANCH   94   95
ATOM    137  H39 UNL A   1      10.326  47.042  13.335  1.00  0.00    +0.000 H 
ATOM     95  O7  UNL A   1      10.523  46.452  12.635  1.00  0.00    +0.000 O 
ENDBRANCH   94   95
BRANCH   96   97
ATOM     97  O8  UNL A   1      12.286  48.385  13.337  1.00  0.00    +0.000 O 
ATOM    138  H40 UNL A   1      11.668  48.070  13.968  1.00  0.00    +0.000 H 
ENDBRANCH   96   97
ENDBRANCH   90   91
ENDBRANCH   89   90
ENDBRANCH   14   13
ENDBRANCH   16   14
ENDBRANCH   17   16
ENDBRANCH   18   17
ENDBRANCH   19   18
ENDBRANCH   20   19
ENDBRANCH   21   20
ENDBRANCH   22   21
ENDBRANCH   23   22
ENDBRANCH   24   23
ENDBRANCH   26   24
ENDBRANCH   30   29
BRANCH   34   35
ATOM     35  C26 UNL A   1      13.523  55.139   5.317  1.00  0.00    +0.000 C 
ATOM     36  C27 UNL A   1      14.000  55.174   6.638  1.00  0.00    +0.000 C 
ATOM     37  F1  UNL A   1      14.961  54.325   7.032  1.00  0.00    +0.000 F 
ATOM     38  C28 UNL A   1      13.460  56.053   7.574  1.00  0.00    +0.000 C 
ATOM     39  F2  UNL A   1      13.892  56.027   8.841  1.00  0.00    +0.000 F 
ATOM     40  C29 UNL A   1      12.465  56.943   7.199  1.00  0.00    +0.000 C 
ATOM     41  F3  UNL A   1      11.952  57.793   8.098  1.00  0.00    +0.000 F 
ATOM     42  C30 UNL A   1      11.997  56.945   5.894  1.00  0.00    +0.000 C 
ATOM     43  F4  UNL A   1      11.045  57.814   5.526  1.00  0.00    +0.000 F 
ATOM     44  C31 UNL A   1      12.508  56.042   4.965  1.00  0.00    +0.000 C 
ATOM     45  F5  UNL A   1      12.018  56.056   3.717  1.00  0.00    +0.000 F 
ENDBRANCH   34   35
BRANCH   51   52
ATOM     52  C37 UNL A   1      18.196  55.330  -0.171  1.00  0.00    +0.000 C 
ATOM     53  C38 UNL A   1      17.884  55.953  -1.387  1.00  0.00    +0.000 C 
ATOM     54  F6  UNL A   1      16.763  55.624  -2.047  1.00  0.00    +0.000 F 
ATOM     55  C39 UNL A   1      18.746  56.891  -1.952  1.00  0.00    +0.000 C 
ATOM     56  F7  UNL A   1      18.452  57.436  -3.141  1.00  0.00    +0.000 F 
ATOM     57  C40 UNL A   1      19.912  57.251  -1.294  1.00  0.00    +0.000 C 
ATOM     58  F8  UNL A   1      20.733  58.163  -1.833  1.00  0.00    +0.000 F 
ATOM     59  C41 UNL A   1      20.230  56.663  -0.080  1.00  0.00    +0.000 C 
ATOM     60  F9  UNL A   1      21.347  57.023   0.568  1.00  0.00    +0.000 F 
ATOM     61  C42 UNL A   1      19.389  55.700   0.470  1.00  0.00    +0.000 C 
ATOM     62  F10 UNL A   1      19.730  55.140   1.640  1.00  0.00    +0.000 F 
ENDBRANCH   51   52
BRANCH   66   67
ATOM     67  C46 UNL A   1      16.889  48.600  -1.452  1.00  0.00    +0.000 C 
ATOM     68  C47 UNL A   1      16.165  48.387  -2.635  1.00  0.00    +0.000 C 
ATOM     69  F11 UNL A   1      15.017  49.047  -2.844  1.00  0.00    +0.000 F 
ATOM     70  C48 UNL A   1      16.593  47.461  -3.585  1.00  0.00    +0.000 C 
ATOM     71  F12 UNL A   1      15.853  47.239  -4.679  1.00  0.00    +0.000 F 
ATOM     72  C49 UNL A   1      17.771  46.757  -3.389  1.00  0.00    +0.000 C 
ATOM     73  F13 UNL A   1      18.182  45.868  -4.303  1.00  0.00    +0.000 F 
ATOM     74  C50 UNL A   1      18.517  46.969  -2.240  1.00  0.00    +0.000 C 
ATOM     75  F14 UNL A   1      19.664  46.303  -2.054  1.00  0.00    +0.000 F 
ATOM     76  C51 UNL A   1      18.073  47.871  -1.274  1.00  0.00    +0.000 C 
ATOM     77  F15 UNL A   1      18.807  48.041  -0.165  1.00  0.00    +0.000 F 
ENDBRANCH   66   67
TORSDOF 22
ENDMDL
MODEL 5
REMARK VINA RESULT:      -8.7      1.676      4.016
ROOT
ATOM    129  H31 UNL A   1      18.542  53.017  -1.303  1.00  0.00    +0.000 H 
ATOM    130  H32 UNL A   1      11.808  53.418   6.138  1.00  0.00    +0.000 H 
ATOM    131  H33 UNL A   1      11.658  50.862   6.133  1.00  0.00    +0.000 H 
ATOM     30  C22 UNL A   1      13.105  49.637   4.005  1.00  0.00    +0.000 C 
ATOM     31  C23 UNL A   1      13.092  51.090   4.390  1.00  0.00    +0.000 C 
ATOM     32  N3  UNL A   1      13.729  52.098   3.850  1.00  0.00    +0.000 N 
ATOM     33  C24 UNL A   1      13.327  53.223   4.558  1.00  0.00    +0.000 C 
ATOM     34  C25 UNL A   1      13.759  54.500   4.431  1.00  0.00    +0.000 C 
ATOM     46  C32 UNL A   1      14.755  54.925   3.482  1.00  0.00    +0.000 C 
ATOM     47  C33 UNL A   1      15.297  56.186   3.307  1.00  0.00    +0.000 C 
ATOM     48  C34 UNL A   1      16.183  56.135   2.227  1.00  0.00    +0.000 C 
ATOM     49  C35 UNL A   1      16.244  54.827   1.771  1.00  0.00    +0.000 C 
ATOM     50  N4  UNL A   1      15.356  54.097   2.546  1.00  0.00    +0.000 N 
ATOM     51  C36 UNL A   1      17.055  54.285   0.710  1.00  0.00    +0.000 C 
ATOM     63  C43 UNL A   1      17.057  52.986   0.321  1.00  0.00    +0.000 C 
ATOM     64  N5  UNL A   1      16.330  51.919   0.833  1.00  0.00    +0.000 N 
ATOM     65  C44 UNL A   1      16.673  50.874   0.120  1.00  0.00    +0.000 C 
ATOM     66  C45 UNL A   1      16.229  49.441   0.256  1.00  0.00    +0.000 C 
ATOM     78  C52 UNL A   1      15.365  49.113   1.237  1.00  0.00    +0.000 C 
ATOM     79  C53 UNL A   1      14.843  47.774   1.494  1.00  0.00    +0.000 C 
ATOM     80  C54 UNL A   1      13.961  47.835   2.503  1.00  0.00    +0.000 C 
ATOM     81  C55 UNL A   1      13.888  49.212   2.995  1.00  0.00    +0.000 C 
ATOM     82  N6  UNL A   1      14.764  49.897   2.191  1.00  0.00    +0.000 N 
ATOM     83  C56 UNL A   1      17.631  51.170  -0.954  1.00  0.00    +0.000 C 
ATOM     84  C57 UNL A   1      17.867  52.459  -0.758  1.00  0.00    +0.000 C 
ATOM     85  C58 UNL A   1      12.343  52.786   5.523  1.00  0.00    +0.000 C 
ATOM     86  C59 UNL A   1      12.219  51.468   5.513  1.00  0.00    +0.000 C 
ATOM    122  H24 UNL A   1      15.084  57.020   3.876  1.00  0.00    +0.000 H 
ATOM    123  H25 UNL A   1      16.703  56.935   1.835  1.00  0.00    +0.000 H 
ATOM    124  H26 UNL A   1      15.179  53.134   2.445  1.00  0.00    +0.000 H 
ATOM    125  H27 UNL A   1      15.111  46.919   0.982  1.00  0.00    +0.000 H 
ATOM    126  H28 UNL A   1      13.420  47.038   2.873  1.00  0.00    +0.000 H 
ATOM    127  H29 UNL A   1      14.945  50.860   2.289  1.00  0.00    +0.000 H 
ATOM    128  H30 UNL A   1      18.018  50.540  -1.673  1.00  0.00    +0.000 H 
ENDROOT
BRANCH   30   29
ATOM    132  H34 UNL A   1      13.589  48.220   6.220  1.00  0.00    +0.000 H 
ATOM    133  H35 UNL A   1      12.195  46.545   7.281  1.00  0.00    +0.000 H 
ATOM    120  H22 UNL A   1       9.105  47.373   4.547  1.00  0.00    +0.000 H 
ATOM     87  C60 UNL A   1      12.649  48.019   5.845  1.00  0.00    +0.000 C 
ATOM     88  C61 UNL A   1      11.831  47.093   6.486  1.00  0.00    +0.000 C 
ATOM    121  H23 UNL A   1      10.593  48.855   3.327  1.00  0.00    +0.000 H 
ATOM     26  C18 UNL A   1      10.517  46.908   6.049  1.00  0.00    +0.000 C 
ATOM     27  C19 UNL A   1      10.063  47.543   4.891  1.00  0.00    +0.000 C 
ATOM     28  C20 UNL A   1      10.913  48.410   4.201  1.00  0.00    +0.000 C 
ATOM     29  C21 UNL A   1      12.201  48.681   4.692  1.00  0.00    +0.000 C 
BRANCH   26   24
ATOM     25  O6  UNL A   1       9.672  44.821   6.707  1.00  0.00    +0.000 O 
ATOM     24  C17 UNL A   1       9.587  46.041   6.801  1.00  0.00    +0.000 C 
BRANCH   24   23
ATOM    119  H21 UNL A   1       7.812  46.916   7.125  1.00  0.00    +0.000 H 
ATOM     23  N2  UNL A   1       8.622  46.610   7.595  1.00  0.00    +0.000 N 
BRANCH   23   22
ATOM    118  H20 UNL A   1       8.929  45.906   9.497  1.00  0.00    +0.000 H 
ATOM    117  H19 UNL A   1       7.650  47.116   9.343  1.00  0.00    +0.000 H 
ATOM     22  C16 UNL A   1       8.631  46.823   9.032  1.00  0.00    +0.000 C 
BRANCH   22   21
ATOM    115  H17 UNL A   1       9.456  48.125  10.483  1.00  0.00    +0.000 H 
ATOM    116  H18 UNL A   1      10.597  47.509   9.255  1.00  0.00    +0.000 H 
ATOM     21  C15 UNL A   1       9.622  47.902   9.449  1.00  0.00    +0.000 C 
BRANCH   21   20
ATOM    113  H15 UNL A   1      10.273  49.198   7.902  1.00  0.00    +0.000 H 
ATOM    114  H16 UNL A   1       8.520  49.237   8.268  1.00  0.00    +0.000 H 
ATOM     20  C14 UNL A   1       9.516  49.208   8.658  1.00  0.00    +0.000 C 
BRANCH   20   19
ATOM     19  C13 UNL A   1       9.685  50.489   9.480  1.00  0.00    +0.000 C 
ATOM    111  H13 UNL A   1       8.713  50.834   9.762  1.00  0.00    +0.000 H 
ATOM    112  H14 UNL A   1      10.303  50.229  10.314  1.00  0.00    +0.000 H 
BRANCH   19   18
ATOM     18  C12 UNL A   1      10.402  51.632   8.760  1.00  0.00    +0.000 C 
ATOM    109  H11 UNL A   1      11.222  51.218   8.211  1.00  0.00    +0.000 H 
ATOM    110  H12 UNL A   1       9.675  52.102   8.133  1.00  0.00    +0.000 H 
BRANCH   18   17
ATOM     17  C11 UNL A   1      10.945  52.713   9.681  1.00  0.00    +0.000 C 
ATOM    107  H9  UNL A   1      10.185  53.453   9.823  1.00  0.00    +0.000 H 
ATOM    108  H10 UNL A   1      11.220  52.239  10.600  1.00  0.00    +0.000 H 
BRANCH   17   16
ATOM    106  H8  UNL A   1      11.953  54.132   8.571  1.00  0.00    +0.000 H 
ATOM     16  N1  UNL A   1      12.128  53.364   9.162  1.00  0.00    +0.000 N 
BRANCH   16   14
ATOM     14  C10 UNL A   1      13.450  53.078   9.362  1.00  0.00    +0.000 C 
ATOM     15  O5  UNL A   1      14.153  53.995   9.788  1.00  0.00    +0.000 O 
BRANCH   14   13
ATOM      1  O1  UNL A   1      15.774  50.714  12.095  1.00  0.00    +0.000 O 
ATOM      2  C1  UNL A   1      15.398  51.010  10.974  1.00  0.00    +0.000 C 
ATOM      3  O2  UNL A   1      16.193  51.472   9.978  1.00  0.00    +0.000 O 
ATOM      4  C2  UNL A   1      15.450  51.615   8.756  1.00  0.00    +0.000 C 
ATOM     99  H1  UNL A   1      15.688  52.522   8.239  1.00  0.00    +0.000 H 
ATOM    105  H7  UNL A   1      13.323  51.243   8.411  1.00  0.00    +0.000 H 
ATOM     13  C9  UNL A   1      13.977  51.652   9.152  1.00  0.00    +0.000 C 
ATOM     89  C62 UNL A   1      14.026  50.914  10.449  1.00  0.00    +0.000 C 
BRANCH    4    5
ATOM    100  H2  UNL A   1      15.206  48.885   8.916  1.00  0.00    +0.000 H 
ATOM      5  C3  UNL A   1      15.821  50.532   7.737  1.00  0.00    +0.000 C 
ATOM      6  C4  UNL A   1      15.568  49.164   7.991  1.00  0.00    +0.000 C 
ATOM      7  C5  UNL A   1      15.792  48.178   7.025  1.00  0.00    +0.000 C 
ATOM    104  H6  UNL A   1      16.534  51.862   6.253  1.00  0.00    +0.000 H 
ATOM    101  H3  UNL A   1      15.583  47.188   7.228  1.00  0.00    +0.000 H 
ATOM     10  C7  UNL A   1      16.579  49.886   5.529  1.00  0.00    +0.000 C 
ATOM      8  C6  UNL A   1      16.299  48.549   5.791  1.00  0.00    +0.000 C 
ATOM     12  C8  UNL A   1      16.336  50.874   6.477  1.00  0.00    +0.000 C 
BRANCH    8    9
ATOM      9  O3  UNL A   1      16.535  47.637   4.803  1.00  0.00    +0.000 O 
ATOM    102  H4  UNL A   1      15.832  47.346   4.256  1.00  0.00    +0.000 H 
ENDBRANCH    8    9
BRANCH   10   11
ATOM     11  O4  UNL A   1      17.092  50.243   4.314  1.00  0.00    +0.000 O 
ATOM    103  H5  UNL A   1      16.722  49.891   3.528  1.00  0.00    +0.000 H 
ENDBRANCH   10   11
ENDBRANCH    4    5
BRANCH   89   90
ATOM     90  C63 UNL A   1      13.091  50.227  11.123  1.00  0.00    +0.000 C 
ATOM    134  H36 UNL A   1      12.453  50.757  11.737  1.00  0.00    +0.000 H 
BRANCH   90   91
ATOM     98  C69 UNL A   1      12.435  48.085  12.159  1.00  0.00    +0.000 C 
ATOM    135  H37 UNL A   1      13.638  48.579   9.065  1.00  0.00    +0.000 H 
ATOM    136  H38 UNL A   1      13.343  46.167   8.958  1.00  0.00    +0.000 H 
ATOM    139  H41 UNL A   1      12.192  48.594  13.024  1.00  0.00    +0.000 H 
ATOM     91  C64 UNL A   1      12.917  48.778  11.044  1.00  0.00    +0.000 C 
ATOM     92  C65 UNL A   1      13.262  48.071   9.881  1.00  0.00    +0.000 C 
ATOM     93  C66 UNL A   1      13.101  46.683   9.819  1.00  0.00    +0.000 C 
ATOM     94  C67 UNL A   1      12.610  46.010  10.930  1.00  0.00    +0.000 C 
ATOM     96  C68 UNL A   1      12.287  46.707  12.091  1.00  0.00    +0.000 C 
BRANCH   94   95
ATOM    137  H39 UNL A   1      12.292  44.199  10.126  1.00  0.00    +0.000 H 
ATOM     95  O7  UNL A   1      12.433  44.654  10.933  1.00  0.00    +0.000 O 
ENDBRANCH   94   95
BRANCH   96   97
ATOM     97  O8  UNL A   1      11.822  46.033  13.183  1.00  0.00    +0.000 O 
ATOM    138  H40 UNL A   1      12.096  45.150  13.341  1.00  0.00    +0.000 H 
ENDBRANCH   96   97
ENDBRANCH   90   91
ENDBRANCH   89   90
ENDBRANCH   14   13
ENDBRANCH   16   14
ENDBRANCH   17   16
ENDBRANCH   18   17
ENDBRANCH   19   18
ENDBRANCH   20   19
ENDBRANCH   21   20
ENDBRANCH   22   21
ENDBRANCH   23   22
ENDBRANCH   24   23
ENDBRANCH   26   24
ENDBRANCH   30   29
BRANCH   34   35
ATOM     35  C26 UNL A   1      13.154  55.533   5.339  1.00  0.00    +0.000 C 
ATOM     36  C27 UNL A   1      12.024  56.276   4.962  1.00  0.00    +0.000 C 
ATOM     37  F1  UNL A   1      11.479  56.109   3.748  1.00  0.00    +0.000 F 
ATOM     38  C28 UNL A   1      11.474  57.230   5.816  1.00  0.00    +0.000 C 
ATOM     39  F2  UNL A   1      10.432  57.968   5.410  1.00  0.00    +0.000 F 
ATOM     40  C29 UNL A   1      12.015  57.429   7.077  1.00  0.00    +0.000 C 
ATOM     41  F3  UNL A   1      11.479  58.341   7.900  1.00  0.00    +0.000 F 
ATOM     42  C30 UNL A   1      13.114  56.687   7.482  1.00  0.00    +0.000 C 
ATOM     43  F4  UNL A   1      13.629  56.867   8.706  1.00  0.00    +0.000 F 
ATOM     44  C31 UNL A   1      13.688  55.759   6.617  1.00  0.00    +0.000 C 
ATOM     45  F5  UNL A   1      14.764  55.073   7.032  1.00  0.00    +0.000 F 
ENDBRANCH   34   35
BRANCH   51   52
ATOM     52  C37 UNL A   1      17.995  55.221   0.004  1.00  0.00    +0.000 C 
ATOM     53  C38 UNL A   1      19.226  55.595   0.560  1.00  0.00    +0.000 C 
ATOM     54  F6  UNL A   1      19.574  55.163   1.782  1.00  0.00    +0.000 F 
ATOM     55  C39 UNL A   1      20.090  56.448  -0.122  1.00  0.00    +0.000 C 
ATOM     56  F7  UNL A   1      21.239  56.833   0.451  1.00  0.00    +0.000 F 
ATOM     57  C40 UNL A   1      19.758  56.911  -1.386  1.00  0.00    +0.000 C 
ATOM     58  F8  UNL A   1      20.596  57.722  -2.046  1.00  0.00    +0.000 F 
ATOM     59  C41 UNL A   1      18.555  56.538  -1.964  1.00  0.00    +0.000 C 
ATOM     60  F9  UNL A   1      18.240  56.968  -3.194  1.00  0.00    +0.000 F 
ATOM     61  C42 UNL A   1      17.673  55.714  -1.271  1.00  0.00    +0.000 C 
ATOM     62  F10 UNL A   1      16.512  55.380  -1.852  1.00  0.00    +0.000 F 
ENDBRANCH   51   52
BRANCH   66   67
ATOM     67  C46 UNL A   1      16.748  48.392  -0.661  1.00  0.00    +0.000 C 
ATOM     68  C47 UNL A   1      17.990  47.783  -0.427  1.00  0.00    +0.000 C 
ATOM     69  F11 UNL A   1      18.727  48.149   0.631  1.00  0.00    +0.000 F 
ATOM     70  C48 UNL A   1      18.501  46.829  -1.306  1.00  0.00    +0.000 C 
ATOM     71  F12 UNL A   1      19.714  46.304  -1.087  1.00  0.00    +0.000 F 
ATOM     72  C49 UNL A   1      17.766  46.439  -2.414  1.00  0.00    +0.000 C 
ATOM     73  F13 UNL A   1      18.257  45.520  -3.258  1.00  0.00    +0.000 F 
ATOM     74  C50 UNL A   1      16.525  47.009  -2.652  1.00  0.00    +0.000 C 
ATOM     75  F14 UNL A   1      15.803  46.623  -3.713  1.00  0.00    +0.000 F 
ATOM     76  C51 UNL A   1      16.027  47.987  -1.793  1.00  0.00    +0.000 C 
ATOM     77  F15 UNL A   1      14.832  48.532  -2.059  1.00  0.00    +0.000 F 
ENDBRANCH   66   67
TORSDOF 22
ENDMDL
MODEL 6
REMARK VINA RESULT:      -8.6     37.620     42.349
ROOT
ATOM    129  H31 UNL A   1      48.613  29.936  25.864  1.00  0.00    +0.000 H 
ATOM    130  H32 UNL A   1      39.926  25.874  28.855  1.00  0.00    +0.000 H 
ATOM    131  H33 UNL A   1      39.164  28.158  29.723  1.00  0.00    +0.000 H 
ATOM     30  C22 UNL A   1      41.190  30.159  29.608  1.00  0.00    +0.000 C 
ATOM     31  C23 UNL A   1      41.246  28.762  29.056  1.00  0.00    +0.000 C 
ATOM     32  N3  UNL A   1      42.215  28.163  28.410  1.00  0.00    +0.000 N 
ATOM     33  C24 UNL A   1      41.766  26.870  28.173  1.00  0.00    +0.000 C 
ATOM     34  C25 UNL A   1      42.373  25.881  27.473  1.00  0.00    +0.000 C 
ATOM     46  C32 UNL A   1      43.656  26.014  26.835  1.00  0.00    +0.000 C 
ATOM     47  C33 UNL A   1      44.335  25.088  26.062  1.00  0.00    +0.000 C 
ATOM     48  C34 UNL A   1      45.571  25.638  25.707  1.00  0.00    +0.000 C 
ATOM     49  C35 UNL A   1      45.634  26.931  26.201  1.00  0.00    +0.000 C 
ATOM     50  N4  UNL A   1      44.456  27.146  26.899  1.00  0.00    +0.000 N 
ATOM     51  C36 UNL A   1      46.691  27.900  26.045  1.00  0.00    +0.000 C 
ATOM     63  C43 UNL A   1      46.679  29.152  26.565  1.00  0.00    +0.000 C 
ATOM     64  N5  UNL A   1      45.692  29.776  27.316  1.00  0.00    +0.000 N 
ATOM     65  C44 UNL A   1      46.149  30.976  27.585  1.00  0.00    +0.000 C 
ATOM     66  C45 UNL A   1      45.487  32.101  28.336  1.00  0.00    +0.000 C 
ATOM     78  C52 UNL A   1      44.242  31.923  28.819  1.00  0.00    +0.000 C 
ATOM     79  C53 UNL A   1      43.472  32.913  29.565  1.00  0.00    +0.000 C 
ATOM     80  C54 UNL A   1      42.305  32.368  29.942  1.00  0.00    +0.000 C 
ATOM     81  C55 UNL A   1      42.224  31.002  29.424  1.00  0.00    +0.000 C 
ATOM     82  N6  UNL A   1      43.414  30.828  28.761  1.00  0.00    +0.000 N 
ATOM     83  C56 UNL A   1      47.499  31.233  27.064  1.00  0.00    +0.000 C 
ATOM     84  C57 UNL A   1      47.755  30.108  26.412  1.00  0.00    +0.000 C 
ATOM     85  C58 UNL A   1      40.469  26.750  28.799  1.00  0.00    +0.000 C 
ATOM     86  C59 UNL A   1      40.068  27.912  29.290  1.00  0.00    +0.000 C 
ATOM    122  H24 UNL A   1      43.989  24.154  25.794  1.00  0.00    +0.000 H 
ATOM    123  H25 UNL A   1      46.310  25.161  25.168  1.00  0.00    +0.000 H 
ATOM    124  H26 UNL A   1      44.222  27.978  27.370  1.00  0.00    +0.000 H 
ATOM    125  H27 UNL A   1      43.776  33.878  29.769  1.00  0.00    +0.000 H 
ATOM    126  H28 UNL A   1      41.580  32.838  30.507  1.00  0.00    +0.000 H 
ATOM    127  H29 UNL A   1      43.651  29.997  28.288  1.00  0.00    +0.000 H 
ATOM    128  H30 UNL A   1      48.092  32.069  27.177  1.00  0.00    +0.000 H 
ENDROOT
BRANCH   30   29
ATOM    132  H34 UNL A   1      38.978  31.406  28.770  1.00  0.00    +0.000 H 
ATOM    133  H35 UNL A   1      37.125  32.250  30.085  1.00  0.00    +0.000 H 
ATOM    120  H22 UNL A   1      38.793  30.541  33.549  1.00  0.00    +0.000 H 
ATOM     87  C60 UNL A   1      38.955  31.248  29.789  1.00  0.00    +0.000 C 
ATOM     88  C61 UNL A   1      37.866  31.690  30.534  1.00  0.00    +0.000 C 
ATOM    121  H23 UNL A   1      40.773  29.927  32.283  1.00  0.00    +0.000 H 
ATOM     26  C18 UNL A   1      37.780  31.374  31.892  1.00  0.00    +0.000 C 
ATOM     27  C19 UNL A   1      38.842  30.737  32.537  1.00  0.00    +0.000 C 
ATOM     28  C20 UNL A   1      39.972  30.366  31.804  1.00  0.00    +0.000 C 
ATOM     29  C21 UNL A   1      40.022  30.589  30.418  1.00  0.00    +0.000 C 
BRANCH   26   24
ATOM     25  O6  UNL A   1      36.643  31.896  33.877  1.00  0.00    +0.000 O 
ATOM     24  C17 UNL A   1      36.567  31.705  32.668  1.00  0.00    +0.000 C 
BRANCH   24   23
ATOM    119  H21 UNL A   1      34.944  30.922  31.787  1.00  0.00    +0.000 H 
ATOM     23  N2  UNL A   1      35.354  31.784  32.029  1.00  0.00    +0.000 N 
BRANCH   23   22
ATOM    118  H20 UNL A   1      34.802  33.729  32.383  1.00  0.00    +0.000 H 
ATOM    117  H19 UNL A   1      33.552  32.715  31.652  1.00  0.00    +0.000 H 
ATOM     22  C16 UNL A   1      34.592  32.966  31.662  1.00  0.00    +0.000 C 
BRANCH   22   21
ATOM    115  H17 UNL A   1      34.811  34.557  30.283  1.00  0.00    +0.000 H 
ATOM    116  H18 UNL A   1      36.009  33.239  30.144  1.00  0.00    +0.000 H 
ATOM     21  C15 UNL A   1      34.982  33.500  30.290  1.00  0.00    +0.000 C 
BRANCH   21   20
ATOM    113  H15 UNL A   1      33.277  32.517  29.498  1.00  0.00    +0.000 H 
ATOM    114  H16 UNL A   1      34.100  33.665  28.396  1.00  0.00    +0.000 H 
ATOM     20  C14 UNL A   1      34.208  32.885  29.121  1.00  0.00    +0.000 C 
BRANCH   20   19
ATOM     19  C13 UNL A   1      34.914  31.733  28.399  1.00  0.00    +0.000 C 
ATOM    111  H13 UNL A   1      35.706  32.146  27.810  1.00  0.00    +0.000 H 
ATOM    112  H14 UNL A   1      35.255  31.066  29.163  1.00  0.00    +0.000 H 
BRANCH   19   18
ATOM     18  C12 UNL A   1      34.022  30.902  27.476  1.00  0.00    +0.000 C 
ATOM    109  H11 UNL A   1      33.069  30.788  27.948  1.00  0.00    +0.000 H 
ATOM    110  H12 UNL A   1      33.967  31.430  26.548  1.00  0.00    +0.000 H 
BRANCH   18   17
ATOM     17  C11 UNL A   1      34.564  29.517  27.158  1.00  0.00    +0.000 C 
ATOM    107  H9  UNL A   1      35.632  29.572  27.108  1.00  0.00    +0.000 H 
ATOM    108  H10 UNL A   1      34.232  28.860  27.935  1.00  0.00    +0.000 H 
BRANCH   17   16
ATOM    106  H8  UNL A   1      34.689  29.081  25.144  1.00  0.00    +0.000 H 
ATOM     16  N1  UNL A   1      34.072  28.986  25.906  1.00  0.00    +0.000 N 
BRANCH   16   14
ATOM     14  C10 UNL A   1      32.884  28.374  25.614  1.00  0.00    +0.000 C 
ATOM     15  O5  UNL A   1      31.877  29.082  25.652  1.00  0.00    +0.000 O 
BRANCH   14   13
ATOM      1  O1  UNL A   1      29.548  25.667  25.718  1.00  0.00    +0.000 O 
ATOM      2  C1  UNL A   1      30.744  25.908  25.712  1.00  0.00    +0.000 C 
ATOM      3  O2  UNL A   1      31.607  25.609  26.713  1.00  0.00    +0.000 O 
ATOM      4  C2  UNL A   1      32.957  25.929  26.336  1.00  0.00    +0.000 C 
ATOM     99  H1  UNL A   1      33.500  26.399  27.130  1.00  0.00    +0.000 H 
ATOM    105  H7  UNL A   1      33.667  26.832  24.476  1.00  0.00    +0.000 H 
ATOM     13  C9  UNL A   1      32.855  26.906  25.169  1.00  0.00    +0.000 C 
ATOM     89  C62 UNL A   1      31.511  26.546  24.629  1.00  0.00    +0.000 C 
BRANCH    4    5
ATOM    100  H2  UNL A   1      34.963  25.500  24.510  1.00  0.00    +0.000 H 
ATOM      5  C3  UNL A   1      33.781  24.667  26.057  1.00  0.00    +0.000 C 
ATOM      6  C4  UNL A   1      34.818  24.663  25.095  1.00  0.00    +0.000 C 
ATOM      7  C5  UNL A   1      35.654  23.556  24.913  1.00  0.00    +0.000 C 
ATOM    104  H6  UNL A   1      32.849  23.467  27.530  1.00  0.00    +0.000 H 
ATOM    101  H3  UNL A   1      36.415  23.583  24.217  1.00  0.00    +0.000 H 
ATOM     10  C7  UNL A   1      34.416  22.397  26.615  1.00  0.00    +0.000 C 
ATOM      8  C6  UNL A   1      35.446  22.423  25.682  1.00  0.00    +0.000 C 
ATOM     12  C8  UNL A   1      33.596  23.503  26.818  1.00  0.00    +0.000 C 
BRANCH    8    9
ATOM      9  O3  UNL A   1      36.230  21.312  25.558  1.00  0.00    +0.000 O 
ATOM    102  H4  UNL A   1      36.120  20.740  24.825  1.00  0.00    +0.000 H 
ENDBRANCH    8    9
BRANCH   10   11
ATOM     11  O4  UNL A   1      34.207  21.271  27.361  1.00  0.00    +0.000 O 
ATOM    103  H5  UNL A   1      34.933  20.727  27.600  1.00  0.00    +0.000 H 
ENDBRANCH   10   11
ENDBRANCH    4    5
BRANCH   89   90
ATOM     90  C63 UNL A   1      30.968  26.691  23.412  1.00  0.00    +0.000 C 
ATOM    134  H36 UNL A   1      31.145  25.952  22.713  1.00  0.00    +0.000 H 
BRANCH   90   91
ATOM     98  C69 UNL A   1      28.767  27.801  23.276  1.00  0.00    +0.000 C 
ATOM    135  H37 UNL A   1      31.705  28.930  22.111  1.00  0.00    +0.000 H 
ATOM    136  H38 UNL A   1      30.306  30.807  21.446  1.00  0.00    +0.000 H 
ATOM    139  H41 UNL A   1      28.346  26.996  23.766  1.00  0.00    +0.000 H 
ATOM     91  C64 UNL A   1      30.139  27.827  23.009  1.00  0.00    +0.000 C 
ATOM     92  C65 UNL A   1      30.696  28.920  22.327  1.00  0.00    +0.000 C 
ATOM     93  C66 UNL A   1      29.894  29.997  21.936  1.00  0.00    +0.000 C 
ATOM     94  C67 UNL A   1      28.534  29.963  22.219  1.00  0.00    +0.000 C 
ATOM     96  C68 UNL A   1      27.977  28.870  22.878  1.00  0.00    +0.000 C 
BRANCH   94   95
ATOM    137  H39 UNL A   1      27.909  31.529  21.130  1.00  0.00    +0.000 H 
ATOM     95  O7  UNL A   1      27.697  30.984  21.861  1.00  0.00    +0.000 O 
ENDBRANCH   94   95
BRANCH   96   97
ATOM     97  O8  UNL A   1      26.637  28.841  23.135  1.00  0.00    +0.000 O 
ATOM    138  H40 UNL A   1      26.202  29.609  23.450  1.00  0.00    +0.000 H 
ENDBRANCH   96   97
ENDBRANCH   90   91
ENDBRANCH   89   90
ENDBRANCH   14   13
ENDBRANCH   16   14
ENDBRANCH   17   16
ENDBRANCH   18   17
ENDBRANCH   19   18
ENDBRANCH   20   19
ENDBRANCH   21   20
ENDBRANCH   22   21
ENDBRANCH   23   22
ENDBRANCH   24   23
ENDBRANCH   26   24
ENDBRANCH   30   29
BRANCH   34   35
ATOM     35  C26 UNL A   1      41.656  24.565  27.365  1.00  0.00    +0.000 C 
ATOM     36  C27 UNL A   1      40.512  24.411  26.567  1.00  0.00    +0.000 C 
ATOM     37  F1  UNL A   1      40.001  25.462  25.908  1.00  0.00    +0.000 F 
ATOM     38  C28 UNL A   1      39.858  23.184  26.477  1.00  0.00    +0.000 C 
ATOM     39  F2  UNL A   1      38.734  23.077  25.755  1.00  0.00    +0.000 F 
ATOM     40  C29 UNL A   1      40.359  22.078  27.147  1.00  0.00    +0.000 C 
ATOM     41  F3  UNL A   1      39.734  20.897  27.053  1.00  0.00    +0.000 F 
ATOM     42  C30 UNL A   1      41.503  22.200  27.920  1.00  0.00    +0.000 C 
ATOM     43  F4  UNL A   1      41.998  21.129  28.557  1.00  0.00    +0.000 F 
ATOM     44  C31 UNL A   1      42.138  23.434  28.042  1.00  0.00    +0.000 C 
ATOM     45  F5  UNL A   1      43.231  23.521  28.815  1.00  0.00    +0.000 F 
ENDBRANCH   34   35
BRANCH   51   52
ATOM     52  C37 UNL A   1      47.881  27.504  25.217  1.00  0.00    +0.000 C 
ATOM     53  C38 UNL A   1      47.911  27.688  23.828  1.00  0.00    +0.000 C 
ATOM     54  F6  UNL A   1      46.838  28.176  23.187  1.00  0.00    +0.000 F 
ATOM     55  C39 UNL A   1      49.033  27.332  23.083  1.00  0.00    +0.000 C 
ATOM     56  F7  UNL A   1      49.022  27.469  21.750  1.00  0.00    +0.000 F 
ATOM     57  C40 UNL A   1      50.158  26.825  23.717  1.00  0.00    +0.000 C 
ATOM     58  F8  UNL A   1      51.241  26.496  23.000  1.00  0.00    +0.000 F 
ATOM     59  C41 UNL A   1      50.158  26.654  25.092  1.00  0.00    +0.000 C 
ATOM     60  F9  UNL A   1      51.250  26.182  25.709  1.00  0.00    +0.000 F 
ATOM     61  C42 UNL A   1      49.025  26.975  25.835  1.00  0.00    +0.000 C 
ATOM     62  F10 UNL A   1      49.052  26.787  27.163  1.00  0.00    +0.000 F 
ENDBRANCH   51   52
BRANCH   66   67
ATOM     67  C46 UNL A   1      46.181  33.401  28.528  1.00  0.00    +0.000 C 
ATOM     68  C47 UNL A   1      47.020  33.614  29.632  1.00  0.00    +0.000 C 
ATOM     69  F11 UNL A   1      47.198  32.638  30.534  1.00  0.00    +0.000 F 
ATOM     70  C48 UNL A   1      47.641  34.844  29.840  1.00  0.00    +0.000 C 
ATOM     71  F12 UNL A   1      48.392  35.035  30.932  1.00  0.00    +0.000 F 
ATOM     72  C49 UNL A   1      47.466  35.874  28.929  1.00  0.00    +0.000 C 
ATOM     73  F13 UNL A   1      48.064  37.057  29.128  1.00  0.00    +0.000 F 
ATOM     74  C50 UNL A   1      46.662  35.680  27.817  1.00  0.00    +0.000 C 
ATOM     75  F14 UNL A   1      46.502  36.667  26.925  1.00  0.00    +0.000 F 
ATOM     76  C51 UNL A   1      46.013  34.461  27.625  1.00  0.00    +0.000 C 
ATOM     77  F15 UNL A   1      45.228  34.309  26.549  1.00  0.00    +0.000 F 
ENDBRANCH   66   67
TORSDOF 22
ENDMDL
MODEL 7
REMARK VINA RESULT:      -8.4      3.316      7.924
ROOT
ATOM    129  H31 UNL A   1      17.947  50.759  -1.188  1.00  0.00    +0.000 H 
ATOM    130  H32 UNL A   1      11.973  50.496   6.882  1.00  0.00    +0.000 H 
ATOM    131  H33 UNL A   1      12.021  53.053   6.994  1.00  0.00    +0.000 H 
ATOM     30  C22 UNL A   1      13.829  54.245   5.141  1.00  0.00    +0.000 C 
ATOM     31  C23 UNL A   1      13.446  52.795   5.248  1.00  0.00    +0.000 C 
ATOM     32  N3  UNL A   1      13.845  51.775   4.531  1.00  0.00    +0.000 N 
ATOM     33  C24 UNL A   1      13.224  50.661   5.080  1.00  0.00    +0.000 C 
ATOM     34  C25 UNL A   1      13.257  49.377   4.648  1.00  0.00    +0.000 C 
ATOM     46  C32 UNL A   1      13.990  48.933   3.491  1.00  0.00    +0.000 C 
ATOM     47  C33 UNL A   1      14.048  47.664   2.942  1.00  0.00    +0.000 C 
ATOM     48  C34 UNL A   1      14.934  47.697   1.861  1.00  0.00    +0.000 C 
ATOM     49  C35 UNL A   1      15.375  49.000   1.693  1.00  0.00    +0.000 C 
ATOM     50  N4  UNL A   1      14.794  49.747   2.706  1.00  0.00    +0.000 N 
ATOM     51  C36 UNL A   1      16.259  49.525   0.682  1.00  0.00    +0.000 C 
ATOM     63  C43 UNL A   1      16.647  50.820   0.587  1.00  0.00    +0.000 C 
ATOM     64  N5  UNL A   1      16.292  51.899   1.386  1.00  0.00    +0.000 N 
ATOM     65  C44 UNL A   1      16.930  52.935   0.895  1.00  0.00    +0.000 C 
ATOM     66  C45 UNL A   1      16.891  54.374   1.338  1.00  0.00    +0.000 C 
ATOM     78  C52 UNL A   1      16.101  54.720   2.374  1.00  0.00    +0.000 C 
ATOM     79  C53 UNL A   1      15.958  56.067   2.918  1.00  0.00    +0.000 C 
ATOM     80  C54 UNL A   1      15.142  56.025   3.982  1.00  0.00    +0.000 C 
ATOM     81  C55 UNL A   1      14.667  54.653   4.169  1.00  0.00    +0.000 C 
ATOM     82  N6  UNL A   1      15.280  53.950   3.161  1.00  0.00    +0.000 N 
ATOM     83  C56 UNL A   1      17.793  52.619  -0.251  1.00  0.00    +0.000 C 
ATOM     84  C57 UNL A   1      17.547  51.329  -0.426  1.00  0.00    +0.000 C 
ATOM     85  C58 UNL A   1      12.474  51.117   6.228  1.00  0.00    +0.000 C 
ATOM     86  C59 UNL A   1      12.514  52.437   6.330  1.00  0.00    +0.000 C 
ATOM    122  H24 UNL A   1      13.528  46.837   3.274  1.00  0.00    +0.000 H 
ATOM    123  H25 UNL A   1      15.212  46.887   1.285  1.00  0.00    +0.000 H 
ATOM    124  H26 UNL A   1      14.932  50.711   2.848  1.00  0.00    +0.000 H 
ATOM    125  H27 UNL A   1      16.411  56.915   2.544  1.00  0.00    +0.000 H 
ATOM    126  H28 UNL A   1      14.889  56.831   4.575  1.00  0.00    +0.000 H 
ATOM    127  H29 UNL A   1      15.143  52.986   3.016  1.00  0.00    +0.000 H 
ATOM    128  H30 UNL A   1      18.425  53.239  -0.780  1.00  0.00    +0.000 H 
ENDROOT
BRANCH   30   29
ATOM    132  H34 UNL A   1      15.060  55.067   7.367  1.00  0.00    +0.000 H 
ATOM    133  H35 UNL A   1      14.225  56.537   9.104  1.00  0.00    +0.000 H 
ATOM    120  H22 UNL A   1      10.758  57.265   6.834  1.00  0.00    +0.000 H 
ATOM     87  C60 UNL A   1      14.133  55.509   7.267  1.00  0.00    +0.000 C 
ATOM     88  C61 UNL A   1      13.677  56.391   8.242  1.00  0.00    +0.000 C 
ATOM    121  H23 UNL A   1      11.472  55.593   5.223  1.00  0.00    +0.000 H 
ATOM     26  C18 UNL A   1      12.476  57.079   8.049  1.00  0.00    +0.000 C 
ATOM     27  C19 UNL A   1      11.664  56.785   6.953  1.00  0.00    +0.000 C 
ATOM     28  C20 UNL A   1      12.084  55.838   6.016  1.00  0.00    +0.000 C 
ATOM     29  C21 UNL A   1      13.338  55.217   6.149  1.00  0.00    +0.000 C 
BRANCH   26   24
ATOM     25  O6  UNL A   1      12.616  59.213   9.014  1.00  0.00    +0.000 O 
ATOM     24  C17 UNL A   1      12.047  58.127   8.998  1.00  0.00    +0.000 C 
BRANCH   24   23
ATOM    119  H21 UNL A   1      10.219  58.442   9.762  1.00  0.00    +0.000 H 
ATOM     23  N2  UNL A   1      11.016  57.872   9.868  1.00  0.00    +0.000 N 
BRANCH   23   22
ATOM    118  H20 UNL A   1      10.262  57.243  11.669  1.00  0.00    +0.000 H 
ATOM    117  H19 UNL A   1      11.917  56.725  11.327  1.00  0.00    +0.000 H 
ATOM     22  C16 UNL A   1      10.938  56.877  10.925  1.00  0.00    +0.000 C 
BRANCH   22   21
ATOM    115  H17 UNL A   1       9.362  55.485  10.676  1.00  0.00    +0.000 H 
ATOM    116  H18 UNL A   1      10.577  55.524   9.367  1.00  0.00    +0.000 H 
ATOM     21  C15 UNL A   1      10.401  55.543  10.421  1.00  0.00    +0.000 C 
BRANCH   21   20
ATOM    113  H15 UNL A   1      11.523  54.586  11.945  1.00  0.00    +0.000 H 
ATOM    114  H16 UNL A   1      10.355  53.550  11.067  1.00  0.00    +0.000 H 
ATOM     20  C14 UNL A   1      11.103  54.312  11.000  1.00  0.00    +0.000 C 
BRANCH   20   19
ATOM     19  C13 UNL A   1      12.224  53.728  10.134  1.00  0.00    +0.000 C 
ATOM    111  H13 UNL A   1      11.966  52.719   9.893  1.00  0.00    +0.000 H 
ATOM    112  H14 UNL A   1      12.302  54.365   9.278  1.00  0.00    +0.000 H 
BRANCH   19   18
ATOM     18  C12 UNL A   1      13.608  53.721  10.785  1.00  0.00    +0.000 C 
ATOM    109  H11 UNL A   1      13.982  52.719  10.762  1.00  0.00    +0.000 H 
ATOM    110  H12 UNL A   1      14.212  54.404  10.225  1.00  0.00    +0.000 H 
BRANCH   18   17
ATOM     17  C11 UNL A   1      13.628  54.204  12.227  1.00  0.00    +0.000 C 
ATOM    107  H9  UNL A   1      14.494  54.816  12.369  1.00  0.00    +0.000 H 
ATOM    108  H10 UNL A   1      12.721  54.747  12.393  1.00  0.00    +0.000 H 
BRANCH   17   16
ATOM    106  H8  UNL A   1      13.106  53.261  13.988  1.00  0.00    +0.000 H 
ATOM     16  N1  UNL A   1      13.666  53.125  13.189  1.00  0.00    +0.000 N 
BRANCH   16   14
ATOM     14  C10 UNL A   1      14.358  51.946  13.164  1.00  0.00    +0.000 C 
ATOM     15  O5  UNL A   1      15.585  52.028  13.101  1.00  0.00    +0.000 O 
BRANCH   14   13
ATOM      1  O1  UNL A   1      11.175  50.425  10.710  1.00  0.00    +0.000 O 
ATOM      2  C1  UNL A   1      11.797  50.485  11.757  1.00  0.00    +0.000 C 
ATOM      3  O2  UNL A   1      11.296  50.914  12.941  1.00  0.00    +0.000 O 
ATOM      4  C2  UNL A   1      12.262  50.751  13.993  1.00  0.00    +0.000 C 
ATOM     99  H1  UNL A   1      12.296  51.597  14.649  1.00  0.00    +0.000 H 
ATOM    105  H7  UNL A   1      14.307  49.992  13.850  1.00  0.00    +0.000 H 
ATOM     13  C9  UNL A   1      13.619  50.608  13.311  1.00  0.00    +0.000 C 
ATOM     89  C62 UNL A   1      13.199  50.090  11.975  1.00  0.00    +0.000 C 
BRANCH    4    5
ATOM    100  H2  UNL A   1      10.659  50.751  16.223  1.00  0.00    +0.000 H 
ATOM      5  C3  UNL A   1      11.885  49.602  14.935  1.00  0.00    +0.000 C 
ATOM      6  C4  UNL A   1      10.992  49.798  16.014  1.00  0.00    +0.000 C 
ATOM      7  C5  UNL A   1      10.547  48.735  16.808  1.00  0.00    +0.000 C 
ATOM    104  H6  UNL A   1      12.990  48.112  13.916  1.00  0.00    +0.000 H 
ATOM    101  H3  UNL A   1       9.882  48.900  17.580  1.00  0.00    +0.000 H 
ATOM     10  C7  UNL A   1      11.910  47.247  15.503  1.00  0.00    +0.000 C 
ATOM      8  C6  UNL A   1      11.012  47.458  16.544  1.00  0.00    +0.000 C 
ATOM     12  C8  UNL A   1      12.337  48.295  14.694  1.00  0.00    +0.000 C 
BRANCH    8    9
ATOM      9  O3  UNL A   1      10.612  46.377  17.277  1.00  0.00    +0.000 O 
ATOM    102  H4  UNL A   1      11.245  45.758  17.582  1.00  0.00    +0.000 H 
ENDBRANCH    8    9
BRANCH   10   11
ATOM     11  O4  UNL A   1      12.375  45.987  15.256  1.00  0.00    +0.000 O 
ATOM    103  H5  UNL A   1      11.785  45.258  15.277  1.00  0.00    +0.000 H 
ENDBRANCH   10   11
ENDBRANCH    4    5
BRANCH   89   90
ATOM     90  C63 UNL A   1      13.849  49.371  11.050  1.00  0.00    +0.000 C 
ATOM    134  H36 UNL A   1      13.475  48.438  10.812  1.00  0.00    +0.000 H 
BRANCH   90   91
ATOM     98  C69 UNL A   1      14.930  50.477   9.125  1.00  0.00    +0.000 C 
ATOM    135  H37 UNL A   1      16.423  49.065  11.779  1.00  0.00    +0.000 H 
ATOM    136  H38 UNL A   1      18.414  49.819  10.601  1.00  0.00    +0.000 H 
ATOM    139  H41 UNL A   1      13.996  50.655   8.721  1.00  0.00    +0.000 H 
ATOM     91  C64 UNL A   1      15.054  49.821  10.354  1.00  0.00    +0.000 C 
ATOM     92  C65 UNL A   1      16.330  49.569  10.883  1.00  0.00    +0.000 C 
ATOM     93  C66 UNL A   1      17.477  49.993  10.205  1.00  0.00    +0.000 C 
ATOM     94  C67 UNL A   1      17.338  50.654   8.991  1.00  0.00    +0.000 C 
ATOM     96  C68 UNL A   1      16.073  50.887   8.456  1.00  0.00    +0.000 C 
BRANCH   94   95
ATOM    137  H39 UNL A   1      19.260  50.701   8.416  1.00  0.00    +0.000 H 
ATOM     95  O7  UNL A   1      18.420  51.093   8.279  1.00  0.00    +0.000 O 
ENDBRANCH   94   95
BRANCH   96   97
ATOM     97  O8  UNL A   1      15.950  51.523   7.253  1.00  0.00    +0.000 O 
ATOM    138  H40 UNL A   1      15.100  51.685   6.894  1.00  0.00    +0.000 H 
ENDBRANCH   96   97
ENDBRANCH   90   91
ENDBRANCH   89   90
ENDBRANCH   14   13
ENDBRANCH   16   14
ENDBRANCH   17   16
ENDBRANCH   18   17
ENDBRANCH   19   18
ENDBRANCH   20   19
ENDBRANCH   21   20
ENDBRANCH   22   21
ENDBRANCH   23   22
ENDBRANCH   24   23
ENDBRANCH   26   24
ENDBRANCH   30   29
BRANCH   34   35
ATOM     35  C26 UNL A   1      12.480  48.359   5.434  1.00  0.00    +0.000 C 
ATOM     36  C27 UNL A   1      11.170  47.997   5.082  1.00  0.00    +0.000 C 
ATOM     37  F1  UNL A   1      10.560  48.592   4.047  1.00  0.00    +0.000 F 
ATOM     38  C28 UNL A   1      10.463  47.051   5.820  1.00  0.00    +0.000 C 
ATOM     39  F2  UNL A   1       9.195  46.765   5.499  1.00  0.00    +0.000 F 
ATOM     40  C29 UNL A   1      11.065  46.418   6.898  1.00  0.00    +0.000 C 
ATOM     41  F3  UNL A   1      10.386  45.502   7.602  1.00  0.00    +0.000 F 
ATOM     42  C30 UNL A   1      12.368  46.740   7.248  1.00  0.00    +0.000 C 
ATOM     43  F4  UNL A   1      12.956  46.119   8.279  1.00  0.00    +0.000 F 
ATOM     44  C31 UNL A   1      13.064  47.712   6.534  1.00  0.00    +0.000 C 
ATOM     45  F5  UNL A   1      14.315  48.015   6.912  1.00  0.00    +0.000 F 
ENDBRANCH   34   35
BRANCH   51   52
ATOM     52  C37 UNL A   1      16.761  48.571  -0.365  1.00  0.00    +0.000 C 
ATOM     53  C38 UNL A   1      18.015  47.952  -0.263  1.00  0.00    +0.000 C 
ATOM     54  F6  UNL A   1      18.833  48.246   0.759  1.00  0.00    +0.000 F 
ATOM     55  C39 UNL A   1      18.451  47.055  -1.236  1.00  0.00    +0.000 C 
ATOM     56  F7  UNL A   1      19.674  46.514  -1.146  1.00  0.00    +0.000 F 
ATOM     57  C40 UNL A   1      17.628  46.731  -2.304  1.00  0.00    +0.000 C 
ATOM     58  F8  UNL A   1      18.044  45.859  -3.232  1.00  0.00    +0.000 F 
ATOM     59  C41 UNL A   1      16.376  47.316  -2.414  1.00  0.00    +0.000 C 
ATOM     60  F9  UNL A   1      15.571  46.990  -3.434  1.00  0.00    +0.000 F 
ATOM     61  C42 UNL A   1      15.951  48.239  -1.462  1.00  0.00    +0.000 C 
ATOM     62  F10 UNL A   1      14.739  48.796  -1.603  1.00  0.00    +0.000 F 
ENDBRANCH   51   52
BRANCH   66   67
ATOM     67  C46 UNL A   1      17.693  55.410   0.635  1.00  0.00    +0.000 C 
ATOM     68  C47 UNL A   1      17.225  56.002  -0.548  1.00  0.00    +0.000 C 
ATOM     69  F11 UNL A   1      16.043  55.631  -1.059  1.00  0.00    +0.000 F 
ATOM     70  C48 UNL A   1      17.991  56.943  -1.234  1.00  0.00    +0.000 C 
ATOM     71  F12 UNL A   1      17.543  57.451  -2.390  1.00  0.00    +0.000 F 
ATOM     72  C49 UNL A   1      19.222  57.337  -0.734  1.00  0.00    +0.000 C 
ATOM     73  F13 UNL A   1      19.957  58.243  -1.393  1.00  0.00    +0.000 F 
ATOM     74  C50 UNL A   1      19.694  56.784   0.447  1.00  0.00    +0.000 C 
ATOM     75  F14 UNL A   1      20.876  57.174   0.943  1.00  0.00    +0.000 F 
ATOM     76  C51 UNL A   1      18.944  55.819   1.117  1.00  0.00    +0.000 C 
ATOM     77  F15 UNL A   1      19.436  55.290   2.246  1.00  0.00    +0.000 F 
ENDBRANCH   66   67
TORSDOF 22
ENDMDL
MODEL 8
REMARK VINA RESULT:      -8.3      1.560      8.024
ROOT
ATOM    129  H31 UNL A   1      17.059  56.956   1.786  1.00  0.00    +0.000 H 
ATOM    130  H32 UNL A   1      15.232  47.140   0.686  1.00  0.00    +0.000 H 
ATOM    131  H33 UNL A   1      13.345  47.304   2.407  1.00  0.00    +0.000 H 
ATOM     30  C22 UNL A   1      13.176  49.849   3.680  1.00  0.00    +0.000 C 
ATOM     31  C23 UNL A   1      14.061  49.453   2.531  1.00  0.00    +0.000 C 
ATOM     32  N3  UNL A   1      14.933  50.171   1.869  1.00  0.00    +0.000 N 
ATOM     33  C24 UNL A   1      15.508  49.308   0.944  1.00  0.00    +0.000 C 
ATOM     34  C25 UNL A   1      16.413  49.589  -0.023  1.00  0.00    +0.000 C 
ATOM     46  C32 UNL A   1      16.964  50.898  -0.258  1.00  0.00    +0.000 C 
ATOM     47  C33 UNL A   1      17.850  51.297  -1.244  1.00  0.00    +0.000 C 
ATOM     48  C34 UNL A   1      18.149  52.647  -1.042  1.00  0.00    +0.000 C 
ATOM     49  C35 UNL A   1      17.399  53.108   0.028  1.00  0.00    +0.000 C 
ATOM     50  N4  UNL A   1      16.682  52.021   0.505  1.00  0.00    +0.000 N 
ATOM     51  C36 UNL A   1      17.338  54.442   0.573  1.00  0.00    +0.000 C 
ATOM     63  C43 UNL A   1      16.575  54.814   1.630  1.00  0.00    +0.000 C 
ATOM     64  N5  UNL A   1      15.702  54.048   2.391  1.00  0.00    +0.000 N 
ATOM     65  C44 UNL A   1      15.209  54.857   3.298  1.00  0.00    +0.000 C 
ATOM     66  C45 UNL A   1      14.185  54.578   4.366  1.00  0.00    +0.000 C 
ATOM     78  C52 UNL A   1      13.648  53.345   4.454  1.00  0.00    +0.000 C 
ATOM     79  C53 UNL A   1      12.650  52.923   5.432  1.00  0.00    +0.000 C 
ATOM     80  C54 UNL A   1      12.397  51.616   5.263  1.00  0.00    +0.000 C 
ATOM     81  C55 UNL A   1      13.183  51.117   4.134  1.00  0.00    +0.000 C 
ATOM     82  N6  UNL A   1      13.887  52.217   3.709  1.00  0.00    +0.000 N 
ATOM     83  C56 UNL A   1      15.746  56.223   3.236  1.00  0.00    +0.000 C 
ATOM     84  C57 UNL A   1      16.537  56.155   2.175  1.00  0.00    +0.000 C 
ATOM     85  C58 UNL A   1      14.936  48.001   1.173  1.00  0.00    +0.000 C 
ATOM     86  C59 UNL A   1      13.981  48.052   2.088  1.00  0.00    +0.000 C 
ATOM    122  H24 UNL A   1      18.224  50.700  -1.998  1.00  0.00    +0.000 H 
ATOM    123  H25 UNL A   1      18.816  53.207  -1.596  1.00  0.00    +0.000 H 
ATOM    124  H26 UNL A   1      16.065  52.044   1.272  1.00  0.00    +0.000 H 
ATOM    125  H27 UNL A   1      12.209  53.532   6.139  1.00  0.00    +0.000 H 
ATOM    126  H28 UNL A   1      11.752  51.052   5.838  1.00  0.00    +0.000 H 
ATOM    127  H29 UNL A   1      14.504  52.198   2.941  1.00  0.00    +0.000 H 
ATOM    128  H30 UNL A   1      15.557  57.025   3.857  1.00  0.00    +0.000 H 
ENDROOT
BRANCH   30   29
ATOM    132  H34 UNL A   1      13.871  48.239   5.698  1.00  0.00    +0.000 H 
ATOM    133  H35 UNL A   1      12.586  46.462   6.729  1.00  0.00    +0.000 H 
ATOM    120  H22 UNL A   1       9.247  47.510   4.393  1.00  0.00    +0.000 H 
ATOM     87  C60 UNL A   1      12.899  48.066   5.399  1.00  0.00    +0.000 C 
ATOM     88  C61 UNL A   1      12.147  47.078   6.027  1.00  0.00    +0.000 C 
ATOM    121  H23 UNL A   1      10.610  49.111   3.178  1.00  0.00    +0.000 H 
ATOM     26  C18 UNL A   1      10.797  46.922   5.703  1.00  0.00    +0.000 C 
ATOM     27  C19 UNL A   1      10.234  47.656   4.658  1.00  0.00    +0.000 C 
ATOM     28  C20 UNL A   1      11.013  48.591   3.972  1.00  0.00    +0.000 C 
ATOM     29  C21 UNL A   1      12.342  48.826   4.360  1.00  0.00    +0.000 C 
BRANCH   26   24
ATOM     25  O6  UNL A   1      10.163  44.776   6.408  1.00  0.00    +0.000 O 
ATOM     24  C17 UNL A   1       9.944  45.982   6.458  1.00  0.00    +0.000 C 
BRANCH   24   23
ATOM    119  H21 UNL A   1       8.046  46.572   6.724  1.00  0.00    +0.000 H 
ATOM     23  N2  UNL A   1       8.899  46.465   7.206  1.00  0.00    +0.000 N 
BRANCH   23   22
ATOM    118  H20 UNL A   1       9.087  45.964   9.186  1.00  0.00    +0.000 H 
ATOM    117  H19 UNL A   1       7.913  47.240   8.844  1.00  0.00    +0.000 H 
ATOM     22  C16 UNL A   1       8.877  46.840   8.610  1.00  0.00    +0.000 C 
BRANCH   22   21
ATOM    115  H17 UNL A   1       9.936  48.029  10.005  1.00  0.00    +0.000 H 
ATOM    116  H18 UNL A   1      10.863  47.504   8.571  1.00  0.00    +0.000 H 
ATOM     21  C15 UNL A   1       9.936  47.884   8.944  1.00  0.00    +0.000 C 
BRANCH   21   20
ATOM    113  H15 UNL A   1       9.881  49.124   7.224  1.00  0.00    +0.000 H 
ATOM    114  H16 UNL A   1       8.732  49.549   8.532  1.00  0.00    +0.000 H 
ATOM     20  C14 UNL A   1       9.726  49.245   8.276  1.00  0.00    +0.000 C 
BRANCH   20   19
ATOM     19  C13 UNL A   1      10.649  50.365   8.765  1.00  0.00    +0.000 C 
ATOM    111  H13 UNL A   1      10.933  50.145   9.772  1.00  0.00    +0.000 H 
ATOM    112  H14 UNL A   1      11.474  50.390   8.084  1.00  0.00    +0.000 H 
BRANCH   19   18
ATOM     18  C12 UNL A   1      10.037  51.766   8.741  1.00  0.00    +0.000 C 
ATOM    109  H11 UNL A   1       9.398  51.837   7.885  1.00  0.00    +0.000 H 
ATOM    110  H12 UNL A   1       9.511  51.886   9.664  1.00  0.00    +0.000 H 
BRANCH   18   17
ATOM     17  C11 UNL A   1      11.053  52.896   8.670  1.00  0.00    +0.000 C 
ATOM    107  H9  UNL A   1      11.473  52.915   7.685  1.00  0.00    +0.000 H 
ATOM    108  H10 UNL A   1      10.536  53.803   8.904  1.00  0.00    +0.000 H 
BRANCH   17   16
ATOM    106  H8  UNL A   1      11.844  52.691  10.566  1.00  0.00    +0.000 H 
ATOM     16  N1  UNL A   1      12.129  52.755   9.625  1.00  0.00    +0.000 N 
BRANCH   16   14
ATOM     14  C10 UNL A   1      13.481  52.698   9.427  1.00  0.00    +0.000 C 
ATOM     15  O5  UNL A   1      14.100  53.757   9.544  1.00  0.00    +0.000 O 
BRANCH   14   13
ATOM      1  O1  UNL A   1      16.562  50.850  11.785  1.00  0.00    +0.000 O 
ATOM      2  C1  UNL A   1      15.962  51.024  10.738  1.00  0.00    +0.000 C 
ATOM      3  O2  UNL A   1      16.499  51.536   9.604  1.00  0.00    +0.000 O 
ATOM      4  C2  UNL A   1      15.547  51.502   8.527  1.00  0.00    +0.000 C 
ATOM     99  H1  UNL A   1      15.556  52.403   7.948  1.00  0.00    +0.000 H 
ATOM    105  H7  UNL A   1      13.473  50.812   8.573  1.00  0.00    +0.000 H 
ATOM     13  C9  UNL A   1      14.173  51.352   9.174  1.00  0.00    +0.000 C 
ATOM     89  C62 UNL A   1      14.550  50.703  10.465  1.00  0.00    +0.000 C 
BRANCH    4    5
ATOM    100  H2  UNL A   1      15.267  48.774   8.656  1.00  0.00    +0.000 H 
ATOM      5  C3  UNL A   1      15.899  50.427   7.494  1.00  0.00    +0.000 C 
ATOM      6  C4  UNL A   1      15.628  49.059   7.733  1.00  0.00    +0.000 C 
ATOM      7  C5  UNL A   1      15.835  48.081   6.754  1.00  0.00    +0.000 C 
ATOM    104  H6  UNL A   1      16.623  51.765   6.023  1.00  0.00    +0.000 H 
ATOM    101  H3  UNL A   1      15.613  47.092   6.946  1.00  0.00    +0.000 H 
ATOM     10  C7  UNL A   1      16.639  49.796   5.275  1.00  0.00    +0.000 C 
ATOM      8  C6  UNL A   1      16.342  48.461   5.523  1.00  0.00    +0.000 C 
ATOM     12  C8  UNL A   1      16.412  50.777   6.235  1.00  0.00    +0.000 C 
BRANCH    8    9
ATOM      9  O3  UNL A   1      16.561  47.557   4.522  1.00  0.00    +0.000 O 
ATOM    102  H4  UNL A   1      17.344  47.044   4.517  1.00  0.00    +0.000 H 
ENDBRANCH    8    9
BRANCH   10   11
ATOM     11  O4  UNL A   1      17.151  50.161   4.062  1.00  0.00    +0.000 O 
ATOM    103  H5  UNL A   1      17.539  49.515   3.505  1.00  0.00    +0.000 H 
ENDBRANCH   10   11
ENDBRANCH    4    5
BRANCH   89   90
ATOM     90  C63 UNL A   1      13.857  49.931  11.314  1.00  0.00    +0.000 C 
ATOM    134  H36 UNL A   1      13.639  50.315  12.247  1.00  0.00    +0.000 H 
BRANCH   90   91
ATOM     98  C69 UNL A   1      12.641  47.881  11.957  1.00  0.00    +0.000 C 
ATOM    135  H37 UNL A   1      14.286  48.473   9.092  1.00  0.00    +0.000 H 
ATOM    136  H38 UNL A   1      13.501  46.223   8.602  1.00  0.00    +0.000 H 
ATOM    139  H41 UNL A   1      12.407  48.320  12.862  1.00  0.00    +0.000 H 
ATOM     91  C64 UNL A   1      13.390  48.580  11.005  1.00  0.00    +0.000 C 
ATOM     92  C65 UNL A   1      13.715  47.965   9.786  1.00  0.00    +0.000 C 
ATOM     93  C66 UNL A   1      13.273  46.669   9.504  1.00  0.00    +0.000 C 
ATOM     94  C67 UNL A   1      12.519  45.991  10.454  1.00  0.00    +0.000 C 
ATOM     96  C68 UNL A   1      12.212  46.593  11.671  1.00  0.00    +0.000 C 
BRANCH   94   95
ATOM    137  H39 UNL A   1      11.167  44.508  10.430  1.00  0.00    +0.000 H 
ATOM     95  O7  UNL A   1      12.059  44.721  10.239  1.00  0.00    +0.000 O 
ENDBRANCH   94   95
BRANCH   96   97
ATOM     97  O8  UNL A   1      11.486  45.910  12.604  1.00  0.00    +0.000 O 
ATOM    138  H40 UNL A   1      11.901  45.595  13.383  1.00  0.00    +0.000 H 
ENDBRANCH   96   97
ENDBRANCH   90   91
ENDBRANCH   89   90
ENDBRANCH   14   13
ENDBRANCH   16   14
ENDBRANCH   17   16
ENDBRANCH   18   17
ENDBRANCH   19   18
ENDBRANCH   20   19
ENDBRANCH   21   20
ENDBRANCH   22   21
ENDBRANCH   23   22
ENDBRANCH   24   23
ENDBRANCH   26   24
ENDBRANCH   30   29
BRANCH   34   35
ATOM     35  C26 UNL A   1      16.868  48.456  -0.900  1.00  0.00    +0.000 C 
ATOM     36  C27 UNL A   1      18.036  47.729  -0.620  1.00  0.00    +0.000 C 
ATOM     37  F1  UNL A   1      18.806  48.063   0.426  1.00  0.00    +0.000 F 
ATOM     38  C28 UNL A   1      18.445  46.682  -1.442  1.00  0.00    +0.000 C 
ATOM     39  F2  UNL A   1      19.594  46.042  -1.188  1.00  0.00    +0.000 F 
ATOM     40  C29 UNL A   1      17.673  46.312  -2.534  1.00  0.00    +0.000 C 
ATOM     41  F3  UNL A   1      18.063  45.299  -3.319  1.00  0.00    +0.000 F 
ATOM     42  C30 UNL A   1      16.501  46.998  -2.814  1.00  0.00    +0.000 C 
ATOM     43  F4  UNL A   1      15.746  46.634  -3.859  1.00  0.00    +0.000 F 
ATOM     44  C31 UNL A   1      16.109  48.070  -2.015  1.00  0.00    +0.000 C 
ATOM     45  F5  UNL A   1      14.981  48.726  -2.327  1.00  0.00    +0.000 F 
ENDBRANCH   34   35
BRANCH   51   52
ATOM     52  C37 UNL A   1      18.156  55.506  -0.102  1.00  0.00    +0.000 C 
ATOM     53  C38 UNL A   1      19.430  55.867   0.359  1.00  0.00    +0.000 C 
ATOM     54  F6  UNL A   1      19.932  55.301   1.467  1.00  0.00    +0.000 F 
ATOM     55  C39 UNL A   1      20.178  56.842  -0.295  1.00  0.00    +0.000 C 
ATOM     56  F7  UNL A   1      21.372  57.208   0.193  1.00  0.00    +0.000 F 
ATOM     57  C40 UNL A   1      19.686  57.445  -1.442  1.00  0.00    +0.000 C 
ATOM     58  F8  UNL A   1      20.413  58.374  -2.078  1.00  0.00    +0.000 F 
ATOM     59  C41 UNL A   1      18.437  57.090  -1.928  1.00  0.00    +0.000 C 
ATOM     60  F9  UNL A   1      17.967  57.657  -3.048  1.00  0.00    +0.000 F 
ATOM     61  C42 UNL A   1      17.671  56.141  -1.257  1.00  0.00    +0.000 C 
ATOM     62  F10 UNL A   1      16.463  55.827  -1.745  1.00  0.00    +0.000 F 
ENDBRANCH   51   52
BRANCH   66   67
ATOM     67  C46 UNL A   1      13.750  55.649   5.302  1.00  0.00    +0.000 C 
ATOM     68  C47 UNL A   1      12.755  56.567   4.933  1.00  0.00    +0.000 C 
ATOM     69  F11 UNL A   1      12.190  56.488   3.720  1.00  0.00    +0.000 F 
ATOM     70  C48 UNL A   1      12.373  57.598   5.789  1.00  0.00    +0.000 C 
ATOM     71  F12 UNL A   1      11.460  58.492   5.389  1.00  0.00    +0.000 F 
ATOM     72  C49 UNL A   1      12.949  57.709   7.045  1.00  0.00    +0.000 C 
ATOM     73  F13 UNL A   1      12.580  58.700   7.869  1.00  0.00    +0.000 F 
ATOM     74  C50 UNL A   1      13.916  56.799   7.442  1.00  0.00    +0.000 C 
ATOM     75  F14 UNL A   1      14.465  56.892   8.661  1.00  0.00    +0.000 F 
ATOM     76  C51 UNL A   1      14.324  55.787   6.574  1.00  0.00    +0.000 C 
ATOM     77  F15 UNL A   1      15.274  54.932   6.979  1.00  0.00    +0.000 F 
ENDBRANCH   66   67
TORSDOF 22
ENDMDL
MODEL 9
REMARK VINA RESULT:      -8.3      1.684      4.292
ROOT
ATOM    129  H31 UNL A   1      18.907  54.582  -2.092  1.00  0.00    +0.000 H 
ATOM    130  H32 UNL A   1      12.151  53.212   5.214  1.00  0.00    +0.000 H 
ATOM    131  H33 UNL A   1      11.774  50.812   4.407  1.00  0.00    +0.000 H 
ATOM     30  C22 UNL A   1      13.130  50.196   1.977  1.00  0.00    +0.000 C 
ATOM     31  C23 UNL A   1      13.243  51.450   2.800  1.00  0.00    +0.000 C 
ATOM     32  N3  UNL A   1      13.973  52.516   2.593  1.00  0.00    +0.000 N 
ATOM     33  C24 UNL A   1      13.665  53.392   3.627  1.00  0.00    +0.000 C 
ATOM     34  C25 UNL A   1      14.211  54.600   3.900  1.00  0.00    +0.000 C 
ATOM     46  C32 UNL A   1      15.251  55.213   3.116  1.00  0.00    +0.000 C 
ATOM     47  C33 UNL A   1      15.905  56.412   3.337  1.00  0.00    +0.000 C 
ATOM     48  C34 UNL A   1      16.795  56.625   2.280  1.00  0.00    +0.000 C 
ATOM     49  C35 UNL A   1      16.745  55.528   1.435  1.00  0.00    +0.000 C 
ATOM     50  N4  UNL A   1      15.787  54.672   1.956  1.00  0.00    +0.000 N 
ATOM     51  C36 UNL A   1      17.516  55.277   0.243  1.00  0.00    +0.000 C 
ATOM     63  C43 UNL A   1      17.406  54.173  -0.535  1.00  0.00    +0.000 C 
ATOM     64  N5  UNL A   1      16.582  53.067  -0.371  1.00  0.00    +0.000 N 
ATOM     65  C44 UNL A   1      16.838  52.273  -1.383  1.00  0.00    +0.000 C 
ATOM     66  C45 UNL A   1      16.266  50.916  -1.697  1.00  0.00    +0.000 C 
ATOM     78  C52 UNL A   1      15.365  50.373  -0.854  1.00  0.00    +0.000 C 
ATOM     79  C53 UNL A   1      14.724  49.073  -1.022  1.00  0.00    +0.000 C 
ATOM     80  C54 UNL A   1      13.839  48.891  -0.030  1.00  0.00    +0.000 C 
ATOM     81  C55 UNL A   1      13.883  50.043   0.872  1.00  0.00    +0.000 C 
ATOM     82  N6  UNL A   1      14.826  50.867   0.309  1.00  0.00    +0.000 N 
ATOM     83  C56 UNL A   1      17.831  52.807  -2.326  1.00  0.00    +0.000 C 
ATOM     84  C57 UNL A   1      18.178  53.942  -1.738  1.00  0.00    +0.000 C 
ATOM     85  C58 UNL A   1      12.635  52.761   4.422  1.00  0.00    +0.000 C 
ATOM     86  C59 UNL A   1      12.394  51.530   4.000  1.00  0.00    +0.000 C 
ATOM    122  H24 UNL A   1      15.761  57.040   4.143  1.00  0.00    +0.000 H 
ATOM    123  H25 UNL A   1      17.389  57.459   2.150  1.00  0.00    +0.000 H 
ATOM    124  H26 UNL A   1      15.525  53.809   1.561  1.00  0.00    +0.000 H 
ATOM    125  H27 UNL A   1      14.920  48.402  -1.781  1.00  0.00    +0.000 H 
ATOM    126  H28 UNL A   1      13.224  48.069   0.080  1.00  0.00    +0.000 H 
ATOM    127  H29 UNL A   1      15.091  51.730   0.702  1.00  0.00    +0.000 H 
ATOM    128  H30 UNL A   1      18.168  52.404  -3.213  1.00  0.00    +0.000 H 
ENDROOT
BRANCH   30   29
ATOM    132  H34 UNL A   1      13.514  48.011   3.469  1.00  0.00    +0.000 H 
ATOM    133  H35 UNL A   1      11.955  46.222   3.964  1.00  0.00    +0.000 H 
ATOM    120  H22 UNL A   1       8.891  48.339   2.005  1.00  0.00    +0.000 H 
ATOM     87  C60 UNL A   1      12.541  48.068   3.132  1.00  0.00    +0.000 C 
ATOM     88  C61 UNL A   1      11.635  47.063   3.459  1.00  0.00    +0.000 C 
ATOM    121  H23 UNL A   1      10.511  50.000   1.285  1.00  0.00    +0.000 H 
ATOM     26  C18 UNL A   1      10.291  47.197   3.103  1.00  0.00    +0.000 C 
ATOM     27  C19 UNL A   1       9.877  48.264   2.302  1.00  0.00    +0.000 C 
ATOM     28  C20 UNL A   1      10.805  49.229   1.904  1.00  0.00    +0.000 C 
ATOM     29  C21 UNL A   1      12.137  49.156   2.344  1.00  0.00    +0.000 C 
BRANCH   26   24
ATOM     25  O6  UNL A   1       8.680  45.528   2.752  1.00  0.00    +0.000 O 
ATOM     24  C17 UNL A   1       9.286  46.218   3.566  1.00  0.00    +0.000 C 
BRANCH   24   23
ATOM    119  H21 UNL A   1       9.079  45.179   5.268  1.00  0.00    +0.000 H 
ATOM     23  N2  UNL A   1       9.028  46.095   4.908  1.00  0.00    +0.000 N 
BRANCH   23   22
ATOM    118  H20 UNL A   1       7.718  46.907   6.263  1.00  0.00    +0.000 H 
ATOM    117  H19 UNL A   1       8.703  48.077   5.377  1.00  0.00    +0.000 H 
ATOM     22  C16 UNL A   1       8.689  47.129   5.871  1.00  0.00    +0.000 C 
BRANCH   22   21
ATOM    115  H17 UNL A   1       9.153  46.825   7.915  1.00  0.00    +0.000 H 
ATOM    116  H18 UNL A   1      10.493  46.549   6.766  1.00  0.00    +0.000 H 
ATOM     21  C15 UNL A   1       9.666  47.170   7.040  1.00  0.00    +0.000 C 
BRANCH   21   20
ATOM    113  H15 UNL A   1       9.511  49.285   7.069  1.00  0.00    +0.000 H 
ATOM    114  H16 UNL A   1      10.482  48.553   8.386  1.00  0.00    +0.000 H 
ATOM     20  C14 UNL A   1      10.244  48.554   7.343  1.00  0.00    +0.000 C 
BRANCH   20   19
ATOM     19  C13 UNL A   1      11.547  48.895   6.613  1.00  0.00    +0.000 C 
ATOM    111  H13 UNL A   1      12.202  48.053   6.692  1.00  0.00    +0.000 H 
ATOM    112  H14 UNL A   1      11.272  49.128   5.605  1.00  0.00    +0.000 H 
BRANCH   19   18
ATOM     18  C12 UNL A   1      12.287  50.122   7.146  1.00  0.00    +0.000 C 
ATOM    109  H11 UNL A   1      13.315  50.042   6.862  1.00  0.00    +0.000 H 
ATOM    110  H12 UNL A   1      11.804  50.978   6.724  1.00  0.00    +0.000 H 
BRANCH   18   17
ATOM     17  C11 UNL A   1      12.223  50.288   8.657  1.00  0.00    +0.000 C 
ATOM    107  H9  UNL A   1      11.224  50.561   8.927  1.00  0.00    +0.000 H 
ATOM    108  H10 UNL A   1      12.516  49.355   9.092  1.00  0.00    +0.000 H 
BRANCH   17   16
ATOM    106  H8  UNL A   1      12.719  51.955   9.770  1.00  0.00    +0.000 H 
ATOM     16  N1  UNL A   1      13.127  51.299   9.158  1.00  0.00    +0.000 N 
BRANCH   16   14
ATOM     14  C10 UNL A   1      14.459  51.489   8.916  1.00  0.00    +0.000 C 
ATOM     15  O5  UNL A   1      14.976  52.483   9.427  1.00  0.00    +0.000 O 
BRANCH   14   13
ATOM      1  O1  UNL A   1      18.411  50.029   9.765  1.00  0.00    +0.000 O 
ATOM      2  C1  UNL A   1      17.485  50.261   9.005  1.00  0.00    +0.000 C 
ATOM      3  O2  UNL A   1      17.530  51.117   7.956  1.00  0.00    +0.000 O 
ATOM      4  C2  UNL A   1      16.304  51.069   7.205  1.00  0.00    +0.000 C 
ATOM     99  H1  UNL A   1      15.966  52.043   6.916  1.00  0.00    +0.000 H 
ATOM    105  H7  UNL A   1      14.513  49.883   7.609  1.00  0.00    +0.000 H 
ATOM     13  C9  UNL A   1      15.261  50.445   8.127  1.00  0.00    +0.000 C 
ATOM     89  C62 UNL A   1      16.142  49.658   9.041  1.00  0.00    +0.000 C 
BRANCH    4    5
ATOM    100  H2  UNL A   1      15.840  48.452   6.515  1.00  0.00    +0.000 H 
ATOM      5  C3  UNL A   1      16.492  50.357   5.861  1.00  0.00    +0.000 C 
ATOM      6  C4  UNL A   1      16.144  48.997   5.693  1.00  0.00    +0.000 C 
ATOM      7  C5  UNL A   1      16.198  48.367   4.445  1.00  0.00    +0.000 C 
ATOM    104  H6  UNL A   1      17.187  52.057   4.808  1.00  0.00    +0.000 H 
ATOM    101  H3  UNL A   1      15.923  47.378   4.344  1.00  0.00    +0.000 H 
ATOM     10  C7  UNL A   1      16.999  50.423   3.493  1.00  0.00    +0.000 C 
ATOM      8  C6  UNL A   1      16.628  49.091   3.346  1.00  0.00    +0.000 C 
ATOM     12  C8  UNL A   1      16.923  51.062   4.726  1.00  0.00    +0.000 C 
BRANCH    8    9
ATOM      9  O3  UNL A   1      16.698  48.538   2.099  1.00  0.00    +0.000 O 
ATOM    102  H4  UNL A   1      16.028  48.718   1.469  1.00  0.00    +0.000 H 
ENDBRANCH    8    9
BRANCH   10   11
ATOM     11  O4  UNL A   1      17.434  51.128   2.406  1.00  0.00    +0.000 O 
ATOM    103  H5  UNL A   1      17.892  50.688   1.717  1.00  0.00    +0.000 H 
ENDBRANCH   10   11
ENDBRANCH    4    5
BRANCH   89   90
ATOM     90  C63 UNL A   1      15.907  48.576   9.797  1.00  0.00    +0.000 C 
ATOM    134  H36 UNL A   1      16.684  48.210  10.370  1.00  0.00    +0.000 H 
BRANCH   90   91
ATOM     98  C69 UNL A   1      14.214  47.092   8.784  1.00  0.00    +0.000 C 
ATOM    135  H37 UNL A   1      14.071  48.626  11.766  1.00  0.00    +0.000 H 
ATOM    136  H38 UNL A   1      11.936  47.463  11.853  1.00  0.00    +0.000 H 
ATOM    139  H41 UNL A   1      14.821  46.989   7.955  1.00  0.00    +0.000 H 
ATOM     91  C64 UNL A   1      14.622  47.881   9.864  1.00  0.00    +0.000 C 
ATOM     92  C65 UNL A   1      13.780  48.026  10.978  1.00  0.00    +0.000 C 
ATOM     93  C66 UNL A   1      12.549  47.366  11.028  1.00  0.00    +0.000 C 
ATOM     94  C67 UNL A   1      12.161  46.576   9.953  1.00  0.00    +0.000 C 
ATOM     96  C68 UNL A   1      12.987  46.447   8.839  1.00  0.00    +0.000 C 
BRANCH   94   95
ATOM    137  H39 UNL A   1      10.928  45.029   9.617  1.00  0.00    +0.000 H 
ATOM     95  O7  UNL A   1      10.969  45.907   9.941  1.00  0.00    +0.000 O 
ENDBRANCH   94   95
BRANCH   96   97
ATOM     97  O8  UNL A   1      12.588  45.681   7.781  1.00  0.00    +0.000 O 
ATOM    138  H40 UNL A   1      11.691  45.421   7.702  1.00  0.00    +0.000 H 
ENDBRANCH   96   97
ENDBRANCH   90   91
ENDBRANCH   89   90
ENDBRANCH   14   13
ENDBRANCH   16   14
ENDBRANCH   17   16
ENDBRANCH   18   17
ENDBRANCH   19   18
ENDBRANCH   20   19
ENDBRANCH   21   20
ENDBRANCH   22   21
ENDBRANCH   23   22
ENDBRANCH   24   23
ENDBRANCH   26   24
ENDBRANCH   30   29
BRANCH   34   35
ATOM     35  C26 UNL A   1      13.690  55.344   5.097  1.00  0.00    +0.000 C 
ATOM     36  C27 UNL A   1      14.155  55.073   6.394  1.00  0.00    +0.000 C 
ATOM     37  F1  UNL A   1      15.056  54.102   6.601  1.00  0.00    +0.000 F 
ATOM     38  C28 UNL A   1      13.662  55.771   7.495  1.00  0.00    +0.000 C 
ATOM     39  F2  UNL A   1      14.078  55.455   8.728  1.00  0.00    +0.000 F 
ATOM     40  C29 UNL A   1      12.728  56.781   7.316  1.00  0.00    +0.000 C 
ATOM     41  F3  UNL A   1      12.261  57.457   8.375  1.00  0.00    +0.000 F 
ATOM     42  C30 UNL A   1      12.274  57.084   6.042  1.00  0.00    +0.000 C 
ATOM     43  F4  UNL A   1      11.383  58.070   5.865  1.00  0.00    +0.000 F 
ATOM     44  C31 UNL A   1      12.738  56.363   4.944  1.00  0.00    +0.000 C 
ATOM     45  F5  UNL A   1      12.262  56.668   3.727  1.00  0.00    +0.000 F 
ENDBRANCH   34   35
BRANCH   51   52
ATOM     52  C37 UNL A   1      18.543  56.302  -0.148  1.00  0.00    +0.000 C 
ATOM     53  C38 UNL A   1      19.803  56.360   0.464  1.00  0.00    +0.000 C 
ATOM     54  F6  UNL A   1      20.104  55.526   1.471  1.00  0.00    +0.000 F 
ATOM     55  C39 UNL A   1      20.747  57.306   0.070  1.00  0.00    +0.000 C 
ATOM     56  F7  UNL A   1      21.926  57.377   0.704  1.00  0.00    +0.000 F 
ATOM     57  C40 UNL A   1      20.465  58.181  -0.968  1.00  0.00    +0.000 C 
ATOM     58  F8  UNL A   1      21.379  59.082  -1.354  1.00  0.00    +0.000 F 
ATOM     59  C41 UNL A   1      19.234  58.128  -1.602  1.00  0.00    +0.000 C 
ATOM     60  F9  UNL A   1      18.965  58.960  -2.617  1.00  0.00    +0.000 F 
ATOM     61  C42 UNL A   1      18.275  57.208  -1.187  1.00  0.00    +0.000 C 
ATOM     62  F10 UNL A   1      17.089  57.189  -1.812  1.00  0.00    +0.000 F 
ENDBRANCH   51   52
BRANCH   66   67
ATOM     67  C46 UNL A   1      16.701  50.167  -2.906  1.00  0.00    +0.000 C 
ATOM     68  C47 UNL A   1      16.018  50.309  -4.123  1.00  0.00    +0.000 C 
ATOM     69  F11 UNL A   1      14.956  51.122  -4.204  1.00  0.00    +0.000 F 
ATOM     70  C48 UNL A   1      16.395  49.578  -5.250  1.00  0.00    +0.000 C 
ATOM     71  F12 UNL A   1      15.691  49.692  -6.383  1.00  0.00    +0.000 F 
ATOM     72  C49 UNL A   1      17.482  48.721  -5.191  1.00  0.00    +0.000 C 
ATOM     73  F13 UNL A   1      17.845  48.020  -6.275  1.00  0.00    +0.000 F 
ATOM     74  C50 UNL A   1      18.188  48.584  -4.006  1.00  0.00    +0.000 C 
ATOM     75  F14 UNL A   1      19.250  47.769  -3.949  1.00  0.00    +0.000 F 
ATOM     76  C51 UNL A   1      17.792  49.288  -2.870  1.00  0.00    +0.000 C 
ATOM     77  F15 UNL A   1      18.484  49.121  -1.733  1.00  0.00    +0.000 F 
ENDBRANCH   66   67
TORSDOF 22
ENDMDL
MODEL 10
REMARK VINA RESULT:      -8.2      3.004      7.963
ROOT
ATOM    129  H31 UNL A   1      15.187  46.930   0.706  1.00  0.00    +0.000 H 
ATOM    130  H32 UNL A   1      16.658  56.731   2.335  1.00  0.00    +0.000 H 
ATOM    131  H33 UNL A   1      15.381  56.550   4.546  1.00  0.00    +0.000 H 
ATOM     30  C22 UNL A   1      14.173  54.002   4.963  1.00  0.00    +0.000 C 
ATOM     31  C23 UNL A   1      15.106  54.407   3.855  1.00  0.00    +0.000 C 
ATOM     32  N3  UNL A   1      15.565  53.697   2.855  1.00  0.00    +0.000 N 
ATOM     33  C24 UNL A   1      16.346  54.566   2.103  1.00  0.00    +0.000 C 
ATOM     34  C25 UNL A   1      17.097  54.294   1.009  1.00  0.00    +0.000 C 
ATOM     46  C32 UNL A   1      17.207  52.990   0.410  1.00  0.00    +0.000 C 
ATOM     47  C33 UNL A   1      17.980  52.599  -0.670  1.00  0.00    +0.000 C 
ATOM     48  C34 UNL A   1      17.718  51.251  -0.930  1.00  0.00    +0.000 C 
ATOM     49  C35 UNL A   1      16.833  50.782   0.029  1.00  0.00    +0.000 C 
ATOM     50  N4  UNL A   1      16.522  51.863   0.840  1.00  0.00    +0.000 N 
ATOM     51  C36 UNL A   1      16.313  49.448   0.194  1.00  0.00    +0.000 C 
ATOM     63  C43 UNL A   1      15.444  49.068   1.162  1.00  0.00    +0.000 C 
ATOM     64  N5  UNL A   1      14.888  49.826   2.184  1.00  0.00    +0.000 N 
ATOM     65  C44 UNL A   1      14.108  49.012   2.853  1.00  0.00    +0.000 C 
ATOM     66  C45 UNL A   1      13.284  49.281   4.085  1.00  0.00    +0.000 C 
ATOM     78  C52 UNL A   1      13.314  50.509   4.638  1.00  0.00    +0.000 C 
ATOM     79  C53 UNL A   1      12.573  50.922   5.826  1.00  0.00    +0.000 C 
ATOM     80  C54 UNL A   1      12.792  52.227   6.048  1.00  0.00    +0.000 C 
ATOM     81  C55 UNL A   1      13.728  52.734   5.042  1.00  0.00    +0.000 C 
ATOM     82  N6  UNL A   1      13.991  51.641   4.255  1.00  0.00    +0.000 N 
ATOM     83  C56 UNL A   1      14.052  47.650   2.305  1.00  0.00    +0.000 C 
ATOM     84  C57 UNL A   1      14.919  47.726   1.306  1.00  0.00    +0.000 C 
ATOM     85  C58 UNL A   1      16.246  55.868   2.722  1.00  0.00    +0.000 C 
ATOM     86  C59 UNL A   1      15.556  55.808   3.850  1.00  0.00    +0.000 C 
ATOM    122  H24 UNL A   1      18.637  53.199  -1.192  1.00  0.00    +0.000 H 
ATOM    123  H25 UNL A   1      18.116  50.697  -1.705  1.00  0.00    +0.000 H 
ATOM    124  H26 UNL A   1      15.905  51.834   1.606  1.00  0.00    +0.000 H 
ATOM    125  H27 UNL A   1      11.976  50.308   6.403  1.00  0.00    +0.000 H 
ATOM    126  H28 UNL A   1      12.369  52.785   6.806  1.00  0.00    +0.000 H 
ATOM    127  H29 UNL A   1      14.608  51.665   3.488  1.00  0.00    +0.000 H 
ATOM    128  H30 UNL A   1      13.486  46.846   2.616  1.00  0.00    +0.000 H 
ENDROOT
BRANCH   30   29
ATOM    132  H34 UNL A   1      15.257  54.685   7.310  1.00  0.00    +0.000 H 
ATOM    133  H35 UNL A   1      14.411  56.229   8.976  1.00  0.00    +0.000 H 
ATOM    120  H22 UNL A   1      11.280  57.321   6.386  1.00  0.00    +0.000 H 
ATOM     87  C60 UNL A   1      14.395  55.222   7.125  1.00  0.00    +0.000 C 
ATOM     88  C61 UNL A   1      13.939  56.144   8.062  1.00  0.00    +0.000 C 
ATOM    121  H23 UNL A   1      11.973  55.589   4.831  1.00  0.00    +0.000 H 
ATOM     26  C18 UNL A   1      12.841  56.954   7.762  1.00  0.00    +0.000 C 
ATOM     27  C19 UNL A   1      12.115  56.749   6.587  1.00  0.00    +0.000 C 
ATOM     28  C20 UNL A   1      12.526  55.766   5.684  1.00  0.00    +0.000 C 
ATOM     29  C21 UNL A   1      13.688  55.018   5.931  1.00  0.00    +0.000 C 
BRANCH   26   24
ATOM     25  O6  UNL A   1      12.791  59.191   8.466  1.00  0.00    +0.000 O 
ATOM     24  C17 UNL A   1      12.431  58.038   8.678  1.00  0.00    +0.000 C 
BRANCH   24   23
ATOM    119  H21 UNL A   1      11.703  58.392  10.512  1.00  0.00    +0.000 H 
ATOM     23  N2  UNL A   1      11.656  57.744   9.772  1.00  0.00    +0.000 N 
BRANCH   23   22
ATOM    118  H20 UNL A   1      10.743  56.041   9.081  1.00  0.00    +0.000 H 
ATOM    117  H19 UNL A   1       9.806  56.971  10.258  1.00  0.00    +0.000 H 
ATOM     22  C16 UNL A   1      10.776  56.608   9.989  1.00  0.00    +0.000 C 
BRANCH   22   21
ATOM    115  H17 UNL A   1      12.122  56.162  11.561  1.00  0.00    +0.000 H 
ATOM    116  H18 UNL A   1      10.460  55.539  11.762  1.00  0.00    +0.000 H 
ATOM     21  C15 UNL A   1      11.281  55.690  11.094  1.00  0.00    +0.000 C 
BRANCH   21   20
ATOM    113  H15 UNL A   1      12.785  54.255  10.670  1.00  0.00    +0.000 H 
ATOM    114  H16 UNL A   1      11.228  53.603  11.271  1.00  0.00    +0.000 H 
ATOM     20  C14 UNL A   1      11.716  54.300  10.623  1.00  0.00    +0.000 C 
BRANCH   20   19
ATOM     19  C13 UNL A   1      11.289  53.926   9.200  1.00  0.00    +0.000 C 
ATOM    111  H13 UNL A   1      10.399  54.470   8.967  1.00  0.00    +0.000 H 
ATOM    112  H14 UNL A   1      12.116  54.170   8.566  1.00  0.00    +0.000 H 
BRANCH   19   18
ATOM     18  C12 UNL A   1      11.009  52.439   8.978  1.00  0.00    +0.000 C 
ATOM    109  H11 UNL A   1      10.246  52.351   8.232  1.00  0.00    +0.000 H 
ATOM    110  H12 UNL A   1      11.935  51.995   8.680  1.00  0.00    +0.000 H 
BRANCH   18   17
ATOM     17  C11 UNL A   1      10.547  51.693  10.220  1.00  0.00    +0.000 C 
ATOM    107  H9  UNL A   1      10.386  52.404  11.004  1.00  0.00    +0.000 H 
ATOM    108  H10 UNL A   1       9.649  51.171   9.962  1.00  0.00    +0.000 H 
BRANCH   17   16
ATOM    106  H8  UNL A   1      11.890  50.145   9.973  1.00  0.00    +0.000 H 
ATOM     16  N1  UNL A   1      11.500  50.708  10.681  1.00  0.00    +0.000 N 
BRANCH   16   14
ATOM     14  C10 UNL A   1      11.944  50.436  11.945  1.00  0.00    +0.000 C 
ATOM     15  O5  UNL A   1      12.170  49.254  12.207  1.00  0.00    +0.000 O 
BRANCH   14   13
ATOM      1  O1  UNL A   1      15.256  50.782  14.661  1.00  0.00    +0.000 O 
ATOM      2  C1  UNL A   1      14.116  51.034  14.312  1.00  0.00    +0.000 C 
ATOM      3  O2  UNL A   1      12.995  50.699  14.997  1.00  0.00    +0.000 O 
ATOM      4  C2  UNL A   1      11.826  51.244  14.362  1.00  0.00    +0.000 C 
ATOM     99  H1  UNL A   1      11.016  50.545  14.333  1.00  0.00    +0.000 H 
ATOM    105  H7  UNL A   1      11.705  52.412  12.517  1.00  0.00    +0.000 H 
ATOM     13  C9  UNL A   1      12.233  51.578  12.930  1.00  0.00    +0.000 C 
ATOM     89  C62 UNL A   1      13.704  51.765  13.101  1.00  0.00    +0.000 C 
BRANCH    4    5
ATOM    100  H2  UNL A   1      11.020  51.362  16.984  1.00  0.00    +0.000 H 
ATOM      5  C3  UNL A   1      11.242  52.415  15.160  1.00  0.00    +0.000 C 
ATOM      6  C4  UNL A   1      10.932  52.286  16.534  1.00  0.00    +0.000 C 
ATOM      7  C5  UNL A   1      10.511  53.377  17.303  1.00  0.00    +0.000 C 
ATOM    104  H6  UNL A   1      11.304  53.815  13.574  1.00  0.00    +0.000 H 
ATOM    101  H3  UNL A   1      10.307  53.263  18.308  1.00  0.00    +0.000 H 
ATOM     10  C7  UNL A   1      10.645  54.756  15.339  1.00  0.00    +0.000 C 
ATOM      8  C6  UNL A   1      10.370  54.613  16.694  1.00  0.00    +0.000 C 
ATOM     12  C8  UNL A   1      11.088  53.681  14.575  1.00  0.00    +0.000 C 
BRANCH    8    9
ATOM      9  O3  UNL A   1       9.969  55.718  17.389  1.00  0.00    +0.000 O 
ATOM    102  H4  UNL A   1       9.191  56.174  17.136  1.00  0.00    +0.000 H 
ENDBRANCH    8    9
BRANCH   10   11
ATOM     11  O4  UNL A   1      10.492  55.975  14.742  1.00  0.00    +0.000 O 
ATOM    103  H5  UNL A   1      10.395  56.032  13.811  1.00  0.00    +0.000 H 
ENDBRANCH   10   11
ENDBRANCH    4    5
BRANCH   89   90
ATOM     90  C63 UNL A   1      14.607  52.454  12.389  1.00  0.00    +0.000 C 
ATOM    134  H36 UNL A   1      14.882  53.388  12.732  1.00  0.00    +0.000 H 
BRANCH   90   91
ATOM     98  C69 UNL A   1      16.354  51.141  11.239  1.00  0.00    +0.000 C 
ATOM    135  H37 UNL A   1      13.921  52.981   9.839  1.00  0.00    +0.000 H 
ATOM    136  H38 UNL A   1      14.975  52.164   7.804  1.00  0.00    +0.000 H 
ATOM    139  H41 UNL A   1      16.731  50.864  12.160  1.00  0.00    +0.000 H 
ATOM     91  C64 UNL A   1      15.229  51.969  11.157  1.00  0.00    +0.000 C 
ATOM     92  C65 UNL A   1      14.737  52.352   9.900  1.00  0.00    +0.000 C 
ATOM     93  C66 UNL A   1      15.345  51.892   8.728  1.00  0.00    +0.000 C 
ATOM     94  C67 UNL A   1      16.454  51.061   8.825  1.00  0.00    +0.000 C 
ATOM     96  C68 UNL A   1      16.955  50.695  10.072  1.00  0.00    +0.000 C 
BRANCH   94   95
ATOM    137  H39 UNL A   1      17.760  49.926   7.807  1.00  0.00    +0.000 H 
ATOM     95  O7  UNL A   1      17.095  50.579   7.716  1.00  0.00    +0.000 O 
ENDBRANCH   94   95
BRANCH   96   97
ATOM     97  O8  UNL A   1      18.056  49.892  10.154  1.00  0.00    +0.000 O 
ATOM    138  H40 UNL A   1      18.338  49.567  10.987  1.00  0.00    +0.000 H 
ENDBRANCH   96   97
ENDBRANCH   90   91
ENDBRANCH   89   90
ENDBRANCH   14   13
ENDBRANCH   16   14
ENDBRANCH   17   16
ENDBRANCH   18   17
ENDBRANCH   19   18
ENDBRANCH   20   19
ENDBRANCH   21   20
ENDBRANCH   22   21
ENDBRANCH   23   22
ENDBRANCH   24   23
ENDBRANCH   26   24
ENDBRANCH   30   29
BRANCH   34   35
ATOM     35  C26 UNL A   1      17.856  55.431   0.386  1.00  0.00    +0.000 C 
ATOM     36  C27 UNL A   1      19.093  55.858   0.894  1.00  0.00    +0.000 C 
ATOM     37  F1  UNL A   1      19.611  55.281   1.988  1.00  0.00    +0.000 F 
ATOM     38  C28 UNL A   1      19.785  56.914   0.306  1.00  0.00    +0.000 C 
ATOM     39  F2  UNL A   1      20.935  57.342   0.844  1.00  0.00    +0.000 F 
ATOM     40  C29 UNL A   1      19.277  57.535  -0.826  1.00  0.00    +0.000 C 
ATOM     41  F3  UNL A   1      19.948  58.545  -1.396  1.00  0.00    +0.000 F 
ATOM     42  C30 UNL A   1      18.070  57.111  -1.361  1.00  0.00    +0.000 C 
ATOM     43  F4  UNL A   1      17.584  57.699  -2.463  1.00  0.00    +0.000 F 
ATOM     44  C31 UNL A   1      17.358  56.081  -0.753  1.00  0.00    +0.000 C 
ATOM     45  F5  UNL A   1      16.183  55.710  -1.285  1.00  0.00    +0.000 F 
ENDBRANCH   34   35
BRANCH   51   52
ATOM     52  C37 UNL A   1      16.796  48.391  -0.758  1.00  0.00    +0.000 C 
ATOM     53  C38 UNL A   1      16.052  48.010  -1.884  1.00  0.00    +0.000 C 
ATOM     54  F6  UNL A   1      14.844  48.548  -2.108  1.00  0.00    +0.000 F 
ATOM     55  C39 UNL A   1      16.530  47.042  -2.764  1.00  0.00    +0.000 C 
ATOM     56  F7  UNL A   1      15.779  46.656  -3.805  1.00  0.00    +0.000 F 
ATOM     57  C40 UNL A   1      17.776  46.468  -2.558  1.00  0.00    +0.000 C 
ATOM     58  F8  UNL A   1      18.239  45.546  -3.413  1.00  0.00    +0.000 F 
ATOM     59  C41 UNL A   1      18.538  46.844  -1.464  1.00  0.00    +0.000 C 
ATOM     60  F9  UNL A   1      19.750  46.305  -1.273  1.00  0.00    +0.000 F 
ATOM     61  C42 UNL A   1      18.048  47.785  -0.563  1.00  0.00    +0.000 C 
ATOM     62  F10 UNL A   1      18.805  48.120   0.493  1.00  0.00    +0.000 F 
ENDBRANCH   51   52
BRANCH   66   67
ATOM     67  C46 UNL A   1      12.462  48.206   4.702  1.00  0.00    +0.000 C 
ATOM     68  C47 UNL A   1      12.979  47.408   5.734  1.00  0.00    +0.000 C 
ATOM     69  F11 UNL A   1      14.230  47.608   6.172  1.00  0.00    +0.000 F 
ATOM     70  C48 UNL A   1      12.229  46.372   6.288  1.00  0.00    +0.000 C 
ATOM     71  F12 UNL A   1      12.767  45.592   7.234  1.00  0.00    +0.000 F 
ATOM     72  C49 UNL A   1      10.936  46.136   5.847  1.00  0.00    +0.000 C 
ATOM     73  F13 UNL A   1      10.215  45.140   6.380  1.00  0.00    +0.000 F 
ATOM     74  C50 UNL A   1      10.395  46.927   4.845  1.00  0.00    +0.000 C 
ATOM     75  F14 UNL A   1       9.141  46.713   4.426  1.00  0.00    +0.000 F 
ATOM     76  C51 UNL A   1      11.156  47.942   4.267  1.00  0.00    +0.000 C 
ATOM     77  F15 UNL A   1      10.612  48.679   3.288  1.00  0.00    +0.000 F 
ENDBRANCH   66   67
TORSDOF 22
ENDMDL
