MODEL 1
REMARK VINA RESULT:     -10.8      0.000      0.000
ROOT
ATOM     19  C15 UNL A   1      37.985  30.169  30.092  1.00  0.00    +0.000 C 
ATOM     20  C16 UNL A   1      38.257  30.614  31.501  1.00  0.00    +0.000 C 
ATOM     21  N3  UNL A   1      39.281  30.347  32.273  1.00  0.00    +0.000 N 
ATOM     22  C17 UNL A   1      39.060  31.049  33.450  1.00  0.00    +0.000 C 
ATOM     23  C18 UNL A   1      39.803  31.055  34.583  1.00  0.00    +0.000 C 
ATOM     35  C25 UNL A   1      41.003  30.282  34.767  1.00  0.00    +0.000 C 
ATOM     36  C26 UNL A   1      41.785  30.158  35.901  1.00  0.00    +0.000 C 
ATOM     37  C27 UNL A   1      42.873  29.333  35.595  1.00  0.00    +0.000 C 
ATOM     38  C28 UNL A   1      42.743  28.906  34.283  1.00  0.00    +0.000 C 
ATOM     39  N4  UNL A   1      41.594  29.498  33.786  1.00  0.00    +0.000 N 
ATOM     40  C29 UNL A   1      43.602  28.022  33.537  1.00  0.00    +0.000 C 
ATOM     52  C36 UNL A   1      43.405  27.650  32.248  1.00  0.00    +0.000 C 
ATOM     53  N5  UNL A   1      42.374  27.999  31.386  1.00  0.00    +0.000 N 
ATOM     54  C37 UNL A   1      42.632  27.394  30.253  1.00  0.00    +0.000 C 
ATOM     55  C38 UNL A   1      41.834  27.383  28.978  1.00  0.00    +0.000 C 
ATOM     67  C45 UNL A   1      40.680  28.074  28.918  1.00  0.00    +0.000 C 
ATOM     68  C46 UNL A   1      39.791  28.145  27.762  1.00  0.00    +0.000 C 
ATOM     69  C47 UNL A   1      38.742  28.927  28.063  1.00  0.00    +0.000 C 
ATOM     70  C48 UNL A   1      38.872  29.389  29.445  1.00  0.00    +0.000 C 
ATOM     71  N6  UNL A   1      40.060  28.849  29.867  1.00  0.00    +0.000 N 
ATOM     72  C49 UNL A   1      43.879  26.616  30.257  1.00  0.00    +0.000 C 
ATOM     73  C50 UNL A   1      44.287  26.771  31.509  1.00  0.00    +0.000 C 
ATOM     74  C51 UNL A   1      37.832  31.792  33.275  1.00  0.00    +0.000 C 
ATOM     75  C52 UNL A   1      37.259  31.503  32.118  1.00  0.00    +0.000 C 
ATOM    112  H21 UNL A   1      41.600  30.598  36.816  1.00  0.00    +0.000 H 
ATOM    113  H22 UNL A   1      43.643  29.084  36.237  1.00  0.00    +0.000 H 
ATOM    114  H23 UNL A   1      41.247  29.382  32.872  1.00  0.00    +0.000 H 
ATOM    115  H24 UNL A   1      39.944  27.670  26.858  1.00  0.00    +0.000 H 
ATOM    116  H25 UNL A   1      37.968  29.165  27.422  1.00  0.00    +0.000 H 
ATOM    117  H26 UNL A   1      40.434  29.001  30.766  1.00  0.00    +0.000 H 
ATOM    118  H27 UNL A   1      44.320  26.089  29.488  1.00  0.00    +0.000 H 
ATOM    119  H28 UNL A   1      45.127  26.322  31.906  1.00  0.00    +0.000 H 
ATOM    120  H29 UNL A   1      37.452  32.461  33.964  1.00  0.00    +0.000 H 
ATOM    121  H30 UNL A   1      36.349  31.817  31.745  1.00  0.00    +0.000 H 
ENDROOT
BRANCH   19   18
ATOM     76  C53 UNL A   1      35.690  29.749  29.202  1.00  0.00    +0.000 C 
ATOM     77  C54 UNL A   1      34.564  30.150  28.487  1.00  0.00    +0.000 C 
ATOM    110  H19 UNL A   1      35.449  33.327  27.865  1.00  0.00    +0.000 H 
ATOM     15  C11 UNL A   1      34.455  31.470  28.040  1.00  0.00    +0.000 C 
ATOM     16  C12 UNL A   1      35.519  32.360  28.218  1.00  0.00    +0.000 C 
ATOM     17  C13 UNL A   1      36.676  31.936  28.875  1.00  0.00    +0.000 C 
ATOM    111  H20 UNL A   1      37.471  32.585  28.983  1.00  0.00    +0.000 H 
ATOM     18  C14 UNL A   1      36.763  30.633  29.388  1.00  0.00    +0.000 C 
ATOM    122  H31 UNL A   1      35.734  28.796  29.598  1.00  0.00    +0.000 H 
ATOM    123  H32 UNL A   1      33.811  29.474  28.287  1.00  0.00    +0.000 H 
BRANCH   15   13
ATOM     13  C10 UNL A   1      33.242  31.945  27.340  1.00  0.00    +0.000 C 
ATOM     14  O2  UNL A   1      32.950  33.138  27.366  1.00  0.00    +0.000 O 
BRANCH   13   12
ATOM     12  N2  UNL A   1      32.438  31.057  26.675  1.00  0.00    +0.000 N 
ATOM    109  H18 UNL A   1      31.471  31.239  26.727  1.00  0.00    +0.000 H 
BRANCH   12   11
ATOM     11  C9  UNL A   1      32.809  29.883  25.904  1.00  0.00    +0.000 C 
ATOM    108  H17 UNL A   1      33.708  29.483  26.325  1.00  0.00    +0.000 H 
ATOM    107  H16 UNL A   1      32.952  30.172  24.883  1.00  0.00    +0.000 H 
BRANCH   11   10
ATOM    105  H14 UNL A   1      31.016  29.080  26.693  1.00  0.00    +0.000 H 
ATOM     10  C8  UNL A   1      31.742  28.796  25.961  1.00  0.00    +0.000 C 
ATOM    106  H15 UNL A   1      31.335  28.720  24.974  1.00  0.00    +0.000 H 
BRANCH   10    9
ATOM      9  C7  UNL A   1      32.264  27.404  26.322  1.00  0.00    +0.000 C 
ATOM    103  H12 UNL A   1      32.069  27.235  27.360  1.00  0.00    +0.000 H 
ATOM    104  H13 UNL A   1      31.757  26.718  25.676  1.00  0.00    +0.000 H 
BRANCH    9    8
ATOM    101  H10 UNL A   1      34.154  28.077  25.627  1.00  0.00    +0.000 H 
ATOM    102  H11 UNL A   1      34.189  26.974  27.036  1.00  0.00    +0.000 H 
ATOM      8  C6  UNL A   1      33.761  27.190  26.080  1.00  0.00    +0.000 C 
BRANCH    8    7
ATOM     99  H8  UNL A   1      33.415  25.977  24.365  1.00  0.00    +0.000 H 
ATOM    100  H9  UNL A   1      35.121  26.148  24.851  1.00  0.00    +0.000 H 
ATOM      7  C5  UNL A   1      34.113  26.000  25.176  1.00  0.00    +0.000 C 
BRANCH    7    6
ATOM     97  H6  UNL A   1      35.009  24.149  25.744  1.00  0.00    +0.000 H 
ATOM     98  H7  UNL A   1      33.888  24.808  26.925  1.00  0.00    +0.000 H 
ATOM      6  C4  UNL A   1      34.072  24.646  25.884  1.00  0.00    +0.000 C 
BRANCH    6    5
ATOM      5  N1  UNL A   1      33.013  23.818  25.351  1.00  0.00    +0.000 N 
ATOM     96  H5  UNL A   1      33.313  23.060  24.799  1.00  0.00    +0.000 H 
BRANCH    5    3
ATOM      3  C3  UNL A   1      31.659  23.924  25.497  1.00  0.00    +0.000 C 
ATOM      4  O1  UNL A   1      31.230  23.941  26.653  1.00  0.00    +0.000 O 
BRANCH    3    2
ATOM      2  C2  UNL A   1      30.758  23.940  24.253  1.00  0.00    +0.000 C 
ATOM     95  H4  UNL A   1      29.817  23.556  24.586  1.00  0.00    +0.000 H 
BRANCH    2    1
ATOM      1  C1  UNL A   1      31.241  23.016  23.131  1.00  0.00    +0.000 C 
ATOM     92  H1  UNL A   1      31.171  23.528  22.193  1.00  0.00    +0.000 H 
ATOM     93  H2  UNL A   1      30.629  22.138  23.104  1.00  0.00    +0.000 H 
ATOM     94  H3  UNL A   1      32.257  22.737  23.311  1.00  0.00    +0.000 H 
ENDBRANCH    2    1
BRANCH    2   78
ATOM    136  H45 UNL A   1      31.957  27.653  21.723  1.00  0.00    +0.000 H 
ATOM     78  C55 UNL A   1      30.553  25.348  23.720  1.00  0.00    +0.000 C 
ATOM     79  C56 UNL A   1      29.421  26.080  24.087  1.00  0.00    +0.000 C 
ATOM     80  C57 UNL A   1      29.216  27.372  23.583  1.00  0.00    +0.000 C 
ATOM     81  C58 UNL A   1      30.143  27.992  22.740  1.00  0.00    +0.000 C 
ATOM     89  C64 UNL A   1      31.264  27.242  22.369  1.00  0.00    +0.000 C 
ATOM     90  C65 UNL A   1      31.465  25.951  22.854  1.00  0.00    +0.000 C 
ATOM     91  F16 UNL A   1      32.555  25.282  22.448  1.00  0.00    +0.000 F 
ATOM    124  H33 UNL A   1      28.730  25.668  24.733  1.00  0.00    +0.000 H 
ATOM    125  H34 UNL A   1      28.356  27.879  23.842  1.00  0.00    +0.000 H 
BRANCH   81   82
ATOM     82  N7  UNL A   1      29.973  29.238  22.165  1.00  0.00    +0.000 N 
ATOM    126  H35 UNL A   1      30.626  29.482  21.470  1.00  0.00    +0.000 H 
BRANCH   82   83
ATOM    129  H38 UNL A   1      28.606  30.692  24.549  1.00  0.00    +0.000 H 
ATOM    130  H39 UNL A   1      29.767  33.058  23.224  1.00  0.00    +0.000 H 
ATOM    131  H40 UNL A   1      28.325  32.984  24.157  1.00  0.00    +0.000 H 
ATOM    132  H41 UNL A   1      28.145  33.329  21.529  1.00  0.00    +0.000 H 
ATOM    133  H42 UNL A   1      27.016  32.279  22.256  1.00  0.00    +0.000 H 
ATOM    134  H43 UNL A   1      29.597  31.527  20.810  1.00  0.00    +0.000 H 
ATOM     83  C59 UNL A   1      28.949  30.238  22.457  1.00  0.00    +0.000 C 
ATOM     84  C60 UNL A   1      29.201  31.045  23.733  1.00  0.00    +0.000 C 
ATOM     85  C61 UNL A   1      28.869  32.496  23.376  1.00  0.00    +0.000 C 
ATOM     86  C62 UNL A   1      28.063  32.419  22.087  1.00  0.00    +0.000 C 
ATOM     87  C63 UNL A   1      28.704  31.260  21.337  1.00  0.00    +0.000 C 
ATOM    127  H36 UNL A   1      28.086  29.616  22.573  1.00  0.00    +0.000 H 
ATOM    128  H37 UNL A   1      30.225  30.960  24.034  1.00  0.00    +0.000 H 
BRANCH   87   88
ATOM    135  H44 UNL A   1      28.319  30.674  19.497  1.00  0.00    +0.000 H 
ATOM     88  O3  UNL A   1      27.835  30.756  20.334  1.00  0.00    +0.000 O 
ENDBRANCH   87   88
ENDBRANCH   82   83
ENDBRANCH   81   82
ENDBRANCH    2   78
ENDBRANCH    3    2
ENDBRANCH    5    3
ENDBRANCH    6    5
ENDBRANCH    7    6
ENDBRANCH    8    7
ENDBRANCH    9    8
ENDBRANCH   10    9
ENDBRANCH   11   10
ENDBRANCH   12   11
ENDBRANCH   13   12
ENDBRANCH   15   13
ENDBRANCH   19   18
BRANCH   23   24
ATOM     33  C24 UNL A   1      38.404  31.446  36.643  1.00  0.00    +0.000 C 
ATOM     34  F5  UNL A   1      37.929  30.195  36.542  1.00  0.00    +0.000 F 
ATOM     24  C19 UNL A   1      39.337  31.927  35.713  1.00  0.00    +0.000 C 
ATOM     25  C20 UNL A   1      39.795  33.245  35.866  1.00  0.00    +0.000 C 
ATOM     26  F1  UNL A   1      40.698  33.749  35.010  1.00  0.00    +0.000 F 
ATOM     27  C21 UNL A   1      39.362  34.036  36.926  1.00  0.00    +0.000 C 
ATOM     28  F2  UNL A   1      39.855  35.272  37.081  1.00  0.00    +0.000 F 
ATOM     29  C22 UNL A   1      38.436  33.541  37.831  1.00  0.00    +0.000 C 
ATOM     30  F3  UNL A   1      38.018  34.305  38.849  1.00  0.00    +0.000 F 
ATOM     31  C23 UNL A   1      37.951  32.250  37.685  1.00  0.00    +0.000 C 
ATOM     32  F4  UNL A   1      37.046  31.775  38.553  1.00  0.00    +0.000 F 
ENDBRANCH   23   24
BRANCH   40   41
ATOM     41  C30 UNL A   1      44.794  27.445  34.243  1.00  0.00    +0.000 C 
ATOM     42  C31 UNL A   1      44.730  26.218  34.918  1.00  0.00    +0.000 C 
ATOM     43  F6  UNL A   1      43.571  25.545  34.986  1.00  0.00    +0.000 F 
ATOM     44  C32 UNL A   1      45.848  25.698  35.563  1.00  0.00    +0.000 C 
ATOM     45  F7  UNL A   1      45.752  24.547  36.244  1.00  0.00    +0.000 F 
ATOM     46  C33 UNL A   1      47.058  26.375  35.517  1.00  0.00    +0.000 C 
ATOM     47  F8  UNL A   1      48.134  25.871  36.135  1.00  0.00    +0.000 F 
ATOM     48  C34 UNL A   1      47.149  27.581  34.838  1.00  0.00    +0.000 C 
ATOM     49  F9  UNL A   1      48.319  28.231  34.781  1.00  0.00    +0.000 F 
ATOM     50  C35 UNL A   1      46.026  28.118  34.216  1.00  0.00    +0.000 C 
ATOM     51  F10 UNL A   1      46.141  29.293  33.578  1.00  0.00    +0.000 F 
ENDBRANCH   40   41
BRANCH   55   56
ATOM     65  C44 UNL A   1      43.181  27.101  26.866  1.00  0.00    +0.000 C 
ATOM     66  F15 UNL A   1      43.655  28.347  27.004  1.00  0.00    +0.000 F 
ATOM     56  C39 UNL A   1      42.281  26.584  27.807  1.00  0.00    +0.000 C 
ATOM     57  C40 UNL A   1      41.812  25.277  27.616  1.00  0.00    +0.000 C 
ATOM     58  F11 UNL A   1      40.965  24.732  28.502  1.00  0.00    +0.000 F 
ATOM     59  C41 UNL A   1      42.242  24.510  26.534  1.00  0.00    +0.000 C 
ATOM     60  F12 UNL A   1      41.810  23.248  26.397  1.00  0.00    +0.000 F 
ATOM     61  C42 UNL A   1      43.126  25.044  25.610  1.00  0.00    +0.000 C 
ATOM     62  F13 UNL A   1      43.537  24.309  24.570  1.00  0.00    +0.000 F 
ATOM     63  C43 UNL A   1      43.590  26.341  25.772  1.00  0.00    +0.000 C 
ATOM     64  F14 UNL A   1      44.435  26.866  24.873  1.00  0.00    +0.000 F 
ENDBRANCH   55   56
TORSDOF 20
ENDMDL
MODEL 2
REMARK VINA RESULT:     -10.7     17.653     22.608
ROOT
ATOM     19  C15 UNL A   1      25.729  35.377  45.477  1.00  0.00    +0.000 C 
ATOM     20  C16 UNL A   1      25.491  36.539  46.399  1.00  0.00    +0.000 C 
ATOM     21  N3  UNL A   1      26.282  37.541  46.694  1.00  0.00    +0.000 N 
ATOM     22  C17 UNL A   1      25.555  38.357  47.550  1.00  0.00    +0.000 C 
ATOM     23  C18 UNL A   1      25.954  39.489  48.181  1.00  0.00    +0.000 C 
ATOM     35  C25 UNL A   1      27.272  40.054  48.071  1.00  0.00    +0.000 C 
ATOM     36  C26 UNL A   1      27.799  41.151  48.728  1.00  0.00    +0.000 C 
ATOM     37  C27 UNL A   1      29.107  41.349  48.272  1.00  0.00    +0.000 C 
ATOM     38  C28 UNL A   1      29.410  40.347  47.364  1.00  0.00    +0.000 C 
ATOM     39  N4  UNL A   1      28.275  39.561  47.248  1.00  0.00    +0.000 N 
ATOM     40  C29 UNL A   1      30.644  40.119  46.656  1.00  0.00    +0.000 C 
ATOM     52  C36 UNL A   1      30.864  39.109  45.778  1.00  0.00    +0.000 C 
ATOM     53  N5  UNL A   1      30.003  38.093  45.384  1.00  0.00    +0.000 N 
ATOM     54  C37 UNL A   1      30.671  37.372  44.518  1.00  0.00    +0.000 C 
ATOM     55  C38 UNL A   1      30.249  36.124  43.793  1.00  0.00    +0.000 C 
ATOM     67  C45 UNL A   1      29.020  35.618  44.013  1.00  0.00    +0.000 C 
ATOM     68  C46 UNL A   1      28.476  34.410  43.402  1.00  0.00    +0.000 C 
ATOM     69  C47 UNL A   1      27.226  34.216  43.851  1.00  0.00    +0.000 C 
ATOM     70  C48 UNL A   1      26.892  35.273  44.806  1.00  0.00    +0.000 C 
ATOM     71  N6  UNL A   1      28.009  36.070  44.826  1.00  0.00    +0.000 N 
ATOM     72  C49 UNL A   1      32.025  37.870  44.239  1.00  0.00    +0.000 C 
ATOM     73  C50 UNL A   1      32.106  38.904  45.064  1.00  0.00    +0.000 C 
ATOM     74  C51 UNL A   1      24.244  37.763  47.690  1.00  0.00    +0.000 C 
ATOM     75  C52 UNL A   1      24.176  36.602  47.058  1.00  0.00    +0.000 C 
ATOM    112  H21 UNL A   1      27.312  41.726  49.434  1.00  0.00    +0.000 H 
ATOM    113  H22 UNL A   1      29.739  42.112  48.561  1.00  0.00    +0.000 H 
ATOM    114  H23 UNL A   1      28.191  38.771  46.666  1.00  0.00    +0.000 H 
ATOM    115  H24 UNL A   1      28.973  33.802  42.732  1.00  0.00    +0.000 H 
ATOM    116  H25 UNL A   1      26.600  33.445  43.568  1.00  0.00    +0.000 H 
ATOM    117  H26 UNL A   1      28.080  36.887  45.371  1.00  0.00    +0.000 H 
ATOM    118  H27 UNL A   1      32.728  37.511  43.574  1.00  0.00    +0.000 H 
ATOM    119  H28 UNL A   1      32.948  39.489  45.183  1.00  0.00    +0.000 H 
ATOM    120  H29 UNL A   1      23.463  38.190  48.214  1.00  0.00    +0.000 H 
ATOM    121  H30 UNL A   1      23.403  35.919  47.033  1.00  0.00    +0.000 H 
ENDROOT
BRANCH   19   18
ATOM     76  C53 UNL A   1      24.559  33.268  46.124  1.00  0.00    +0.000 C 
ATOM     77  C54 UNL A   1      23.604  32.281  45.894  1.00  0.00    +0.000 C 
ATOM    110  H19 UNL A   1      22.100  33.627  43.213  1.00  0.00    +0.000 H 
ATOM     15  C11 UNL A   1      22.675  32.435  44.861  1.00  0.00    +0.000 C 
ATOM     16  C12 UNL A   1      22.769  33.527  43.992  1.00  0.00    +0.000 C 
ATOM     17  C13 UNL A   1      23.771  34.481  44.182  1.00  0.00    +0.000 C 
ATOM    111  H20 UNL A   1      23.855  35.273  43.525  1.00  0.00    +0.000 H 
ATOM     18  C14 UNL A   1      24.662  34.369  45.260  1.00  0.00    +0.000 C 
ATOM    122  H31 UNL A   1      25.193  33.190  46.935  1.00  0.00    +0.000 H 
ATOM    123  H32 UNL A   1      23.582  31.436  46.486  1.00  0.00    +0.000 H 
BRANCH   15   13
ATOM     13  C10 UNL A   1      21.606  31.438  44.636  1.00  0.00    +0.000 C 
ATOM     14  O2  UNL A   1      21.843  30.244  44.799  1.00  0.00    +0.000 O 
BRANCH   13   12
ATOM     12  N2  UNL A   1      20.359  31.843  44.236  1.00  0.00    +0.000 N 
ATOM    109  H18 UNL A   1      20.284  32.111  43.291  1.00  0.00    +0.000 H 
BRANCH   12   11
ATOM     11  C9  UNL A   1      19.132  31.932  45.009  1.00  0.00    +0.000 C 
ATOM    108  H17 UNL A   1      19.345  31.603  46.004  1.00  0.00    +0.000 H 
ATOM    107  H16 UNL A   1      18.388  31.317  44.546  1.00  0.00    +0.000 H 
BRANCH   11   10
ATOM    105  H14 UNL A   1      17.887  33.407  45.880  1.00  0.00    +0.000 H 
ATOM     10  C8  UNL A   1      18.607  33.361  45.090  1.00  0.00    +0.000 C 
ATOM    106  H15 UNL A   1      19.458  33.987  45.259  1.00  0.00    +0.000 H 
BRANCH   10    9
ATOM      9  C7  UNL A   1      17.943  33.872  43.809  1.00  0.00    +0.000 C 
ATOM    103  H12 UNL A   1      18.571  34.629  43.388  1.00  0.00    +0.000 H 
ATOM    104  H13 UNL A   1      17.820  33.018  43.176  1.00  0.00    +0.000 H 
BRANCH    9    8
ATOM    101  H10 UNL A   1      16.586  35.161  44.811  1.00  0.00    +0.000 H 
ATOM    102  H11 UNL A   1      16.286  34.921  43.063  1.00  0.00    +0.000 H 
ATOM      8  C6  UNL A   1      16.544  34.468  43.997  1.00  0.00    +0.000 C 
BRANCH    8    7
ATOM     99  H8  UNL A   1      15.778  32.801  45.077  1.00  0.00    +0.000 H 
ATOM    100  H9  UNL A   1      14.570  34.012  44.576  1.00  0.00    +0.000 H 
ATOM      7  C5  UNL A   1      15.436  33.450  44.297  1.00  0.00    +0.000 C 
BRANCH    7    6
ATOM     97  H6  UNL A   1      13.989  32.707  42.916  1.00  0.00    +0.000 H 
ATOM     98  H7  UNL A   1      15.600  32.907  42.246  1.00  0.00    +0.000 H 
ATOM      6  C4  UNL A   1      15.036  32.590  43.098  1.00  0.00    +0.000 C 
BRANCH    6    5
ATOM      5  N1  UNL A   1      15.321  31.194  43.346  1.00  0.00    +0.000 N 
ATOM     96  H5  UNL A   1      14.612  30.702  43.820  1.00  0.00    +0.000 H 
BRANCH    5    3
ATOM      3  C3  UNL A   1      16.421  30.453  43.024  1.00  0.00    +0.000 C 
ATOM      4  O1  UNL A   1      17.124  30.882  42.106  1.00  0.00    +0.000 O 
BRANCH    3    2
ATOM      2  C2  UNL A   1      16.681  29.121  43.746  1.00  0.00    +0.000 C 
ATOM     95  H4  UNL A   1      16.363  29.285  44.754  1.00  0.00    +0.000 H 
BRANCH    2    1
ATOM      1  C1  UNL A   1      18.161  28.733  43.807  1.00  0.00    +0.000 C 
ATOM     92  H1  UNL A   1      18.362  28.241  44.736  1.00  0.00    +0.000 H 
ATOM     93  H2  UNL A   1      18.765  29.613  43.733  1.00  0.00    +0.000 H 
ATOM     94  H3  UNL A   1      18.391  28.074  42.997  1.00  0.00    +0.000 H 
ENDBRANCH    2    1
BRANCH    2   78
ATOM    136  H45 UNL A   1      14.248  25.168  43.992  1.00  0.00    +0.000 H 
ATOM     78  C55 UNL A   1      15.865  27.987  43.151  1.00  0.00    +0.000 C 
ATOM     79  C56 UNL A   1      15.588  27.962  41.782  1.00  0.00    +0.000 C 
ATOM     80  C57 UNL A   1      14.819  26.928  41.231  1.00  0.00    +0.000 C 
ATOM     81  C58 UNL A   1      14.339  25.869  42.007  1.00  0.00    +0.000 C 
ATOM     89  C64 UNL A   1      14.611  25.915  43.379  1.00  0.00    +0.000 C 
ATOM     90  C65 UNL A   1      15.361  26.949  43.936  1.00  0.00    +0.000 C 
ATOM     91  F16 UNL A   1      15.574  26.938  45.260  1.00  0.00    +0.000 F 
ATOM    124  H33 UNL A   1      15.953  28.709  41.171  1.00  0.00    +0.000 H 
ATOM    125  H34 UNL A   1      14.601  26.950  40.223  1.00  0.00    +0.000 H 
BRANCH   81   82
ATOM     82  N7  UNL A   1      13.529  24.852  41.536  1.00  0.00    +0.000 N 
ATOM    126  H35 UNL A   1      12.613  25.115  41.286  1.00  0.00    +0.000 H 
BRANCH   82   83
ATOM    129  H38 UNL A   1      14.153  22.285  43.173  1.00  0.00    +0.000 H 
ATOM    130  H39 UNL A   1      11.722  21.329  41.802  1.00  0.00    +0.000 H 
ATOM    131  H40 UNL A   1      13.069  20.393  42.318  1.00  0.00    +0.000 H 
ATOM    132  H41 UNL A   1      12.694  20.793  39.718  1.00  0.00    +0.000 H 
ATOM    133  H42 UNL A   1      14.297  20.869  40.295  1.00  0.00    +0.000 H 
ATOM    134  H43 UNL A   1      12.403  23.199  39.744  1.00  0.00    +0.000 H 
ATOM     83  C59 UNL A   1      13.857  23.441  41.363  1.00  0.00    +0.000 C 
ATOM     84  C60 UNL A   1      13.365  22.535  42.495  1.00  0.00    +0.000 C 
ATOM     85  C61 UNL A   1      12.791  21.293  41.809  1.00  0.00    +0.000 C 
ATOM     86  C62 UNL A   1      13.335  21.329  40.387  1.00  0.00    +0.000 C 
ATOM     87  C63 UNL A   1      13.352  22.814  40.054  1.00  0.00    +0.000 C 
ATOM    127  H36 UNL A   1      14.926  23.481  41.355  1.00  0.00    +0.000 H 
ATOM    128  H37 UNL A   1      12.606  23.029  43.066  1.00  0.00    +0.000 H 
BRANCH   87   88
ATOM    135  H44 UNL A   1      15.043  22.583  39.072  1.00  0.00    +0.000 H 
ATOM     88  O3  UNL A   1      14.220  23.084  38.963  1.00  0.00    +0.000 O 
ENDBRANCH   87   88
ENDBRANCH   82   83
ENDBRANCH   81   82
ENDBRANCH    2   78
ENDBRANCH    3    2
ENDBRANCH    5    3
ENDBRANCH    6    5
ENDBRANCH    7    6
ENDBRANCH    8    7
ENDBRANCH    9    8
ENDBRANCH   10    9
ENDBRANCH   11   10
ENDBRANCH   12   11
ENDBRANCH   13   12
ENDBRANCH   15   13
ENDBRANCH   19   18
BRANCH   23   24
ATOM     33  C24 UNL A   1      24.179  41.244  48.530  1.00  0.00    +0.000 C 
ATOM     34  F5  UNL A   1      24.323  41.626  47.253  1.00  0.00    +0.000 F 
ATOM     24  C19 UNL A   1      24.948  40.190  49.046  1.00  0.00    +0.000 C 
ATOM     25  C20 UNL A   1      24.757  39.837  50.392  1.00  0.00    +0.000 C 
ATOM     26  F1  UNL A   1      25.458  38.828  50.930  1.00  0.00    +0.000 F 
ATOM     27  C21 UNL A   1      23.811  40.491  51.177  1.00  0.00    +0.000 C 
ATOM     28  F2  UNL A   1      23.610  40.099  52.443  1.00  0.00    +0.000 F 
ATOM     29  C22 UNL A   1      23.065  41.532  50.647  1.00  0.00    +0.000 C 
ATOM     30  F3  UNL A   1      22.158  42.161  51.405  1.00  0.00    +0.000 F 
ATOM     31  C23 UNL A   1      23.255  41.915  49.328  1.00  0.00    +0.000 C 
ATOM     32  F4  UNL A   1      22.543  42.930  48.818  1.00  0.00    +0.000 F 
ENDBRANCH   23   24
BRANCH   40   41
ATOM     41  C30 UNL A   1      31.787  41.055  46.924  1.00  0.00    +0.000 C 
ATOM     42  C31 UNL A   1      32.900  40.661  47.679  1.00  0.00    +0.000 C 
ATOM     43  F6  UNL A   1      32.948  39.436  48.224  1.00  0.00    +0.000 F 
ATOM     44  C32 UNL A   1      33.952  41.542  47.914  1.00  0.00    +0.000 C 
ATOM     45  F7  UNL A   1      34.984  41.162  48.680  1.00  0.00    +0.000 F 
ATOM     46  C33 UNL A   1      33.927  42.818  47.371  1.00  0.00    +0.000 C 
ATOM     47  F8  UNL A   1      34.942  43.663  47.594  1.00  0.00    +0.000 F 
ATOM     48  C34 UNL A   1      32.845  43.221  46.603  1.00  0.00    +0.000 C 
ATOM     49  F9  UNL A   1      32.823  44.449  46.067  1.00  0.00    +0.000 F 
ATOM     50  C35 UNL A   1      31.778  42.353  46.391  1.00  0.00    +0.000 C 
ATOM     51  F10 UNL A   1      30.738  42.776  45.656  1.00  0.00    +0.000 F 
ENDBRANCH   40   41
BRANCH   55   56
ATOM     65  C44 UNL A   1      31.943  34.323  43.305  1.00  0.00    +0.000 C 
ATOM     66  F15 UNL A   1      31.839  33.885  44.569  1.00  0.00    +0.000 F 
ATOM     56  C39 UNL A   1      31.185  35.421  42.878  1.00  0.00    +0.000 C 
ATOM     57  C40 UNL A   1      31.334  35.841  41.549  1.00  0.00    +0.000 C 
ATOM     58  F11 UNL A   1      30.614  36.876  41.088  1.00  0.00    +0.000 F 
ATOM     59  C41 UNL A   1      32.192  35.175  40.676  1.00  0.00    +0.000 C 
ATOM     60  F12 UNL A   1      32.284  35.571  39.398  1.00  0.00    +0.000 F 
ATOM     61  C42 UNL A   1      32.939  34.096  41.122  1.00  0.00    +0.000 C 
ATOM     62  F13 UNL A   1      33.765  33.458  40.284  1.00  0.00    +0.000 F 
ATOM     63  C43 UNL A   1      32.820  33.674  42.438  1.00  0.00    +0.000 C 
ATOM     64  F14 UNL A   1      33.549  32.639  42.877  1.00  0.00    +0.000 F 
ENDBRANCH   55   56
TORSDOF 20
ENDMDL
MODEL 3
REMARK VINA RESULT:     -10.7     17.776     22.541
ROOT
ATOM     19  C15 UNL A   1      26.005  36.332  45.511  1.00  0.00    +0.000 C 
ATOM     20  C16 UNL A   1      25.935  37.493  46.462  1.00  0.00    +0.000 C 
ATOM     21  N3  UNL A   1      26.862  38.365  46.776  1.00  0.00    +0.000 N 
ATOM     22  C17 UNL A   1      26.260  39.255  47.655  1.00  0.00    +0.000 C 
ATOM     23  C18 UNL A   1      26.816  40.303  48.310  1.00  0.00    +0.000 C 
ATOM     35  C25 UNL A   1      28.201  40.677  48.207  1.00  0.00    +0.000 C 
ATOM     36  C26 UNL A   1      28.880  41.673  48.887  1.00  0.00    +0.000 C 
ATOM     37  C27 UNL A   1      30.202  41.693  48.429  1.00  0.00    +0.000 C 
ATOM     38  C28 UNL A   1      30.358  40.680  47.496  1.00  0.00    +0.000 C 
ATOM     39  N4  UNL A   1      29.122  40.068  47.367  1.00  0.00    +0.000 N 
ATOM     40  C29 UNL A   1      31.545  40.297  46.777  1.00  0.00    +0.000 C 
ATOM     52  C36 UNL A   1      31.618  39.288  45.874  1.00  0.00    +0.000 C 
ATOM     53  N5  UNL A   1      30.621  38.414  45.460  1.00  0.00    +0.000 N 
ATOM     54  C37 UNL A   1      31.178  37.627  44.573  1.00  0.00    +0.000 C 
ATOM     55  C38 UNL A   1      30.581  36.469  43.821  1.00  0.00    +0.000 C 
ATOM     67  C45 UNL A   1      29.294  36.138  44.036  1.00  0.00    +0.000 C 
ATOM     68  C46 UNL A   1      28.582  35.034  43.399  1.00  0.00    +0.000 C 
ATOM     69  C47 UNL A   1      27.318  35.009  43.850  1.00  0.00    +0.000 C 
ATOM     70  C48 UNL A   1      27.140  36.079  44.832  1.00  0.00    +0.000 C 
ATOM     71  N6  UNL A   1      28.359  36.708  44.865  1.00  0.00    +0.000 N 
ATOM     72  C49 UNL A   1      32.588  37.934  44.299  1.00  0.00    +0.000 C 
ATOM     73  C50 UNL A   1      32.817  38.926  45.148  1.00  0.00    +0.000 C 
ATOM     74  C51 UNL A   1      24.877  38.850  47.787  1.00  0.00    +0.000 C 
ATOM     75  C52 UNL A   1      24.644  37.726  47.128  1.00  0.00    +0.000 C 
ATOM    112  H21 UNL A   1      28.481  42.294  49.609  1.00  0.00    +0.000 H 
ATOM    113  H22 UNL A   1      30.937  42.352  48.733  1.00  0.00    +0.000 H 
ATOM    114  H23 UNL A   1      28.925  39.312  46.767  1.00  0.00    +0.000 H 
ATOM    115  H24 UNL A   1      28.986  34.378  42.712  1.00  0.00    +0.000 H 
ATOM    116  H25 UNL A   1      26.588  34.342  43.553  1.00  0.00    +0.000 H 
ATOM    117  H26 UNL A   1      28.546  37.494  45.429  1.00  0.00    +0.000 H 
ATOM    118  H27 UNL A   1      33.232  37.494  43.623  1.00  0.00    +0.000 H 
ATOM    119  H28 UNL A   1      33.734  39.382  45.277  1.00  0.00    +0.000 H 
ATOM    120  H29 UNL A   1      24.166  39.371  48.325  1.00  0.00    +0.000 H 
ATOM    121  H30 UNL A   1      23.782  37.160  47.092  1.00  0.00    +0.000 H 
ENDROOT
BRANCH   19   18
ATOM     76  C53 UNL A   1      24.694  34.243  45.909  1.00  0.00    +0.000 C 
ATOM     77  C54 UNL A   1      23.605  33.416  45.647  1.00  0.00    +0.000 C 
ATOM    110  H19 UNL A   1      21.908  35.432  43.570  1.00  0.00    +0.000 H 
ATOM     15  C11 UNL A   1      22.564  33.869  44.832  1.00  0.00    +0.000 C 
ATOM     16  C12 UNL A   1      22.664  35.109  44.193  1.00  0.00    +0.000 C 
ATOM     17  C13 UNL A   1      23.789  35.909  44.402  1.00  0.00    +0.000 C 
ATOM    111  H20 UNL A   1      23.874  36.813  43.911  1.00  0.00    +0.000 H 
ATOM     18  C14 UNL A   1      24.804  35.491  45.276  1.00  0.00    +0.000 C 
ATOM    122  H31 UNL A   1      25.423  33.938  46.573  1.00  0.00    +0.000 H 
ATOM    123  H32 UNL A   1      23.566  32.469  46.055  1.00  0.00    +0.000 H 
BRANCH   15   13
ATOM     13  C10 UNL A   1      21.362  33.041  44.591  1.00  0.00    +0.000 C 
ATOM     14  O2  UNL A   1      21.433  32.067  43.847  1.00  0.00    +0.000 O 
BRANCH   13   12
ATOM     12  N2  UNL A   1      20.171  33.366  45.186  1.00  0.00    +0.000 N 
ATOM    109  H18 UNL A   1      20.230  33.643  46.130  1.00  0.00    +0.000 H 
BRANCH   12   11
ATOM     11  C9  UNL A   1      18.832  33.360  44.621  1.00  0.00    +0.000 C 
ATOM    108  H17 UNL A   1      18.919  33.526  43.568  1.00  0.00    +0.000 H 
ATOM    107  H16 UNL A   1      18.257  34.130  45.091  1.00  0.00    +0.000 H 
BRANCH   11   10
ATOM    105  H14 UNL A   1      18.607  31.516  45.639  1.00  0.00    +0.000 H 
ATOM     10  C8  UNL A   1      18.128  32.024  44.829  1.00  0.00    +0.000 C 
ATOM    106  H15 UNL A   1      17.100  32.251  45.024  1.00  0.00    +0.000 H 
BRANCH   10    9
ATOM      9  C7  UNL A   1      18.142  31.097  43.611  1.00  0.00    +0.000 C 
ATOM    103  H12 UNL A   1      19.162  30.885  43.367  1.00  0.00    +0.000 H 
ATOM    104  H13 UNL A   1      17.581  30.230  43.890  1.00  0.00    +0.000 H 
BRANCH    9    8
ATOM    101  H10 UNL A   1      17.206  32.682  42.552  1.00  0.00    +0.000 H 
ATOM    102  H11 UNL A   1      18.163  31.539  41.560  1.00  0.00    +0.000 H 
ATOM      8  C6  UNL A   1      17.462  31.660  42.360  1.00  0.00    +0.000 C 
BRANCH    8    7
ATOM     99  H8  UNL A   1      15.406  31.648  41.808  1.00  0.00    +0.000 H 
ATOM    100  H9  UNL A   1      16.421  30.420  41.010  1.00  0.00    +0.000 H 
ATOM      7  C5  UNL A   1      16.187  30.926  41.923  1.00  0.00    +0.000 C 
BRANCH    7    6
ATOM     97  H6  UNL A   1      16.235  29.980  43.835  1.00  0.00    +0.000 H 
ATOM     98  H7  UNL A   1      14.660  29.970  43.057  1.00  0.00    +0.000 H 
ATOM      6  C4  UNL A   1      15.713  29.858  42.909  1.00  0.00    +0.000 C 
BRANCH    6    5
ATOM      5  N1  UNL A   1      15.968  28.531  42.393  1.00  0.00    +0.000 N 
ATOM     96  H5  UNL A   1      16.901  28.359  42.127  1.00  0.00    +0.000 H 
BRANCH    5    3
ATOM      3  C3  UNL A   1      15.115  27.479  42.220  1.00  0.00    +0.000 C 
ATOM      4  O1  UNL A   1      14.746  27.254  41.066  1.00  0.00    +0.000 O 
BRANCH    3    2
ATOM      2  C2  UNL A   1      14.609  26.699  43.444  1.00  0.00    +0.000 C 
ATOM     95  H4  UNL A   1      13.783  27.269  43.815  1.00  0.00    +0.000 H 
BRANCH    2    1
ATOM      1  C1  UNL A   1      15.630  26.609  44.582  1.00  0.00    +0.000 C 
ATOM     92  H1  UNL A   1      15.305  25.882  45.296  1.00  0.00    +0.000 H 
ATOM     93  H2  UNL A   1      15.717  27.563  45.059  1.00  0.00    +0.000 H 
ATOM     94  H3  UNL A   1      16.581  26.321  44.187  1.00  0.00    +0.000 H 
ENDBRANCH    2    1
BRANCH    2   78
ATOM    136  H45 UNL A   1      11.311  23.553  42.530  1.00  0.00    +0.000 H 
ATOM     78  C55 UNL A   1      14.119  25.311  43.068  1.00  0.00    +0.000 C 
ATOM     79  C56 UNL A   1      15.035  24.288  42.812  1.00  0.00    +0.000 C 
ATOM     80  C57 UNL A   1      14.589  23.011  42.445  1.00  0.00    +0.000 C 
ATOM     81  C58 UNL A   1      13.230  22.697  42.365  1.00  0.00    +0.000 C 
ATOM     89  C64 UNL A   1      12.324  23.735  42.610  1.00  0.00    +0.000 C 
ATOM     90  C65 UNL A   1      12.761  25.012  42.959  1.00  0.00    +0.000 C 
ATOM     91  F16 UNL A   1      11.840  25.964  43.167  1.00  0.00    +0.000 F 
ATOM    124  H33 UNL A   1      16.047  24.473  42.893  1.00  0.00    +0.000 H 
ATOM    125  H34 UNL A   1      15.286  22.281  42.228  1.00  0.00    +0.000 H 
BRANCH   81   82
ATOM     82  N7  UNL A   1      12.727  21.476  41.954  1.00  0.00    +0.000 N 
ATOM    126  H35 UNL A   1      11.887  21.193  42.383  1.00  0.00    +0.000 H 
BRANCH   82   83
ATOM    129  H38 UNL A   1      13.751  18.555  41.667  1.00  0.00    +0.000 H 
ATOM    130  H39 UNL A   1      11.519  18.409  39.744  1.00  0.00    +0.000 H 
ATOM    131  H40 UNL A   1      12.997  17.532  39.700  1.00  0.00    +0.000 H 
ATOM    132  H41 UNL A   1      12.580  19.451  37.910  1.00  0.00    +0.000 H 
ATOM    133  H42 UNL A   1      14.144  19.335  38.577  1.00  0.00    +0.000 H 
ATOM    134  H43 UNL A   1      11.899  21.227  39.411  1.00  0.00    +0.000 H 
ATOM     83  C59 UNL A   1      13.283  20.554  40.969  1.00  0.00    +0.000 C 
ATOM     84  C60 UNL A   1      12.937  19.083  41.216  1.00  0.00    +0.000 C 
ATOM     85  C61 UNL A   1      12.579  18.507  39.843  1.00  0.00    +0.000 C 
ATOM     86  C62 UNL A   1      13.119  19.509  38.832  1.00  0.00    +0.000 C 
ATOM     87  C63 UNL A   1      12.896  20.852  39.512  1.00  0.00    +0.000 C 
ATOM    127  H36 UNL A   1      14.331  20.719  41.105  1.00  0.00    +0.000 H 
ATOM    128  H37 UNL A   1      12.104  19.001  41.883  1.00  0.00    +0.000 H 
BRANCH   87   88
ATOM    135  H44 UNL A   1      13.336  22.732  39.125  1.00  0.00    +0.000 H 
ATOM     88  O3  UNL A   1      13.716  21.860  38.938  1.00  0.00    +0.000 O 
ENDBRANCH   87   88
ENDBRANCH   82   83
ENDBRANCH   81   82
ENDBRANCH    2   78
ENDBRANCH    3    2
ENDBRANCH    5    3
ENDBRANCH    6    5
ENDBRANCH    7    6
ENDBRANCH    8    7
ENDBRANCH    9    8
ENDBRANCH   10    9
ENDBRANCH   11   10
ENDBRANCH   12   11
ENDBRANCH   13   12
ENDBRANCH   15   13
ENDBRANCH   19   18
BRANCH   23   24
ATOM     33  C24 UNL A   1      25.260  42.249  48.693  1.00  0.00    +0.000 C 
ATOM     34  F5  UNL A   1      25.407  42.602  47.408  1.00  0.00    +0.000 F 
ATOM     24  C19 UNL A   1      25.921  41.119  49.197  1.00  0.00    +0.000 C 
ATOM     25  C20 UNL A   1      25.734  40.800  50.551  1.00  0.00    +0.000 C 
ATOM     26  F1  UNL A   1      26.334  39.722  51.080  1.00  0.00    +0.000 F 
ATOM     27  C21 UNL A   1      24.891  41.561  51.358  1.00  0.00    +0.000 C 
ATOM     28  F2  UNL A   1      24.686  41.204  52.632  1.00  0.00    +0.000 F 
ATOM     29  C22 UNL A   1      24.251  42.675  50.839  1.00  0.00    +0.000 C 
ATOM     30  F3  UNL A   1      23.442  43.408  51.616  1.00  0.00    +0.000 F 
ATOM     31  C23 UNL A   1      24.441  43.024  49.510  1.00  0.00    +0.000 C 
ATOM     32  F4  UNL A   1      23.832  44.109  49.010  1.00  0.00    +0.000 F 
ENDBRANCH   23   24
BRANCH   40   41
ATOM     41  C30 UNL A   1      32.810  41.054  47.061  1.00  0.00    +0.000 C 
ATOM     42  C31 UNL A   1      33.779  40.564  47.947  1.00  0.00    +0.000 C 
ATOM     43  F6  UNL A   1      33.574  39.411  48.603  1.00  0.00    +0.000 F 
ATOM     44  C32 UNL A   1      34.948  41.279  48.194  1.00  0.00    +0.000 C 
ATOM     45  F7  UNL A   1      35.839  40.816  49.082  1.00  0.00    +0.000 F 
ATOM     46  C33 UNL A   1      35.185  42.477  47.537  1.00  0.00    +0.000 C 
ATOM     47  F8  UNL A   1      36.312  43.161  47.773  1.00  0.00    +0.000 F 
ATOM     48  C34 UNL A   1      34.249  42.970  46.641  1.00  0.00    +0.000 C 
ATOM     49  F9  UNL A   1      34.480  44.121  45.995  1.00  0.00    +0.000 F 
ATOM     50  C35 UNL A   1      33.066  42.273  46.413  1.00  0.00    +0.000 C 
ATOM     51  F10 UNL A   1      32.172  42.781  45.551  1.00  0.00    +0.000 F 
ENDBRANCH   40   41
BRANCH   55   56
ATOM     65  C44 UNL A   1      31.481  35.972  41.520  1.00  0.00    +0.000 C 
ATOM     66  F15 UNL A   1      30.792  37.012  41.028  1.00  0.00    +0.000 F 
ATOM     56  C39 UNL A   1      31.407  35.663  42.885  1.00  0.00    +0.000 C 
ATOM     57  C40 UNL A   1      32.143  34.564  43.349  1.00  0.00    +0.000 C 
ATOM     58  F11 UNL A   1      32.119  34.242  44.651  1.00  0.00    +0.000 F 
ATOM     59  C41 UNL A   1      32.939  33.815  42.484  1.00  0.00    +0.000 C 
ATOM     60  F12 UNL A   1      33.666  32.794  42.961  1.00  0.00    +0.000 F 
ATOM     61  C42 UNL A   1      32.991  34.133  41.136  1.00  0.00    +0.000 C 
ATOM     62  F13 UNL A   1      33.753  33.412  40.304  1.00  0.00    +0.000 F 
ATOM     63  C43 UNL A   1      32.258  35.206  40.652  1.00  0.00    +0.000 C 
ATOM     64  F14 UNL A   1      32.296  35.509  39.348  1.00  0.00    +0.000 F 
ENDBRANCH   55   56
TORSDOF 20
ENDMDL
MODEL 4
REMARK VINA RESULT:     -10.7      1.312      7.446
ROOT
ATOM     19  C15 UNL A   1      38.005  30.040  29.939  1.00  0.00    +0.000 C 
ATOM     20  C16 UNL A   1      39.071  29.150  29.365  1.00  0.00    +0.000 C 
ATOM     21  N3  UNL A   1      40.192  28.743  29.907  1.00  0.00    +0.000 N 
ATOM     22  C17 UNL A   1      40.779  27.899  28.973  1.00  0.00    +0.000 C 
ATOM     23  C18 UNL A   1      41.978  27.272  29.037  1.00  0.00    +0.000 C 
ATOM     35  C25 UNL A   1      42.898  27.395  30.136  1.00  0.00    +0.000 C 
ATOM     36  C26 UNL A   1      44.169  26.864  30.263  1.00  0.00    +0.000 C 
ATOM     37  C27 UNL A   1      44.667  27.214  31.523  1.00  0.00    +0.000 C 
ATOM     38  C28 UNL A   1      43.724  28.002  32.163  1.00  0.00    +0.000 C 
ATOM     39  N4  UNL A   1      42.642  28.102  31.302  1.00  0.00    +0.000 N 
ATOM     40  C29 UNL A   1      43.802  28.621  33.461  1.00  0.00    +0.000 C 
ATOM     52  C36 UNL A   1      42.830  29.383  34.021  1.00  0.00    +0.000 C 
ATOM     53  N5  UNL A   1      41.596  29.746  33.498  1.00  0.00    +0.000 N 
ATOM     54  C37 UNL A   1      41.017  30.479  34.417  1.00  0.00    +0.000 C 
ATOM     55  C38 UNL A   1      39.683  31.172  34.380  1.00  0.00    +0.000 C 
ATOM     67  C45 UNL A   1      38.917  31.067  33.277  1.00  0.00    +0.000 C 
ATOM     68  C46 UNL A   1      37.613  31.695  33.084  1.00  0.00    +0.000 C 
ATOM     69  C47 UNL A   1      37.144  31.367  31.870  1.00  0.00    +0.000 C 
ATOM     70  C48 UNL A   1      38.130  30.529  31.187  1.00  0.00    +0.000 C 
ATOM     71  N6  UNL A   1      39.141  30.388  32.104  1.00  0.00    +0.000 N 
ATOM     72  C49 UNL A   1      41.808  30.636  35.645  1.00  0.00    +0.000 C 
ATOM     73  C50 UNL A   1      42.919  29.985  35.335  1.00  0.00    +0.000 C 
ATOM     74  C51 UNL A   1      39.869  27.811  27.852  1.00  0.00    +0.000 C 
ATOM     75  C52 UNL A   1      38.834  28.621  28.012  1.00  0.00    +0.000 C 
ATOM    112  H21 UNL A   1      44.665  26.304  29.551  1.00  0.00    +0.000 H 
ATOM    113  H22 UNL A   1      45.581  26.933  31.911  1.00  0.00    +0.000 H 
ATOM    114  H23 UNL A   1      41.814  28.600  31.491  1.00  0.00    +0.000 H 
ATOM    115  H24 UNL A   1      37.130  32.295  33.771  1.00  0.00    +0.000 H 
ATOM    116  H25 UNL A   1      36.234  31.659  31.480  1.00  0.00    +0.000 H 
ATOM    117  H26 UNL A   1      39.950  29.852  31.937  1.00  0.00    +0.000 H 
ATOM    118  H27 UNL A   1      41.561  31.124  36.521  1.00  0.00    +0.000 H 
ATOM    119  H28 UNL A   1      43.745  29.916  35.950  1.00  0.00    +0.000 H 
ATOM    120  H29 UNL A   1      40.010  27.197  27.034  1.00  0.00    +0.000 H 
ATOM    121  H30 UNL A   1      38.063  28.828  27.359  1.00  0.00    +0.000 H 
ENDROOT
BRANCH   19   18
ATOM     76  C53 UNL A   1      36.564  31.640  28.673  1.00  0.00    +0.000 C 
ATOM     77  C54 UNL A   1      35.392  31.950  27.988  1.00  0.00    +0.000 C 
ATOM    110  H19 UNL A   1      33.989  28.901  27.954  1.00  0.00    +0.000 H 
ATOM     15  C11 UNL A   1      34.474  30.940  27.683  1.00  0.00    +0.000 C 
ATOM     16  C12 UNL A   1      34.680  29.641  28.157  1.00  0.00    +0.000 C 
ATOM     17  C13 UNL A   1      35.823  29.346  28.902  1.00  0.00    +0.000 C 
ATOM    111  H20 UNL A   1      35.961  28.393  29.272  1.00  0.00    +0.000 H 
ATOM     18  C14 UNL A   1      36.783  30.339  29.151  1.00  0.00    +0.000 C 
ATOM    122  H31 UNL A   1      37.277  32.371  28.828  1.00  0.00    +0.000 H 
ATOM    123  H32 UNL A   1      35.200  32.924  27.706  1.00  0.00    +0.000 H 
BRANCH   15   13
ATOM     13  C10 UNL A   1      33.254  31.225  26.897  1.00  0.00    +0.000 C 
ATOM     14  O2  UNL A   1      32.675  32.300  27.039  1.00  0.00    +0.000 O 
BRANCH   13   12
ATOM     12  N2  UNL A   1      32.763  30.291  26.024  1.00  0.00    +0.000 N 
ATOM    109  H18 UNL A   1      33.254  30.207  25.174  1.00  0.00    +0.000 H 
BRANCH   12   11
ATOM     11  C9  UNL A   1      31.619  29.407  26.173  1.00  0.00    +0.000 C 
ATOM    108  H17 UNL A   1      31.040  29.463  25.275  1.00  0.00    +0.000 H 
ATOM    107  H16 UNL A   1      31.051  29.721  27.024  1.00  0.00    +0.000 H 
BRANCH   11   10
ATOM    105  H14 UNL A   1      32.332  27.829  27.392  1.00  0.00    +0.000 H 
ATOM     10  C8  UNL A   1      32.038  27.955  26.371  1.00  0.00    +0.000 C 
ATOM    106  H15 UNL A   1      31.194  27.357  26.100  1.00  0.00    +0.000 H 
BRANCH   10    9
ATOM      9  C7  UNL A   1      33.196  27.496  25.483  1.00  0.00    +0.000 C 
ATOM    103  H12 UNL A   1      32.823  27.371  24.488  1.00  0.00    +0.000 H 
ATOM    104  H13 UNL A   1      33.951  28.250  25.564  1.00  0.00    +0.000 H 
BRANCH    9    8
ATOM    101  H10 UNL A   1      34.711  26.421  26.512  1.00  0.00    +0.000 H 
ATOM    102  H11 UNL A   1      33.109  25.626  26.430  1.00  0.00    +0.000 H 
ATOM      8  C6  UNL A   1      33.859  26.183  25.908  1.00  0.00    +0.000 C 
BRANCH    8    7
ATOM     99  H8  UNL A   1      33.469  24.870  24.278  1.00  0.00    +0.000 H 
ATOM    100  H9  UNL A   1      34.908  25.905  24.101  1.00  0.00    +0.000 H 
ATOM      7  C5  UNL A   1      34.331  25.286  24.755  1.00  0.00    +0.000 C 
BRANCH    7    6
ATOM     97  H6  UNL A   1      36.189  24.238  24.705  1.00  0.00    +0.000 H 
ATOM     98  H7  UNL A   1      35.360  24.177  26.253  1.00  0.00    +0.000 H 
ATOM      6  C4  UNL A   1      35.241  24.137  25.190  1.00  0.00    +0.000 C 
BRANCH    6    5
ATOM      5  N1  UNL A   1      34.662  22.860  24.838  1.00  0.00    +0.000 N 
ATOM     96  H5  UNL A   1      34.915  22.518  23.950  1.00  0.00    +0.000 H 
BRANCH    5    3
ATOM      3  C3  UNL A   1      33.819  22.054  25.549  1.00  0.00    +0.000 C 
ATOM      4  O1  UNL A   1      34.278  21.545  26.574  1.00  0.00    +0.000 O 
BRANCH    3    2
ATOM      2  C2  UNL A   1      32.408  21.766  25.012  1.00  0.00    +0.000 C 
ATOM     95  H4  UNL A   1      31.952  21.140  25.751  1.00  0.00    +0.000 H 
BRANCH    2    1
ATOM      1  C1  UNL A   1      32.397  20.979  23.699  1.00  0.00    +0.000 C 
ATOM     92  H1  UNL A   1      31.702  21.427  23.020  1.00  0.00    +0.000 H 
ATOM     93  H2  UNL A   1      32.105  19.968  23.891  1.00  0.00    +0.000 H 
ATOM     94  H3  UNL A   1      33.376  20.990  23.267  1.00  0.00    +0.000 H 
ENDBRANCH    2    1
BRANCH    2   78
ATOM    136  H45 UNL A   1      30.061  25.418  26.677  1.00  0.00    +0.000 H 
ATOM     78  C55 UNL A   1      31.587  23.036  24.869  1.00  0.00    +0.000 C 
ATOM     79  C56 UNL A   1      31.277  23.533  23.600  1.00  0.00    +0.000 C 
ATOM     80  C57 UNL A   1      30.537  24.715  23.463  1.00  0.00    +0.000 C 
ATOM     81  C58 UNL A   1      30.047  25.414  24.569  1.00  0.00    +0.000 C 
ATOM     89  C64 UNL A   1      30.378  24.914  25.833  1.00  0.00    +0.000 C 
ATOM     90  C65 UNL A   1      31.127  23.747  25.978  1.00  0.00    +0.000 C 
ATOM     91  F16 UNL A   1      31.420  23.330  27.218  1.00  0.00    +0.000 F 
ATOM    124  H33 UNL A   1      31.594  23.027  22.759  1.00  0.00    +0.000 H 
ATOM    125  H34 UNL A   1      30.349  25.080  22.516  1.00  0.00    +0.000 H 
BRANCH   81   82
ATOM     82  N7  UNL A   1      29.361  26.614  24.502  1.00  0.00    +0.000 N 
ATOM    126  H35 UNL A   1      29.003  26.951  25.355  1.00  0.00    +0.000 H 
BRANCH   82   83
ATOM    129  H38 UNL A   1      27.039  27.578  22.674  1.00  0.00    +0.000 H 
ATOM    130  H39 UNL A   1      27.911  30.213  23.672  1.00  0.00    +0.000 H 
ATOM    131  H40 UNL A   1      27.201  29.854  22.148  1.00  0.00    +0.000 H 
ATOM    132  H41 UNL A   1      29.771  30.517  22.250  1.00  0.00    +0.000 H 
ATOM    133  H42 UNL A   1      29.333  29.259  21.186  1.00  0.00    +0.000 H 
ATOM    134  H43 UNL A   1      30.484  29.002  24.001  1.00  0.00    +0.000 H 
ATOM     83  C59 UNL A   1      29.102  27.443  23.329  1.00  0.00    +0.000 C 
ATOM     84  C60 UNL A   1      27.719  28.100  23.314  1.00  0.00    +0.000 C 
ATOM     85  C61 UNL A   1      27.950  29.537  22.843  1.00  0.00    +0.000 C 
ATOM     86  C62 UNL A   1      29.339  29.539  22.219  1.00  0.00    +0.000 C 
ATOM     87  C63 UNL A   1      30.120  28.569  23.093  1.00  0.00    +0.000 C 
ATOM    127  H36 UNL A   1      29.178  26.717  22.547  1.00  0.00    +0.000 H 
ATOM    128  H37 UNL A   1      27.291  28.093  24.296  1.00  0.00    +0.000 H 
BRANCH   87   88
ATOM    135  H44 UNL A   1      31.268  27.135  22.383  1.00  0.00    +0.000 H 
ATOM     88  O3  UNL A   1      31.285  28.104  22.427  1.00  0.00    +0.000 O 
ENDBRANCH   87   88
ENDBRANCH   82   83
ENDBRANCH   81   82
ENDBRANCH    2   78
ENDBRANCH    3    2
ENDBRANCH    5    3
ENDBRANCH    6    5
ENDBRANCH    7    6
ENDBRANCH    8    7
ENDBRANCH    9    8
ENDBRANCH   10    9
ENDBRANCH   11   10
ENDBRANCH   12   11
ENDBRANCH   13   12
ENDBRANCH   15   13
ENDBRANCH   19   18
BRANCH   23   24
ATOM     33  C24 UNL A   1      43.214  26.878  26.875  1.00  0.00    +0.000 C 
ATOM     34  F5  UNL A   1      43.705  28.124  26.944  1.00  0.00    +0.000 F 
ATOM     24  C19 UNL A   1      42.363  26.395  27.881  1.00  0.00    +0.000 C 
ATOM     25  C20 UNL A   1      41.875  25.085  27.753  1.00  0.00    +0.000 C 
ATOM     26  F1  UNL A   1      41.069  24.571  28.694  1.00  0.00    +0.000 F 
ATOM     27  C21 UNL A   1      42.251  24.281  26.681  1.00  0.00    +0.000 C 
ATOM     28  F2  UNL A   1      41.816  23.016  26.610  1.00  0.00    +0.000 F 
ATOM     29  C22 UNL A   1      43.090  24.780  25.697  1.00  0.00    +0.000 C 
ATOM     30  F3  UNL A   1      43.449  24.006  24.664  1.00  0.00    +0.000 F 
ATOM     31  C23 UNL A   1      43.564  26.080  25.788  1.00  0.00    +0.000 C 
ATOM     32  F4  UNL A   1      44.365  26.569  24.831  1.00  0.00    +0.000 F 
ENDBRANCH   23   24
BRANCH   40   41
ATOM     41  C30 UNL A   1      45.064  28.431  34.251  1.00  0.00    +0.000 C 
ATOM     42  C31 UNL A   1      45.242  27.334  35.104  1.00  0.00    +0.000 C 
ATOM     43  F6  UNL A   1      44.256  26.438  35.269  1.00  0.00    +0.000 F 
ATOM     44  C32 UNL A   1      46.421  27.173  35.826  1.00  0.00    +0.000 C 
ATOM     45  F7  UNL A   1      46.552  26.143  36.673  1.00  0.00    +0.000 F 
ATOM     46  C33 UNL A   1      47.456  28.086  35.683  1.00  0.00    +0.000 C 
ATOM     47  F8  UNL A   1      48.592  27.927  36.375  1.00  0.00    +0.000 F 
ATOM     48  C34 UNL A   1      47.309  29.168  34.829  1.00  0.00    +0.000 C 
ATOM     49  F9  UNL A   1      48.311  30.045  34.679  1.00  0.00    +0.000 F 
ATOM     50  C35 UNL A   1      46.120  29.347  34.128  1.00  0.00    +0.000 C 
ATOM     51  F10 UNL A   1      46.001  30.412  33.319  1.00  0.00    +0.000 F 
ENDBRANCH   40   41
BRANCH   55   56
ATOM     65  C44 UNL A   1      39.583  33.356  35.633  1.00  0.00    +0.000 C 
ATOM     66  F15 UNL A   1      40.360  33.925  34.700  1.00  0.00    +0.000 F 
ATOM     56  C39 UNL A   1      39.226  32.006  35.522  1.00  0.00    +0.000 C 
ATOM     57  C40 UNL A   1      38.415  31.458  36.525  1.00  0.00    +0.000 C 
ATOM     58  F11 UNL A   1      38.031  30.175  36.450  1.00  0.00    +0.000 F 
ATOM     59  C41 UNL A   1      37.962  32.237  37.589  1.00  0.00    +0.000 C 
ATOM     60  F12 UNL A   1      37.153  31.699  38.512  1.00  0.00    +0.000 F 
ATOM     61  C42 UNL A   1      38.334  33.568  37.684  1.00  0.00    +0.000 C 
ATOM     62  F13 UNL A   1      37.902  34.316  38.707  1.00  0.00    +0.000 F 
ATOM     63  C43 UNL A   1      39.150  34.127  36.711  1.00  0.00    +0.000 C 
ATOM     64  F14 UNL A   1      39.522  35.411  36.806  1.00  0.00    +0.000 F 
ENDBRANCH   55   56
TORSDOF 20
ENDMDL
MODEL 5
REMARK VINA RESULT:     -10.6      4.536     10.071
ROOT
ATOM     19  C15 UNL A   1      41.616  26.312  27.531  1.00  0.00    +0.000 C 
ATOM     20  C16 UNL A   1      43.006  26.646  27.068  1.00  0.00    +0.000 C 
ATOM     21  N3  UNL A   1      43.725  27.715  27.304  1.00  0.00    +0.000 N 
ATOM     22  C17 UNL A   1      44.949  27.491  26.688  1.00  0.00    +0.000 C 
ATOM     23  C18 UNL A   1      46.013  28.325  26.595  1.00  0.00    +0.000 C 
ATOM     35  C25 UNL A   1      46.047  29.657  27.136  1.00  0.00    +0.000 C 
ATOM     36  C26 UNL A   1      47.045  30.609  27.028  1.00  0.00    +0.000 C 
ATOM     37  C27 UNL A   1      46.652  31.741  27.751  1.00  0.00    +0.000 C 
ATOM     38  C28 UNL A   1      45.388  31.511  28.271  1.00  0.00    +0.000 C 
ATOM     39  N4  UNL A   1      45.030  30.228  27.888  1.00  0.00    +0.000 N 
ATOM     40  C29 UNL A   1      44.565  32.395  29.056  1.00  0.00    +0.000 C 
ATOM     52  C36 UNL A   1      43.331  32.094  29.530  1.00  0.00    +0.000 C 
ATOM     53  N5  UNL A   1      42.593  30.929  29.368  1.00  0.00    +0.000 N 
ATOM     54  C37 UNL A   1      41.471  31.120  30.016  1.00  0.00    +0.000 C 
ATOM     55  C38 UNL A   1      40.282  30.208  30.150  1.00  0.00    +0.000 C 
ATOM     67  C45 UNL A   1      40.305  29.005  29.545  1.00  0.00    +0.000 C 
ATOM     68  C46 UNL A   1      39.226  28.022  29.567  1.00  0.00    +0.000 C 
ATOM     69  C47 UNL A   1      39.601  26.943  28.862  1.00  0.00    +0.000 C 
ATOM     70  C48 UNL A   1      40.938  27.172  28.314  1.00  0.00    +0.000 C 
ATOM     71  N6  UNL A   1      41.284  28.413  28.785  1.00  0.00    +0.000 N 
ATOM     72  C49 UNL A   1      41.384  32.421  30.695  1.00  0.00    +0.000 C 
ATOM     73  C50 UNL A   1      42.523  32.991  30.331  1.00  0.00    +0.000 C 
ATOM     74  C51 UNL A   1      44.896  26.166  26.111  1.00  0.00    +0.000 C 
ATOM     75  C52 UNL A   1      43.694  25.630  26.254  1.00  0.00    +0.000 C 
ATOM    112  H21 UNL A   1      47.929  30.503  26.506  1.00  0.00    +0.000 H 
ATOM    113  H22 UNL A   1      47.209  32.601  27.877  1.00  0.00    +0.000 H 
ATOM    114  H23 UNL A   1      44.181  29.785  28.118  1.00  0.00    +0.000 H 
ATOM    115  H24 UNL A   1      38.319  28.139  30.047  1.00  0.00    +0.000 H 
ATOM    116  H25 UNL A   1      39.037  26.088  28.729  1.00  0.00    +0.000 H 
ATOM    117  H26 UNL A   1      42.152  28.840  28.597  1.00  0.00    +0.000 H 
ATOM    118  H27 UNL A   1      40.632  32.792  31.297  1.00  0.00    +0.000 H 
ATOM    119  H28 UNL A   1      42.800  33.952  30.585  1.00  0.00    +0.000 H 
ATOM    120  H29 UNL A   1      45.692  25.700  25.647  1.00  0.00    +0.000 H 
ATOM    121  H30 UNL A   1      43.333  24.735  25.890  1.00  0.00    +0.000 H 
ENDROOT
BRANCH   19   18
ATOM     76  C53 UNL A   1      39.939  24.965  26.262  1.00  0.00    +0.000 C 
ATOM     77  C54 UNL A   1      39.315  23.756  25.966  1.00  0.00    +0.000 C 
ATOM    110  H19 UNL A   1      41.233  21.714  27.815  1.00  0.00    +0.000 H 
ATOM     15  C11 UNL A   1      39.817  22.563  26.494  1.00  0.00    +0.000 C 
ATOM     16  C12 UNL A   1      40.879  22.592  27.404  1.00  0.00    +0.000 C 
ATOM     17  C13 UNL A   1      41.460  23.813  27.753  1.00  0.00    +0.000 C 
ATOM    111  H20 UNL A   1      42.227  23.836  28.444  1.00  0.00    +0.000 H 
ATOM     18  C14 UNL A   1      41.006  25.007  27.172  1.00  0.00    +0.000 C 
ATOM    122  H31 UNL A   1      39.615  25.834  25.810  1.00  0.00    +0.000 H 
ATOM    123  H32 UNL A   1      38.482  23.740  25.356  1.00  0.00    +0.000 H 
BRANCH   15   13
ATOM     13  C10 UNL A   1      39.220  21.257  26.142  1.00  0.00    +0.000 C 
ATOM     14  O2  UNL A   1      39.733  20.220  26.557  1.00  0.00    +0.000 O 
BRANCH   13   12
ATOM     12  N2  UNL A   1      38.105  21.200  25.347  1.00  0.00    +0.000 N 
ATOM    109  H18 UNL A   1      38.274  21.012  24.395  1.00  0.00    +0.000 H 
BRANCH   12   11
ATOM     11  C9  UNL A   1      36.710  21.379  25.710  1.00  0.00    +0.000 C 
ATOM    108  H17 UNL A   1      36.673  21.701  26.730  1.00  0.00    +0.000 H 
ATOM    107  H16 UNL A   1      36.197  20.449  25.576  1.00  0.00    +0.000 H 
BRANCH   11   10
ATOM    105  H14 UNL A   1      36.770  22.904  24.242  1.00  0.00    +0.000 H 
ATOM     10  C8  UNL A   1      36.027  22.443  24.858  1.00  0.00    +0.000 C 
ATOM    106  H15 UNL A   1      35.268  21.939  24.296  1.00  0.00    +0.000 H 
BRANCH   10    9
ATOM      9  C7  UNL A   1      35.318  23.541  25.653  1.00  0.00    +0.000 C 
ATOM    103  H12 UNL A   1      34.499  23.096  26.179  1.00  0.00    +0.000 H 
ATOM    104  H13 UNL A   1      36.057  23.967  26.299  1.00  0.00    +0.000 H 
BRANCH    9    8
ATOM    101  H10 UNL A   1      35.587  25.144  24.287  1.00  0.00    +0.000 H 
ATOM    102  H11 UNL A   1      34.028  24.273  24.169  1.00  0.00    +0.000 H 
ATOM      8  C6  UNL A   1      34.768  24.698  24.814  1.00  0.00    +0.000 C 
BRANCH    8    7
ATOM     99  H8  UNL A   1      33.142  25.404  25.992  1.00  0.00    +0.000 H 
ATOM    100  H9  UNL A   1      34.732  26.107  26.381  1.00  0.00    +0.000 H 
ATOM      7  C5  UNL A   1      34.058  25.802  25.608  1.00  0.00    +0.000 C 
BRANCH    7    6
ATOM     97  H6  UNL A   1      33.753  27.907  25.431  1.00  0.00    +0.000 H 
ATOM     98  H7  UNL A   1      34.463  27.151  24.012  1.00  0.00    +0.000 H 
ATOM      6  C4  UNL A   1      33.734  27.051  24.789  1.00  0.00    +0.000 C 
BRANCH    6    5
ATOM      5  N1  UNL A   1      32.425  26.944  24.182  1.00  0.00    +0.000 N 
ATOM     96  H5  UNL A   1      31.704  27.416  24.658  1.00  0.00    +0.000 H 
BRANCH    5    3
ATOM      3  C3  UNL A   1      32.036  26.289  23.048  1.00  0.00    +0.000 C 
ATOM      4  O1  UNL A   1      32.578  26.639  21.997  1.00  0.00    +0.000 O 
BRANCH    3    2
ATOM      2  C2  UNL A   1      30.920  25.236  23.123  1.00  0.00    +0.000 C 
ATOM     95  H4  UNL A   1      30.563  25.138  22.119  1.00  0.00    +0.000 H 
BRANCH    2    1
ATOM      1  C1  UNL A   1      29.725  25.664  23.978  1.00  0.00    +0.000 C 
ATOM     92  H1  UNL A   1      29.460  24.870  24.644  1.00  0.00    +0.000 H 
ATOM     93  H2  UNL A   1      28.893  25.888  23.342  1.00  0.00    +0.000 H 
ATOM     94  H3  UNL A   1      29.984  26.534  24.544  1.00  0.00    +0.000 H 
ENDBRANCH    2    1
BRANCH    2   78
ATOM    136  H45 UNL A   1      33.425  21.347  22.649  1.00  0.00    +0.000 H 
ATOM     78  C55 UNL A   1      31.444  23.889  23.591  1.00  0.00    +0.000 C 
ATOM     79  C56 UNL A   1      31.074  23.387  24.841  1.00  0.00    +0.000 C 
ATOM     80  C57 UNL A   1      31.570  22.154  25.287  1.00  0.00    +0.000 C 
ATOM     81  C58 UNL A   1      32.408  21.364  24.495  1.00  0.00    +0.000 C 
ATOM     89  C64 UNL A   1      32.782  21.886  23.251  1.00  0.00    +0.000 C 
ATOM     90  C65 UNL A   1      32.305  23.119  22.809  1.00  0.00    +0.000 C 
ATOM     91  F16 UNL A   1      32.714  23.566  21.613  1.00  0.00    +0.000 F 
ATOM    124  H33 UNL A   1      30.431  23.927  25.441  1.00  0.00    +0.000 H 
ATOM    125  H34 UNL A   1      31.309  21.821  26.228  1.00  0.00    +0.000 H 
BRANCH   81   82
ATOM     82  N7  UNL A   1      32.975  20.169  24.898  1.00  0.00    +0.000 N 
ATOM    126  H35 UNL A   1      32.907  19.966  25.860  1.00  0.00    +0.000 H 
BRANCH   82   83
ATOM    129  H38 UNL A   1      35.765  18.856  24.502  1.00  0.00    +0.000 H 
ATOM    130  H39 UNL A   1      34.257  16.428  25.234  1.00  0.00    +0.000 H 
ATOM    131  H40 UNL A   1      35.627  16.538  24.201  1.00  0.00    +0.000 H 
ATOM    132  H41 UNL A   1      33.250  16.009  23.140  1.00  0.00    +0.000 H 
ATOM    133  H42 UNL A   1      34.262  17.084  22.287  1.00  0.00    +0.000 H 
ATOM    134  H43 UNL A   1      31.969  17.786  24.176  1.00  0.00    +0.000 H 
ATOM     83  C59 UNL A   1      33.661  19.172  24.082  1.00  0.00    +0.000 C 
ATOM     84  C60 UNL A   1      34.815  18.460  24.794  1.00  0.00    +0.000 C 
ATOM     85  C61 UNL A   1      34.678  16.981  24.421  1.00  0.00    +0.000 C 
ATOM     86  C62 UNL A   1      33.748  16.953  23.216  1.00  0.00    +0.000 C 
ATOM     87  C63 UNL A   1      32.757  18.070  23.509  1.00  0.00    +0.000 C 
ATOM    127  H36 UNL A   1      34.034  19.783  23.287  1.00  0.00    +0.000 H 
ATOM    128  H37 UNL A   1      34.736  18.586  25.854  1.00  0.00    +0.000 H 
BRANCH   87   88
ATOM    135  H44 UNL A   1      32.696  18.420  21.572  1.00  0.00    +0.000 H 
ATOM     88  O3  UNL A   1      32.091  18.487  22.327  1.00  0.00    +0.000 O 
ENDBRANCH   87   88
ENDBRANCH   82   83
ENDBRANCH   81   82
ENDBRANCH    2   78
ENDBRANCH    3    2
ENDBRANCH    5    3
ENDBRANCH    6    5
ENDBRANCH    7    6
ENDBRANCH    8    7
ENDBRANCH    9    8
ENDBRANCH   10    9
ENDBRANCH   11   10
ENDBRANCH   12   11
ENDBRANCH   13   12
ENDBRANCH   15   13
ENDBRANCH   19   18
BRANCH   23   24
ATOM     33  C24 UNL A   1      48.332  27.336  26.603  1.00  0.00    +0.000 C 
ATOM     34  F5  UNL A   1      48.303  27.313  27.944  1.00  0.00    +0.000 F 
ATOM     24  C19 UNL A   1      47.231  27.816  25.879  1.00  0.00    +0.000 C 
ATOM     25  C20 UNL A   1      47.320  27.821  24.478  1.00  0.00    +0.000 C 
ATOM     26  F1  UNL A   1      46.289  28.258  23.738  1.00  0.00    +0.000 F 
ATOM     27  C21 UNL A   1      48.452  27.335  23.829  1.00  0.00    +0.000 C 
ATOM     28  F2  UNL A   1      48.491  27.300  22.491  1.00  0.00    +0.000 F 
ATOM     29  C22 UNL A   1      49.530  26.869  24.566  1.00  0.00    +0.000 C 
ATOM     30  F3  UNL A   1      50.619  26.404  23.941  1.00  0.00    +0.000 F 
ATOM     31  C23 UNL A   1      49.474  26.878  25.951  1.00  0.00    +0.000 C 
ATOM     32  F4  UNL A   1      50.521  26.440  26.665  1.00  0.00    +0.000 F 
ENDBRANCH   23   24
BRANCH   40   41
ATOM     41  C30 UNL A   1      45.099  33.765  29.355  1.00  0.00    +0.000 C 
ATOM     42  C31 UNL A   1      44.839  34.858  28.516  1.00  0.00    +0.000 C 
ATOM     43  F6  UNL A   1      44.132  34.690  27.388  1.00  0.00    +0.000 F 
ATOM     44  C32 UNL A   1      45.340  36.122  28.813  1.00  0.00    +0.000 C 
ATOM     45  F7  UNL A   1      45.120  37.142  27.972  1.00  0.00    +0.000 F 
ATOM     46  C33 UNL A   1      46.080  36.325  29.969  1.00  0.00    +0.000 C 
ATOM     47  F8  UNL A   1      46.558  37.544  30.254  1.00  0.00    +0.000 F 
ATOM     48  C34 UNL A   1      46.332  35.263  30.823  1.00  0.00    +0.000 C 
ATOM     49  F9  UNL A   1      47.037  35.458  31.946  1.00  0.00    +0.000 F 
ATOM     50  C35 UNL A   1      45.857  33.991  30.514  1.00  0.00    +0.000 C 
ATOM     51  F10 UNL A   1      46.129  32.980  31.353  1.00  0.00    +0.000 F 
ENDBRANCH   40   41
BRANCH   55   56
ATOM     65  C44 UNL A   1      37.994  31.258  30.254  1.00  0.00    +0.000 C 
ATOM     66  F15 UNL A   1      38.038  31.482  28.933  1.00  0.00    +0.000 F 
ATOM     56  C39 UNL A   1      39.073  30.639  30.898  1.00  0.00    +0.000 C 
ATOM     57  C40 UNL A   1      38.978  30.431  32.281  1.00  0.00    +0.000 C 
ATOM     58  F11 UNL A   1      39.978  29.823  32.937  1.00  0.00    +0.000 F 
ATOM     59  C41 UNL A   1      37.839  30.809  32.989  1.00  0.00    +0.000 C 
ATOM     60  F12 UNL A   1      37.757  30.561  34.303  1.00  0.00    +0.000 F 
ATOM     61  C42 UNL A   1      36.787  31.428  32.333  1.00  0.00    +0.000 C 
ATOM     62  F13 UNL A   1      35.693  31.795  33.013  1.00  0.00    +0.000 F 
ATOM     63  C43 UNL A   1      36.866  31.659  30.968  1.00  0.00    +0.000 C 
ATOM     64  F14 UNL A   1      35.855  32.268  30.332  1.00  0.00    +0.000 F 
ENDBRANCH   55   56
TORSDOF 20
ENDMDL
MODEL 6
REMARK VINA RESULT:     -10.6     22.934     28.238
ROOT
ATOM     19  C15 UNL A   1      21.963  36.018  47.415  1.00  0.00    +0.000 C 
ATOM     20  C16 UNL A   1      22.994  37.111  47.399  1.00  0.00    +0.000 C 
ATOM     21  N3  UNL A   1      22.903  38.344  47.833  1.00  0.00    +0.000 N 
ATOM     22  C17 UNL A   1      24.154  38.910  47.628  1.00  0.00    +0.000 C 
ATOM     23  C18 UNL A   1      24.553  40.184  47.857  1.00  0.00    +0.000 C 
ATOM     35  C25 UNL A   1      23.696  41.220  48.368  1.00  0.00    +0.000 C 
ATOM     36  C26 UNL A   1      23.981  42.560  48.563  1.00  0.00    +0.000 C 
ATOM     37  C27 UNL A   1      22.852  43.173  49.117  1.00  0.00    +0.000 C 
ATOM     38  C28 UNL A   1      21.848  42.224  49.224  1.00  0.00    +0.000 C 
ATOM     39  N4  UNL A   1      22.380  41.030  48.764  1.00  0.00    +0.000 N 
ATOM     40  C29 UNL A   1      20.501  42.392  49.708  1.00  0.00    +0.000 C 
ATOM     52  C36 UNL A   1      19.571  41.408  49.782  1.00  0.00    +0.000 C 
ATOM     53  N5  UNL A   1      19.681  40.074  49.413  1.00  0.00    +0.000 N 
ATOM     54  C37 UNL A   1      18.521  39.529  49.682  1.00  0.00    +0.000 C 
ATOM     55  C38 UNL A   1      18.057  38.117  49.453  1.00  0.00    +0.000 C 
ATOM     67  C45 UNL A   1      18.903  37.228  48.897  1.00  0.00    +0.000 C 
ATOM     68  C46 UNL A   1      18.594  35.834  48.597  1.00  0.00    +0.000 C 
ATOM     69  C47 UNL A   1      19.675  35.252  48.054  1.00  0.00    +0.000 C 
ATOM     70  C48 UNL A   1      20.745  36.244  47.941  1.00  0.00    +0.000 C 
ATOM     71  N6  UNL A   1      20.203  37.382  48.483  1.00  0.00    +0.000 N 
ATOM     72  C49 UNL A   1      17.550  40.452  50.286  1.00  0.00    +0.000 C 
ATOM     73  C50 UNL A   1      18.226  41.592  50.285  1.00  0.00    +0.000 C 
ATOM     74  C51 UNL A   1      25.001  37.875  47.076  1.00  0.00    +0.000 C 
ATOM     75  C52 UNL A   1      24.315  36.767  46.848  1.00  0.00    +0.000 C 
ATOM    112  H21 UNL A   1      24.874  43.028  48.339  1.00  0.00    +0.000 H 
ATOM    113  H22 UNL A   1      22.779  44.163  49.399  1.00  0.00    +0.000 H 
ATOM    114  H23 UNL A   1      21.897  40.173  48.726  1.00  0.00    +0.000 H 
ATOM    115  H24 UNL A   1      17.688  35.369  48.773  1.00  0.00    +0.000 H 
ATOM    116  H25 UNL A   1      19.741  34.264  47.763  1.00  0.00    +0.000 H 
ATOM    117  H26 UNL A   1      20.699  38.229  48.566  1.00  0.00    +0.000 H 
ATOM    118  H27 UNL A   1      16.593  40.262  50.624  1.00  0.00    +0.000 H 
ATOM    119  H28 UNL A   1      17.843  42.496  50.602  1.00  0.00    +0.000 H 
ATOM    120  H29 UNL A   1      26.010  37.988  46.886  1.00  0.00    +0.000 H 
ATOM    121  H30 UNL A   1      24.624  35.890  46.400  1.00  0.00    +0.000 H 
ENDROOT
BRANCH   19   18
ATOM     76  C53 UNL A   1      22.301  34.430  45.517  1.00  0.00    +0.000 C 
ATOM     77  C54 UNL A   1      22.554  33.153  45.023  1.00  0.00    +0.000 C 
ATOM    110  H19 UNL A   1      23.158  31.582  47.926  1.00  0.00    +0.000 H 
ATOM     15  C11 UNL A   1      22.914  32.124  45.898  1.00  0.00    +0.000 C 
ATOM     16  C12 UNL A   1      22.918  32.349  47.278  1.00  0.00    +0.000 C 
ATOM     17  C13 UNL A   1      22.596  33.612  47.777  1.00  0.00    +0.000 C 
ATOM    111  H20 UNL A   1      22.574  33.770  48.797  1.00  0.00    +0.000 H 
ATOM     18  C14 UNL A   1      22.303  34.668  46.900  1.00  0.00    +0.000 C 
ATOM    122  H31 UNL A   1      22.112  35.206  44.863  1.00  0.00    +0.000 H 
ATOM    123  H32 UNL A   1      22.476  32.966  44.011  1.00  0.00    +0.000 H 
BRANCH   15   13
ATOM     13  C10 UNL A   1      23.257  30.776  45.397  1.00  0.00    +0.000 C 
ATOM     14  O2  UNL A   1      24.425  30.395  45.422  1.00  0.00    +0.000 O 
BRANCH   13   12
ATOM     12  N2  UNL A   1      22.280  29.958  44.894  1.00  0.00    +0.000 N 
ATOM    109  H18 UNL A   1      22.543  29.410  44.119  1.00  0.00    +0.000 H 
BRANCH   12   11
ATOM     11  C9  UNL A   1      20.909  29.785  45.342  1.00  0.00    +0.000 C 
ATOM    108  H17 UNL A   1      20.913  29.756  46.412  1.00  0.00    +0.000 H 
ATOM    107  H16 UNL A   1      20.523  28.876  44.929  1.00  0.00    +0.000 H 
BRANCH   11   10
ATOM    105  H14 UNL A   1      19.805  31.542  45.768  1.00  0.00    +0.000 H 
ATOM     10  C8  UNL A   1      20.013  30.940  44.908  1.00  0.00    +0.000 C 
ATOM    106  H15 UNL A   1      20.547  31.467  44.145  1.00  0.00    +0.000 H 
BRANCH   10    9
ATOM      9  C7  UNL A   1      18.679  30.517  44.289  1.00  0.00    +0.000 C 
ATOM    103  H12 UNL A   1      18.785  30.536  43.224  1.00  0.00    +0.000 H 
ATOM    104  H13 UNL A   1      18.464  29.544  44.678  1.00  0.00    +0.000 H 
BRANCH    9    8
ATOM    101  H10 UNL A   1      17.344  31.339  45.721  1.00  0.00    +0.000 H 
ATOM    102  H11 UNL A   1      17.720  32.383  44.317  1.00  0.00    +0.000 H 
ATOM      8  C6  UNL A   1      17.483  31.398  44.661  1.00  0.00    +0.000 C 
BRANCH    8    7
ATOM     99  H8  UNL A   1      15.761  30.159  44.486  1.00  0.00    +0.000 H 
ATOM    100  H9  UNL A   1      15.517  31.872  44.063  1.00  0.00    +0.000 H 
ATOM      7  C5  UNL A   1      16.157  31.018  43.987  1.00  0.00    +0.000 C 
BRANCH    7    6
ATOM     97  H6  UNL A   1      15.706  31.398  41.936  1.00  0.00    +0.000 H 
ATOM     98  H7  UNL A   1      17.316  30.754  42.222  1.00  0.00    +0.000 H 
ATOM      6  C4  UNL A   1      16.284  30.695  42.498  1.00  0.00    +0.000 C 
BRANCH    6    5
ATOM      5  N1  UNL A   1      15.807  29.358  42.219  1.00  0.00    +0.000 N 
ATOM     96  H5  UNL A   1      15.129  29.298  41.508  1.00  0.00    +0.000 H 
BRANCH    5    3
ATOM      3  C3  UNL A   1      16.153  28.167  42.790  1.00  0.00    +0.000 C 
ATOM      4  O1  UNL A   1      17.351  27.879  42.779  1.00  0.00    +0.000 O 
BRANCH    3    2
ATOM      2  C2  UNL A   1      15.057  27.235  43.332  1.00  0.00    +0.000 C 
ATOM     95  H4  UNL A   1      14.153  27.806  43.272  1.00  0.00    +0.000 H 
BRANCH    2    1
ATOM      1  C1  UNL A   1      15.243  26.855  44.803  1.00  0.00    +0.000 C 
ATOM     92  H1  UNL A   1      16.256  26.547  44.966  1.00  0.00    +0.000 H 
ATOM     93  H2  UNL A   1      14.583  26.051  45.050  1.00  0.00    +0.000 H 
ATOM     94  H3  UNL A   1      15.024  27.700  45.421  1.00  0.00    +0.000 H 
ENDBRANCH    2    1
BRANCH    2   78
ATOM    136  H45 UNL A   1      14.297  24.981  39.337  1.00  0.00    +0.000 H 
ATOM     78  C55 UNL A   1      14.906  25.985  42.482  1.00  0.00    +0.000 C 
ATOM     79  C56 UNL A   1      15.053  24.721  43.059  1.00  0.00    +0.000 C 
ATOM     80  C57 UNL A   1      14.935  23.565  42.276  1.00  0.00    +0.000 C 
ATOM     81  C58 UNL A   1      14.625  23.622  40.914  1.00  0.00    +0.000 C 
ATOM     89  C64 UNL A   1      14.495  24.895  40.346  1.00  0.00    +0.000 C 
ATOM     90  C65 UNL A   1      14.628  26.049  41.116  1.00  0.00    +0.000 C 
ATOM     91  F16 UNL A   1      14.505  27.237  40.506  1.00  0.00    +0.000 F 
ATOM    124  H33 UNL A   1      15.250  24.638  44.068  1.00  0.00    +0.000 H 
ATOM    125  H34 UNL A   1      15.081  22.644  42.718  1.00  0.00    +0.000 H 
BRANCH   81   82
ATOM     82  N7  UNL A   1      14.551  22.524  40.077  1.00  0.00    +0.000 N 
ATOM    126  H35 UNL A   1      15.351  22.348  39.531  1.00  0.00    +0.000 H 
BRANCH   82   83
ATOM    129  H38 UNL A   1      12.944  21.055  37.859  1.00  0.00    +0.000 H 
ATOM    130  H39 UNL A   1      13.995  18.681  39.259  1.00  0.00    +0.000 H 
ATOM    131  H40 UNL A   1      12.512  18.818  38.400  1.00  0.00    +0.000 H 
ATOM    132  H41 UNL A   1      12.457  18.633  41.050  1.00  0.00    +0.000 H 
ATOM    133  H42 UNL A   1      11.371  19.728  40.323  1.00  0.00    +0.000 H 
ATOM    134  H43 UNL A   1      14.081  20.350  41.583  1.00  0.00    +0.000 H 
ATOM     83  C59 UNL A   1      13.440  21.595  39.899  1.00  0.00    +0.000 C 
ATOM     84  C60 UNL A   1      13.556  20.702  38.661  1.00  0.00    +0.000 C 
ATOM     85  C61 UNL A   1      13.135  19.303  39.121  1.00  0.00    +0.000 C 
ATOM     86  C62 UNL A   1      12.413  19.514  40.445  1.00  0.00    +0.000 C 
ATOM     87  C63 UNL A   1      13.182  20.658  41.089  1.00  0.00    +0.000 C 
ATOM    127  H36 UNL A   1      12.621  22.276  39.792  1.00  0.00    +0.000 H 
ATOM    128  H37 UNL A   1      14.564  20.688  38.302  1.00  0.00    +0.000 H 
BRANCH   87   88
ATOM    135  H44 UNL A   1      11.638  21.711  41.708  1.00  0.00    +0.000 H 
ATOM     88  O3  UNL A   1      12.413  21.284  42.105  1.00  0.00    +0.000 O 
ENDBRANCH   87   88
ENDBRANCH   82   83
ENDBRANCH   81   82
ENDBRANCH    2   78
ENDBRANCH    3    2
ENDBRANCH    5    3
ENDBRANCH    6    5
ENDBRANCH    7    6
ENDBRANCH    8    7
ENDBRANCH    9    8
ENDBRANCH   10    9
ENDBRANCH   11   10
ENDBRANCH   12   11
ENDBRANCH   13   12
ENDBRANCH   15   13
ENDBRANCH   19   18
BRANCH   23   24
ATOM     33  C24 UNL A   1      26.401  40.741  46.234  1.00  0.00    +0.000 C 
ATOM     34  F5  UNL A   1      25.521  40.657  45.225  1.00  0.00    +0.000 F 
ATOM     24  C19 UNL A   1      25.984  40.527  47.557  1.00  0.00    +0.000 C 
ATOM     25  C20 UNL A   1      26.949  40.622  48.572  1.00  0.00    +0.000 C 
ATOM     26  F1  UNL A   1      26.600  40.439  49.854  1.00  0.00    +0.000 F 
ATOM     27  C21 UNL A   1      28.269  40.952  48.277  1.00  0.00    +0.000 C 
ATOM     28  F2  UNL A   1      29.159  41.091  49.269  1.00  0.00    +0.000 F 
ATOM     29  C22 UNL A   1      28.659  41.156  46.962  1.00  0.00    +0.000 C 
ATOM     30  F3  UNL A   1      29.930  41.471  46.681  1.00  0.00    +0.000 F 
ATOM     31  C23 UNL A   1      27.728  41.042  45.941  1.00  0.00    +0.000 C 
ATOM     32  F4  UNL A   1      28.107  41.226  44.668  1.00  0.00    +0.000 F 
ENDBRANCH   23   24
BRANCH   40   41
ATOM     41  C30 UNL A   1      20.081  43.766  50.142  1.00  0.00    +0.000 C 
ATOM     42  C31 UNL A   1      20.240  44.202  51.465  1.00  0.00    +0.000 C 
ATOM     43  F6  UNL A   1      20.739  43.373  52.394  1.00  0.00    +0.000 F 
ATOM     44  C32 UNL A   1      19.847  45.481  51.848  1.00  0.00    +0.000 C 
ATOM     45  F7  UNL A   1      19.963  45.861  53.128  1.00  0.00    +0.000 F 
ATOM     46  C33 UNL A   1      19.321  46.359  50.911  1.00  0.00    +0.000 C 
ATOM     47  F8  UNL A   1      18.948  47.591  51.280  1.00  0.00    +0.000 F 
ATOM     48  C34 UNL A   1      19.174  45.955  49.592  1.00  0.00    +0.000 C 
ATOM     49  F9  UNL A   1      18.677  46.804  48.683  1.00  0.00    +0.000 F 
ATOM     50  C35 UNL A   1      19.539  44.667  49.212  1.00  0.00    +0.000 C 
ATOM     51  F10 UNL A   1      19.371  44.300  47.933  1.00  0.00    +0.000 F 
ENDBRANCH   40   41
BRANCH   55   56
ATOM     65  C44 UNL A   1      15.710  37.481  48.790  1.00  0.00    +0.000 C 
ATOM     66  F15 UNL A   1      16.034  37.637  47.499  1.00  0.00    +0.000 F 
ATOM     56  C39 UNL A   1      16.668  37.708  49.787  1.00  0.00    +0.000 C 
ATOM     57  C40 UNL A   1      16.277  37.534  51.122  1.00  0.00    +0.000 C 
ATOM     58  F11 UNL A   1      17.166  37.721  52.110  1.00  0.00    +0.000 F 
ATOM     59  C41 UNL A   1      14.984  37.129  51.446  1.00  0.00    +0.000 C 
ATOM     60  F12 UNL A   1      14.649  36.929  52.729  1.00  0.00    +0.000 F 
ATOM     61  C42 UNL A   1      14.050  36.918  50.445  1.00  0.00    +0.000 C 
ATOM     62  F13 UNL A   1      12.806  36.531  50.755  1.00  0.00    +0.000 F 
ATOM     63  C43 UNL A   1      14.410  37.100  49.117  1.00  0.00    +0.000 C 
ATOM     64  F14 UNL A   1      13.506  36.909  48.147  1.00  0.00    +0.000 F 
ENDBRANCH   55   56
TORSDOF 20
ENDMDL
MODEL 7
REMARK VINA RESULT:     -10.6     20.520     26.103
ROOT
ATOM     19  C15 UNL A   1      52.639  20.438  11.499  1.00  0.00    +0.000 C 
ATOM     20  C16 UNL A   1      53.940  19.741  11.214  1.00  0.00    +0.000 C 
ATOM     21  N3  UNL A   1      54.973  19.559  11.998  1.00  0.00    +0.000 N 
ATOM     22  C17 UNL A   1      55.881  18.811  11.260  1.00  0.00    +0.000 C 
ATOM     23  C18 UNL A   1      57.129  18.414  11.607  1.00  0.00    +0.000 C 
ATOM     35  C25 UNL A   1      57.758  18.730  12.861  1.00  0.00    +0.000 C 
ATOM     36  C26 UNL A   1      59.046  18.442  13.279  1.00  0.00    +0.000 C 
ATOM     37  C27 UNL A   1      59.197  18.909  14.589  1.00  0.00    +0.000 C 
ATOM     38  C28 UNL A   1      58.018  19.530  14.971  1.00  0.00    +0.000 C 
ATOM     39  N4  UNL A   1      57.143  19.409  13.903  1.00  0.00    +0.000 N 
ATOM     40  C29 UNL A   1      57.711  20.185  16.216  1.00  0.00    +0.000 C 
ATOM     52  C36 UNL A   1      56.525  20.773  16.515  1.00  0.00    +0.000 C 
ATOM     53  N5  UNL A   1      55.387  20.893  15.729  1.00  0.00    +0.000 N 
ATOM     54  C37 UNL A   1      54.509  21.532  16.462  1.00  0.00    +0.000 C 
ATOM     55  C38 UNL A   1      53.115  21.971  16.109  1.00  0.00    +0.000 C 
ATOM     67  C45 UNL A   1      52.631  21.700  14.881  1.00  0.00    +0.000 C 
ATOM     68  C46 UNL A   1      51.310  22.075  14.386  1.00  0.00    +0.000 C 
ATOM     69  C47 UNL A   1      51.173  21.637  13.125  1.00  0.00    +0.000 C 
ATOM     70  C48 UNL A   1      52.410  20.974  12.713  1.00  0.00    +0.000 C 
ATOM     71  N6  UNL A   1      53.212  21.043  13.825  1.00  0.00    +0.000 N 
ATOM     72  C49 UNL A   1      54.982  21.862  17.814  1.00  0.00    +0.000 C 
ATOM     73  C50 UNL A   1      56.229  21.415  17.779  1.00  0.00    +0.000 C 
ATOM     74  C51 UNL A   1      55.259  18.531   9.984  1.00  0.00    +0.000 C 
ATOM     75  C52 UNL A   1      54.090  19.144   9.877  1.00  0.00    +0.000 C 
ATOM    112  H21 UNL A   1      59.771  17.963  12.721  1.00  0.00    +0.000 H 
ATOM    113  H22 UNL A   1      60.042  18.809  15.173  1.00  0.00    +0.000 H 
ATOM    114  H23 UNL A   1      56.221  19.754  13.886  1.00  0.00    +0.000 H 
ATOM    115  H24 UNL A   1      50.595  22.595  14.921  1.00  0.00    +0.000 H 
ATOM    116  H25 UNL A   1      50.330  21.749  12.540  1.00  0.00    +0.000 H 
ATOM    117  H26 UNL A   1      54.118  20.658  13.861  1.00  0.00    +0.000 H 
ATOM    118  H27 UNL A   1      54.475  22.320  18.587  1.00  0.00    +0.000 H 
ATOM    119  H28 UNL A   1      56.904  21.514  18.553  1.00  0.00    +0.000 H 
ATOM    120  H29 UNL A   1      55.674  17.932   9.253  1.00  0.00    +0.000 H 
ATOM    121  H30 UNL A   1      53.452  19.190   9.069  1.00  0.00    +0.000 H 
ENDROOT
BRANCH   19   18
ATOM     76  C53 UNL A   1      50.740  19.382  10.268  1.00  0.00    +0.000 C 
ATOM     77  C54 UNL A   1      49.786  19.392   9.254  1.00  0.00    +0.000 C 
ATOM    110  H19 UNL A   1      50.293  22.499   8.092  1.00  0.00    +0.000 H 
ATOM     15  C11 UNL A   1      49.589  20.547   8.491  1.00  0.00    +0.000 C 
ATOM     16  C12 UNL A   1      50.421  21.656   8.673  1.00  0.00    +0.000 C 
ATOM     17  C13 UNL A   1      51.423  21.620   9.644  1.00  0.00    +0.000 C 
ATOM    111  H20 UNL A   1      52.053  22.429   9.760  1.00  0.00    +0.000 H 
ATOM     18  C14 UNL A   1      51.580  20.490  10.461  1.00  0.00    +0.000 C 
ATOM    122  H31 UNL A   1      50.831  18.556  10.881  1.00  0.00    +0.000 H 
ATOM    123  H32 UNL A   1      49.223  18.547   9.066  1.00  0.00    +0.000 H 
BRANCH   15   13
ATOM     13  C10 UNL A   1      48.535  20.611   7.455  1.00  0.00    +0.000 C 
ATOM     14  O2  UNL A   1      48.147  21.703   7.048  1.00  0.00    +0.000 O 
BRANCH   13   12
ATOM     12  N2  UNL A   1      47.984  19.458   6.960  1.00  0.00    +0.000 N 
ATOM    109  H18 UNL A   1      47.114  19.205   7.346  1.00  0.00    +0.000 H 
BRANCH   12   11
ATOM     11  C9  UNL A   1      48.502  18.557   5.946  1.00  0.00    +0.000 C 
ATOM    108  H17 UNL A   1      48.212  17.561   6.210  1.00  0.00    +0.000 H 
ATOM    107  H16 UNL A   1      49.567  18.655   5.909  1.00  0.00    +0.000 H 
BRANCH   11   10
ATOM    105  H14 UNL A   1      48.569  19.579   4.092  1.00  0.00    +0.000 H 
ATOM     10  C8  UNL A   1      47.933  18.859   4.564  1.00  0.00    +0.000 C 
ATOM    106  H15 UNL A   1      47.896  17.925   4.041  1.00  0.00    +0.000 H 
BRANCH   10    9
ATOM      9  C7  UNL A   1      46.507  19.411   4.566  1.00  0.00    +0.000 C 
ATOM    103  H12 UNL A   1      46.292  19.775   5.549  1.00  0.00    +0.000 H 
ATOM    104  H13 UNL A   1      46.480  20.172   3.814  1.00  0.00    +0.000 H 
BRANCH    9    8
ATOM    101  H10 UNL A   1      45.867  17.428   4.159  1.00  0.00    +0.000 H 
ATOM    102  H11 UNL A   1      44.654  18.496   4.929  1.00  0.00    +0.000 H 
ATOM      8  C6  UNL A   1      45.419  18.400   4.188  1.00  0.00    +0.000 C 
BRANCH    8    7
ATOM     99  H8  UNL A   1      45.070  17.900   2.148  1.00  0.00    +0.000 H 
ATOM    100  H9  UNL A   1      43.683  18.612   3.011  1.00  0.00    +0.000 H 
ATOM      7  C5  UNL A   1      44.738  18.650   2.836  1.00  0.00    +0.000 C 
BRANCH    7    6
ATOM     97  H6  UNL A   1      45.470  20.649   2.981  1.00  0.00    +0.000 H 
ATOM     98  H7  UNL A   1      45.711  19.897   1.411  1.00  0.00    +0.000 H 
ATOM      6  C4  UNL A   1      45.035  20.022   2.231  1.00  0.00    +0.000 C 
BRANCH    6    5
ATOM      5  N1  UNL A   1      43.823  20.642   1.740  1.00  0.00    +0.000 N 
ATOM     96  H5  UNL A   1      43.800  21.624   1.809  1.00  0.00    +0.000 H 
BRANCH    5    3
ATOM      3  C3  UNL A   1      42.708  20.074   1.194  1.00  0.00    +0.000 C 
ATOM      4  O1  UNL A   1      42.816  19.643   0.045  1.00  0.00    +0.000 O 
BRANCH    3    2
ATOM      2  C2  UNL A   1      41.390  20.071   1.986  1.00  0.00    +0.000 C 
ATOM     95  H4  UNL A   1      41.584  20.670   2.850  1.00  0.00    +0.000 H 
BRANCH    2    1
ATOM      1  C1  UNL A   1      40.980  18.685   2.492  1.00  0.00    +0.000 C 
ATOM     92  H1  UNL A   1      41.291  18.571   3.510  1.00  0.00    +0.000 H 
ATOM     93  H2  UNL A   1      41.446  17.933   1.891  1.00  0.00    +0.000 H 
ATOM     94  H3  UNL A   1      39.917  18.583   2.430  1.00  0.00    +0.000 H 
ENDBRANCH    2    1
BRANCH    2   78
ATOM    136  H45 UNL A   1      36.998  21.483   1.417  1.00  0.00    +0.000 H 
ATOM     78  C55 UNL A   1      40.254  20.699   1.197  1.00  0.00    +0.000 C 
ATOM     79  C56 UNL A   1      40.479  21.185  -0.094  1.00  0.00    +0.000 C 
ATOM     80  C57 UNL A   1      39.440  21.783  -0.818  1.00  0.00    +0.000 C 
ATOM     81  C58 UNL A   1      38.142  21.879  -0.308  1.00  0.00    +0.000 C 
ATOM     89  C64 UNL A   1      37.935  21.403   0.991  1.00  0.00    +0.000 C 
ATOM     90  C65 UNL A   1      38.968  20.821   1.724  1.00  0.00    +0.000 C 
ATOM     91  F16 UNL A   1      38.704  20.397   2.968  1.00  0.00    +0.000 F 
ATOM    124  H33 UNL A   1      41.416  21.102  -0.517  1.00  0.00    +0.000 H 
ATOM    125  H34 UNL A   1      39.639  22.164  -1.757  1.00  0.00    +0.000 H 
BRANCH   81   82
ATOM     82  N7  UNL A   1      37.089  22.508  -0.948  1.00  0.00    +0.000 N 
ATOM    126  H35 UNL A   1      36.923  23.441  -0.683  1.00  0.00    +0.000 H 
BRANCH   82   83
ATOM    129  H38 UNL A   1      34.274  21.230  -1.274  1.00  0.00    +0.000 H 
ATOM    130  H39 UNL A   1      33.850  23.619  -2.954  1.00  0.00    +0.000 H 
ATOM    131  H40 UNL A   1      33.120  22.072  -3.130  1.00  0.00    +0.000 H 
ATOM    132  H41 UNL A   1      34.931  22.856  -4.910  1.00  0.00    +0.000 H 
ATOM    133  H42 UNL A   1      34.989  21.229  -4.405  1.00  0.00    +0.000 H 
ATOM    134  H43 UNL A   1      36.680  23.557  -3.386  1.00  0.00    +0.000 H 
ATOM     83  C59 UNL A   1      36.194  21.964  -1.965  1.00  0.00    +0.000 C 
ATOM     84  C60 UNL A   1      34.705  22.134  -1.651  1.00  0.00    +0.000 C 
ATOM     85  C61 UNL A   1      34.054  22.568  -2.966  1.00  0.00    +0.000 C 
ATOM     86  C62 UNL A   1      35.070  22.235  -4.050  1.00  0.00    +0.000 C 
ATOM     87  C63 UNL A   1      36.407  22.522  -3.381  1.00  0.00    +0.000 C 
ATOM    127  H36 UNL A   1      36.465  20.929  -1.940  1.00  0.00    +0.000 H 
ATOM    128  H37 UNL A   1      34.565  22.884  -0.900  1.00  0.00    +0.000 H 
BRANCH   87   88
ATOM    135  H44 UNL A   1      37.566  20.967  -3.716  1.00  0.00    +0.000 H 
ATOM     88  O3  UNL A   1      37.470  21.869  -4.058  1.00  0.00    +0.000 O 
ENDBRANCH   87   88
ENDBRANCH   82   83
ENDBRANCH   81   82
ENDBRANCH    2   78
ENDBRANCH    3    2
ENDBRANCH    5    3
ENDBRANCH    6    5
ENDBRANCH    7    6
ENDBRANCH    8    7
ENDBRANCH    9    8
ENDBRANCH   10    9
ENDBRANCH   11   10
ENDBRANCH   12   11
ENDBRANCH   13   12
ENDBRANCH   15   13
ENDBRANCH   19   18
BRANCH   23   24
ATOM     33  C24 UNL A   1      57.880  16.191  10.686  1.00  0.00    +0.000 C 
ATOM     34  F5  UNL A   1      57.167  15.571  11.638  1.00  0.00    +0.000 F 
ATOM     24  C19 UNL A   1      57.895  17.592  10.612  1.00  0.00    +0.000 C 
ATOM     25  C20 UNL A   1      58.663  18.186   9.598  1.00  0.00    +0.000 C 
ATOM     26  F1  UNL A   1      58.701  19.522   9.475  1.00  0.00    +0.000 F 
ATOM     27  C21 UNL A   1      59.359  17.408   8.676  1.00  0.00    +0.000 C 
ATOM     28  F2  UNL A   1      60.040  17.998   7.685  1.00  0.00    +0.000 F 
ATOM     29  C22 UNL A   1      59.333  16.025   8.771  1.00  0.00    +0.000 C 
ATOM     30  F3  UNL A   1      60.004  15.279   7.885  1.00  0.00    +0.000 F 
ATOM     31  C23 UNL A   1      58.601  15.417   9.780  1.00  0.00    +0.000 C 
ATOM     32  F4  UNL A   1      58.585  14.080   9.881  1.00  0.00    +0.000 F 
ENDBRANCH   23   24
BRANCH   40   41
ATOM     41  C30 UNL A   1      58.789  20.249  17.258  1.00  0.00    +0.000 C 
ATOM     42  C31 UNL A   1      59.091  19.150  18.074  1.00  0.00    +0.000 C 
ATOM     43  F6  UNL A   1      58.382  18.015  17.970  1.00  0.00    +0.000 F 
ATOM     44  C32 UNL A   1      60.098  19.227  19.032  1.00  0.00    +0.000 C 
ATOM     45  F7  UNL A   1      60.337  18.181  19.836  1.00  0.00    +0.000 F 
ATOM     46  C33 UNL A   1      60.843  20.389  19.169  1.00  0.00    +0.000 C 
ATOM     47  F8  UNL A   1      61.814  20.459  20.089  1.00  0.00    +0.000 F 
ATOM     48  C34 UNL A   1      60.575  21.481  18.358  1.00  0.00    +0.000 C 
ATOM     49  F9  UNL A   1      61.301  22.600  18.479  1.00  0.00    +0.000 F 
ATOM     50  C35 UNL A   1      59.550  21.417  17.418  1.00  0.00    +0.000 C 
ATOM     51  F10 UNL A   1      59.304  22.494  16.657  1.00  0.00    +0.000 F 
ENDBRANCH   40   41
BRANCH   55   56
ATOM     65  C44 UNL A   1      52.240  24.137  17.053  1.00  0.00    +0.000 C 
ATOM     66  F15 UNL A   1      52.953  24.819  16.146  1.00  0.00    +0.000 F 
ATOM     56  C39 UNL A   1      52.289  22.737  17.078  1.00  0.00    +0.000 C 
ATOM     57  C40 UNL A   1      51.528  22.072  18.049  1.00  0.00    +0.000 C 
ATOM     58  F11 UNL A   1      51.528  20.731  18.098  1.00  0.00    +0.000 F 
ATOM     59  C41 UNL A   1      50.733  22.779  18.948  1.00  0.00    +0.000 C 
ATOM     60  F12 UNL A   1      49.982  22.117  19.839  1.00  0.00    +0.000 F 
ATOM     61  C42 UNL A   1      50.705  24.165  18.912  1.00  0.00    +0.000 C 
ATOM     62  F13 UNL A   1      49.943  24.845  19.777  1.00  0.00    +0.000 F 
ATOM     63  C43 UNL A   1      51.463  24.844  17.970  1.00  0.00    +0.000 C 
ATOM     64  F14 UNL A   1      51.449  26.184  17.940  1.00  0.00    +0.000 F 
ENDBRANCH   55   56
TORSDOF 20
ENDMDL
MODEL 8
REMARK VINA RESULT:     -10.6     17.911     22.654
ROOT
ATOM     19  C15 UNL A   1      25.771  36.047  45.377  1.00  0.00    +0.000 C 
ATOM     20  C16 UNL A   1      25.651  37.192  46.343  1.00  0.00    +0.000 C 
ATOM     21  N3  UNL A   1      26.546  38.086  46.686  1.00  0.00    +0.000 N 
ATOM     22  C17 UNL A   1      25.903  38.945  47.568  1.00  0.00    +0.000 C 
ATOM     23  C18 UNL A   1      26.418  39.998  48.247  1.00  0.00    +0.000 C 
ATOM     35  C25 UNL A   1      27.792  40.416  48.171  1.00  0.00    +0.000 C 
ATOM     36  C26 UNL A   1      28.430  41.421  48.877  1.00  0.00    +0.000 C 
ATOM     37  C27 UNL A   1      29.758  41.488  48.440  1.00  0.00    +0.000 C 
ATOM     38  C28 UNL A   1      29.959  40.494  47.495  1.00  0.00    +0.000 C 
ATOM     39  N4  UNL A   1      28.744  39.847  47.338  1.00  0.00    +0.000 N 
ATOM     40  C29 UNL A   1      31.168  40.158  46.789  1.00  0.00    +0.000 C 
ATOM     52  C36 UNL A   1      31.285  39.165  45.873  1.00  0.00    +0.000 C 
ATOM     53  N5  UNL A   1      30.322  38.268  45.431  1.00  0.00    +0.000 N 
ATOM     54  C37 UNL A   1      30.916  37.511  44.542  1.00  0.00    +0.000 C 
ATOM     55  C38 UNL A   1      30.367  36.347  43.763  1.00  0.00    +0.000 C 
ATOM     67  C45 UNL A   1      29.087  35.975  43.953  1.00  0.00    +0.000 C 
ATOM     68  C46 UNL A   1      28.419  34.860  43.288  1.00  0.00    +0.000 C 
ATOM     69  C47 UNL A   1      27.149  34.790  43.719  1.00  0.00    +0.000 C 
ATOM     70  C48 UNL A   1      26.923  35.839  44.713  1.00  0.00    +0.000 C 
ATOM     71  N6  UNL A   1      28.122  36.504  44.774  1.00  0.00    +0.000 N 
ATOM     72  C49 UNL A   1      32.321  37.865  44.295  1.00  0.00    +0.000 C 
ATOM     73  C50 UNL A   1      32.506  38.850  45.162  1.00  0.00    +0.000 C 
ATOM     74  C51 UNL A   1      24.532  38.496  47.672  1.00  0.00    +0.000 C 
ATOM     75  C52 UNL A   1      24.343  37.376  46.993  1.00  0.00    +0.000 C 
ATOM    112  H21 UNL A   1      28.001  42.019  49.601  1.00  0.00    +0.000 H 
ATOM    113  H22 UNL A   1      30.468  42.164  48.766  1.00  0.00    +0.000 H 
ATOM    114  H23 UNL A   1      28.580  39.095  46.724  1.00  0.00    +0.000 H 
ATOM    115  H24 UNL A   1      28.853  34.227  42.598  1.00  0.00    +0.000 H 
ATOM    116  H25 UNL A   1      26.445  34.106  43.399  1.00  0.00    +0.000 H 
ATOM    117  H26 UNL A   1      28.276  37.287  45.353  1.00  0.00    +0.000 H 
ATOM    118  H27 UNL A   1      32.988  37.455  43.622  1.00  0.00    +0.000 H 
ATOM    119  H28 UNL A   1      33.407  39.331  45.311  1.00  0.00    +0.000 H 
ATOM    120  H29 UNL A   1      23.797  38.987  48.206  1.00  0.00    +0.000 H 
ATOM    121  H30 UNL A   1      23.500  36.785  46.934  1.00  0.00    +0.000 H 
ENDROOT
BRANCH   19   18
ATOM     76  C53 UNL A   1      23.539  35.654  44.328  1.00  0.00    +0.000 C 
ATOM     77  C54 UNL A   1      22.406  34.870  44.124  1.00  0.00    +0.000 C 
ATOM    110  H19 UNL A   1      23.375  32.115  45.776  1.00  0.00    +0.000 H 
ATOM     15  C11 UNL A   1      22.366  33.560  44.611  1.00  0.00    +0.000 C 
ATOM     16  C12 UNL A   1      23.417  33.072  45.394  1.00  0.00    +0.000 C 
ATOM     17  C13 UNL A   1      24.522  33.883  45.656  1.00  0.00    +0.000 C 
ATOM    111  H20 UNL A   1      25.286  33.532  46.254  1.00  0.00    +0.000 H 
ATOM     18  C14 UNL A   1      24.600  35.174  45.110  1.00  0.00    +0.000 C 
ATOM    122  H31 UNL A   1      23.598  36.592  43.901  1.00  0.00    +0.000 H 
ATOM    123  H32 UNL A   1      21.596  35.256  43.613  1.00  0.00    +0.000 H 
BRANCH   15   13
ATOM     13  C10 UNL A   1      21.206  32.680  44.350  1.00  0.00    +0.000 C 
ATOM     14  O2  UNL A   1      21.314  31.467  44.511  1.00  0.00    +0.000 O 
BRANCH   13   12
ATOM     12  N2  UNL A   1      20.020  33.213  43.918  1.00  0.00    +0.000 N 
ATOM    109  H18 UNL A   1      20.020  33.551  42.992  1.00  0.00    +0.000 H 
BRANCH   12   11
ATOM     11  C9  UNL A   1      18.762  33.350  44.632  1.00  0.00    +0.000 C 
ATOM    108  H17 UNL A   1      18.296  34.257  44.307  1.00  0.00    +0.000 H 
ATOM    107  H16 UNL A   1      18.963  33.369  45.682  1.00  0.00    +0.000 H 
BRANCH   11   10
ATOM    105  H14 UNL A   1      18.088  31.764  43.401  1.00  0.00    +0.000 H 
ATOM     10  C8  UNL A   1      17.806  32.200  44.336  1.00  0.00    +0.000 C 
ATOM    106  H15 UNL A   1      17.888  31.520  45.158  1.00  0.00    +0.000 H 
BRANCH   10    9
ATOM      9  C7  UNL A   1      16.332  32.599  44.251  1.00  0.00    +0.000 C 
ATOM    103  H12 UNL A   1      15.929  32.601  45.242  1.00  0.00    +0.000 H 
ATOM    104  H13 UNL A   1      16.310  33.560  43.780  1.00  0.00    +0.000 H 
BRANCH    9    8
ATOM    101  H10 UNL A   1      14.448  31.774  43.723  1.00  0.00    +0.000 H 
ATOM    102  H11 UNL A   1      15.604  32.001  42.375  1.00  0.00    +0.000 H 
ATOM      8  C6  UNL A   1      15.460  31.682  43.387  1.00  0.00    +0.000 C 
BRANCH    8    7
ATOM     99  H8  UNL A   1      16.797  30.105  43.893  1.00  0.00    +0.000 H 
ATOM    100  H9  UNL A   1      15.064  29.694  43.964  1.00  0.00    +0.000 H 
ATOM      7  C5  UNL A   1      15.839  30.196  43.424  1.00  0.00    +0.000 C 
BRANCH    7    6
ATOM     97  H6  UNL A   1      15.033  29.783  41.492  1.00  0.00    +0.000 H 
ATOM     98  H7  UNL A   1      16.785  29.896  41.541  1.00  0.00    +0.000 H 
ATOM      6  C4  UNL A   1      15.914  29.537  42.046  1.00  0.00    +0.000 C 
BRANCH    6    5
ATOM      5  N1  UNL A   1      16.010  28.099  42.168  1.00  0.00    +0.000 N 
ATOM     96  H5  UNL A   1      16.903  27.759  42.407  1.00  0.00    +0.000 H 
BRANCH    5    3
ATOM      3  C3  UNL A   1      15.052  27.139  42.003  1.00  0.00    +0.000 C 
ATOM      4  O1  UNL A   1      14.683  26.923  40.847  1.00  0.00    +0.000 O 
BRANCH    3    2
ATOM      2  C2  UNL A   1      14.443  26.452  43.236  1.00  0.00    +0.000 C 
ATOM     95  H4  UNL A   1      13.597  27.053  43.499  1.00  0.00    +0.000 H 
BRANCH    2    1
ATOM      1  C1  UNL A   1      15.371  26.438  44.454  1.00  0.00    +0.000 C 
ATOM     92  H1  UNL A   1      16.351  26.132  44.152  1.00  0.00    +0.000 H 
ATOM     93  H2  UNL A   1      14.993  25.751  45.182  1.00  0.00    +0.000 H 
ATOM     94  H3  UNL A   1      15.417  27.418  44.879  1.00  0.00    +0.000 H 
ENDBRANCH    2    1
BRANCH    2   78
ATOM    136  H45 UNL A   1      11.178  23.238  42.448  1.00  0.00    +0.000 H 
ATOM     78  C55 UNL A   1      13.968  25.044  42.922  1.00  0.00    +0.000 C 
ATOM     79  C56 UNL A   1      14.894  24.018  42.718  1.00  0.00    +0.000 C 
ATOM     80  C57 UNL A   1      14.461  22.722  42.409  1.00  0.00    +0.000 C 
ATOM     81  C58 UNL A   1      13.105  22.393  42.334  1.00  0.00    +0.000 C 
ATOM     89  C64 UNL A   1      12.189  23.433  42.525  1.00  0.00    +0.000 C 
ATOM     90  C65 UNL A   1      12.613  24.728  42.817  1.00  0.00    +0.000 C 
ATOM     91  F16 UNL A   1      11.682  25.681  42.976  1.00  0.00    +0.000 F 
ATOM    124  H33 UNL A   1      15.904  24.216  42.797  1.00  0.00    +0.000 H 
ATOM    125  H34 UNL A   1      15.166  21.989  42.230  1.00  0.00    +0.000 H 
BRANCH   81   82
ATOM     82  N7  UNL A   1      12.616  21.149  41.978  1.00  0.00    +0.000 N 
ATOM    126  H35 UNL A   1      11.824  20.842  42.476  1.00  0.00    +0.000 H 
BRANCH   82   83
ATOM    129  H38 UNL A   1      13.289  18.149  41.524  1.00  0.00    +0.000 H 
ATOM    130  H39 UNL A   1      11.200  18.428  39.459  1.00  0.00    +0.000 H 
ATOM    131  H40 UNL A   1      12.557  17.374  39.438  1.00  0.00    +0.000 H 
ATOM    132  H41 UNL A   1      12.511  19.452  37.784  1.00  0.00    +0.000 H 
ATOM    133  H42 UNL A   1      13.997  19.089  38.537  1.00  0.00    +0.000 H 
ATOM    134  H43 UNL A   1      11.949  21.190  39.376  1.00  0.00    +0.000 H 
ATOM     83  C59 UNL A   1      13.122  20.235  40.959  1.00  0.00    +0.000 C 
ATOM     84  C60 UNL A   1      12.581  18.807  41.066  1.00  0.00    +0.000 C 
ATOM     85  C61 UNL A   1      12.255  18.382  39.632  1.00  0.00    +0.000 C 
ATOM     86  C62 UNL A   1      12.986  19.375  38.740  1.00  0.00    +0.000 C 
ATOM     87  C63 UNL A   1      12.882  20.684  39.509  1.00  0.00    +0.000 C 
ATOM    127  H36 UNL A   1      14.171  20.254  41.174  1.00  0.00    +0.000 H 
ATOM    128  H37 UNL A   1      11.698  18.786  41.671  1.00  0.00    +0.000 H 
BRANCH   87   88
ATOM    135  H44 UNL A   1      13.441  22.281  38.502  1.00  0.00    +0.000 H 
ATOM     88  O3  UNL A   1      13.860  21.615  39.069  1.00  0.00    +0.000 O 
ENDBRANCH   87   88
ENDBRANCH   82   83
ENDBRANCH   81   82
ENDBRANCH    2   78
ENDBRANCH    3    2
ENDBRANCH    5    3
ENDBRANCH    6    5
ENDBRANCH    7    6
ENDBRANCH    8    7
ENDBRANCH    9    8
ENDBRANCH   10    9
ENDBRANCH   11   10
ENDBRANCH   12   11
ENDBRANCH   13   12
ENDBRANCH   15   13
ENDBRANCH   19   18
BRANCH   23   24
ATOM     33  C24 UNL A   1      25.279  40.382  50.463  1.00  0.00    +0.000 C 
ATOM     34  F5  UNL A   1      25.925  39.320  50.964  1.00  0.00    +0.000 F 
ATOM     24  C19 UNL A   1      25.485  40.774  49.132  1.00  0.00    +0.000 C 
ATOM     25  C20 UNL A   1      24.778  41.891  48.659  1.00  0.00    +0.000 C 
ATOM     26  F1  UNL A   1      24.948  42.314  47.398  1.00  0.00    +0.000 F 
ATOM     27  C21 UNL A   1      23.925  42.606  49.497  1.00  0.00    +0.000 C 
ATOM     28  F2  UNL A   1      23.303  43.700  49.038  1.00  0.00    +0.000 F 
ATOM     29  C22 UNL A   1      23.734  42.199  50.808  1.00  0.00    +0.000 C 
ATOM     30  F3  UNL A   1      22.912  42.886  51.611  1.00  0.00    +0.000 F 
ATOM     31  C23 UNL A   1      24.403  41.083  51.288  1.00  0.00    +0.000 C 
ATOM     32  F4  UNL A   1      24.209  40.681  52.552  1.00  0.00    +0.000 F 
ENDBRANCH   23   24
BRANCH   40   41
ATOM     41  C30 UNL A   1      32.405  40.948  47.105  1.00  0.00    +0.000 C 
ATOM     42  C31 UNL A   1      32.663  42.186  46.500  1.00  0.00    +0.000 C 
ATOM     43  F6  UNL A   1      31.819  42.678  45.579  1.00  0.00    +0.000 F 
ATOM     44  C32 UNL A   1      33.814  42.906  46.808  1.00  0.00    +0.000 C 
ATOM     45  F7  UNL A   1      34.066  44.064  46.182  1.00  0.00    +0.000 F 
ATOM     46  C33 UNL A   1      34.709  42.420  47.750  1.00  0.00    +0.000 C 
ATOM     47  F8  UNL A   1      35.814  43.116  48.048  1.00  0.00    +0.000 F 
ATOM     48  C34 UNL A   1      34.463  41.207  48.375  1.00  0.00    +0.000 C 
ATOM     49  F9  UNL A   1      35.319  40.741  49.294  1.00  0.00    +0.000 F 
ATOM     50  C35 UNL A   1      33.328  40.471  48.048  1.00  0.00    +0.000 C 
ATOM     51  F10 UNL A   1      33.123  39.294  48.659  1.00  0.00    +0.000 F 
ENDBRANCH   40   41
BRANCH   55   56
ATOM     65  C44 UNL A   1      31.387  35.966  41.491  1.00  0.00    +0.000 C 
ATOM     66  F15 UNL A   1      30.744  37.046  41.023  1.00  0.00    +0.000 F 
ATOM     56  C39 UNL A   1      31.231  35.581  42.829  1.00  0.00    +0.000 C 
ATOM     57  C40 UNL A   1      31.922  34.443  43.267  1.00  0.00    +0.000 C 
ATOM     58  F11 UNL A   1      31.819  34.047  44.545  1.00  0.00    +0.000 F 
ATOM     59  C41 UNL A   1      32.753  33.730  42.405  1.00  0.00    +0.000 C 
ATOM     60  F12 UNL A   1      33.436  32.670  42.861  1.00  0.00    +0.000 F 
ATOM     61  C42 UNL A   1      32.887  34.124  41.083  1.00  0.00    +0.000 C 
ATOM     62  F13 UNL A   1      33.683  33.437  40.254  1.00  0.00    +0.000 F 
ATOM     63  C43 UNL A   1      32.199  35.237  40.624  1.00  0.00    +0.000 C 
ATOM     64  F14 UNL A   1      32.316  35.614  39.343  1.00  0.00    +0.000 F 
ENDBRANCH   55   56
TORSDOF 20
ENDMDL
MODEL 9
REMARK VINA RESULT:     -10.5      4.388      9.403
ROOT
ATOM     19  C15 UNL A   1      41.577  26.361  27.604  1.00  0.00    +0.000 C 
ATOM     20  C16 UNL A   1      42.974  26.685  27.155  1.00  0.00    +0.000 C 
ATOM     21  N3  UNL A   1      43.698  27.750  27.395  1.00  0.00    +0.000 N 
ATOM     22  C17 UNL A   1      44.927  27.516  26.794  1.00  0.00    +0.000 C 
ATOM     23  C18 UNL A   1      45.998  28.342  26.709  1.00  0.00    +0.000 C 
ATOM     35  C25 UNL A   1      46.034  29.676  27.247  1.00  0.00    +0.000 C 
ATOM     36  C26 UNL A   1      47.040  30.621  27.147  1.00  0.00    +0.000 C 
ATOM     37  C27 UNL A   1      46.646  31.758  27.861  1.00  0.00    +0.000 C 
ATOM     38  C28 UNL A   1      45.375  31.538  28.368  1.00  0.00    +0.000 C 
ATOM     39  N4  UNL A   1      45.013  30.256  27.986  1.00  0.00    +0.000 N 
ATOM     40  C29 UNL A   1      44.550  32.430  29.141  1.00  0.00    +0.000 C 
ATOM     52  C36 UNL A   1      43.308  32.140  29.602  1.00  0.00    +0.000 C 
ATOM     53  N5  UNL A   1      42.565  30.979  29.436  1.00  0.00    +0.000 N 
ATOM     54  C37 UNL A   1      41.437  31.179  30.071  1.00  0.00    +0.000 C 
ATOM     55  C38 UNL A   1      40.241  30.275  30.195  1.00  0.00    +0.000 C 
ATOM     67  C45 UNL A   1      40.262  29.071  29.594  1.00  0.00    +0.000 C 
ATOM     68  C46 UNL A   1      39.176  28.095  29.607  1.00  0.00    +0.000 C 
ATOM     69  C47 UNL A   1      39.552  27.011  28.911  1.00  0.00    +0.000 C 
ATOM     70  C48 UNL A   1      40.896  27.229  28.376  1.00  0.00    +0.000 C 
ATOM     71  N6  UNL A   1      41.245  28.470  28.847  1.00  0.00    +0.000 N 
ATOM     72  C49 UNL A   1      41.350  32.483  30.744  1.00  0.00    +0.000 C 
ATOM     73  C50 UNL A   1      42.498  33.044  30.391  1.00  0.00    +0.000 C 
ATOM     74  C51 UNL A   1      44.872  26.189  26.220  1.00  0.00    +0.000 C 
ATOM     75  C52 UNL A   1      43.664  25.662  26.352  1.00  0.00    +0.000 C 
ATOM    112  H21 UNL A   1      47.929  30.507  26.635  1.00  0.00    +0.000 H 
ATOM    113  H22 UNL A   1      47.207  32.615  27.991  1.00  0.00    +0.000 H 
ATOM    114  H23 UNL A   1      44.158  29.820  28.207  1.00  0.00    +0.000 H 
ATOM    115  H24 UNL A   1      38.265  28.219  30.077  1.00  0.00    +0.000 H 
ATOM    116  H25 UNL A   1      38.984  26.159  28.774  1.00  0.00    +0.000 H 
ATOM    117  H26 UNL A   1      42.118  28.890  28.667  1.00  0.00    +0.000 H 
ATOM    118  H27 UNL A   1      40.595  32.861  31.337  1.00  0.00    +0.000 H 
ATOM    119  H28 UNL A   1      42.778  34.004  30.645  1.00  0.00    +0.000 H 
ATOM    120  H29 UNL A   1      45.670  25.716  25.767  1.00  0.00    +0.000 H 
ATOM    121  H30 UNL A   1      43.302  24.768  25.987  1.00  0.00    +0.000 H 
ENDROOT
BRANCH   19   18
ATOM     76  C53 UNL A   1      41.472  23.873  27.792  1.00  0.00    +0.000 C 
ATOM     77  C54 UNL A   1      40.948  22.640  27.412  1.00  0.00    +0.000 C 
ATOM    110  H19 UNL A   1      38.527  23.717  25.353  1.00  0.00    +0.000 H 
ATOM     15  C11 UNL A   1      39.842  22.585  26.559  1.00  0.00    +0.000 C 
ATOM     16  C12 UNL A   1      39.327  23.760  26.003  1.00  0.00    +0.000 C 
ATOM     17  C13 UNL A   1      39.897  24.991  26.332  1.00  0.00    +0.000 C 
ATOM    111  H20 UNL A   1      39.533  25.856  25.901  1.00  0.00    +0.000 H 
ATOM     18  C14 UNL A   1      40.963  25.059  27.242  1.00  0.00    +0.000 C 
ATOM    122  H31 UNL A   1      42.239  23.915  28.483  1.00  0.00    +0.000 H 
ATOM    123  H32 UNL A   1      41.376  21.768  27.760  1.00  0.00    +0.000 H 
BRANCH   15   13
ATOM     13  C10 UNL A   1      39.220  21.294  26.194  1.00  0.00    +0.000 C 
ATOM     14  O2  UNL A   1      39.899  20.270  26.188  1.00  0.00    +0.000 O 
BRANCH   13   12
ATOM     12  N2  UNL A   1      37.894  21.240  25.851  1.00  0.00    +0.000 N 
ATOM    109  H18 UNL A   1      37.260  21.288  26.603  1.00  0.00    +0.000 H 
BRANCH   12   11
ATOM     11  C9  UNL A   1      37.292  21.122  24.534  1.00  0.00    +0.000 C 
ATOM    108  H17 UNL A   1      36.366  20.596  24.641  1.00  0.00    +0.000 H 
ATOM    107  H16 UNL A   1      37.968  20.595  23.892  1.00  0.00    +0.000 H 
BRANCH   11   10
ATOM    105  H14 UNL A   1      37.664  23.197  24.338  1.00  0.00    +0.000 H 
ATOM     10  C8  UNL A   1      36.990  22.482  23.916  1.00  0.00    +0.000 C 
ATOM    106  H15 UNL A   1      37.107  22.367  22.859  1.00  0.00    +0.000 H 
BRANCH   10    9
ATOM      9  C7  UNL A   1      35.562  22.984  24.140  1.00  0.00    +0.000 C 
ATOM    103  H12 UNL A   1      35.251  23.507  23.260  1.00  0.00    +0.000 H 
ATOM    104  H13 UNL A   1      34.971  22.117  24.352  1.00  0.00    +0.000 H 
BRANCH    9    8
ATOM    101  H10 UNL A   1      36.348  24.090  25.773  1.00  0.00    +0.000 H 
ATOM    102  H11 UNL A   1      34.931  24.813  24.952  1.00  0.00    +0.000 H 
ATOM      8  C6  UNL A   1      35.385  23.923  25.337  1.00  0.00    +0.000 C 
BRANCH    8    7
ATOM     99  H8  UNL A   1      34.623  23.983  27.324  1.00  0.00    +0.000 H 
ATOM    100  H9  UNL A   1      33.450  23.514  26.067  1.00  0.00    +0.000 H 
ATOM      7  C5  UNL A   1      34.448  23.409  26.438  1.00  0.00    +0.000 C 
BRANCH    7    6
ATOM     97  H6  UNL A   1      35.531  21.575  26.309  1.00  0.00    +0.000 H 
ATOM     98  H7  UNL A   1      34.708  21.830  27.841  1.00  0.00    +0.000 H 
ATOM      6  C4  UNL A   1      34.637  21.930  26.778  1.00  0.00    +0.000 C 
BRANCH    6    5
ATOM      5  N1  UNL A   1      33.514  21.147  26.313  1.00  0.00    +0.000 N 
ATOM     96  H5  UNL A   1      32.751  21.102  26.934  1.00  0.00    +0.000 H 
BRANCH    5    3
ATOM      3  C3  UNL A   1      33.349  20.460  25.144  1.00  0.00    +0.000 C 
ATOM      4  O1  UNL A   1      34.243  19.669  24.839  1.00  0.00    +0.000 O 
BRANCH    3    2
ATOM      2  C2  UNL A   1      32.131  20.756  24.254  1.00  0.00    +0.000 C 
ATOM     95  H4  UNL A   1      31.301  20.310  24.762  1.00  0.00    +0.000 H 
BRANCH    2    1
ATOM      1  C1  UNL A   1      32.206  20.102  22.872  1.00  0.00    +0.000 C 
ATOM     92  H1  UNL A   1      33.193  19.721  22.710  1.00  0.00    +0.000 H 
ATOM     93  H2  UNL A   1      31.978  20.828  22.120  1.00  0.00    +0.000 H 
ATOM     94  H3  UNL A   1      31.501  19.300  22.817  1.00  0.00    +0.000 H 
ENDBRANCH    2    1
BRANCH    2   78
ATOM    136  H45 UNL A   1      30.196  24.789  25.522  1.00  0.00    +0.000 H 
ATOM     78  C55 UNL A   1      31.880  22.248  24.115  1.00  0.00    +0.000 C 
ATOM     79  C56 UNL A   1      32.503  22.974  23.098  1.00  0.00    +0.000 C 
ATOM     80  C57 UNL A   1      32.290  24.354  22.978  1.00  0.00    +0.000 C 
ATOM     81  C58 UNL A   1      31.425  25.046  23.829  1.00  0.00    +0.000 C 
ATOM     89  C64 UNL A   1      30.819  24.309  24.853  1.00  0.00    +0.000 C 
ATOM     90  C65 UNL A   1      31.039  22.939  24.988  1.00  0.00    +0.000 C 
ATOM     91  F16 UNL A   1      30.437  22.295  26.000  1.00  0.00    +0.000 F 
ATOM    124  H33 UNL A   1      33.124  22.492  22.429  1.00  0.00    +0.000 H 
ATOM    125  H34 UNL A   1      32.788  24.874  22.238  1.00  0.00    +0.000 H 
BRANCH   81   82
ATOM     82  N7  UNL A   1      31.217  26.413  23.799  1.00  0.00    +0.000 N 
ATOM    126  H35 UNL A   1      30.642  26.743  23.070  1.00  0.00    +0.000 H 
BRANCH   82   83
ATOM    129  H38 UNL A   1      33.077  26.736  26.268  1.00  0.00    +0.000 H 
ATOM    130  H39 UNL A   1      34.587  28.426  24.379  1.00  0.00    +0.000 H 
ATOM    131  H40 UNL A   1      34.488  28.597  26.087  1.00  0.00    +0.000 H 
ATOM    132  H41 UNL A   1      33.268  30.377  24.538  1.00  0.00    +0.000 H 
ATOM    133  H42 UNL A   1      32.440  29.866  25.938  1.00  0.00    +0.000 H 
ATOM    134  H43 UNL A   1      32.072  28.856  23.081  1.00  0.00    +0.000 H 
ATOM     83  C59 UNL A   1      31.740  27.428  24.707  1.00  0.00    +0.000 C 
ATOM     84  C60 UNL A   1      33.130  27.116  25.269  1.00  0.00    +0.000 C 
ATOM     85  C61 UNL A   1      33.906  28.434  25.204  1.00  0.00    +0.000 C 
ATOM     86  C62 UNL A   1      32.851  29.515  25.014  1.00  0.00    +0.000 C 
ATOM     87  C63 UNL A   1      31.817  28.846  24.121  1.00  0.00    +0.000 C 
ATOM    127  H36 UNL A   1      31.008  27.399  25.487  1.00  0.00    +0.000 H 
ATOM    128  H37 UNL A   1      33.614  26.368  24.676  1.00  0.00    +0.000 H 
BRANCH   87   88
ATOM    135  H44 UNL A   1      30.634  30.370  23.726  1.00  0.00    +0.000 H 
ATOM     88  O3  UNL A   1      30.568  29.519  24.188  1.00  0.00    +0.000 O 
ENDBRANCH   87   88
ENDBRANCH   82   83
ENDBRANCH   81   82
ENDBRANCH    2   78
ENDBRANCH    3    2
ENDBRANCH    5    3
ENDBRANCH    6    5
ENDBRANCH    7    6
ENDBRANCH    8    7
ENDBRANCH    9    8
ENDBRANCH   10    9
ENDBRANCH   11   10
ENDBRANCH   12   11
ENDBRANCH   13   12
ENDBRANCH   15   13
ENDBRANCH   19   18
BRANCH   23   24
ATOM     33  C24 UNL A   1      47.290  27.825  24.608  1.00  0.00    +0.000 C 
ATOM     34  F5  UNL A   1      46.272  28.306  23.879  1.00  0.00    +0.000 F 
ATOM     24  C19 UNL A   1      47.220  27.823  26.009  1.00  0.00    +0.000 C 
ATOM     25  C20 UNL A   1      48.313  27.303  26.719  1.00  0.00    +0.000 C 
ATOM     26  F1  UNL A   1      48.301  27.289  28.061  1.00  0.00    +0.000 F 
ATOM     27  C21 UNL A   1      49.444  26.836  26.054  1.00  0.00    +0.000 C 
ATOM     28  F2  UNL A   1      50.496  26.395  26.756  1.00  0.00    +0.000 F 
ATOM     29  C22 UNL A   1      49.489  26.844  24.668  1.00  0.00    +0.000 C 
ATOM     30  F3  UNL A   1      50.577  26.392  24.030  1.00  0.00    +0.000 F 
ATOM     31  C23 UNL A   1      48.411  27.330  23.945  1.00  0.00    +0.000 C 
ATOM     32  F4  UNL A   1      48.449  27.327  22.605  1.00  0.00    +0.000 F 
ENDBRANCH   23   24
BRANCH   40   41
ATOM     41  C30 UNL A   1      45.089  33.798  29.441  1.00  0.00    +0.000 C 
ATOM     42  C31 UNL A   1      45.865  34.051  30.582  1.00  0.00    +0.000 C 
ATOM     43  F6  UNL A   1      46.107  33.069  31.465  1.00  0.00    +0.000 F 
ATOM     44  C32 UNL A   1      46.360  35.325  30.842  1.00  0.00    +0.000 C 
ATOM     45  F7  UNL A   1      47.057  35.556  31.963  1.00  0.00    +0.000 F 
ATOM     46  C33 UNL A   1      46.119  36.362  29.951  1.00  0.00    +0.000 C 
ATOM     47  F8  UNL A   1      46.600  37.587  30.201  1.00  0.00    +0.000 F 
ATOM     48  C34 UNL A   1      45.371  36.129  28.807  1.00  0.00    +0.000 C 
ATOM     49  F9  UNL A   1      45.147  37.125  27.939  1.00  0.00    +0.000 F 
ATOM     50  C35 UNL A   1      44.851  34.863  28.558  1.00  0.00    +0.000 C 
ATOM     51  F10 UNL A   1      44.120  34.671  27.450  1.00  0.00    +0.000 F 
ENDBRANCH   40   41
BRANCH   55   56
ATOM     65  C44 UNL A   1      37.959  31.342  30.270  1.00  0.00    +0.000 C 
ATOM     66  F15 UNL A   1      38.020  31.563  28.949  1.00  0.00    +0.000 F 
ATOM     56  C39 UNL A   1      39.026  30.716  30.928  1.00  0.00    +0.000 C 
ATOM     57  C40 UNL A   1      38.914  30.512  32.310  1.00  0.00    +0.000 C 
ATOM     58  F11 UNL A   1      39.902  29.899  32.979  1.00  0.00    +0.000 F 
ATOM     59  C41 UNL A   1      37.769  30.901  33.004  1.00  0.00    +0.000 C 
ATOM     60  F12 UNL A   1      37.670  30.656  34.318  1.00  0.00    +0.000 F 
ATOM     61  C42 UNL A   1      36.729  31.526  32.335  1.00  0.00    +0.000 C 
ATOM     62  F13 UNL A   1      35.631  31.902  33.002  1.00  0.00    +0.000 F 
ATOM     63  C43 UNL A   1      36.826  31.753  30.970  1.00  0.00    +0.000 C 
ATOM     64  F14 UNL A   1      35.827  32.368  30.322  1.00  0.00    +0.000 F 
ENDBRANCH   55   56
TORSDOF 20
ENDMDL
MODEL 10
REMARK VINA RESULT:     -10.4     17.432     23.880
ROOT
ATOM     19  C15 UNL A   1      25.484  38.511  48.338  1.00  0.00    +0.000 C 
ATOM     20  C16 UNL A   1      25.204  37.225  47.612  1.00  0.00    +0.000 C 
ATOM     21  N3  UNL A   1      25.991  36.523  46.834  1.00  0.00    +0.000 N 
ATOM     22  C17 UNL A   1      25.258  35.402  46.468  1.00  0.00    +0.000 C 
ATOM     23  C18 UNL A   1      25.609  34.401  45.625  1.00  0.00    +0.000 C 
ATOM     35  C25 UNL A   1      26.863  34.338  44.922  1.00  0.00    +0.000 C 
ATOM     36  C26 UNL A   1      27.284  33.409  43.988  1.00  0.00    +0.000 C 
ATOM     37  C27 UNL A   1      28.591  33.730  43.608  1.00  0.00    +0.000 C 
ATOM     38  C28 UNL A   1      28.968  34.887  44.272  1.00  0.00    +0.000 C 
ATOM     39  N4  UNL A   1      27.899  35.247  45.077  1.00  0.00    +0.000 N 
ATOM     40  C29 UNL A   1      30.209  35.613  44.178  1.00  0.00    +0.000 C 
ATOM     52  C36 UNL A   1      30.503  36.744  44.865  1.00  0.00    +0.000 C 
ATOM     53  N5  UNL A   1      29.715  37.449  45.764  1.00  0.00    +0.000 N 
ATOM     54  C37 UNL A   1      30.442  38.463  46.163  1.00  0.00    +0.000 C 
ATOM     55  C38 UNL A   1      30.084  39.578  47.108  1.00  0.00    +0.000 C 
ATOM     67  C45 UNL A   1      28.858  39.601  47.664  1.00  0.00    +0.000 C 
ATOM     68  C46 UNL A   1      28.359  40.622  48.580  1.00  0.00    +0.000 C 
ATOM     69  C47 UNL A   1      27.101  40.317  48.933  1.00  0.00    +0.000 C 
ATOM     70  C48 UNL A   1      26.694  39.093  48.242  1.00  0.00    +0.000 C 
ATOM     71  N6  UNL A   1      27.806  38.729  47.526  1.00  0.00    +0.000 N 
ATOM     72  C49 UNL A   1      31.793  38.497  45.585  1.00  0.00    +0.000 C 
ATOM     73  C50 UNL A   1      31.762  37.453  44.770  1.00  0.00    +0.000 C 
ATOM     74  C51 UNL A   1      23.983  35.490  47.146  1.00  0.00    +0.000 C 
ATOM     75  C52 UNL A   1      23.871  36.632  47.807  1.00  0.00    +0.000 C 
ATOM    112  H21 UNL A   1      26.729  32.614  43.632  1.00  0.00    +0.000 H 
ATOM    113  H22 UNL A   1      29.177  33.197  42.946  1.00  0.00    +0.000 H 
ATOM    114  H23 UNL A   1      27.879  36.031  45.672  1.00  0.00    +0.000 H 
ATOM    115  H24 UNL A   1      28.890  41.446  48.905  1.00  0.00    +0.000 H 
ATOM    116  H25 UNL A   1      26.513  40.859  49.587  1.00  0.00    +0.000 H 
ATOM    117  H26 UNL A   1      27.847  37.920  46.966  1.00  0.00    +0.000 H 
ATOM    118  H27 UNL A   1      32.563  39.160  45.767  1.00  0.00    +0.000 H 
ATOM    119  H28 UNL A   1      32.537  37.180  44.145  1.00  0.00    +0.000 H 
ATOM    120  H29 UNL A   1      23.256  34.758  47.117  1.00  0.00    +0.000 H 
ATOM    121  H30 UNL A   1      23.061  37.008  48.323  1.00  0.00    +0.000 H 
ENDROOT
BRANCH   19   18
ATOM     76  C53 UNL A   1      23.489  39.981  48.651  1.00  0.00    +0.000 C 
ATOM     77  C54 UNL A   1      22.548  40.605  49.466  1.00  0.00    +0.000 C 
ATOM    110  H19 UNL A   1      23.399  39.221  52.402  1.00  0.00    +0.000 H 
ATOM     15  C11 UNL A   1      22.484  40.291  50.826  1.00  0.00    +0.000 C 
ATOM     16  C12 UNL A   1      23.430  39.432  51.392  1.00  0.00    +0.000 C 
ATOM     17  C13 UNL A   1      24.417  38.859  50.587  1.00  0.00    +0.000 C 
ATOM    111  H20 UNL A   1      25.130  38.245  51.009  1.00  0.00    +0.000 H 
ATOM     18  C14 UNL A   1      24.443  39.115  49.207  1.00  0.00    +0.000 C 
ATOM    122  H31 UNL A   1      23.484  40.155  47.634  1.00  0.00    +0.000 H 
ATOM    123  H32 UNL A   1      21.898  41.300  49.065  1.00  0.00    +0.000 H 
BRANCH   15   13
ATOM     13  C10 UNL A   1      21.450  40.885  51.702  1.00  0.00    +0.000 C 
ATOM     14  O2  UNL A   1      21.177  42.079  51.599  1.00  0.00    +0.000 O 
BRANCH   13   12
ATOM     12  N2  UNL A   1      20.809  40.112  52.634  1.00  0.00    +0.000 N 
ATOM    109  H18 UNL A   1      20.843  40.448  53.559  1.00  0.00    +0.000 H 
BRANCH   12   11
ATOM     11  C9  UNL A   1      20.084  38.866  52.449  1.00  0.00    +0.000 C 
ATOM    108  H17 UNL A   1      19.755  38.531  53.411  1.00  0.00    +0.000 H 
ATOM    107  H16 UNL A   1      20.736  38.153  51.990  1.00  0.00    +0.000 H 
BRANCH   11   10
ATOM    105  H14 UNL A   1      18.106  38.349  51.894  1.00  0.00    +0.000 H 
ATOM     10  C8  UNL A   1      18.852  39.043  51.568  1.00  0.00    +0.000 C 
ATOM    106  H15 UNL A   1      18.550  40.065  51.672  1.00  0.00    +0.000 H 
BRANCH   10    9
ATOM      9  C7  UNL A   1      19.096  38.815  50.075  1.00  0.00    +0.000 C 
ATOM    103  H12 UNL A   1      18.157  38.587  49.615  1.00  0.00    +0.000 H 
ATOM    104  H13 UNL A   1      19.545  39.713  49.705  1.00  0.00    +0.000 H 
BRANCH    9    8
ATOM    101  H10 UNL A   1      20.674  37.997  48.915  1.00  0.00    +0.000 H 
ATOM    102  H11 UNL A   1      20.635  37.504  50.635  1.00  0.00    +0.000 H 
ATOM      8  C6  UNL A   1      20.072  37.683  49.743  1.00  0.00    +0.000 C 
BRANCH    8    7
ATOM     99  H8  UNL A   1      20.195  35.638  49.163  1.00  0.00    +0.000 H 
ATOM    100  H9  UNL A   1      18.814  36.057  50.208  1.00  0.00    +0.000 H 
ATOM      7  C5  UNL A   1      19.419  36.344  49.374  1.00  0.00    +0.000 C 
BRANCH    7    6
ATOM     97  H6  UNL A   1      18.401  35.440  47.731  1.00  0.00    +0.000 H 
ATOM     98  H7  UNL A   1      17.534  36.771  48.482  1.00  0.00    +0.000 H 
ATOM      6  C4  UNL A   1      18.491  36.416  48.161  1.00  0.00    +0.000 C 
BRANCH    6    5
ATOM      5  N1  UNL A   1      19.013  37.327  47.166  1.00  0.00    +0.000 N 
ATOM     96  H5  UNL A   1      19.077  38.266  47.454  1.00  0.00    +0.000 H 
BRANCH    5    3
ATOM      3  C3  UNL A   1      19.431  37.083  45.889  1.00  0.00    +0.000 C 
ATOM      4  O1  UNL A   1      18.811  37.653  44.989  1.00  0.00    +0.000 O 
BRANCH    3    2
ATOM      2  C2  UNL A   1      20.569  36.081  45.639  1.00  0.00    +0.000 C 
ATOM     95  H4  UNL A   1      21.169  36.116  46.524  1.00  0.00    +0.000 H 
BRANCH    2    1
ATOM      1  C1  UNL A   1      21.482  36.465  44.472  1.00  0.00    +0.000 C 
ATOM     92  H1  UNL A   1      21.812  37.477  44.595  1.00  0.00    +0.000 H 
ATOM     93  H2  UNL A   1      20.943  36.377  43.552  1.00  0.00    +0.000 H 
ATOM     94  H3  UNL A   1      22.330  35.814  44.452  1.00  0.00    +0.000 H 
ENDBRANCH    2    1
BRANCH    2   78
ATOM    136  H45 UNL A   1      19.818  31.705  47.017  1.00  0.00    +0.000 H 
ATOM     78  C55 UNL A   1      20.048  34.667  45.453  1.00  0.00    +0.000 C 
ATOM     79  C56 UNL A   1      19.396  34.307  44.271  1.00  0.00    +0.000 C 
ATOM     80  C57 UNL A   1      18.895  33.010  44.102  1.00  0.00    +0.000 C 
ATOM     81  C58 UNL A   1      19.061  32.020  45.075  1.00  0.00    +0.000 C 
ATOM     89  C64 UNL A   1      19.703  32.398  46.260  1.00  0.00    +0.000 C 
ATOM     90  C65 UNL A   1      20.189  33.692  46.441  1.00  0.00    +0.000 C 
ATOM     91  F16 UNL A   1      20.782  33.990  47.607  1.00  0.00    +0.000 F 
ATOM    124  H33 UNL A   1      19.282  35.002  43.516  1.00  0.00    +0.000 H 
ATOM    125  H34 UNL A   1      18.388  32.778  43.234  1.00  0.00    +0.000 H 
BRANCH   81   82
ATOM     82  N7  UNL A   1      18.542  30.741  44.994  1.00  0.00    +0.000 N 
ATOM    126  H35 UNL A   1      18.715  30.158  45.769  1.00  0.00    +0.000 H 
BRANCH   82   83
ATOM    129  H38 UNL A   1      18.703  28.496  42.850  1.00  0.00    +0.000 H 
ATOM    130  H39 UNL A   1      16.359  27.493  44.334  1.00  0.00    +0.000 H 
ATOM    131  H40 UNL A   1      16.702  27.294  42.661  1.00  0.00    +0.000 H 
ATOM    132  H41 UNL A   1      14.726  28.913  43.392  1.00  0.00    +0.000 H 
ATOM    133  H42 UNL A   1      15.722  29.430  42.108  1.00  0.00    +0.000 H 
ATOM    134  H43 UNL A   1      15.906  30.228  45.049  1.00  0.00    +0.000 H 
ATOM     83  C59 UNL A   1      17.772  30.144  43.907  1.00  0.00    +0.000 C 
ATOM     84  C60 UNL A   1      18.049  28.656  43.680  1.00  0.00    +0.000 C 
ATOM     85  C61 UNL A   1      16.678  28.012  43.454  1.00  0.00    +0.000 C 
ATOM     86  C62 UNL A   1      15.735  29.167  43.146  1.00  0.00    +0.000 C 
ATOM     87  C63 UNL A   1      16.248  30.289  44.037  1.00  0.00    +0.000 C 
ATOM    127  H36 UNL A   1      18.120  30.719  43.073  1.00  0.00    +0.000 H 
ATOM    128  H37 UNL A   1      18.524  28.229  44.539  1.00  0.00    +0.000 H 
BRANCH   87   88
ATOM    135  H44 UNL A   1      15.077  31.867  44.158  1.00  0.00    +0.000 H 
ATOM     88  O3  UNL A   1      15.791  31.554  43.582  1.00  0.00    +0.000 O 
ENDBRANCH   87   88
ENDBRANCH   82   83
ENDBRANCH   81   82
ENDBRANCH    2   78
ENDBRANCH    3    2
ENDBRANCH    5    3
ENDBRANCH    6    5
ENDBRANCH    7    6
ENDBRANCH    8    7
ENDBRANCH    9    8
ENDBRANCH   10    9
ENDBRANCH   11   10
ENDBRANCH   12   11
ENDBRANCH   13   12
ENDBRANCH   15   13
ENDBRANCH   19   18
BRANCH   23   24
ATOM     33  C24 UNL A   1      23.703  33.344  44.359  1.00  0.00    +0.000 C 
ATOM     34  F5  UNL A   1      23.711  34.380  43.508  1.00  0.00    +0.000 F 
ATOM     24  C19 UNL A   1      24.620  33.290  45.419  1.00  0.00    +0.000 C 
ATOM     25  C20 UNL A   1      24.562  32.183  46.281  1.00  0.00    +0.000 C 
ATOM     26  F1  UNL A   1      25.426  32.078  47.303  1.00  0.00    +0.000 F 
ATOM     27  C21 UNL A   1      23.647  31.156  46.068  1.00  0.00    +0.000 C 
ATOM     28  F2  UNL A   1      23.648  30.085  46.872  1.00  0.00    +0.000 F 
ATOM     29  C22 UNL A   1      22.747  31.232  45.016  1.00  0.00    +0.000 C 
ATOM     30  F3  UNL A   1      21.865  30.244  44.815  1.00  0.00    +0.000 F 
ATOM     31  C23 UNL A   1      22.769  32.328  44.167  1.00  0.00    +0.000 C 
ATOM     32  F4  UNL A   1      21.892  32.409  43.157  1.00  0.00    +0.000 F 
ENDBRANCH   23   24
BRANCH   40   41
ATOM     41  C30 UNL A   1      31.252  35.095  43.231  1.00  0.00    +0.000 C 
ATOM     42  C31 UNL A   1      32.164  34.101  43.610  1.00  0.00    +0.000 C 
ATOM     43  F6  UNL A   1      32.152  33.615  44.861  1.00  0.00    +0.000 F 
ATOM     44  C32 UNL A   1      33.122  33.631  42.716  1.00  0.00    +0.000 C 
ATOM     45  F7  UNL A   1      34.016  32.715  43.114  1.00  0.00    +0.000 F 
ATOM     46  C33 UNL A   1      33.164  34.120  41.418  1.00  0.00    +0.000 C 
ATOM     47  F8  UNL A   1      34.084  33.664  40.558  1.00  0.00    +0.000 F 
ATOM     48  C34 UNL A   1      32.257  35.089  41.016  1.00  0.00    +0.000 C 
ATOM     49  F9  UNL A   1      32.287  35.555  39.760  1.00  0.00    +0.000 F 
ATOM     50  C35 UNL A   1      31.317  35.582  41.916  1.00  0.00    +0.000 C 
ATOM     51  F10 UNL A   1      30.462  36.530  41.502  1.00  0.00    +0.000 F 
ENDBRANCH   40   41
BRANCH   55   56
ATOM     65  C44 UNL A   1      32.001  40.562  48.415  1.00  0.00    +0.000 C 
ATOM     66  F15 UNL A   1      32.056  39.453  49.166  1.00  0.00    +0.000 F 
ATOM     56  C39 UNL A   1      31.048  40.672  47.394  1.00  0.00    +0.000 C 
ATOM     57  C40 UNL A   1      31.031  41.853  46.639  1.00  0.00    +0.000 C 
ATOM     58  F11 UNL A   1      30.149  41.996  45.638  1.00  0.00    +0.000 F 
ATOM     59  C41 UNL A   1      31.945  42.876  46.884  1.00  0.00    +0.000 C 
ATOM     60  F12 UNL A   1      31.934  43.978  46.120  1.00  0.00    +0.000 F 
ATOM     61  C42 UNL A   1      32.874  42.750  47.904  1.00  0.00    +0.000 C 
ATOM     62  F13 UNL A   1      33.750  43.734  48.141  1.00  0.00    +0.000 F 
ATOM     63  C43 UNL A   1      32.899  41.596  48.674  1.00  0.00    +0.000 C 
ATOM     64  F14 UNL A   1      33.787  41.475  49.670  1.00  0.00    +0.000 F 
ENDBRANCH   55   56
TORSDOF 20
ENDMDL
