MODEL 1
REMARK VINA RESULT:     -11.3      0.000      0.000
ROOT
ATOM     19  C15 UNL A   1      38.091  30.195  29.745  1.00  0.00    +0.000 C 
ATOM     20  C16 UNL A   1      39.117  29.249  29.189  1.00  0.00    +0.000 C 
ATOM     21  N3  UNL A   1      40.176  28.741  29.765  1.00  0.00    +0.000 N 
ATOM     22  C17 UNL A   1      40.733  27.876  28.832  1.00  0.00    +0.000 C 
ATOM     23  C18 UNL A   1      41.866  27.143  28.932  1.00  0.00    +0.000 C 
ATOM     35  C25 UNL A   1      42.738  27.155  30.076  1.00  0.00    +0.000 C 
ATOM     36  C26 UNL A   1      43.942  26.495  30.252  1.00  0.00    +0.000 C 
ATOM     37  C27 UNL A   1      44.417  26.787  31.535  1.00  0.00    +0.000 C 
ATOM     38  C28 UNL A   1      43.529  27.661  32.143  1.00  0.00    +0.000 C 
ATOM     39  N4  UNL A   1      42.501  27.873  31.240  1.00  0.00    +0.000 N 
ATOM     40  C29 UNL A   1      43.614  28.259  33.450  1.00  0.00    +0.000 C 
ATOM     52  C36 UNL A   1      42.696  29.102  33.984  1.00  0.00    +0.000 C 
ATOM     53  N5  UNL A   1      41.521  29.582  33.419  1.00  0.00    +0.000 N 
ATOM     54  C37 UNL A   1      40.981  30.364  34.321  1.00  0.00    +0.000 C 
ATOM     55  C38 UNL A   1      39.714  31.170  34.240  1.00  0.00    +0.000 C 
ATOM     67  C45 UNL A   1      39.009  31.179  33.092  1.00  0.00    +0.000 C 
ATOM     68  C46 UNL A   1      37.761  31.903  32.868  1.00  0.00    +0.000 C 
ATOM     69  C47 UNL A   1      37.302  31.614  31.640  1.00  0.00    +0.000 C 
ATOM     70  C48 UNL A   1      38.245  30.714  30.976  1.00  0.00    +0.000 C 
ATOM     71  N6  UNL A   1      39.244  30.536  31.901  1.00  0.00    +0.000 N 
ATOM     72  C49 UNL A   1      41.739  30.444  35.578  1.00  0.00    +0.000 C 
ATOM     73  C50 UNL A   1      42.791  29.682  35.307  1.00  0.00    +0.000 C 
ATOM     74  C51 UNL A   1      39.873  27.900  27.668  1.00  0.00    +0.000 C 
ATOM     75  C52 UNL A   1      38.901  28.787  27.809  1.00  0.00    +0.000 C 
ATOM    111  H21 UNL A   1      44.410  25.892  29.557  1.00  0.00    +0.000 H 
ATOM    112  H22 UNL A   1      45.280  26.413  31.959  1.00  0.00    +0.000 H 
ATOM    113  H23 UNL A   1      41.717  28.447  31.399  1.00  0.00    +0.000 H 
ATOM    114  H24 UNL A   1      37.306  32.535  33.545  1.00  0.00    +0.000 H 
ATOM    115  H25 UNL A   1      36.424  31.971  31.229  1.00  0.00    +0.000 H 
ATOM    116  H26 UNL A   1      40.050  29.999  31.727  1.00  0.00    +0.000 H 
ATOM    117  H27 UNL A   1      41.513  30.958  36.444  1.00  0.00    +0.000 H 
ATOM    118  H28 UNL A   1      43.576  29.523  35.957  1.00  0.00    +0.000 H 
ATOM    119  H29 UNL A   1      40.002  27.301  26.836  1.00  0.00    +0.000 H 
ATOM    120  H30 UNL A   1      38.181  29.078  27.130  1.00  0.00    +0.000 H 
ENDROOT
BRANCH   19   18
ATOM     76  C53 UNL A   1      36.003  29.410  28.643  1.00  0.00    +0.000 C 
ATOM    109  H19 UNL A   1      35.128  32.959  27.504  1.00  0.00    +0.000 H 
ATOM     77  C54 UNL A   1      34.862  29.632  27.880  1.00  0.00    +0.000 C 
ATOM     15  C11 UNL A   1      34.515  30.937  27.515  1.00  0.00    +0.000 C 
ATOM     16  C12 UNL A   1      35.368  32.003  27.811  1.00  0.00    +0.000 C 
ATOM     17  C13 UNL A   1      36.546  31.770  28.524  1.00  0.00    +0.000 C 
ATOM    110  H20 UNL A   1      37.189  32.552  28.725  1.00  0.00    +0.000 H 
ATOM     18  C14 UNL A   1      36.859  30.475  28.967  1.00  0.00    +0.000 C 
ATOM    121  H31 UNL A   1      36.223  28.458  28.973  1.00  0.00    +0.000 H 
ATOM    122  H32 UNL A   1      34.273  28.838  27.585  1.00  0.00    +0.000 H 
BRANCH   15   13
ATOM     13  C10 UNL A   1      33.243  31.206  26.812  1.00  0.00    +0.000 C 
ATOM     14  O2  UNL A   1      32.549  32.160  27.148  1.00  0.00    +0.000 O 
BRANCH   13   12
ATOM    108  H18 UNL A   1      33.424  30.348  25.007  1.00  0.00    +0.000 H 
ATOM     12  N2  UNL A   1      32.840  30.371  25.800  1.00  0.00    +0.000 N 
BRANCH   12   11
ATOM    106  H16 UNL A   1      30.792  30.134  25.699  1.00  0.00    +0.000 H 
ATOM     11  C9  UNL A   1      31.665  29.516  25.743  1.00  0.00    +0.000 C 
ATOM    107  H17 UNL A   1      31.752  28.899  24.873  1.00  0.00    +0.000 H 
BRANCH   11   10
ATOM    105  H15 UNL A   1      30.665  28.886  27.473  1.00  0.00    +0.000 H 
ATOM     10  C8  UNL A   1      31.557  28.599  26.955  1.00  0.00    +0.000 C 
ATOM    104  H14 UNL A   1      32.443  28.719  27.544  1.00  0.00    +0.000 H 
BRANCH   10    9
ATOM      9  C7  UNL A   1      31.405  27.113  26.624  1.00  0.00    +0.000 C 
ATOM    102  H12 UNL A   1      30.726  26.684  27.330  1.00  0.00    +0.000 H 
ATOM    103  H13 UNL A   1      31.054  27.067  25.615  1.00  0.00    +0.000 H 
BRANCH    9    8
ATOM    100  H10 UNL A   1      33.161  26.460  27.618  1.00  0.00    +0.000 H 
ATOM    101  H11 UNL A   1      32.425  25.289  26.481  1.00  0.00    +0.000 H 
ATOM      8  C6  UNL A   1      32.704  26.305  26.663  1.00  0.00    +0.000 C 
BRANCH    8    7
ATOM     98  H8  UNL A   1      33.256  27.286  24.857  1.00  0.00    +0.000 H 
ATOM     99  H9  UNL A   1      34.543  27.151  26.087  1.00  0.00    +0.000 H 
ATOM      7  C5  UNL A   1      33.735  26.663  25.583  1.00  0.00    +0.000 C 
BRANCH    7    6
ATOM     97  H7  UNL A   1      33.916  24.562  25.259  1.00  0.00    +0.000 H 
ATOM      6  C4  UNL A   1      34.341  25.457  24.855  1.00  0.00    +0.000 C 
ATOM     96  H6  UNL A   1      35.402  25.460  24.994  1.00  0.00    +0.000 H 
BRANCH    6    5
ATOM      5  N1  UNL A   1      34.047  25.511  23.436  1.00  0.00    +0.000 N 
ATOM     95  H5  UNL A   1      34.712  25.964  22.869  1.00  0.00    +0.000 H 
BRANCH    5    3
ATOM      3  C3  UNL A   1      32.950  25.004  22.793  1.00  0.00    +0.000 C 
ATOM      4  O1  UNL A   1      33.052  24.819  21.579  1.00  0.00    +0.000 O 
BRANCH    3    2
ATOM      2  C2  UNL A   1      31.658  24.736  23.591  1.00  0.00    +0.000 C 
ATOM     94  H4  UNL A   1      31.905  24.701  24.631  1.00  0.00    +0.000 H 
BRANCH    2    1
ATOM      1  C1  UNL A   1      31.086  23.380  23.156  1.00  0.00    +0.000 C 
ATOM     91  H1  UNL A   1      30.956  22.755  24.014  1.00  0.00    +0.000 H 
ATOM     92  H2  UNL A   1      31.762  22.910  22.473  1.00  0.00    +0.000 H 
ATOM     93  H3  UNL A   1      30.141  23.528  22.677  1.00  0.00    +0.000 H 
ENDBRANCH    2    1
BRANCH    2   78
ATOM    129  H39 UNL A   1      31.907  27.252  22.542  1.00  0.00    +0.000 H 
ATOM     78  C55 UNL A   1      30.625  25.872  23.495  1.00  0.00    +0.000 C 
ATOM     79  C56 UNL A   1      29.342  25.748  24.052  1.00  0.00    +0.000 C 
ATOM     80  C57 UNL A   1      28.390  26.765  23.918  1.00  0.00    +0.000 C 
ATOM     81  C58 UNL A   1      28.699  27.948  23.240  1.00  0.00    +0.000 C 
ATOM     89  C64 UNL A   1      29.998  28.120  22.753  1.00  0.00    +0.000 C 
ATOM     90  C65 UNL A   1      30.948  27.099  22.891  1.00  0.00    +0.000 C 
ATOM    123  H33 UNL A   1      29.095  24.890  24.570  1.00  0.00    +0.000 H 
ATOM    124  H34 UNL A   1      27.449  26.640  24.325  1.00  0.00    +0.000 H 
ATOM    128  H38 UNL A   1      30.259  29.004  22.289  1.00  0.00    +0.000 H 
BRANCH   81   82
ATOM     82  C59 UNL A   1      27.637  28.996  23.112  1.00  0.00    +0.000 C 
ATOM     83  O3  UNL A   1      26.467  28.655  23.282  1.00  0.00    +0.000 O 
BRANCH   82   84
ATOM     84  C60 UNL A   1      28.017  30.363  22.806  1.00  0.00    +0.000 C 
ATOM     85  C61 UNL A   1      28.308  31.412  23.660  1.00  0.00    +0.000 C 
ATOM     86  C62 UNL A   1      28.613  32.612  22.952  1.00  0.00    +0.000 C 
ATOM     87  C63 UNL A   1      28.561  32.434  21.587  1.00  0.00    +0.000 C 
ATOM     88  S1  UNL A   1      28.172  30.823  21.165  1.00  0.00    +0.000 S 
ATOM    125  H35 UNL A   1      28.304  31.335  24.688  1.00  0.00    +0.000 H 
ATOM    126  H36 UNL A   1      28.844  33.508  23.409  1.00  0.00    +0.000 H 
ATOM    127  H37 UNL A   1      28.736  33.184  20.901  1.00  0.00    +0.000 H 
ENDBRANCH   82   84
ENDBRANCH   81   82
ENDBRANCH    2   78
ENDBRANCH    3    2
ENDBRANCH    5    3
ENDBRANCH    6    5
ENDBRANCH    7    6
ENDBRANCH    8    7
ENDBRANCH    9    8
ENDBRANCH   10    9
ENDBRANCH   11   10
ENDBRANCH   12   11
ENDBRANCH   13   12
ENDBRANCH   15   13
ENDBRANCH   19   18
BRANCH   23   24
ATOM     33  C24 UNL A   1      43.128  26.700  26.797  1.00  0.00    +0.000 C 
ATOM     34  F5  UNL A   1      43.694  27.912  26.896  1.00  0.00    +0.000 F 
ATOM     24  C19 UNL A   1      42.220  26.261  27.771  1.00  0.00    +0.000 C 
ATOM     25  C20 UNL A   1      41.654  24.986  27.614  1.00  0.00    +0.000 C 
ATOM     26  F1  UNL A   1      40.790  24.515  28.526  1.00  0.00    +0.000 F 
ATOM     27  C21 UNL A   1      42.014  24.169  26.545  1.00  0.00    +0.000 C 
ATOM     28  F2  UNL A   1      41.504  22.934  26.448  1.00  0.00    +0.000 F 
ATOM     29  C22 UNL A   1      42.913  24.625  25.593  1.00  0.00    +0.000 C 
ATOM     30  F3  UNL A   1      43.259  23.838  24.565  1.00  0.00    +0.000 F 
ATOM     31  C23 UNL A   1      43.463  25.893  25.713  1.00  0.00    +0.000 C 
ATOM     32  F4  UNL A   1      44.325  26.338  24.788  1.00  0.00    +0.000 F 
ENDBRANCH   23   24
BRANCH   40   41
ATOM     41  C30 UNL A   1      44.824  27.946  34.277  1.00  0.00    +0.000 C 
ATOM     42  C31 UNL A   1      45.965  28.762  34.250  1.00  0.00    +0.000 C 
ATOM     43  F6  UNL A   1      46.022  29.814  33.418  1.00  0.00    +0.000 F 
ATOM     44  C32 UNL A   1      47.062  28.482  35.059  1.00  0.00    +0.000 C 
ATOM     45  F7  UNL A   1      48.155  29.254  34.995  1.00  0.00    +0.000 F 
ATOM     46  C33 UNL A   1      47.029  27.400  35.928  1.00  0.00    +0.000 C 
ATOM     47  F8  UNL A   1      48.083  27.139  36.714  1.00  0.00    +0.000 F 
ATOM     48  C34 UNL A   1      45.908  26.586  35.977  1.00  0.00    +0.000 C 
ATOM     49  F9  UNL A   1      45.871  25.547  36.823  1.00  0.00    +0.000 F 
ATOM     50  C35 UNL A   1      44.818  26.849  35.152  1.00  0.00    +0.000 C 
ATOM     51  F10 UNL A   1      43.749  26.044  35.217  1.00  0.00    +0.000 F 
ENDBRANCH   40   41
BRANCH   55   56
ATOM     65  C44 UNL A   1      38.412  31.440  36.378  1.00  0.00    +0.000 C 
ATOM     66  F15 UNL A   1      38.028  30.157  36.303  1.00  0.00    +0.000 F 
ATOM     56  C39 UNL A   1      39.248  31.982  35.393  1.00  0.00    +0.000 C 
ATOM     57  C40 UNL A   1      39.616  33.329  35.513  1.00  0.00    +0.000 C 
ATOM     58  F11 UNL A   1      40.428  33.885  34.604  1.00  0.00    +0.000 F 
ATOM     59  C41 UNL A   1      39.173  34.101  36.585  1.00  0.00    +0.000 C 
ATOM     60  F12 UNL A   1      39.563  35.378  36.694  1.00  0.00    +0.000 F 
ATOM     61  C42 UNL A   1      38.336  33.549  37.542  1.00  0.00    +0.000 C 
ATOM     62  F13 UNL A   1      37.902  34.294  38.568  1.00  0.00    +0.000 F 
ATOM     63  C43 UNL A   1      37.952  32.219  37.438  1.00  0.00    +0.000 C 
ATOM     64  F14 UNL A   1      37.132  31.686  38.354  1.00  0.00    +0.000 F 
ENDBRANCH   55   56
TORSDOF 19
ENDMDL
MODEL 2
REMARK VINA RESULT:     -10.6     17.178     22.149
ROOT
ATOM     19  C15 UNL A   1      25.879  35.731  45.434  1.00  0.00    +0.000 C 
ATOM     20  C16 UNL A   1      27.199  35.700  44.716  1.00  0.00    +0.000 C 
ATOM     21  N3  UNL A   1      28.255  36.453  44.888  1.00  0.00    +0.000 N 
ATOM     22  C17 UNL A   1      29.216  35.955  44.018  1.00  0.00    +0.000 C 
ATOM     23  C18 UNL A   1      30.467  36.419  43.788  1.00  0.00    +0.000 C 
ATOM     35  C25 UNL A   1      31.029  37.579  44.426  1.00  0.00    +0.000 C 
ATOM     36  C26 UNL A   1      32.265  38.166  44.217  1.00  0.00    +0.000 C 
ATOM     37  C27 UNL A   1      32.382  39.257  45.086  1.00  0.00    +0.000 C 
ATOM     38  C28 UNL A   1      31.204  39.373  45.806  1.00  0.00    +0.000 C 
ATOM     39  N4  UNL A   1      30.386  38.333  45.397  1.00  0.00    +0.000 N 
ATOM     40  C29 UNL A   1      30.850  40.360  46.794  1.00  0.00    +0.000 C 
ATOM     52  C36 UNL A   1      29.675  40.402  47.468  1.00  0.00    +0.000 C 
ATOM     53  N5  UNL A   1      28.577  39.558  47.361  1.00  0.00    +0.000 N 
ATOM     54  C37 UNL A   1      27.691  40.010  48.215  1.00  0.00    +0.000 C 
ATOM     55  C38 UNL A   1      26.306  39.498  48.503  1.00  0.00    +0.000 C 
ATOM     67  C45 UNL A   1      25.821  38.467  47.785  1.00  0.00    +0.000 C 
ATOM     68  C46 UNL A   1      24.505  37.858  47.956  1.00  0.00    +0.000 C 
ATOM     69  C47 UNL A   1      24.397  36.806  47.130  1.00  0.00    +0.000 C 
ATOM     70  C48 UNL A   1      25.625  36.690  46.342  1.00  0.00    +0.000 C 
ATOM     71  N6  UNL A   1      26.400  37.737  46.776  1.00  0.00    +0.000 N 
ATOM     72  C49 UNL A   1      28.140  41.177  48.987  1.00  0.00    +0.000 C 
ATOM     73  C50 UNL A   1      29.343  41.394  48.470  1.00  0.00    +0.000 C 
ATOM     74  C51 UNL A   1      28.630  34.813  43.348  1.00  0.00    +0.000 C 
ATOM     75  C52 UNL A   1      27.361  34.658  43.690  1.00  0.00    +0.000 C 
ATOM    111  H21 UNL A   1      32.976  37.855  43.538  1.00  0.00    +0.000 H 
ATOM    112  H22 UNL A   1      33.207  39.870  45.177  1.00  0.00    +0.000 H 
ATOM    113  H23 UNL A   1      29.481  38.154  45.743  1.00  0.00    +0.000 H 
ATOM    114  H24 UNL A   1      23.775  38.185  48.609  1.00  0.00    +0.000 H 
ATOM    115  H25 UNL A   1      23.579  36.180  47.060  1.00  0.00    +0.000 H 
ATOM    116  H26 UNL A   1      27.286  37.944  46.399  1.00  0.00    +0.000 H 
ATOM    117  H27 UNL A   1      27.650  41.693  49.734  1.00  0.00    +0.000 H 
ATOM    118  H28 UNL A   1      29.963  42.171  48.746  1.00  0.00    +0.000 H 
ATOM    119  H29 UNL A   1      29.137  34.200  42.690  1.00  0.00    +0.000 H 
ATOM    120  H30 UNL A   1      26.667  33.983  43.332  1.00  0.00    +0.000 H 
ENDROOT
BRANCH   19   18
ATOM     76  C53 UNL A   1      25.023  33.451  45.940  1.00  0.00    +0.000 C 
ATOM    109  H19 UNL A   1      22.185  33.822  43.397  1.00  0.00    +0.000 H 
ATOM     77  C54 UNL A   1      24.145  32.395  45.721  1.00  0.00    +0.000 C 
ATOM     15  C11 UNL A   1      23.076  32.554  44.834  1.00  0.00    +0.000 C 
ATOM     16  C12 UNL A   1      22.952  33.724  44.081  1.00  0.00    +0.000 C 
ATOM     17  C13 UNL A   1      23.871  34.761  44.256  1.00  0.00    +0.000 C 
ATOM    110  H20 UNL A   1      23.796  35.617  43.685  1.00  0.00    +0.000 H 
ATOM     18  C14 UNL A   1      24.898  34.641  45.206  1.00  0.00    +0.000 C 
ATOM    121  H31 UNL A   1      25.770  33.360  46.645  1.00  0.00    +0.000 H 
ATOM    122  H32 UNL A   1      24.282  31.497  46.211  1.00  0.00    +0.000 H 
BRANCH   15   13
ATOM     13  C10 UNL A   1      22.062  31.490  44.682  1.00  0.00    +0.000 C 
ATOM     14  O2  UNL A   1      22.403  30.311  44.720  1.00  0.00    +0.000 O 
BRANCH   13   12
ATOM    108  H18 UNL A   1      20.471  31.923  43.539  1.00  0.00    +0.000 H 
ATOM     12  N2  UNL A   1      20.748  31.831  44.479  1.00  0.00    +0.000 N 
BRANCH   12   11
ATOM    106  H16 UNL A   1      19.446  31.141  45.924  1.00  0.00    +0.000 H 
ATOM     11  C9  UNL A   1      19.711  32.073  45.469  1.00  0.00    +0.000 C 
ATOM    107  H17 UNL A   1      20.099  32.764  46.187  1.00  0.00    +0.000 H 
BRANCH   11   10
ATOM    105  H15 UNL A   1      18.297  33.617  45.371  1.00  0.00    +0.000 H 
ATOM     10  C8  UNL A   1      18.460  32.692  44.857  1.00  0.00    +0.000 C 
ATOM    104  H14 UNL A   1      17.653  31.998  44.974  1.00  0.00    +0.000 H 
BRANCH   10    9
ATOM      9  C7  UNL A   1      18.577  33.039  43.372  1.00  0.00    +0.000 C 
ATOM    102  H12 UNL A   1      18.049  33.953  43.202  1.00  0.00    +0.000 H 
ATOM    103  H13 UNL A   1      19.624  33.108  43.163  1.00  0.00    +0.000 H 
BRANCH    9    8
ATOM    100  H10 UNL A   1      18.414  32.180  41.439  1.00  0.00    +0.000 H 
ATOM    101  H11 UNL A   1      18.316  31.036  42.813  1.00  0.00    +0.000 H 
ATOM      8  C6  UNL A   1      18.019  31.983  42.415  1.00  0.00    +0.000 C 
BRANCH    8    7
ATOM     98  H8  UNL A   1      16.105  32.896  42.580  1.00  0.00    +0.000 H 
ATOM     99  H9  UNL A   1      16.266  31.670  41.292  1.00  0.00    +0.000 H 
ATOM      7  C5  UNL A   1      16.489  31.937  42.305  1.00  0.00    +0.000 C 
BRANCH    7    6
ATOM     97  H7  UNL A   1      14.814  31.191  43.396  1.00  0.00    +0.000 H 
ATOM      6  C4  UNL A   1      15.817  30.879  43.190  1.00  0.00    +0.000 C 
ATOM     96  H6  UNL A   1      16.370  30.781  44.100  1.00  0.00    +0.000 H 
BRANCH    6    5
ATOM      5  N1  UNL A   1      15.775  29.595  42.517  1.00  0.00    +0.000 N 
ATOM     95  H5  UNL A   1      15.395  29.591  41.609  1.00  0.00    +0.000 H 
BRANCH    5    3
ATOM      3  C3  UNL A   1      16.204  28.388  43.000  1.00  0.00    +0.000 C 
ATOM      4  O1  UNL A   1      17.423  28.217  43.067  1.00  0.00    +0.000 O 
BRANCH    3    2
ATOM      2  C2  UNL A   1      15.169  27.312  43.385  1.00  0.00    +0.000 C 
ATOM     94  H4  UNL A   1      14.212  27.782  43.474  1.00  0.00    +0.000 H 
BRANCH    2    1
ATOM      1  C1  UNL A   1      15.571  26.708  44.737  1.00  0.00    +0.000 C 
ATOM     91  H1  UNL A   1      16.471  26.141  44.621  1.00  0.00    +0.000 H 
ATOM     92  H2  UNL A   1      14.789  26.067  45.087  1.00  0.00    +0.000 H 
ATOM     93  H3  UNL A   1      15.733  27.493  45.444  1.00  0.00    +0.000 H 
ENDBRANCH    2    1
BRANCH    2   78
ATOM    129  H39 UNL A   1      15.094  24.583  43.594  1.00  0.00    +0.000 H 
ATOM     78  C55 UNL A   1      14.955  26.244  42.299  1.00  0.00    +0.000 C 
ATOM     79  C56 UNL A   1      14.833  26.589  40.942  1.00  0.00    +0.000 C 
ATOM     80  C57 UNL A   1      14.589  25.618  39.964  1.00  0.00    +0.000 C 
ATOM     81  C58 UNL A   1      14.480  24.268  40.311  1.00  0.00    +0.000 C 
ATOM     89  C64 UNL A   1      14.683  23.900  41.644  1.00  0.00    +0.000 C 
ATOM     90  C65 UNL A   1      14.929  24.876  42.619  1.00  0.00    +0.000 C 
ATOM    123  H33 UNL A   1      14.924  27.578  40.661  1.00  0.00    +0.000 H 
ATOM    124  H34 UNL A   1      14.488  25.902  38.977  1.00  0.00    +0.000 H 
ATOM    128  H38 UNL A   1      14.651  22.904  41.912  1.00  0.00    +0.000 H 
BRANCH   81   82
ATOM     82  C59 UNL A   1      14.201  23.273  39.225  1.00  0.00    +0.000 C 
ATOM     83  O3  UNL A   1      13.461  22.326  39.488  1.00  0.00    +0.000 O 
BRANCH   82   84
ATOM     84  C60 UNL A   1      14.797  23.462  37.915  1.00  0.00    +0.000 C 
ATOM     85  C61 UNL A   1      14.458  24.348  36.909  1.00  0.00    +0.000 C 
ATOM     86  C62 UNL A   1      15.282  24.193  35.755  1.00  0.00    +0.000 C 
ATOM     87  C63 UNL A   1      16.229  23.208  35.927  1.00  0.00    +0.000 C 
ATOM     88  S1  UNL A   1      16.140  22.495  37.478  1.00  0.00    +0.000 S 
ATOM    125  H35 UNL A   1      13.697  25.041  36.985  1.00  0.00    +0.000 H 
ATOM    126  H36 UNL A   1      15.180  24.752  34.894  1.00  0.00    +0.000 H 
ATOM    127  H37 UNL A   1      16.913  22.933  35.205  1.00  0.00    +0.000 H 
ENDBRANCH   82   84
ENDBRANCH   81   82
ENDBRANCH    2   78
ENDBRANCH    3    2
ENDBRANCH    5    3
ENDBRANCH    6    5
ENDBRANCH    7    6
ENDBRANCH    8    7
ENDBRANCH    9    8
ENDBRANCH   10    9
ENDBRANCH   11   10
ENDBRANCH   12   11
ENDBRANCH   13   12
ENDBRANCH   15   13
ENDBRANCH   19   18
BRANCH   23   24
ATOM     33  C24 UNL A   1      32.073  34.561  43.224  1.00  0.00    +0.000 C 
ATOM     34  F5  UNL A   1      32.050  34.171  44.508  1.00  0.00    +0.000 F 
ATOM     24  C19 UNL A   1      31.312  35.662  42.805  1.00  0.00    +0.000 C 
ATOM     25  C20 UNL A   1      31.378  36.029  41.452  1.00  0.00    +0.000 C 
ATOM     26  F1  UNL A   1      30.657  37.067  40.999  1.00  0.00    +0.000 F 
ATOM     27  C21 UNL A   1      32.145  35.299  40.549  1.00  0.00    +0.000 C 
ATOM     28  F2  UNL A   1      32.147  35.634  39.251  1.00  0.00    +0.000 F 
ATOM     29  C22 UNL A   1      32.891  34.215  40.986  1.00  0.00    +0.000 C 
ATOM     30  F3  UNL A   1      33.629  33.513  40.115  1.00  0.00    +0.000 F 
ATOM     31  C23 UNL A   1      32.864  33.852  42.324  1.00  0.00    +0.000 C 
ATOM     32  F4  UNL A   1      33.592  32.810  42.749  1.00  0.00    +0.000 F 
ENDBRANCH   23   24
BRANCH   40   41
ATOM     41  C30 UNL A   1      31.849  41.440  47.081  1.00  0.00    +0.000 C 
ATOM     42  C31 UNL A   1      33.004  41.192  47.836  1.00  0.00    +0.000 C 
ATOM     43  F6  UNL A   1      33.206  39.983  48.383  1.00  0.00    +0.000 F 
ATOM     44  C32 UNL A   1      33.943  42.195  48.053  1.00  0.00    +0.000 C 
ATOM     45  F7  UNL A   1      35.025  41.948  48.805  1.00  0.00    +0.000 F 
ATOM     46  C33 UNL A   1      33.760  43.454  47.500  1.00  0.00    +0.000 C 
ATOM     47  F8  UNL A   1      34.670  44.416  47.701  1.00  0.00    +0.000 F 
ATOM     48  C34 UNL A   1      32.628  43.718  46.743  1.00  0.00    +0.000 C 
ATOM     49  F9  UNL A   1      32.454  44.931  46.198  1.00  0.00    +0.000 F 
ATOM     50  C35 UNL A   1      31.675  42.724  46.543  1.00  0.00    +0.000 C 
ATOM     51  F10 UNL A   1      30.589  43.008  45.810  1.00  0.00    +0.000 F 
ENDBRANCH   40   41
BRANCH   55   56
ATOM     65  C44 UNL A   1      24.620  41.218  49.236  1.00  0.00    +0.000 C 
ATOM     66  F15 UNL A   1      24.562  41.692  47.983  1.00  0.00    +0.000 F 
ATOM     56  C39 UNL A   1      25.455  40.135  49.540  1.00  0.00    +0.000 C 
ATOM     57  C40 UNL A   1      25.486  39.681  50.866  1.00  0.00    +0.000 C 
ATOM     58  F11 UNL A   1      26.257  38.637  51.198  1.00  0.00    +0.000 F 
ATOM     59  C41 UNL A   1      24.701  40.281  51.848  1.00  0.00    +0.000 C 
ATOM     60  F12 UNL A   1      24.725  39.809  53.102  1.00  0.00    +0.000 F 
ATOM     61  C42 UNL A   1      23.891  41.360  51.529  1.00  0.00    +0.000 C 
ATOM     62  F13 UNL A   1      23.143  41.943  52.475  1.00  0.00    +0.000 F 
ATOM     63  C43 UNL A   1      23.852  41.832  50.225  1.00  0.00    +0.000 C 
ATOM     64  F14 UNL A   1      23.080  42.882  49.915  1.00  0.00    +0.000 F 
ENDBRANCH   55   56
TORSDOF 19
ENDMDL
MODEL 3
REMARK VINA RESULT:     -10.6     33.367     39.509
ROOT
ATOM     19  C15 UNL A   1       7.102   2.687  25.976  1.00  0.00    +0.000 C 
ATOM     20  C16 UNL A   1       6.344   3.831  25.365  1.00  0.00    +0.000 C 
ATOM     21  N3  UNL A   1       6.560   5.118  25.463  1.00  0.00    +0.000 N 
ATOM     22  C17 UNL A   1       5.612   5.721  24.647  1.00  0.00    +0.000 C 
ATOM     23  C18 UNL A   1       5.393   7.042  24.444  1.00  0.00    +0.000 C 
ATOM     35  C25 UNL A   1       6.131   8.093  25.090  1.00  0.00    +0.000 C 
ATOM     36  C26 UNL A   1       5.946   9.462  24.998  1.00  0.00    +0.000 C 
ATOM     37  C27 UNL A   1       6.920  10.088  25.782  1.00  0.00    +0.000 C 
ATOM     38  C28 UNL A   1       7.686   9.108  26.396  1.00  0.00    +0.000 C 
ATOM     39  N4  UNL A   1       7.196   7.890  25.956  1.00  0.00    +0.000 N 
ATOM     40  C29 UNL A   1       8.783   9.272  27.315  1.00  0.00    +0.000 C 
ATOM     52  C36 UNL A   1       9.495   8.260  27.869  1.00  0.00    +0.000 C 
ATOM     53  N5  UNL A   1       9.334   6.891  27.705  1.00  0.00    +0.000 N 
ATOM     54  C37 UNL A   1      10.258   6.329  28.446  1.00  0.00    +0.000 C 
ATOM     55  C38 UNL A   1      10.535   4.867  28.670  1.00  0.00    +0.000 C 
ATOM     67  C45 UNL A   1       9.729   3.949  28.103  1.00  0.00    +0.000 C 
ATOM     68  C46 UNL A   1       9.877   2.501  28.222  1.00  0.00    +0.000 C 
ATOM     69  C47 UNL A   1       8.948   1.902  27.461  1.00  0.00    +0.000 C 
ATOM     70  C48 UNL A   1       8.114   2.925  26.830  1.00  0.00    +0.000 C 
ATOM     71  N6  UNL A   1       8.630   4.109  27.294  1.00  0.00    +0.000 N 
ATOM     72  C49 UNL A   1      11.134   7.283  29.140  1.00  0.00    +0.000 C 
ATOM     73  C50 UNL A   1      10.605   8.446  28.780  1.00  0.00    +0.000 C 
ATOM     74  C51 UNL A   1       4.845   4.659  24.032  1.00  0.00    +0.000 C 
ATOM     75  C52 UNL A   1       5.210   3.475  24.498  1.00  0.00    +0.000 C 
ATOM    111  H21 UNL A   1       5.216   9.938  24.446  1.00  0.00    +0.000 H 
ATOM    112  H22 UNL A   1       7.049  11.106  25.887  1.00  0.00    +0.000 H 
ATOM    113  H23 UNL A   1       7.550   7.009  26.219  1.00  0.00    +0.000 H 
ATOM    114  H24 UNL A   1      10.582   2.017  28.799  1.00  0.00    +0.000 H 
ATOM    115  H25 UNL A   1       8.838   0.882  27.340  1.00  0.00    +0.000 H 
ATOM    116  H26 UNL A   1       8.249   4.989  27.069  1.00  0.00    +0.000 H 
ATOM    117  H27 UNL A   1      11.947   7.099  29.749  1.00  0.00    +0.000 H 
ATOM    118  H28 UNL A   1      10.942   9.364  29.107  1.00  0.00    +0.000 H 
ATOM    119  H29 UNL A   1       4.111   4.807  23.322  1.00  0.00    +0.000 H 
ATOM    120  H30 UNL A   1       4.804   2.546  24.305  1.00  0.00    +0.000 H 
ENDROOT
BRANCH   19   18
ATOM     76  C53 UNL A   1       7.378   0.797  24.382  1.00  0.00    +0.000 C 
ATOM    109  H19 UNL A   1       5.020  -1.424  26.423  1.00  0.00    +0.000 H 
ATOM     77  C54 UNL A   1       7.077  -0.486  23.939  1.00  0.00    +0.000 C 
ATOM     15  C11 UNL A   1       6.261  -1.315  24.716  1.00  0.00    +0.000 C 
ATOM     16  C12 UNL A   1       5.654  -0.822  25.874  1.00  0.00    +0.000 C 
ATOM     17  C13 UNL A   1       5.907   0.488  26.286  1.00  0.00    +0.000 C 
ATOM    110  H20 UNL A   1       5.444   0.862  27.128  1.00  0.00    +0.000 H 
ATOM     18  C14 UNL A   1       6.793   1.298  25.556  1.00  0.00    +0.000 C 
ATOM    121  H31 UNL A   1       8.035   1.385  23.846  1.00  0.00    +0.000 H 
ATOM    122  H32 UNL A   1       7.453  -0.826  23.040  1.00  0.00    +0.000 H 
BRANCH   15   13
ATOM     13  C10 UNL A   1       6.030  -2.721  24.324  1.00  0.00    +0.000 C 
ATOM     14  O2  UNL A   1       4.904  -3.201  24.405  1.00  0.00    +0.000 O 
BRANCH   13   12
ATOM    108  H18 UNL A   1       7.336  -3.370  22.946  1.00  0.00    +0.000 H 
ATOM     12  N2  UNL A   1       7.086  -3.484  23.891  1.00  0.00    +0.000 N 
BRANCH   12   11
ATOM    106  H16 UNL A   1       7.282  -5.295  24.862  1.00  0.00    +0.000 H 
ATOM     11  C9  UNL A   1       7.885  -4.438  24.644  1.00  0.00    +0.000 C 
ATOM    107  H17 UNL A   1       8.733  -4.697  24.046  1.00  0.00    +0.000 H 
BRANCH   11   10
ATOM    105  H15 UNL A   1       8.827  -4.670  26.501  1.00  0.00    +0.000 H 
ATOM     10  C8  UNL A   1       8.399  -3.855  25.955  1.00  0.00    +0.000 C 
ATOM    104  H14 UNL A   1       7.575  -3.396  26.461  1.00  0.00    +0.000 H 
BRANCH   10    9
ATOM      9  C7  UNL A   1       9.505  -2.809  25.801  1.00  0.00    +0.000 C 
ATOM    102  H12 UNL A   1      10.443  -3.292  25.976  1.00  0.00    +0.000 H 
ATOM    103  H13 UNL A   1       9.407  -2.415  24.812  1.00  0.00    +0.000 H 
BRANCH    9    8
ATOM    100  H10 UNL A   1       9.395  -0.721  26.158  1.00  0.00    +0.000 H 
ATOM    101  H11 UNL A   1       8.504  -1.760  27.314  1.00  0.00    +0.000 H 
ATOM      8  C6  UNL A   1       9.402  -1.613  26.750  1.00  0.00    +0.000 C 
BRANCH    8    7
ATOM     98  H8  UNL A   1      10.901  -0.485  27.752  1.00  0.00    +0.000 H 
ATOM     99  H9  UNL A   1      10.112  -1.756  28.727  1.00  0.00    +0.000 H 
ATOM      7  C5  UNL A   1      10.533  -1.489  27.779  1.00  0.00    +0.000 C 
BRANCH    7    6
ATOM     97  H7  UNL A   1      11.408  -3.210  26.870  1.00  0.00    +0.000 H 
ATOM      6  C4  UNL A   1      11.715  -2.439  27.546  1.00  0.00    +0.000 C 
ATOM     96  H6  UNL A   1      12.014  -2.864  28.482  1.00  0.00    +0.000 H 
BRANCH    6    5
ATOM      5  N1  UNL A   1      12.839  -1.731  26.965  1.00  0.00    +0.000 N 
ATOM     95  H5  UNL A   1      13.563  -1.479  27.583  1.00  0.00    +0.000 H 
BRANCH    5    3
ATOM      3  C3  UNL A   1      13.009  -1.371  25.655  1.00  0.00    +0.000 C 
ATOM      4  O1  UNL A   1      12.799  -2.241  24.807  1.00  0.00    +0.000 O 
BRANCH    3    2
ATOM      2  C2  UNL A   1      13.485   0.055  25.314  1.00  0.00    +0.000 C 
ATOM     94  H4  UNL A   1      14.424  -0.015  24.807  1.00  0.00    +0.000 H 
BRANCH    2    1
ATOM      1  C1  UNL A   1      13.668   0.836  26.622  1.00  0.00    +0.000 C 
ATOM     91  H1  UNL A   1      12.749   0.834  27.170  1.00  0.00    +0.000 H 
ATOM     92  H2  UNL A   1      13.946   1.845  26.399  1.00  0.00    +0.000 H 
ATOM     93  H3  UNL A   1      14.434   0.376  27.208  1.00  0.00    +0.000 H 
ENDBRANCH    2    1
BRANCH    2   78
ATOM    129  H39 UNL A   1      11.048   1.244  25.690  1.00  0.00    +0.000 H 
ATOM     78  C55 UNL A   1      12.578   0.786  24.309  1.00  0.00    +0.000 C 
ATOM     79  C56 UNL A   1      12.906   0.867  22.946  1.00  0.00    +0.000 C 
ATOM     80  C57 UNL A   1      12.102   1.575  22.045  1.00  0.00    +0.000 C 
ATOM     81  C58 UNL A   1      10.933   2.208  22.477  1.00  0.00    +0.000 C 
ATOM     89  C64 UNL A   1      10.550   2.065  23.814  1.00  0.00    +0.000 C 
ATOM     90  C65 UNL A   1      11.357   1.353  24.711  1.00  0.00    +0.000 C 
ATOM    123  H33 UNL A   1      13.757   0.395  22.601  1.00  0.00    +0.000 H 
ATOM    124  H34 UNL A   1      12.376   1.631  21.052  1.00  0.00    +0.000 H 
ATOM    128  H38 UNL A   1       9.667   2.487  24.142  1.00  0.00    +0.000 H 
BRANCH   81   82
ATOM     82  C59 UNL A   1      10.119   2.966  21.474  1.00  0.00    +0.000 C 
ATOM     83  O3  UNL A   1      10.670   3.875  20.854  1.00  0.00    +0.000 O 
BRANCH   82   84
ATOM     84  C60 UNL A   1       8.730   2.602  21.261  1.00  0.00    +0.000 C 
ATOM     85  C61 UNL A   1       7.576   3.296  21.574  1.00  0.00    +0.000 C 
ATOM     86  C62 UNL A   1       6.400   2.571  21.221  1.00  0.00    +0.000 C 
ATOM     87  C63 UNL A   1       6.697   1.360  20.636  1.00  0.00    +0.000 C 
ATOM     88  S1  UNL A   1       8.382   1.112  20.492  1.00  0.00    +0.000 S 
ATOM    125  H35 UNL A   1       7.567   4.230  22.013  1.00  0.00    +0.000 H 
ATOM    126  H36 UNL A   1       5.440   2.913  21.384  1.00  0.00    +0.000 H 
ATOM    127  H37 UNL A   1       5.985   0.682  20.322  1.00  0.00    +0.000 H 
ENDBRANCH   82   84
ENDBRANCH   81   82
ENDBRANCH    2   78
ENDBRANCH    3    2
ENDBRANCH    5    3
ENDBRANCH    6    5
ENDBRANCH    7    6
ENDBRANCH    8    7
ENDBRANCH    9    8
ENDBRANCH   10    9
ENDBRANCH   11   10
ENDBRANCH   12   11
ENDBRANCH   13   12
ENDBRANCH   15   13
ENDBRANCH   19   18
BRANCH   23   24
ATOM     33  C24 UNL A   1       4.545   7.367  22.094  1.00  0.00    +0.000 C 
ATOM     34  F5  UNL A   1       5.740   6.978  21.623  1.00  0.00    +0.000 F 
ATOM     24  C19 UNL A   1       4.310   7.417  23.475  1.00  0.00    +0.000 C 
ATOM     25  C20 UNL A   1       3.043   7.837  23.911  1.00  0.00    +0.000 C 
ATOM     26  F1  UNL A   1       2.765   7.889  25.222  1.00  0.00    +0.000 F 
ATOM     27  C21 UNL A   1       2.041   8.156  22.998  1.00  0.00    +0.000 C 
ATOM     28  F2  UNL A   1       0.823   8.499  23.438  1.00  0.00    +0.000 F 
ATOM     29  C22 UNL A   1       2.297   8.101  21.637  1.00  0.00    +0.000 C 
ATOM     30  F3  UNL A   1       1.331   8.407  20.759  1.00  0.00    +0.000 F 
ATOM     31  C23 UNL A   1       3.550   7.716  21.184  1.00  0.00    +0.000 C 
ATOM     32  F4  UNL A   1       3.801   7.672  19.868  1.00  0.00    +0.000 F 
ENDBRANCH   23   24
BRANCH   40   41
ATOM     41  C30 UNL A   1       9.150  10.671  27.711  1.00  0.00    +0.000 C 
ATOM     42  C31 UNL A   1      10.158  11.383  27.047  1.00  0.00    +0.000 C 
ATOM     43  F6  UNL A   1      10.873  10.793  26.076  1.00  0.00    +0.000 F 
ATOM     44  C32 UNL A   1      10.454  12.696  27.399  1.00  0.00    +0.000 C 
ATOM     45  F7  UNL A   1      11.444  13.349  26.774  1.00  0.00    +0.000 F 
ATOM     46  C33 UNL A   1       9.732  13.330  28.399  1.00  0.00    +0.000 C 
ATOM     47  F8  UNL A   1      10.011  14.598  28.729  1.00  0.00    +0.000 F 
ATOM     48  C34 UNL A   1       8.724  12.647  29.063  1.00  0.00    +0.000 C 
ATOM     49  F9  UNL A   1       8.017  13.261  30.022  1.00  0.00    +0.000 F 
ATOM     50  C35 UNL A   1       8.441  11.325  28.730  1.00  0.00    +0.000 C 
ATOM     51  F10 UNL A   1       7.464  10.687  29.391  1.00  0.00    +0.000 F 
ENDBRANCH   40   41
BRANCH   55   56
ATOM     65  C44 UNL A   1      11.593   4.522  30.928  1.00  0.00    +0.000 C 
ATOM     66  F15 UNL A   1      10.489   5.008  31.516  1.00  0.00    +0.000 F 
ATOM     56  C39 UNL A   1      11.659   4.425  29.532  1.00  0.00    +0.000 C 
ATOM     57  C40 UNL A   1      12.837   3.917  28.965  1.00  0.00    +0.000 C 
ATOM     58  F11 UNL A   1      12.938   3.789  27.635  1.00  0.00    +0.000 F 
ATOM     59  C41 UNL A   1      13.902   3.512  29.766  1.00  0.00    +0.000 C 
ATOM     60  F12 UNL A   1      15.005   3.001  29.202  1.00  0.00    +0.000 F 
ATOM     61  C42 UNL A   1      13.820   3.629  31.145  1.00  0.00    +0.000 C 
ATOM     62  F13 UNL A   1      14.848   3.248  31.915  1.00  0.00    +0.000 F 
ATOM     63  C43 UNL A   1      12.668   4.137  31.727  1.00  0.00    +0.000 C 
ATOM     64  F14 UNL A   1      12.590   4.264  33.059  1.00  0.00    +0.000 F 
ENDBRANCH   55   56
TORSDOF 19
ENDMDL
MODEL 4
REMARK VINA RESULT:     -10.6     32.914     39.109
ROOT
ATOM     19  C15 UNL A   1       7.480   2.995  25.798  1.00  0.00    +0.000 C 
ATOM     20  C16 UNL A   1       8.632   3.324  26.703  1.00  0.00    +0.000 C 
ATOM     21  N3  UNL A   1       9.052   4.490  27.123  1.00  0.00    +0.000 N 
ATOM     22  C17 UNL A   1      10.103   4.222  27.990  1.00  0.00    +0.000 C 
ATOM     23  C18 UNL A   1      10.897   5.097  28.650  1.00  0.00    +0.000 C 
ATOM     35  C25 UNL A   1      10.791   6.527  28.538  1.00  0.00    +0.000 C 
ATOM     36  C26 UNL A   1      11.587   7.501  29.117  1.00  0.00    +0.000 C 
ATOM     37  C27 UNL A   1      11.085   8.753  28.745  1.00  0.00    +0.000 C 
ATOM     38  C28 UNL A   1      10.004   8.559  27.901  1.00  0.00    +0.000 C 
ATOM     39  N4  UNL A   1       9.829   7.190  27.789  1.00  0.00    +0.000 N 
ATOM     40  C29 UNL A   1       9.189   9.549  27.245  1.00  0.00    +0.000 C 
ATOM     52  C36 UNL A   1       8.134   9.282  26.437  1.00  0.00    +0.000 C 
ATOM     53  N5  UNL A   1       7.621   8.050  26.053  1.00  0.00    +0.000 N 
ATOM     54  C37 UNL A   1       6.605   8.312  25.267  1.00  0.00    +0.000 C 
ATOM     55  C38 UNL A   1       5.696   7.357  24.543  1.00  0.00    +0.000 C 
ATOM     67  C45 UNL A   1       5.930   6.034  24.624  1.00  0.00    +0.000 C 
ATOM     68  C46 UNL A   1       5.132   4.990  23.985  1.00  0.00    +0.000 C 
ATOM     69  C47 UNL A   1       5.608   3.789  24.352  1.00  0.00    +0.000 C 
ATOM     70  C48 UNL A   1       6.769   3.980  25.221  1.00  0.00    +0.000 C 
ATOM     71  N6  UNL A   1       6.907   5.344  25.300  1.00  0.00    +0.000 N 
ATOM     72  C49 UNL A   1       6.337   9.746  25.090  1.00  0.00    +0.000 C 
ATOM     73  C50 UNL A   1       7.317  10.293  25.798  1.00  0.00    +0.000 C 
ATOM     74  C51 UNL A   1      10.231   2.782  28.067  1.00  0.00    +0.000 C 
ATOM     75  C52 UNL A   1       9.394   2.183  27.234  1.00  0.00    +0.000 C 
ATOM    111  H21 UNL A   1      12.407   7.333  29.719  1.00  0.00    +0.000 H 
ATOM    112  H22 UNL A   1      11.457   9.666  29.048  1.00  0.00    +0.000 H 
ATOM    113  H23 UNL A   1       9.127   6.750  27.256  1.00  0.00    +0.000 H 
ATOM    114  H24 UNL A   1       4.331   5.150  23.355  1.00  0.00    +0.000 H 
ATOM    115  H25 UNL A   1       5.218   2.877  24.065  1.00  0.00    +0.000 H 
ATOM    116  H26 UNL A   1       7.635   5.785  25.795  1.00  0.00    +0.000 H 
ATOM    117  H27 UNL A   1       5.584  10.208  24.555  1.00  0.00    +0.000 H 
ATOM    118  H28 UNL A   1       7.477  11.309  25.883  1.00  0.00    +0.000 H 
ATOM    119  H29 UNL A   1      10.889   2.288  28.690  1.00  0.00    +0.000 H 
ATOM    120  H30 UNL A   1       9.301   1.179  27.015  1.00  0.00    +0.000 H 
ENDROOT
BRANCH   19   18
ATOM     76  C53 UNL A   1       6.269   0.979  26.611  1.00  0.00    +0.000 C 
ATOM    109  H19 UNL A   1       7.351  -1.051  23.550  1.00  0.00    +0.000 H 
ATOM     77  C54 UNL A   1       5.901  -0.357  26.498  1.00  0.00    +0.000 C 
ATOM     15  C11 UNL A   1       6.249  -1.079  25.352  1.00  0.00    +0.000 C 
ATOM     16  C12 UNL A   1       7.062  -0.502  24.375  1.00  0.00    +0.000 C 
ATOM     17  C13 UNL A   1       7.484   0.822  24.518  1.00  0.00    +0.000 C 
ATOM    110  H20 UNL A   1       8.103   1.244  23.809  1.00  0.00    +0.000 H 
ATOM     18  C14 UNL A   1       7.068   1.580  25.625  1.00  0.00    +0.000 C 
ATOM    121  H31 UNL A   1       5.954   1.532  27.422  1.00  0.00    +0.000 H 
ATOM    122  H32 UNL A   1       5.372  -0.815  27.258  1.00  0.00    +0.000 H 
BRANCH   15   13
ATOM     13  C10 UNL A   1       5.761  -2.461  25.159  1.00  0.00    +0.000 C 
ATOM     14  O2  UNL A   1       4.566  -2.668  24.974  1.00  0.00    +0.000 O 
BRANCH   13   12
ATOM    108  H18 UNL A   1       6.518  -4.212  24.535  1.00  0.00    +0.000 H 
ATOM     12  N2  UNL A   1       6.651  -3.505  25.208  1.00  0.00    +0.000 N 
BRANCH   12   11
ATOM    106  H16 UNL A   1       7.767  -2.913  26.840  1.00  0.00    +0.000 H 
ATOM     11  C9  UNL A   1       7.766  -3.706  26.120  1.00  0.00    +0.000 C 
ATOM    107  H17 UNL A   1       7.638  -4.659  26.588  1.00  0.00    +0.000 H 
BRANCH   11   10
ATOM    105  H15 UNL A   1       8.894  -3.851  24.361  1.00  0.00    +0.000 H 
ATOM     10  C8  UNL A   1       9.109  -3.716  25.400  1.00  0.00    +0.000 C 
ATOM    104  H14 UNL A   1       9.702  -4.507  25.813  1.00  0.00    +0.000 H 
BRANCH   10    9
ATOM      9  C7  UNL A   1       9.906  -2.416  25.512  1.00  0.00    +0.000 C 
ATOM    102  H12 UNL A   1      10.939  -2.645  25.351  1.00  0.00    +0.000 H 
ATOM    103  H13 UNL A   1       9.499  -1.752  24.780  1.00  0.00    +0.000 H 
BRANCH    9    8
ATOM    100  H10 UNL A   1       9.728  -0.644  26.665  1.00  0.00    +0.000 H 
ATOM    101  H11 UNL A   1       8.910  -2.094  27.328  1.00  0.00    +0.000 H 
ATOM      8  C6  UNL A   1       9.785  -1.696  26.857  1.00  0.00    +0.000 C 
BRANCH    8    7
ATOM     98  H8  UNL A   1      11.192  -0.999  28.292  1.00  0.00    +0.000 H 
ATOM     99  H9  UNL A   1      10.594  -2.663  28.543  1.00  0.00    +0.000 H 
ATOM      7  C5  UNL A   1      10.941  -1.935  27.839  1.00  0.00    +0.000 C 
BRANCH    7    6
ATOM     97  H7  UNL A   1      11.945  -2.989  26.280  1.00  0.00    +0.000 H 
ATOM      6  C4  UNL A   1      12.210  -2.516  27.202  1.00  0.00    +0.000 C 
ATOM     96  H6  UNL A   1      12.645  -3.226  27.873  1.00  0.00    +0.000 H 
BRANCH    6    5
ATOM      5  N1  UNL A   1      13.174  -1.468  26.927  1.00  0.00    +0.000 N 
ATOM     95  H5  UNL A   1      13.505  -0.964  27.705  1.00  0.00    +0.000 H 
BRANCH    5    3
ATOM      3  C3  UNL A   1      13.677  -1.099  25.709  1.00  0.00    +0.000 C 
ATOM      4  O1  UNL A   1      14.019  -2.007  24.949  1.00  0.00    +0.000 O 
BRANCH    3    2
ATOM      2  C2  UNL A   1      13.829   0.399  25.371  1.00  0.00    +0.000 C 
ATOM     94  H4  UNL A   1      14.807   0.556  24.968  1.00  0.00    +0.000 H 
BRANCH    2    1
ATOM      1  C1  UNL A   1      13.671   1.210  26.663  1.00  0.00    +0.000 C 
ATOM     91  H1  UNL A   1      12.782   0.901  27.173  1.00  0.00    +0.000 H 
ATOM     92  H2  UNL A   1      13.600   2.251  26.425  1.00  0.00    +0.000 H 
ATOM     93  H3  UNL A   1      14.518   1.045  27.294  1.00  0.00    +0.000 H 
ENDBRANCH    2    1
BRANCH    2   78
ATOM    129  H39 UNL A   1      14.353   0.912  22.733  1.00  0.00    +0.000 H 
ATOM     78  C55 UNL A   1      12.888   0.878  24.252  1.00  0.00    +0.000 C 
ATOM     79  C56 UNL A   1      11.544   1.198  24.509  1.00  0.00    +0.000 C 
ATOM     80  C57 UNL A   1      10.679   1.586  23.479  1.00  0.00    +0.000 C 
ATOM     81  C58 UNL A   1      11.138   1.684  22.162  1.00  0.00    +0.000 C 
ATOM     89  C64 UNL A   1      12.491   1.449  21.905  1.00  0.00    +0.000 C 
ATOM     90  C65 UNL A   1      13.353   1.063  22.940  1.00  0.00    +0.000 C 
ATOM    123  H33 UNL A   1      11.187   1.148  25.476  1.00  0.00    +0.000 H 
ATOM    124  H34 UNL A   1       9.693   1.801  23.694  1.00  0.00    +0.000 H 
ATOM    128  H38 UNL A   1      12.858   1.560  20.946  1.00  0.00    +0.000 H 
BRANCH   81   82
ATOM     82  C59 UNL A   1      10.164   2.086  21.096  1.00  0.00    +0.000 C 
ATOM     83  O3  UNL A   1      10.046   1.351  20.116  1.00  0.00    +0.000 O 
BRANCH   82   84
ATOM     84  C60 UNL A   1       9.396   3.308  21.257  1.00  0.00    +0.000 C 
ATOM     85  C61 UNL A   1       9.408   4.230  22.286  1.00  0.00    +0.000 C 
ATOM     86  C62 UNL A   1       8.473   5.286  22.073  1.00  0.00    +0.000 C 
ATOM     87  C63 UNL A   1       7.795   5.142  20.883  1.00  0.00    +0.000 C 
ATOM     88  S1  UNL A   1       8.302   3.756  20.019  1.00  0.00    +0.000 S 
ATOM    125  H35 UNL A   1      10.021   4.162  23.113  1.00  0.00    +0.000 H 
ATOM    126  H36 UNL A   1       8.323   6.066  22.732  1.00  0.00    +0.000 H 
ATOM    127  H37 UNL A   1       7.067   5.794  20.552  1.00  0.00    +0.000 H 
ENDBRANCH   82   84
ENDBRANCH   81   82
ENDBRANCH    2   78
ENDBRANCH    3    2
ENDBRANCH    5    3
ENDBRANCH    6    5
ENDBRANCH    7    6
ENDBRANCH    8    7
ENDBRANCH    9    8
ENDBRANCH   10    9
ENDBRANCH   11   10
ENDBRANCH   12   11
ENDBRANCH   13   12
ENDBRANCH   15   13
ENDBRANCH   19   18
BRANCH   23   24
ATOM     33  C24 UNL A   1      13.170   4.081  29.034  1.00  0.00    +0.000 C 
ATOM     34  F5  UNL A   1      13.416   4.167  27.717  1.00  0.00    +0.000 F 
ATOM     24  C19 UNL A   1      11.948   4.525  29.557  1.00  0.00    +0.000 C 
ATOM     25  C20 UNL A   1      11.742   4.406  30.940  1.00  0.00    +0.000 C 
ATOM     26  F1  UNL A   1      10.594   4.830  31.490  1.00  0.00    +0.000 F 
ATOM     27  C21 UNL A   1      12.738   3.899  31.770  1.00  0.00    +0.000 C 
ATOM     28  F2  UNL A   1      12.540   3.848  33.095  1.00  0.00    +0.000 F 
ATOM     29  C22 UNL A   1      13.938   3.464  31.232  1.00  0.00    +0.000 C 
ATOM     30  F3  UNL A   1      14.896   2.976  32.032  1.00  0.00    +0.000 F 
ATOM     31  C23 UNL A   1      14.152   3.545  29.864  1.00  0.00    +0.000 C 
ATOM     32  F4  UNL A   1      15.309   3.116  29.341  1.00  0.00    +0.000 F 
ENDBRANCH   23   24
BRANCH   40   41
ATOM     41  C30 UNL A   1       9.552  10.989  27.450  1.00  0.00    +0.000 C 
ATOM     42  C31 UNL A   1       8.888  11.788  28.392  1.00  0.00    +0.000 C 
ATOM     43  F6  UNL A   1       7.854  11.292  29.088  1.00  0.00    +0.000 F 
ATOM     44  C32 UNL A   1       9.270  13.110  28.602  1.00  0.00    +0.000 C 
ATOM     45  F7  UNL A   1       8.602  13.867  29.483  1.00  0.00    +0.000 F 
ATOM     46  C33 UNL A   1      10.335  13.649  27.896  1.00  0.00    +0.000 C 
ATOM     47  F8  UNL A   1      10.708  14.918  28.106  1.00  0.00    +0.000 F 
ATOM     48  C34 UNL A   1      11.011  12.873  26.965  1.00  0.00    +0.000 C 
ATOM     49  F9  UNL A   1      12.048  13.388  26.290  1.00  0.00    +0.000 F 
ATOM     50  C35 UNL A   1      10.618  11.558  26.736  1.00  0.00    +0.000 C 
ATOM     51  F10 UNL A   1      11.286  10.832  25.828  1.00  0.00    +0.000 F 
ENDBRANCH   40   41
BRANCH   55   56
ATOM     65  C44 UNL A   1       3.322   8.152  24.278  1.00  0.00    +0.000 C 
ATOM     66  F15 UNL A   1       3.130   8.007  25.598  1.00  0.00    +0.000 F 
ATOM     56  C39 UNL A   1       4.569   7.854  23.714  1.00  0.00    +0.000 C 
ATOM     57  C40 UNL A   1       4.717   8.015  22.329  1.00  0.00    +0.000 C 
ATOM     58  F11 UNL A   1       5.898   7.759  21.748  1.00  0.00    +0.000 F 
ATOM     59  C41 UNL A   1       3.661   8.469  21.542  1.00  0.00    +0.000 C 
ATOM     60  F12 UNL A   1       3.837   8.644  20.225  1.00  0.00    +0.000 F 
ATOM     61  C42 UNL A   1       2.432   8.746  22.119  1.00  0.00    +0.000 C 
ATOM     62  F13 UNL A   1       1.413   9.172  21.361  1.00  0.00    +0.000 F 
ATOM     63  C43 UNL A   1       2.259   8.584  23.487  1.00  0.00    +0.000 C 
ATOM     64  F14 UNL A   1       1.069   8.838  24.046  1.00  0.00    +0.000 F 
ENDBRANCH   55   56
TORSDOF 19
ENDMDL
MODEL 5
REMARK VINA RESULT:     -10.6     37.224     42.423
ROOT
ATOM     19  C15 UNL A   1      13.863  53.494   5.405  1.00  0.00    +0.000 C 
ATOM     20  C16 UNL A   1      14.816  53.970   4.346  1.00  0.00    +0.000 C 
ATOM     21  N3  UNL A   1      15.275  53.337   3.297  1.00  0.00    +0.000 N 
ATOM     22  C17 UNL A   1      16.062  54.258   2.618  1.00  0.00    +0.000 C 
ATOM     23  C18 UNL A   1      16.793  54.075   1.493  1.00  0.00    +0.000 C 
ATOM     35  C25 UNL A   1      16.896  52.825   0.790  1.00  0.00    +0.000 C 
ATOM     36  C26 UNL A   1      17.658  52.521  -0.324  1.00  0.00    +0.000 C 
ATOM     37  C27 UNL A   1      17.415  51.187  -0.669  1.00  0.00    +0.000 C 
ATOM     38  C28 UNL A   1      16.534  50.649   0.256  1.00  0.00    +0.000 C 
ATOM     39  N4  UNL A   1      16.218  51.666   1.140  1.00  0.00    +0.000 N 
ATOM     40  C29 UNL A   1      16.019  49.305   0.327  1.00  0.00    +0.000 C 
ATOM     52  C36 UNL A   1      15.146  48.853   1.260  1.00  0.00    +0.000 C 
ATOM     53  N5  UNL A   1      14.581  49.536   2.329  1.00  0.00    +0.000 N 
ATOM     54  C37 UNL A   1      13.808  48.672   2.940  1.00  0.00    +0.000 C 
ATOM     55  C38 UNL A   1      12.971  48.859   4.177  1.00  0.00    +0.000 C 
ATOM     67  C45 UNL A   1      13.012  50.035   4.830  1.00  0.00    +0.000 C 
ATOM     68  C46 UNL A   1      12.252  50.365   6.033  1.00  0.00    +0.000 C 
ATOM     69  C47 UNL A   1      12.478  51.648   6.356  1.00  0.00    +0.000 C 
ATOM     70  C48 UNL A   1      13.430  52.220   5.404  1.00  0.00    +0.000 C 
ATOM     71  N6  UNL A   1      13.717  51.181   4.554  1.00  0.00    +0.000 N 
ATOM     72  C49 UNL A   1      13.769  47.347   2.307  1.00  0.00    +0.000 C 
ATOM     73  C50 UNL A   1      14.627  47.502   1.306  1.00  0.00    +0.000 C 
ATOM     74  C51 UNL A   1      15.987  55.502   3.353  1.00  0.00    +0.000 C 
ATOM     75  C52 UNL A   1      15.289  55.357   4.469  1.00  0.00    +0.000 C 
ATOM    111  H21 UNL A   1      18.296  53.166  -0.817  1.00  0.00    +0.000 H 
ATOM    112  H22 UNL A   1      17.822  50.688  -1.475  1.00  0.00    +0.000 H 
ATOM    113  H23 UNL A   1      15.603  51.581   1.905  1.00  0.00    +0.000 H 
ATOM    114  H24 UNL A   1      11.639  49.716   6.550  1.00  0.00    +0.000 H 
ATOM    115  H25 UNL A   1      12.049  52.151   7.150  1.00  0.00    +0.000 H 
ATOM    116  H26 UNL A   1      14.366  51.251   3.816  1.00  0.00    +0.000 H 
ATOM    117  H27 UNL A   1      13.220  46.514   2.571  1.00  0.00    +0.000 H 
ATOM    118  H28 UNL A   1      14.891  46.754   0.646  1.00  0.00    +0.000 H 
ATOM    119  H29 UNL A   1      16.421  56.387   3.047  1.00  0.00    +0.000 H 
ATOM    120  H30 UNL A   1      15.121  56.039   5.225  1.00  0.00    +0.000 H 
ENDROOT
BRANCH   19   18
ATOM     76  C53 UNL A   1      13.983  54.610   7.625  1.00  0.00    +0.000 C 
ATOM    109  H19 UNL A   1      10.853  56.687   6.884  1.00  0.00    +0.000 H 
ATOM     77  C54 UNL A   1      13.482  55.479   8.589  1.00  0.00    +0.000 C 
ATOM     15  C11 UNL A   1      12.373  56.277   8.294  1.00  0.00    +0.000 C 
ATOM     16  C12 UNL A   1      11.695  56.124   7.082  1.00  0.00    +0.000 C 
ATOM     17  C13 UNL A   1      12.162  55.206   6.138  1.00  0.00    +0.000 C 
ATOM    110  H20 UNL A   1      11.652  55.075   5.251  1.00  0.00    +0.000 H 
ATOM     18  C14 UNL A   1      13.325  54.462   6.393  1.00  0.00    +0.000 C 
ATOM    121  H31 UNL A   1      14.842  54.072   7.815  1.00  0.00    +0.000 H 
ATOM    122  H32 UNL A   1      13.927  55.533   9.519  1.00  0.00    +0.000 H 
BRANCH   15   13
ATOM     13  C10 UNL A   1      11.902  57.293   9.258  1.00  0.00    +0.000 C 
ATOM     14  O2  UNL A   1      12.062  58.486   9.016  1.00  0.00    +0.000 O 
BRANCH   13   12
ATOM    108  H18 UNL A   1      11.657  57.305  11.250  1.00  0.00    +0.000 H 
ATOM     12  N2  UNL A   1      11.306  56.891  10.428  1.00  0.00    +0.000 N 
BRANCH   12   11
ATOM    106  H16 UNL A   1       9.698  56.186  11.512  1.00  0.00    +0.000 H 
ATOM     11  C9  UNL A   1      10.226  55.937  10.614  1.00  0.00    +0.000 C 
ATOM    107  H17 UNL A   1       9.588  55.994   9.757  1.00  0.00    +0.000 H 
BRANCH   11   10
ATOM    105  H15 UNL A   1      11.623  54.542  11.315  1.00  0.00    +0.000 H 
ATOM     10  C8  UNL A   1      10.732  54.503  10.724  1.00  0.00    +0.000 C 
ATOM    104  H14 UNL A   1      10.899  54.132   9.734  1.00  0.00    +0.000 H 
BRANCH   10    9
ATOM      9  C7  UNL A   1       9.780  53.541  11.438  1.00  0.00    +0.000 C 
ATOM    102  H12 UNL A   1       9.015  54.121  11.909  1.00  0.00    +0.000 H 
ATOM    103  H13 UNL A   1       9.409  52.877  10.686  1.00  0.00    +0.000 H 
BRANCH    9    8
ATOM    100  H10 UNL A   1      11.064  53.280  13.107  1.00  0.00    +0.000 H 
ATOM    101  H11 UNL A   1       9.628  52.212  13.050  1.00  0.00    +0.000 H 
ATOM      8  C6  UNL A   1      10.432  52.659  12.505  1.00  0.00    +0.000 C 
BRANCH    8    7
ATOM     98  H8  UNL A   1      10.623  50.770  11.547  1.00  0.00    +0.000 H 
ATOM     99  H9  UNL A   1      11.956  51.921  11.255  1.00  0.00    +0.000 H 
ATOM      7  C5  UNL A   1      11.282  51.498  11.971  1.00  0.00    +0.000 C 
BRANCH    7    6
ATOM     97  H7  UNL A   1      12.707  50.022  12.554  1.00  0.00    +0.000 H 
ATOM      6  C4  UNL A   1      12.149  50.803  13.028  1.00  0.00    +0.000 C 
ATOM     96  H6  UNL A   1      11.516  50.397  13.790  1.00  0.00    +0.000 H 
BRANCH    6    5
ATOM      5  N1  UNL A   1      13.078  51.739  13.630  1.00  0.00    +0.000 N 
ATOM     95  H5  UNL A   1      12.681  52.466  14.163  1.00  0.00    +0.000 H 
BRANCH    5    3
ATOM      3  C3  UNL A   1      14.444  51.730  13.542  1.00  0.00    +0.000 C 
ATOM      4  O1  UNL A   1      15.056  51.152  14.442  1.00  0.00    +0.000 O 
BRANCH    3    2
ATOM      2  C2  UNL A   1      15.136  52.462  12.374  1.00  0.00    +0.000 C 
ATOM     94  H4  UNL A   1      16.106  52.774  12.699  1.00  0.00    +0.000 H 
BRANCH    2    1
ATOM      1  C1  UNL A   1      14.299  53.694  12.005  1.00  0.00    +0.000 C 
ATOM     91  H1  UNL A   1      14.918  54.567  12.032  1.00  0.00    +0.000 H 
ATOM     92  H2  UNL A   1      13.498  53.804  12.704  1.00  0.00    +0.000 H 
ATOM     93  H3  UNL A   1      13.900  53.572  11.020  1.00  0.00    +0.000 H 
ENDBRANCH    2    1
BRANCH    2   78
ATOM    129  H39 UNL A   1      17.199  50.715  11.939  1.00  0.00    +0.000 H 
ATOM     78  C55 UNL A   1      15.426  51.558  11.164  1.00  0.00    +0.000 C 
ATOM     79  C56 UNL A   1      14.620  51.589  10.014  1.00  0.00    +0.000 C 
ATOM     80  C57 UNL A   1      14.858  50.729   8.935  1.00  0.00    +0.000 C 
ATOM     81  C58 UNL A   1      15.923  49.825   8.966  1.00  0.00    +0.000 C 
ATOM     89  C64 UNL A   1      16.783  49.841  10.067  1.00  0.00    +0.000 C 
ATOM     90  C65 UNL A   1      16.542  50.705  11.143  1.00  0.00    +0.000 C 
ATOM    123  H33 UNL A   1      13.836  52.259   9.962  1.00  0.00    +0.000 H 
ATOM    124  H34 UNL A   1      14.240  50.763   8.109  1.00  0.00    +0.000 H 
ATOM    128  H38 UNL A   1      17.601  49.211  10.088  1.00  0.00    +0.000 H 
BRANCH   81   82
ATOM     82  C59 UNL A   1      16.121  48.916   7.791  1.00  0.00    +0.000 C 
ATOM     83  O3  UNL A   1      15.896  47.716   7.946  1.00  0.00    +0.000 O 
BRANCH   82   84
ATOM     84  C60 UNL A   1      16.556  49.474   6.523  1.00  0.00    +0.000 C 
ATOM     85  C61 UNL A   1      16.857  50.782   6.190  1.00  0.00    +0.000 C 
ATOM     86  C62 UNL A   1      17.221  50.917   4.818  1.00  0.00    +0.000 C 
ATOM     87  C63 UNL A   1      17.203  49.708   4.158  1.00  0.00    +0.000 C 
ATOM     88  S1  UNL A   1      16.773  48.418   5.194  1.00  0.00    +0.000 S 
ATOM    125  H35 UNL A   1      16.821  51.569   6.856  1.00  0.00    +0.000 H 
ATOM    126  H36 UNL A   1      17.470  51.814   4.372  1.00  0.00    +0.000 H 
ATOM    127  H37 UNL A   1      17.423  49.595   3.157  1.00  0.00    +0.000 H 
ENDBRANCH   82   84
ENDBRANCH   81   82
ENDBRANCH    2   78
ENDBRANCH    3    2
ENDBRANCH    5    3
ENDBRANCH    6    5
ENDBRANCH    7    6
ENDBRANCH    8    7
ENDBRANCH    9    8
ENDBRANCH   10    9
ENDBRANCH   11   10
ENDBRANCH   12   11
ENDBRANCH   13   12
ENDBRANCH   15   13
ENDBRANCH   19   18
BRANCH   23   24
ATOM     33  C24 UNL A   1      18.780  55.625   1.484  1.00  0.00    +0.000 C 
ATOM     34  F5  UNL A   1      19.327  54.907   2.477  1.00  0.00    +0.000 F 
ATOM     24  C19 UNL A   1      17.533  55.264   0.953  1.00  0.00    +0.000 C 
ATOM     25  C20 UNL A   1      17.006  56.054  -0.080  1.00  0.00    +0.000 C 
ATOM     26  F1  UNL A   1      15.822  55.743  -0.630  1.00  0.00    +0.000 F 
ATOM     27  C21 UNL A   1      17.718  57.137  -0.588  1.00  0.00    +0.000 C 
ATOM     28  F2  UNL A   1      17.220  57.842  -1.614  1.00  0.00    +0.000 F 
ATOM     29  C22 UNL A   1      18.948  57.476  -0.047  1.00  0.00    +0.000 C 
ATOM     30  F3  UNL A   1      19.633  58.519  -0.537  1.00  0.00    +0.000 F 
ATOM     31  C23 UNL A   1      19.476  56.727   0.994  1.00  0.00    +0.000 C 
ATOM     32  F4  UNL A   1      20.661  57.060   1.524  1.00  0.00    +0.000 F 
ENDBRANCH   23   24
BRANCH   40   41
ATOM     41  C30 UNL A   1      16.506  48.323  -0.695  1.00  0.00    +0.000 C 
ATOM     42  C31 UNL A   1      15.721  47.961  -1.800  1.00  0.00    +0.000 C 
ATOM     43  F6  UNL A   1      14.474  48.440  -1.928  1.00  0.00    +0.000 F 
ATOM     44  C32 UNL A   1      16.208  47.082  -2.763  1.00  0.00    +0.000 C 
ATOM     45  F7  UNL A   1      15.431  46.723  -3.794  1.00  0.00    +0.000 F 
ATOM     46  C33 UNL A   1      17.493  46.572  -2.655  1.00  0.00    +0.000 C 
ATOM     47  F8  UNL A   1      17.964  45.734  -3.589  1.00  0.00    +0.000 F 
ATOM     48  C34 UNL A   1      18.289  46.923  -1.575  1.00  0.00    +0.000 C 
ATOM     49  F9  UNL A   1      19.535  46.440  -1.475  1.00  0.00    +0.000 F 
ATOM     50  C35 UNL A   1      17.797  47.783  -0.597  1.00  0.00    +0.000 C 
ATOM     51  F10 UNL A   1      18.586  48.103   0.438  1.00  0.00    +0.000 F 
ENDBRANCH   40   41
BRANCH   55   56
ATOM     65  C44 UNL A   1      10.774  47.644   4.370  1.00  0.00    +0.000 C 
ATOM     66  F15 UNL A   1      10.211  48.537   3.542  1.00  0.00    +0.000 F 
ATOM     56  C39 UNL A   1      12.130  47.755   4.704  1.00  0.00    +0.000 C 
ATOM     57  C40 UNL A   1      12.669  46.800   5.578  1.00  0.00    +0.000 C 
ATOM     58  F11 UNL A   1      13.966  46.856   5.912  1.00  0.00    +0.000 F 
ATOM     59  C41 UNL A   1      11.884  45.768   6.088  1.00  0.00    +0.000 C 
ATOM     60  F12 UNL A   1      12.431  44.851   6.897  1.00  0.00    +0.000 F 
ATOM     61  C42 UNL A   1      10.541  45.686   5.754  1.00  0.00    +0.000 C 
ATOM     62  F13 UNL A   1       9.784  44.699   6.252  1.00  0.00    +0.000 F 
ATOM     63  C43 UNL A   1       9.984  46.625   4.898  1.00  0.00    +0.000 C 
ATOM     64  F14 UNL A   1       8.683  46.556   4.583  1.00  0.00    +0.000 F 
ENDBRANCH   55   56
TORSDOF 19
ENDMDL
MODEL 6
REMARK VINA RESULT:     -10.5     19.752     25.834
ROOT
ATOM     19  C15 UNL A   1      52.972  20.387  11.581  1.00  0.00    +0.000 C 
ATOM     20  C16 UNL A   1      52.770  20.920  12.971  1.00  0.00    +0.000 C 
ATOM     21  N3  UNL A   1      53.621  21.002  13.961  1.00  0.00    +0.000 N 
ATOM     22  C17 UNL A   1      52.940  21.637  14.991  1.00  0.00    +0.000 C 
ATOM     23  C18 UNL A   1      53.372  21.916  16.243  1.00  0.00    +0.000 C 
ATOM     35  C25 UNL A   1      54.673  21.563  16.746  1.00  0.00    +0.000 C 
ATOM     36  C26 UNL A   1      55.186  21.746  18.018  1.00  0.00    +0.000 C 
ATOM     37  C27 UNL A   1      56.502  21.270  18.031  1.00  0.00    +0.000 C 
ATOM     38  C28 UNL A   1      56.793  20.752  16.779  1.00  0.00    +0.000 C 
ATOM     39  N4  UNL A   1      55.665  20.945  15.999  1.00  0.00    +0.000 N 
ATOM     40  C29 UNL A   1      58.010  20.127  16.328  1.00  0.00    +0.000 C 
ATOM     52  C36 UNL A   1      58.226  19.652  15.077  1.00  0.00    +0.000 C 
ATOM     53  N5  UNL A   1      57.363  19.637  13.989  1.00  0.00    +0.000 N 
ATOM     54  C37 UNL A   1      58.028  19.074  13.010  1.00  0.00    +0.000 C 
ATOM     55  C38 UNL A   1      57.575  18.774  11.607  1.00  0.00    +0.000 C 
ATOM     67  C45 UNL A   1      56.306  19.048  11.250  1.00  0.00    +0.000 C 
ATOM     68  C46 UNL A   1      55.728  18.822   9.928  1.00  0.00    +0.000 C 
ATOM     69  C47 UNL A   1      54.469  19.289   9.914  1.00  0.00    +0.000 C 
ATOM     70  C48 UNL A   1      54.140  19.813  11.239  1.00  0.00    +0.000 C 
ATOM     71  N6  UNL A   1      55.278  19.598  11.976  1.00  0.00    +0.000 N 
ATOM     72  C49 UNL A   1      59.404  18.695  13.357  1.00  0.00    +0.000 C 
ATOM     73  C50 UNL A   1      59.463  19.040  14.638  1.00  0.00    +0.000 C 
ATOM     74  C51 UNL A   1      51.618  21.953  14.492  1.00  0.00    +0.000 C 
ATOM     75  C52 UNL A   1      51.438  21.466  13.274  1.00  0.00    +0.000 C 
ATOM    111  H21 UNL A   1      54.686  22.162  18.819  1.00  0.00    +0.000 H 
ATOM    112  H22 UNL A   1      57.146  21.300  18.836  1.00  0.00    +0.000 H 
ATOM    113  H23 UNL A   1      55.579  20.683  15.053  1.00  0.00    +0.000 H 
ATOM    114  H24 UNL A   1      56.211  18.376   9.132  1.00  0.00    +0.000 H 
ATOM    115  H25 UNL A   1      53.836  19.280   9.099  1.00  0.00    +0.000 H 
ATOM    116  H26 UNL A   1      55.350  19.818  12.933  1.00  0.00    +0.000 H 
ATOM    117  H27 UNL A   1      60.134  18.272  12.763  1.00  0.00    +0.000 H 
ATOM    118  H28 UNL A   1      60.285  18.891  15.243  1.00  0.00    +0.000 H 
ATOM    119  H29 UNL A   1      50.909  22.489  15.018  1.00  0.00    +0.000 H 
ATOM    120  H30 UNL A   1      50.586  21.469  12.691  1.00  0.00    +0.000 H 
ENDROOT
BRANCH   19   18
ATOM     76  C53 UNL A   1      51.004  19.543  10.316  1.00  0.00    +0.000 C 
ATOM    109  H19 UNL A   1      50.713  22.816   8.350  1.00  0.00    +0.000 H 
ATOM     77  C54 UNL A   1      50.024  19.680   9.338  1.00  0.00    +0.000 C 
ATOM     15  C11 UNL A   1      49.885  20.897   8.662  1.00  0.00    +0.000 C 
ATOM     16  C12 UNL A   1      50.795  21.934   8.881  1.00  0.00    +0.000 C 
ATOM     17  C13 UNL A   1      51.817  21.772   9.819  1.00  0.00    +0.000 C 
ATOM    110  H20 UNL A   1      52.504  22.528   9.966  1.00  0.00    +0.000 H 
ATOM     18  C14 UNL A   1      51.912  20.585  10.561  1.00  0.00    +0.000 C 
ATOM    121  H31 UNL A   1      51.063  18.671  10.863  1.00  0.00    +0.000 H 
ATOM    122  H32 UNL A   1      49.403  18.888   9.111  1.00  0.00    +0.000 H 
BRANCH   15   13
ATOM     13  C10 UNL A   1      48.774  21.103   7.710  1.00  0.00    +0.000 C 
ATOM     14  O2  UNL A   1      48.142  22.155   7.725  1.00  0.00    +0.000 O 
BRANCH   13   12
ATOM    108  H18 UNL A   1      47.582  19.657   6.991  1.00  0.00    +0.000 H 
ATOM     12  N2  UNL A   1      48.445  20.104   6.828  1.00  0.00    +0.000 N 
BRANCH   12   11
ATOM    106  H16 UNL A   1      48.656  19.848   4.791  1.00  0.00    +0.000 H 
ATOM     11  C9  UNL A   1      49.200  19.619   5.684  1.00  0.00    +0.000 C 
ATOM    107  H17 UNL A   1      50.155  20.100   5.695  1.00  0.00    +0.000 H 
BRANCH   11   10
ATOM    105  H15 UNL A   1      50.363  17.973   6.258  1.00  0.00    +0.000 H 
ATOM     10  C8  UNL A   1      49.436  18.114   5.742  1.00  0.00    +0.000 C 
ATOM    104  H14 UNL A   1      49.451  17.740   4.739  1.00  0.00    +0.000 H 
BRANCH   10    9
ATOM      9  C7  UNL A   1      48.382  17.330   6.525  1.00  0.00    +0.000 C 
ATOM    102  H12 UNL A   1      48.887  16.726   7.249  1.00  0.00    +0.000 H 
ATOM    103  H13 UNL A   1      47.730  18.058   6.960  1.00  0.00    +0.000 H 
BRANCH    9    8
ATOM    100  H10 UNL A   1      48.005  16.219   4.758  1.00  0.00    +0.000 H 
ATOM    101  H11 UNL A   1      47.327  15.537   6.269  1.00  0.00    +0.000 H 
ATOM      8  C6  UNL A   1      47.495  16.414   5.679  1.00  0.00    +0.000 C 
BRANCH    8    7
ATOM     98  H8  UNL A   1      45.480  16.154   5.047  1.00  0.00    +0.000 H 
ATOM     99  H9  UNL A   1      45.757  17.471   6.222  1.00  0.00    +0.000 H 
ATOM      7  C5  UNL A   1      46.105  16.971   5.341  1.00  0.00    +0.000 C 
BRANCH    7    6
ATOM     97  H7  UNL A   1      46.519  17.577   3.338  1.00  0.00    +0.000 H 
ATOM      6  C4  UNL A   1      46.092  18.014   4.216  1.00  0.00    +0.000 C 
ATOM     96  H6  UNL A   1      46.661  18.867   4.521  1.00  0.00    +0.000 H 
BRANCH    6    5
ATOM      5  N1  UNL A   1      44.735  18.429   3.915  1.00  0.00    +0.000 N 
ATOM     95  H5  UNL A   1      44.020  17.804   4.173  1.00  0.00    +0.000 H 
BRANCH    5    3
ATOM      3  C3  UNL A   1      44.334  19.592   3.314  1.00  0.00    +0.000 C 
ATOM      4  O1  UNL A   1      44.478  20.631   3.960  1.00  0.00    +0.000 O 
BRANCH    3    2
ATOM      2  C2  UNL A   1      43.698  19.542   1.910  1.00  0.00    +0.000 C 
ATOM     94  H4  UNL A   1      43.790  18.544   1.533  1.00  0.00    +0.000 H 
BRANCH    2    1
ATOM      1  C1  UNL A   1      44.461  20.506   0.992  1.00  0.00    +0.000 C 
ATOM     91  H1  UNL A   1      45.296  20.000   0.556  1.00  0.00    +0.000 H 
ATOM     92  H2  UNL A   1      44.809  21.341   1.563  1.00  0.00    +0.000 H 
ATOM     93  H3  UNL A   1      43.810  20.851   0.217  1.00  0.00    +0.000 H 
ENDBRANCH    2    1
BRANCH    2   78
ATOM    129  H39 UNL A   1      41.678  18.135   3.108  1.00  0.00    +0.000 H 
ATOM     78  C55 UNL A   1      42.182  19.798   1.909  1.00  0.00    +0.000 C 
ATOM     79  C56 UNL A   1      41.613  20.844   1.164  1.00  0.00    +0.000 C 
ATOM     80  C57 UNL A   1      40.239  21.104   1.206  1.00  0.00    +0.000 C 
ATOM     81  C58 UNL A   1      39.386  20.312   1.981  1.00  0.00    +0.000 C 
ATOM     89  C64 UNL A   1      39.925  19.216   2.661  1.00  0.00    +0.000 C 
ATOM     90  C65 UNL A   1      41.302  18.959   2.614  1.00  0.00    +0.000 C 
ATOM    123  H33 UNL A   1      42.221  21.433   0.573  1.00  0.00    +0.000 H 
ATOM    124  H34 UNL A   1      39.851  21.889   0.660  1.00  0.00    +0.000 H 
ATOM    128  H38 UNL A   1      39.305  18.593   3.202  1.00  0.00    +0.000 H 
BRANCH   81   82
ATOM     82  C59 UNL A   1      37.926  20.645   2.003  1.00  0.00    +0.000 C 
ATOM     83  O3  UNL A   1      37.444  21.187   1.009  1.00  0.00    +0.000 O 
BRANCH   82   84
ATOM     84  C60 UNL A   1      37.136  20.314   3.175  1.00  0.00    +0.000 C 
ATOM     85  C61 UNL A   1      36.863  19.080   3.737  1.00  0.00    +0.000 C 
ATOM     86  C62 UNL A   1      36.016  19.186   4.880  1.00  0.00    +0.000 C 
ATOM     87  C63 UNL A   1      35.688  20.494   5.160  1.00  0.00    +0.000 C 
ATOM     88  S1  UNL A   1      36.418  21.587   4.066  1.00  0.00    +0.000 S 
ATOM    125  H35 UNL A   1      37.228  18.188   3.371  1.00  0.00    +0.000 H 
ATOM    126  H36 UNL A   1      35.688  18.378   5.431  1.00  0.00    +0.000 H 
ATOM    127  H37 UNL A   1      35.075  20.780   5.938  1.00  0.00    +0.000 H 
ENDBRANCH   82   84
ENDBRANCH   81   82
ENDBRANCH    2   78
ENDBRANCH    3    2
ENDBRANCH    5    3
ENDBRANCH    6    5
ENDBRANCH    7    6
ENDBRANCH    8    7
ENDBRANCH    9    8
ENDBRANCH   10    9
ENDBRANCH   11   10
ENDBRANCH   12   11
ENDBRANCH   13   12
ENDBRANCH   15   13
ENDBRANCH   19   18
BRANCH   23   24
ATOM     33  C24 UNL A   1      51.608  21.937  18.041  1.00  0.00    +0.000 C 
ATOM     34  F5  UNL A   1      51.664  20.597  18.093  1.00  0.00    +0.000 F 
ATOM     24  C19 UNL A   1      52.427  22.646  17.151  1.00  0.00    +0.000 C 
ATOM     25  C20 UNL A   1      52.322  24.046  17.135  1.00  0.00    +0.000 C 
ATOM     26  F1  UNL A   1      53.094  24.771  16.312  1.00  0.00    +0.000 F 
ATOM     27  C21 UNL A   1      51.459  24.709  18.004  1.00  0.00    +0.000 C 
ATOM     28  F2  UNL A   1      51.418  26.048  18.011  1.00  0.00    +0.000 F 
ATOM     29  C22 UNL A   1      50.657  23.987  18.874  1.00  0.00    +0.000 C 
ATOM     30  F3  UNL A   1      49.828  24.626  19.710  1.00  0.00    +0.000 F 
ATOM     31  C23 UNL A   1      50.723  22.602  18.887  1.00  0.00    +0.000 C 
ATOM     32  F4  UNL A   1      49.942  21.902  19.721  1.00  0.00    +0.000 F 
ENDBRANCH   23   24
BRANCH   40   41
ATOM     41  C30 UNL A   1      59.116  19.966  17.327  1.00  0.00    +0.000 C 
ATOM     42  C31 UNL A   1      59.399  18.726  17.917  1.00  0.00    +0.000 C 
ATOM     43  F6  UNL A   1      58.629  17.659  17.649  1.00  0.00    +0.000 F 
ATOM     44  C32 UNL A   1      60.459  18.585  18.808  1.00  0.00    +0.000 C 
ATOM     45  F7  UNL A   1      60.693  17.399  19.387  1.00  0.00    +0.000 F 
ATOM     46  C33 UNL A   1      61.270  19.671  19.104  1.00  0.00    +0.000 C 
ATOM     47  F8  UNL A   1      62.296  19.531  19.953  1.00  0.00    +0.000 F 
ATOM     48  C34 UNL A   1      61.013  20.904  18.524  1.00  0.00    +0.000 C 
ATOM     49  F9  UNL A   1      61.802  21.952  18.800  1.00  0.00    +0.000 F 
ATOM     50  C35 UNL A   1      59.939  21.055  17.651  1.00  0.00    +0.000 C 
ATOM     51  F10 UNL A   1      59.711  22.259  17.108  1.00  0.00    +0.000 F 
ENDBRANCH   40   41
BRANCH   55   56
ATOM     65  C44 UNL A   1      59.297  18.928   9.776  1.00  0.00    +0.000 C 
ATOM     66  F15 UNL A   1      59.257  20.266   9.855  1.00  0.00    +0.000 F 
ATOM     56  C39 UNL A   1      58.496  18.151  10.623  1.00  0.00    +0.000 C 
ATOM     57  C40 UNL A   1      58.569  16.756  10.497  1.00  0.00    +0.000 C 
ATOM     58  F11 UNL A   1      57.833  15.973  11.298  1.00  0.00    +0.000 F 
ATOM     59  C41 UNL A   1      59.420  16.162   9.568  1.00  0.00    +0.000 C 
ATOM     60  F12 UNL A   1      59.495  14.827   9.489  1.00  0.00    +0.000 F 
ATOM     61  C42 UNL A   1      60.195  16.951   8.732  1.00  0.00    +0.000 C 
ATOM     62  F13 UNL A   1      61.007  16.381   7.831  1.00  0.00    +0.000 F 
ATOM     63  C43 UNL A   1      60.132  18.333   8.832  1.00  0.00    +0.000 C 
ATOM     64  F14 UNL A   1      60.870  19.099   8.016  1.00  0.00    +0.000 F 
ENDBRANCH   55   56
TORSDOF 19
ENDMDL
MODEL 7
REMARK VINA RESULT:     -10.4     36.680     42.328
ROOT
ATOM     19  C15 UNL A   1      13.823  53.861   4.916  1.00  0.00    +0.000 C 
ATOM     20  C16 UNL A   1      13.411  52.420   4.805  1.00  0.00    +0.000 C 
ATOM     21  N3  UNL A   1      13.832  51.498   3.977  1.00  0.00    +0.000 N 
ATOM     22  C17 UNL A   1      13.179  50.331   4.352  1.00  0.00    +0.000 C 
ATOM     23  C18 UNL A   1      13.242  49.107   3.777  1.00  0.00    +0.000 C 
ATOM     35  C25 UNL A   1      14.021  48.803   2.607  1.00  0.00    +0.000 C 
ATOM     36  C26 UNL A   1      14.104  47.610   1.910  1.00  0.00    +0.000 C 
ATOM     37  C27 UNL A   1      15.009  47.781   0.857  1.00  0.00    +0.000 C 
ATOM     38  C28 UNL A   1      15.456  49.093   0.872  1.00  0.00    +0.000 C 
ATOM     39  N4  UNL A   1      14.848  49.706   1.955  1.00  0.00    +0.000 N 
ATOM     40  C29 UNL A   1      16.371  49.739  -0.034  1.00  0.00    +0.000 C 
ATOM     52  C36 UNL A   1      16.772  51.031   0.052  1.00  0.00    +0.000 C 
ATOM     53  N5  UNL A   1      16.403  51.999   0.977  1.00  0.00    +0.000 N 
ATOM     54  C37 UNL A   1      17.055  53.085   0.641  1.00  0.00    +0.000 C 
ATOM     55  C38 UNL A   1      17.018  54.448   1.277  1.00  0.00    +0.000 C 
ATOM     67  C45 UNL A   1      16.183  54.671   2.310  1.00  0.00    +0.000 C 
ATOM     68  C46 UNL A   1      16.044  55.933   3.031  1.00  0.00    +0.000 C 
ATOM     69  C47 UNL A   1      15.183  55.764   4.048  1.00  0.00    +0.000 C 
ATOM     70  C48 UNL A   1      14.681  54.390   4.026  1.00  0.00    +0.000 C 
ATOM     71  N6  UNL A   1      15.303  53.825   2.941  1.00  0.00    +0.000 N 
ATOM     72  C49 UNL A   1      17.940  52.920  -0.521  1.00  0.00    +0.000 C 
ATOM     73  C50 UNL A   1      17.705  51.659  -0.861  1.00  0.00    +0.000 C 
ATOM     74  C51 UNL A   1      12.365  50.653   5.505  1.00  0.00    +0.000 C 
ATOM     75  C52 UNL A   1      12.416  51.947   5.779  1.00  0.00    +0.000 C 
ATOM    111  H21 UNL A   1      13.589  46.743   2.130  1.00  0.00    +0.000 H 
ATOM    112  H22 UNL A   1      15.295  47.055   0.183  1.00  0.00    +0.000 H 
ATOM    113  H23 UNL A   1      14.983  50.644   2.223  1.00  0.00    +0.000 H 
ATOM    114  H24 UNL A   1      16.529  56.813   2.797  1.00  0.00    +0.000 H 
ATOM    115  H25 UNL A   1      14.918  56.488   4.735  1.00  0.00    +0.000 H 
ATOM    116  H26 UNL A   1      15.136  52.901   2.643  1.00  0.00    +0.000 H 
ATOM    117  H27 UNL A   1      18.576  53.604  -0.959  1.00  0.00    +0.000 H 
ATOM    118  H28 UNL A   1      18.133  51.186  -1.672  1.00  0.00    +0.000 H 
ATOM    119  H29 UNL A   1      11.817  49.963   6.042  1.00  0.00    +0.000 H 
ATOM    120  H30 UNL A   1      11.895  52.484   6.491  1.00  0.00    +0.000 H 
ENDROOT
BRANCH   19   18
ATOM     76  C53 UNL A   1      12.080  55.252   6.017  1.00  0.00    +0.000 C 
ATOM    109  H19 UNL A   1      14.276  55.770   9.110  1.00  0.00    +0.000 H 
ATOM     77  C54 UNL A   1      11.627  56.048   7.064  1.00  0.00    +0.000 C 
ATOM     15  C11 UNL A   1      12.407  56.188   8.216  1.00  0.00    +0.000 C 
ATOM     16  C12 UNL A   1      13.687  55.630   8.274  1.00  0.00    +0.000 C 
ATOM     17  C13 UNL A   1      14.166  54.883   7.196  1.00  0.00    +0.000 C 
ATOM    110  H20 UNL A   1      15.119  54.488   7.227  1.00  0.00    +0.000 H 
ATOM     18  C14 UNL A   1      13.355  54.667   6.070  1.00  0.00    +0.000 C 
ATOM    121  H31 UNL A   1      11.476  55.091   5.196  1.00  0.00    +0.000 H 
ATOM    122  H32 UNL A   1      10.719  56.534   6.991  1.00  0.00    +0.000 H 
BRANCH   15   13
ATOM     13  C10 UNL A   1      11.890  56.926   9.387  1.00  0.00    +0.000 C 
ATOM     14  O2  UNL A   1      11.869  58.153   9.376  1.00  0.00    +0.000 O 
BRANCH   13   12
ATOM    108  H18 UNL A   1      11.308  56.765  11.301  1.00  0.00    +0.000 H 
ATOM     12  N2  UNL A   1      11.455  56.230  10.487  1.00  0.00    +0.000 N 
BRANCH   12   11
ATOM    106  H16 UNL A   1      10.290  54.677  11.189  1.00  0.00    +0.000 H 
ATOM     11  C9  UNL A   1      11.181  54.807  10.611  1.00  0.00    +0.000 C 
ATOM    107  H17 UNL A   1      11.069  54.409   9.624  1.00  0.00    +0.000 H 
BRANCH   11   10
ATOM    105  H15 UNL A   1      11.909  53.623  12.179  1.00  0.00    +0.000 H 
ATOM     10  C8  UNL A   1      12.320  54.055  11.290  1.00  0.00    +0.000 C 
ATOM    104  H14 UNL A   1      13.108  54.752  11.487  1.00  0.00    +0.000 H 
BRANCH   10    9
ATOM      9  C7  UNL A   1      12.900  52.898  10.475  1.00  0.00    +0.000 C 
ATOM    102  H12 UNL A   1      12.101  52.229  10.234  1.00  0.00    +0.000 H 
ATOM    103  H13 UNL A   1      13.358  53.339   9.615  1.00  0.00    +0.000 H 
BRANCH    9    8
ATOM    100  H10 UNL A   1      14.185  52.555  12.128  1.00  0.00    +0.000 H 
ATOM    101  H11 UNL A   1      13.627  51.094  11.255  1.00  0.00    +0.000 H 
ATOM      8  C6  UNL A   1      13.996  52.096  11.179  1.00  0.00    +0.000 C 
BRANCH    8    7
ATOM     98  H8  UNL A   1      15.142  51.570   9.465  1.00  0.00    +0.000 H 
ATOM     99  H9  UNL A   1      15.717  52.998  10.371  1.00  0.00    +0.000 H 
ATOM      7  C5  UNL A   1      15.330  52.001  10.426  1.00  0.00    +0.000 C 
BRANCH    7    6
ATOM     97  H7  UNL A   1      15.971  50.713  12.001  1.00  0.00    +0.000 H 
ATOM      6  C4  UNL A   1      16.401  51.157  11.128  1.00  0.00    +0.000 C 
ATOM     96  H6  UNL A   1      17.223  51.787  11.399  1.00  0.00    +0.000 H 
BRANCH    6    5
ATOM      5  N1  UNL A   1      16.878  50.101  10.256  1.00  0.00    +0.000 N 
ATOM     95  H5  UNL A   1      16.970  49.209  10.662  1.00  0.00    +0.000 H 
BRANCH    5    3
ATOM      3  C3  UNL A   1      17.216  50.202   8.934  1.00  0.00    +0.000 C 
ATOM      4  O1  UNL A   1      18.202  50.889   8.662  1.00  0.00    +0.000 O 
BRANCH    3    2
ATOM      2  C2  UNL A   1      16.342  49.506   7.871  1.00  0.00    +0.000 C 
ATOM     94  H4  UNL A   1      16.911  48.714   7.432  1.00  0.00    +0.000 H 
BRANCH    2    1
ATOM      1  C1  UNL A   1      15.975  50.532   6.790  1.00  0.00    +0.000 C 
ATOM     91  H1  UNL A   1      16.707  50.506   6.010  1.00  0.00    +0.000 H 
ATOM     92  H2  UNL A   1      15.951  51.511   7.221  1.00  0.00    +0.000 H 
ATOM     93  H3  UNL A   1      15.014  50.296   6.385  1.00  0.00    +0.000 H 
ENDBRANCH    2    1
BRANCH    2   78
ATOM    129  H39 UNL A   1      13.769  50.399   8.157  1.00  0.00    +0.000 H 
ATOM     78  C55 UNL A   1      15.109  48.795   8.454  1.00  0.00    +0.000 C 
ATOM     79  C56 UNL A   1      15.199  47.512   9.019  1.00  0.00    +0.000 C 
ATOM     80  C57 UNL A   1      14.066  46.849   9.503  1.00  0.00    +0.000 C 
ATOM     81  C58 UNL A   1      12.808  47.458   9.456  1.00  0.00    +0.000 C 
ATOM     89  C64 UNL A   1      12.717  48.767   8.974  1.00  0.00    +0.000 C 
ATOM     90  C65 UNL A   1      13.854  49.427   8.492  1.00  0.00    +0.000 C 
ATOM    123  H33 UNL A   1      16.120  47.048   9.078  1.00  0.00    +0.000 H 
ATOM    124  H34 UNL A   1      14.160  45.900   9.899  1.00  0.00    +0.000 H 
ATOM    128  H38 UNL A   1      11.804  49.249   8.972  1.00  0.00    +0.000 H 
BRANCH   81   82
ATOM     82  C59 UNL A   1      11.626  46.695   9.973  1.00  0.00    +0.000 C 
ATOM     83  O3  UNL A   1      10.795  46.299   9.157  1.00  0.00    +0.000 O 
BRANCH   82   84
ATOM     84  C60 UNL A   1      11.508  46.443  11.397  1.00  0.00    +0.000 C 
ATOM     85  C61 UNL A   1      12.069  45.441  12.167  1.00  0.00    +0.000 C 
ATOM     86  C62 UNL A   1      11.678  45.532  13.536  1.00  0.00    +0.000 C 
ATOM     87  C63 UNL A   1      10.850  46.609  13.765  1.00  0.00    +0.000 C 
ATOM     88  S1  UNL A   1      10.567  47.515  12.344  1.00  0.00    +0.000 S 
ATOM    125  H35 UNL A   1      12.695  44.711  11.794  1.00  0.00    +0.000 H 
ATOM    126  H36 UNL A   1      11.981  44.870  14.268  1.00  0.00    +0.000 H 
ATOM    127  H37 UNL A   1      10.448  46.841  14.687  1.00  0.00    +0.000 H 
ENDBRANCH   82   84
ENDBRANCH   81   82
ENDBRANCH    2   78
ENDBRANCH    3    2
ENDBRANCH    5    3
ENDBRANCH    6    5
ENDBRANCH    7    6
ENDBRANCH    8    7
ENDBRANCH    9    8
ENDBRANCH   10    9
ENDBRANCH   11   10
ENDBRANCH   12   11
ENDBRANCH   13   12
ENDBRANCH   15   13
ENDBRANCH   19   18
BRANCH   23   24
ATOM     33  C24 UNL A   1      11.122  47.768   4.022  1.00  0.00    +0.000 C 
ATOM     34  F5  UNL A   1      10.552  48.520   3.068  1.00  0.00    +0.000 F 
ATOM     24  C19 UNL A   1      12.447  48.005   4.415  1.00  0.00    +0.000 C 
ATOM     25  C20 UNL A   1      12.990  47.192   5.421  1.00  0.00    +0.000 C 
ATOM     26  F1  UNL A   1      14.258  47.371   5.822  1.00  0.00    +0.000 F 
ATOM     27  C21 UNL A   1      12.248  46.156   5.983  1.00  0.00    +0.000 C 
ATOM     28  F2  UNL A   1      12.807  45.356   6.901  1.00  0.00    +0.000 F 
ATOM     29  C22 UNL A   1      10.939  45.941   5.581  1.00  0.00    +0.000 C 
ATOM     30  F3  UNL A   1      10.226  44.943   6.122  1.00  0.00    +0.000 F 
ATOM     31  C23 UNL A   1      10.372  46.751   4.608  1.00  0.00    +0.000 C 
ATOM     32  F4  UNL A   1       9.104  46.549   4.226  1.00  0.00    +0.000 F 
ENDBRANCH   23   24
BRANCH   40   41
ATOM     41  C30 UNL A   1      16.900  48.927  -1.178  1.00  0.00    +0.000 C 
ATOM     42  C31 UNL A   1      16.230  48.863  -2.407  1.00  0.00    +0.000 C 
ATOM     43  F6  UNL A   1      15.048  49.479  -2.564  1.00  0.00    +0.000 F 
ATOM     44  C32 UNL A   1      16.760  48.142  -3.472  1.00  0.00    +0.000 C 
ATOM     45  F7  UNL A   1      16.088  48.066  -4.630  1.00  0.00    +0.000 F 
ATOM     46  C33 UNL A   1      17.980  47.495  -3.338  1.00  0.00    +0.000 C 
ATOM     47  F8  UNL A   1      18.494  46.810  -4.368  1.00  0.00    +0.000 F 
ATOM     48  C34 UNL A   1      18.664  47.552  -2.133  1.00  0.00    +0.000 C 
ATOM     49  F9  UNL A   1      19.848  46.937  -2.004  1.00  0.00    +0.000 F 
ATOM     50  C35 UNL A   1      18.126  48.254  -1.058  1.00  0.00    +0.000 C 
ATOM     51  F10 UNL A   1      18.806  48.290   0.096  1.00  0.00    +0.000 F 
ENDBRANCH   40   41
BRANCH   55   56
ATOM     65  C44 UNL A   1      17.442  56.358  -0.307  1.00  0.00    +0.000 C 
ATOM     66  F15 UNL A   1      16.248  56.145  -0.879  1.00  0.00    +0.000 F 
ATOM     56  C39 UNL A   1      17.861  55.556   0.763  1.00  0.00    +0.000 C 
ATOM     57  C40 UNL A   1      19.121  55.814   1.322  1.00  0.00    +0.000 C 
ATOM     58  F11 UNL A   1      19.555  55.083   2.358  1.00  0.00    +0.000 F 
ATOM     59  C41 UNL A   1      19.925  56.843   0.837  1.00  0.00    +0.000 C 
ATOM     60  F12 UNL A   1      21.111  57.089   1.408  1.00  0.00    +0.000 F 
ATOM     61  C42 UNL A   1      19.496  57.616  -0.231  1.00  0.00    +0.000 C 
ATOM     62  F13 UNL A   1      20.273  58.600  -0.704  1.00  0.00    +0.000 F 
ATOM     63  C43 UNL A   1      18.257  57.373  -0.806  1.00  0.00    +0.000 C 
ATOM     64  F14 UNL A   1      17.845  58.109  -1.847  1.00  0.00    +0.000 F 
ENDBRANCH   55   56
TORSDOF 19
ENDMDL
MODEL 8
REMARK VINA RESULT:     -10.4     17.100     22.679
ROOT
ATOM     19  C15 UNL A   1      25.969  35.460  45.391  1.00  0.00    +0.000 C 
ATOM     20  C16 UNL A   1      27.291  35.460  44.678  1.00  0.00    +0.000 C 
ATOM     21  N3  UNL A   1      28.325  36.244  44.847  1.00  0.00    +0.000 N 
ATOM     22  C17 UNL A   1      29.303  35.767  43.985  1.00  0.00    +0.000 C 
ATOM     23  C18 UNL A   1      30.541  36.265  43.755  1.00  0.00    +0.000 C 
ATOM     35  C25 UNL A   1      31.067  37.446  44.387  1.00  0.00    +0.000 C 
ATOM     36  C26 UNL A   1      32.287  38.066  44.177  1.00  0.00    +0.000 C 
ATOM     37  C27 UNL A   1      32.370  39.167  45.037  1.00  0.00    +0.000 C 
ATOM     38  C28 UNL A   1      31.186  39.255  45.752  1.00  0.00    +0.000 C 
ATOM     39  N4  UNL A   1      30.399  38.189  45.349  1.00  0.00    +0.000 N 
ATOM     40  C29 UNL A   1      30.800  40.239  46.731  1.00  0.00    +0.000 C 
ATOM     52  C36 UNL A   1      29.622  40.254  47.400  1.00  0.00    +0.000 C 
ATOM     53  N5  UNL A   1      28.549  39.378  47.296  1.00  0.00    +0.000 N 
ATOM     54  C37 UNL A   1      27.647  39.811  48.143  1.00  0.00    +0.000 C 
ATOM     55  C38 UNL A   1      26.276  39.262  48.430  1.00  0.00    +0.000 C 
ATOM     67  C45 UNL A   1      25.824  38.211  47.720  1.00  0.00    +0.000 C 
ATOM     68  C46 UNL A   1      24.524  37.567  47.891  1.00  0.00    +0.000 C 
ATOM     69  C47 UNL A   1      24.450  36.506  47.072  1.00  0.00    +0.000 C 
ATOM     70  C48 UNL A   1      25.684  36.418  46.290  1.00  0.00    +0.000 C 
ATOM     71  N6  UNL A   1      26.427  37.490  46.718  1.00  0.00    +0.000 N 
ATOM     72  C49 UNL A   1      28.060  40.996  48.907  1.00  0.00    +0.000 C 
ATOM     73  C50 UNL A   1      29.258  41.244  48.393  1.00  0.00    +0.000 C 
ATOM     74  C51 UNL A   1      28.753  34.604  43.322  1.00  0.00    +0.000 C 
ATOM     75  C52 UNL A   1      27.487  34.416  43.661  1.00  0.00    +0.000 C 
ATOM    111  H21 UNL A   1      33.010  37.770  43.503  1.00  0.00    +0.000 H 
ATOM    112  H22 UNL A   1      33.176  39.804  45.126  1.00  0.00    +0.000 H 
ATOM    113  H23 UNL A   1      29.499  37.987  45.693  1.00  0.00    +0.000 H 
ATOM    114  H24 UNL A   1      23.783  37.878  48.538  1.00  0.00    +0.000 H 
ATOM    115  H25 UNL A   1      23.651  35.856  47.004  1.00  0.00    +0.000 H 
ATOM    116  H26 UNL A   1      27.308  37.720  46.343  1.00  0.00    +0.000 H 
ATOM    117  H27 UNL A   1      27.552  41.504  49.649  1.00  0.00    +0.000 H 
ATOM    118  H28 UNL A   1      29.854  42.040  48.665  1.00  0.00    +0.000 H 
ATOM    119  H29 UNL A   1      29.279  34.000  42.672  1.00  0.00    +0.000 H 
ATOM    120  H30 UNL A   1      26.814  33.718  43.306  1.00  0.00    +0.000 H 
ENDROOT
BRANCH   19   18
ATOM     76  C53 UNL A   1      25.178  33.159  45.911  1.00  0.00    +0.000 C 
ATOM    109  H19 UNL A   1      22.336  33.431  43.359  1.00  0.00    +0.000 H 
ATOM     77  C54 UNL A   1      24.331  32.077  45.697  1.00  0.00    +0.000 C 
ATOM     15  C11 UNL A   1      23.259  32.199  44.807  1.00  0.00    +0.000 C 
ATOM     16  C12 UNL A   1      23.104  33.360  44.045  1.00  0.00    +0.000 C 
ATOM     17  C13 UNL A   1      23.992  34.424  44.215  1.00  0.00    +0.000 C 
ATOM    110  H20 UNL A   1      23.894  35.274  43.638  1.00  0.00    +0.000 H 
ATOM     18  C14 UNL A   1      25.020  34.341  45.168  1.00  0.00    +0.000 C 
ATOM    121  H31 UNL A   1      25.925  33.095  46.618  1.00  0.00    +0.000 H 
ATOM    122  H32 UNL A   1      24.492  31.186  46.194  1.00  0.00    +0.000 H 
BRANCH   15   13
ATOM     13  C10 UNL A   1      22.278  31.105  44.659  1.00  0.00    +0.000 C 
ATOM     14  O2  UNL A   1      22.663  29.941  44.598  1.00  0.00    +0.000 O 
BRANCH   13   12
ATOM    108  H18 UNL A   1      20.639  31.765  43.707  1.00  0.00    +0.000 H 
ATOM     12  N2  UNL A   1      20.940  31.403  44.572  1.00  0.00    +0.000 N 
BRANCH   12   11
ATOM    106  H16 UNL A   1      18.955  31.212  45.104  1.00  0.00    +0.000 H 
ATOM     11  C9  UNL A   1      19.910  31.256  45.587  1.00  0.00    +0.000 C 
ATOM    107  H17 UNL A   1      20.114  30.358  46.132  1.00  0.00    +0.000 H 
BRANCH   11   10
ATOM    105  H15 UNL A   1      19.014  32.306  47.164  1.00  0.00    +0.000 H 
ATOM     10  C8  UNL A   1      19.905  32.412  46.580  1.00  0.00    +0.000 C 
ATOM    104  H14 UNL A   1      19.938  33.327  46.025  1.00  0.00    +0.000 H 
BRANCH   10    9
ATOM      9  C7  UNL A   1      21.072  32.414  47.568  1.00  0.00    +0.000 C 
ATOM    102  H12 UNL A   1      20.713  32.047  48.506  1.00  0.00    +0.000 H 
ATOM    103  H13 UNL A   1      21.831  31.798  47.134  1.00  0.00    +0.000 H 
BRANCH    9    8
ATOM    100  H10 UNL A   1      22.777  33.666  47.724  1.00  0.00    +0.000 H 
ATOM    101  H11 UNL A   1      21.297  34.438  47.075  1.00  0.00    +0.000 H 
ATOM      8  C6  UNL A   1      21.716  33.781  47.808  1.00  0.00    +0.000 C 
BRANCH    8    7
ATOM     98  H8  UNL A   1      20.438  34.114  49.476  1.00  0.00    +0.000 H 
ATOM     99  H9  UNL A   1      22.187  34.086  49.837  1.00  0.00    +0.000 H 
ATOM      7  C5  UNL A   1      21.417  34.420  49.171  1.00  0.00    +0.000 C 
BRANCH    7    6
ATOM     97  H7  UNL A   1      22.413  36.268  48.797  1.00  0.00    +0.000 H 
ATOM      6  C4  UNL A   1      21.466  35.953  49.183  1.00  0.00    +0.000 C 
ATOM     96  H6  UNL A   1      21.340  36.300  50.187  1.00  0.00    +0.000 H 
BRANCH    6    5
ATOM      5  N1  UNL A   1      20.416  36.508  48.352  1.00  0.00    +0.000 N 
ATOM     95  H5  UNL A   1      19.492  36.362  48.660  1.00  0.00    +0.000 H 
BRANCH    5    3
ATOM      3  C3  UNL A   1      20.561  37.213  47.187  1.00  0.00    +0.000 C 
ATOM      4  O1  UNL A   1      20.404  38.434  47.252  1.00  0.00    +0.000 O 
BRANCH    3    2
ATOM      2  C2  UNL A   1      20.864  36.461  45.876  1.00  0.00    +0.000 C 
ATOM     94  H4  UNL A   1      21.559  35.677  46.089  1.00  0.00    +0.000 H 
BRANCH    2    1
ATOM      1  C1  UNL A   1      21.493  37.445  44.881  1.00  0.00    +0.000 C 
ATOM     91  H1  UNL A   1      22.501  37.652  45.172  1.00  0.00    +0.000 H 
ATOM     92  H2  UNL A   1      20.930  38.355  44.875  1.00  0.00    +0.000 H 
ATOM     93  H3  UNL A   1      21.487  37.015  43.901  1.00  0.00    +0.000 H 
ENDBRANCH    2    1
BRANCH    2   78
ATOM    129  H39 UNL A   1      20.715  34.685  43.797  1.00  0.00    +0.000 H 
ATOM     78  C55 UNL A   1      19.646  35.725  45.291  1.00  0.00    +0.000 C 
ATOM     79  C56 UNL A   1      18.345  35.963  45.765  1.00  0.00    +0.000 C 
ATOM     80  C57 UNL A   1      17.247  35.255  45.265  1.00  0.00    +0.000 C 
ATOM     81  C58 UNL A   1      17.414  34.299  44.258  1.00  0.00    +0.000 C 
ATOM     89  C64 UNL A   1      18.689  34.111  43.717  1.00  0.00    +0.000 C 
ATOM     90  C65 UNL A   1      19.785  34.824  44.221  1.00  0.00    +0.000 C 
ATOM    123  H33 UNL A   1      18.196  36.675  46.498  1.00  0.00    +0.000 H 
ATOM    124  H34 UNL A   1      16.305  35.440  45.643  1.00  0.00    +0.000 H 
ATOM    128  H38 UNL A   1      18.824  33.442  42.943  1.00  0.00    +0.000 H 
BRANCH   81   82
ATOM     82  C59 UNL A   1      16.206  33.558  43.771  1.00  0.00    +0.000 C 
ATOM     83  O3  UNL A   1      15.389  33.176  44.607  1.00  0.00    +0.000 O 
BRANCH   82   84
ATOM     84  C60 UNL A   1      16.036  33.329  42.347  1.00  0.00    +0.000 C 
ATOM     85  C61 UNL A   1      15.436  34.125  41.389  1.00  0.00    +0.000 C 
ATOM     86  C62 UNL A   1      15.454  33.518  40.098  1.00  0.00    +0.000 C 
ATOM     87  C63 UNL A   1      16.080  32.291  40.114  1.00  0.00    +0.000 C 
ATOM     88  S1  UNL A   1      16.664  31.887  41.669  1.00  0.00    +0.000 S 
ATOM    125  H35 UNL A   1      15.024  35.050  41.585  1.00  0.00    +0.000 H 
ATOM    126  H36 UNL A   1      15.045  33.947  39.253  1.00  0.00    +0.000 H 
ATOM    127  H37 UNL A   1      16.184  31.687  39.284  1.00  0.00    +0.000 H 
ENDBRANCH   82   84
ENDBRANCH   81   82
ENDBRANCH    2   78
ENDBRANCH    3    2
ENDBRANCH    5    3
ENDBRANCH    6    5
ENDBRANCH    7    6
ENDBRANCH    8    7
ENDBRANCH    9    8
ENDBRANCH   10    9
ENDBRANCH   11   10
ENDBRANCH   12   11
ENDBRANCH   13   12
ENDBRANCH   15   13
ENDBRANCH   19   18
BRANCH   23   24
ATOM     33  C24 UNL A   1      31.437  35.893  41.430  1.00  0.00    +0.000 C 
ATOM     34  F5  UNL A   1      30.687  36.916  40.992  1.00  0.00    +0.000 F 
ATOM     24  C19 UNL A   1      31.411  35.524  42.782  1.00  0.00    +0.000 C 
ATOM     25  C20 UNL A   1      32.211  34.443  43.183  1.00  0.00    +0.000 C 
ATOM     26  F1  UNL A   1      32.232  34.060  44.469  1.00  0.00    +0.000 F 
ATOM     27  C21 UNL A   1      33.033  33.784  42.273  1.00  0.00    +0.000 C 
ATOM     28  F2  UNL A   1      33.832  32.792  42.691  1.00  0.00    +0.000 F 
ATOM     29  C22 UNL A   1      33.041  34.165  40.941  1.00  0.00    +0.000 C 
ATOM     30  F3  UNL A   1      33.834  33.530  40.065  1.00  0.00    +0.000 F 
ATOM     31  C23 UNL A   1      32.237  35.212  40.516  1.00  0.00    +0.000 C 
ATOM     32  F4  UNL A   1      32.237  35.575  39.226  1.00  0.00    +0.000 F 
ENDBRANCH   23   24
BRANCH   40   41
ATOM     41  C30 UNL A   1      31.767  41.350  47.013  1.00  0.00    +0.000 C 
ATOM     42  C31 UNL A   1      31.537  42.657  46.561  1.00  0.00    +0.000 C 
ATOM     43  F6  UNL A   1      30.468  42.929  45.796  1.00  0.00    +0.000 F 
ATOM     44  C32 UNL A   1      32.423  43.685  46.871  1.00  0.00    +0.000 C 
ATOM     45  F7  UNL A   1      32.203  44.921  46.403  1.00  0.00    +0.000 F 
ATOM     46  C33 UNL A   1      33.536  43.432  47.659  1.00  0.00    +0.000 C 
ATOM     47  F8  UNL A   1      34.382  44.425  47.966  1.00  0.00    +0.000 F 
ATOM     48  C34 UNL A   1      33.777  42.148  48.124  1.00  0.00    +0.000 C 
ATOM     49  F9  UNL A   1      34.846  41.903  48.895  1.00  0.00    +0.000 F 
ATOM     50  C35 UNL A   1      32.907  41.112  47.796  1.00  0.00    +0.000 C 
ATOM     51  F10 UNL A   1      33.166  39.880  48.255  1.00  0.00    +0.000 F 
ENDBRANCH   40   41
BRANCH   55   56
ATOM     65  C44 UNL A   1      25.399  39.428  50.784  1.00  0.00    +0.000 C 
ATOM     66  F15 UNL A   1      26.207  38.423  51.153  1.00  0.00    +0.000 F 
ATOM     56  C39 UNL A   1      25.404  39.882  49.459  1.00  0.00    +0.000 C 
ATOM     57  C40 UNL A   1      24.537  40.931  49.122  1.00  0.00    +0.000 C 
ATOM     58  F11 UNL A   1      24.520  41.410  47.870  1.00  0.00    +0.000 F 
ATOM     59  C41 UNL A   1      23.705  41.511  50.078  1.00  0.00    +0.000 C 
ATOM     60  F12 UNL A   1      22.908  42.532  49.738  1.00  0.00    +0.000 F 
ATOM     61  C42 UNL A   1      23.708  41.037  51.381  1.00  0.00    +0.000 C 
ATOM     62  F13 UNL A   1      22.901  41.588  52.298  1.00  0.00    +0.000 F 
ATOM     63  C43 UNL A   1      24.551  39.994  51.735  1.00  0.00    +0.000 C 
ATOM     64  F14 UNL A   1      24.546  39.525  52.990  1.00  0.00    +0.000 F 
ENDBRANCH   55   56
TORSDOF 19
ENDMDL
MODEL 9
REMARK VINA RESULT:     -10.4     36.742     42.246
ROOT
ATOM     19  C15 UNL A   1      14.189  53.693   5.155  1.00  0.00    +0.000 C 
ATOM     20  C16 UNL A   1      15.128  54.145   4.073  1.00  0.00    +0.000 C 
ATOM     21  N3  UNL A   1      15.571  53.490   3.031  1.00  0.00    +0.000 N 
ATOM     22  C17 UNL A   1      16.350  54.395   2.322  1.00  0.00    +0.000 C 
ATOM     23  C18 UNL A   1      17.065  54.188   1.190  1.00  0.00    +0.000 C 
ATOM     35  C25 UNL A   1      17.155  52.923   0.512  1.00  0.00    +0.000 C 
ATOM     36  C26 UNL A   1      17.901  52.594  -0.607  1.00  0.00    +0.000 C 
ATOM     37  C27 UNL A   1      17.651  51.254  -0.920  1.00  0.00    +0.000 C 
ATOM     38  C28 UNL A   1      16.782  50.737   0.027  1.00  0.00    +0.000 C 
ATOM     39  N4  UNL A   1      16.480  51.773   0.895  1.00  0.00    +0.000 N 
ATOM     40  C29 UNL A   1      16.265  49.397   0.134  1.00  0.00    +0.000 C 
ATOM     52  C36 UNL A   1      15.404  48.965   1.088  1.00  0.00    +0.000 C 
ATOM     53  N5  UNL A   1      14.856  49.672   2.150  1.00  0.00    +0.000 N 
ATOM     54  C37 UNL A   1      14.090  48.822   2.790  1.00  0.00    +0.000 C 
ATOM     55  C38 UNL A   1      13.271  49.036   4.034  1.00  0.00    +0.000 C 
ATOM     67  C45 UNL A   1      13.323  50.226   4.663  1.00  0.00    +0.000 C 
ATOM     68  C46 UNL A   1      12.581  50.582   5.869  1.00  0.00    +0.000 C 
ATOM     69  C47 UNL A   1      12.814  51.871   6.163  1.00  0.00    +0.000 C 
ATOM     70  C48 UNL A   1      13.754  52.421   5.185  1.00  0.00    +0.000 C 
ATOM     71  N6  UNL A   1      14.027  51.364   4.353  1.00  0.00    +0.000 N 
ATOM     72  C49 UNL A   1      14.039  47.484   2.185  1.00  0.00    +0.000 C 
ATOM     73  C50 UNL A   1      14.884  47.617   1.169  1.00  0.00    +0.000 C 
ATOM     74  C51 UNL A   1      16.289  55.655   3.032  1.00  0.00    +0.000 C 
ATOM     75  C52 UNL A   1      15.606  55.534   4.160  1.00  0.00    +0.000 C 
ATOM    111  H21 UNL A   1      18.533  53.227  -1.121  1.00  0.00    +0.000 H 
ATOM    112  H22 UNL A   1      18.045  50.738  -1.722  1.00  0.00    +0.000 H 
ATOM    113  H23 UNL A   1      15.876  51.705   1.670  1.00  0.00    +0.000 H 
ATOM    114  H24 UNL A   1      11.974  49.945   6.408  1.00  0.00    +0.000 H 
ATOM    115  H25 UNL A   1      12.398  52.391   6.952  1.00  0.00    +0.000 H 
ATOM    116  H26 UNL A   1      14.665  51.417   3.605  1.00  0.00    +0.000 H 
ATOM    117  H27 UNL A   1      13.492  46.658   2.473  1.00  0.00    +0.000 H 
ATOM    118  H28 UNL A   1      15.136  46.856   0.521  1.00  0.00    +0.000 H 
ATOM    119  H29 UNL A   1      16.720  56.532   2.701  1.00  0.00    +0.000 H 
ATOM    120  H30 UNL A   1      15.450  56.231   4.905  1.00  0.00    +0.000 H 
ENDROOT
BRANCH   19   18
ATOM     76  C53 UNL A   1      12.356  55.160   5.978  1.00  0.00    +0.000 C 
ATOM    109  H19 UNL A   1      14.513  56.433   8.874  1.00  0.00    +0.000 H 
ATOM     77  C54 UNL A   1      11.851  56.118   6.851  1.00  0.00    +0.000 C 
ATOM     15  C11 UNL A   1      12.621  56.538   7.940  1.00  0.00    +0.000 C 
ATOM     16  C12 UNL A   1      13.935  56.089   8.091  1.00  0.00    +0.000 C 
ATOM     17  C13 UNL A   1      14.464  55.173   7.178  1.00  0.00    +0.000 C 
ATOM    110  H20 UNL A   1      15.440  54.857   7.274  1.00  0.00    +0.000 H 
ATOM     18  C14 UNL A   1      13.668  54.683   6.130  1.00  0.00    +0.000 C 
ATOM    121  H31 UNL A   1      11.764  54.797   5.215  1.00  0.00    +0.000 H 
ATOM    122  H32 UNL A   1      10.912  56.518   6.694  1.00  0.00    +0.000 H 
BRANCH   15   13
ATOM     13  C10 UNL A   1      12.055  57.461   8.946  1.00  0.00    +0.000 C 
ATOM     14  O2  UNL A   1      12.404  58.638   8.961  1.00  0.00    +0.000 O 
BRANCH   13   12
ATOM    108  H18 UNL A   1      10.240  57.334   9.792  1.00  0.00    +0.000 H 
ATOM     12  N2  UNL A   1      11.158  56.986   9.870  1.00  0.00    +0.000 N 
BRANCH   12   11
ATOM    106  H16 UNL A   1      12.284  56.306  11.460  1.00  0.00    +0.000 H 
ATOM     11  C9  UNL A   1      11.382  56.038  10.949  1.00  0.00    +0.000 C 
ATOM    107  H17 UNL A   1      10.535  56.078  11.602  1.00  0.00    +0.000 H 
BRANCH   11   10
ATOM    105  H15 UNL A   1      11.390  54.648   9.381  1.00  0.00    +0.000 H 
ATOM     10  C8  UNL A   1      11.512  54.606  10.444  1.00  0.00    +0.000 C 
ATOM    104  H14 UNL A   1      10.766  54.012  10.930  1.00  0.00    +0.000 H 
BRANCH   10    9
ATOM      9  C7  UNL A   1      12.875  53.959  10.697  1.00  0.00    +0.000 C 
ATOM    102  H12 UNL A   1      13.629  54.698  10.531  1.00  0.00    +0.000 H 
ATOM    103  H13 UNL A   1      12.850  53.595  11.702  1.00  0.00    +0.000 H 
BRANCH    9    8
ATOM    100  H10 UNL A   1      12.771  51.882  10.276  1.00  0.00    +0.000 H 
ATOM    101  H11 UNL A   1      12.773  52.969   8.852  1.00  0.00    +0.000 H 
ATOM      8  C6  UNL A   1      13.192  52.750   9.812  1.00  0.00    +0.000 C 
BRANCH    8    7
ATOM     98  H8  UNL A   1      14.774  51.789   8.765  1.00  0.00    +0.000 H 
ATOM     99  H9  UNL A   1      15.132  53.432   9.364  1.00  0.00    +0.000 H 
ATOM      7  C5  UNL A   1      14.684  52.482   9.574  1.00  0.00    +0.000 C 
BRANCH    7    6
ATOM     97  H7  UNL A   1      14.717  51.659  11.542  1.00  0.00    +0.000 H 
ATOM      6  C4  UNL A   1      15.431  51.907  10.784  1.00  0.00    +0.000 C 
ATOM     96  H6  UNL A   1      16.122  52.638  11.149  1.00  0.00    +0.000 H 
BRANCH    6    5
ATOM      5  N1  UNL A   1      16.157  50.706  10.418  1.00  0.00    +0.000 N 
ATOM     95  H5  UNL A   1      16.169  49.983  11.086  1.00  0.00    +0.000 H 
BRANCH    5    3
ATOM      3  C3  UNL A   1      16.827  50.462   9.250  1.00  0.00    +0.000 C 
ATOM      4  O1  UNL A   1      17.818  51.157   9.021  1.00  0.00    +0.000 O 
BRANCH    3    2
ATOM      2  C2  UNL A   1      16.297  49.386   8.280  1.00  0.00    +0.000 C 
ATOM     94  H4  UNL A   1      17.035  48.617   8.194  1.00  0.00    +0.000 H 
BRANCH    2    1
ATOM      1  C1  UNL A   1      16.070  50.033   6.908  1.00  0.00    +0.000 C 
ATOM     91  H1  UNL A   1      15.518  49.362   6.283  1.00  0.00    +0.000 H 
ATOM     92  H2  UNL A   1      17.015  50.246   6.453  1.00  0.00    +0.000 H 
ATOM     93  H3  UNL A   1      15.519  50.942   7.028  1.00  0.00    +0.000 H 
ENDBRANCH    2    1
BRANCH    2   78
ATOM    129  H39 UNL A   1      13.669  50.155   8.284  1.00  0.00    +0.000 H 
ATOM     78  C55 UNL A   1      15.052  48.646   8.799  1.00  0.00    +0.000 C 
ATOM     79  C56 UNL A   1      15.153  47.406   9.451  1.00  0.00    +0.000 C 
ATOM     80  C57 UNL A   1      14.014  46.713   9.877  1.00  0.00    +0.000 C 
ATOM     81  C58 UNL A   1      12.738  47.250   9.682  1.00  0.00    +0.000 C 
ATOM     89  C64 UNL A   1      12.627  48.521   9.110  1.00  0.00    +0.000 C 
ATOM     90  C65 UNL A   1      13.771  49.211   8.687  1.00  0.00    +0.000 C 
ATOM    123  H33 UNL A   1      16.085  46.996   9.620  1.00  0.00    +0.000 H 
ATOM    124  H34 UNL A   1      14.117  45.797  10.340  1.00  0.00    +0.000 H 
ATOM    128  H38 UNL A   1      11.696  48.953   8.998  1.00  0.00    +0.000 H 
BRANCH   81   82
ATOM     82  C59 UNL A   1      11.552  46.458  10.142  1.00  0.00    +0.000 C 
ATOM     83  O3  UNL A   1      10.837  45.941   9.285  1.00  0.00    +0.000 O 
BRANCH   82   84
ATOM     84  C60 UNL A   1      11.296  46.320  11.564  1.00  0.00    +0.000 C 
ATOM     85  C61 UNL A   1      10.487  47.074  12.394  1.00  0.00    +0.000 C 
ATOM     86  C62 UNL A   1      10.534  46.623  13.746  1.00  0.00    +0.000 C 
ATOM     87  C63 UNL A   1      11.362  45.532  13.897  1.00  0.00    +0.000 C 
ATOM     88  S1  UNL A   1      12.056  45.043  12.413  1.00  0.00    +0.000 S 
ATOM    125  H35 UNL A   1       9.916  47.871  12.073  1.00  0.00    +0.000 H 
ATOM    126  H36 UNL A   1      10.010  47.061  14.520  1.00  0.00    +0.000 H 
ATOM    127  H37 UNL A   1      11.542  45.065  14.799  1.00  0.00    +0.000 H 
ENDBRANCH   82   84
ENDBRANCH   81   82
ENDBRANCH    2   78
ENDBRANCH    3    2
ENDBRANCH    5    3
ENDBRANCH    6    5
ENDBRANCH    7    6
ENDBRANCH    8    7
ENDBRANCH    9    8
ENDBRANCH   10    9
ENDBRANCH   11   10
ENDBRANCH   12   11
ENDBRANCH   13   12
ENDBRANCH   15   13
ENDBRANCH   19   18
BRANCH   23   24
ATOM     33  C24 UNL A   1      19.035  55.758   1.149  1.00  0.00    +0.000 C 
ATOM     34  F5  UNL A   1      19.575  55.085   2.177  1.00  0.00    +0.000 F 
ATOM     24  C19 UNL A   1      17.800  55.364   0.616  1.00  0.00    +0.000 C 
ATOM     25  C20 UNL A   1      17.279  56.107  -0.454  1.00  0.00    +0.000 C 
ATOM     26  F1  UNL A   1      16.107  55.762  -1.009  1.00  0.00    +0.000 F 
ATOM     27  C21 UNL A   1      17.986  57.179  -0.993  1.00  0.00    +0.000 C 
ATOM     28  F2  UNL A   1      17.496  57.837  -2.052  1.00  0.00    +0.000 F 
ATOM     29  C22 UNL A   1      19.205  57.552  -0.449  1.00  0.00    +0.000 C 
ATOM     30  F3  UNL A   1      19.886  58.583  -0.969  1.00  0.00    +0.000 F 
ATOM     31  C23 UNL A   1      19.726  56.849   0.628  1.00  0.00    +0.000 C 
ATOM     32  F4  UNL A   1      20.899  57.215   1.161  1.00  0.00    +0.000 F 
ENDBRANCH   23   24
BRANCH   40   41
ATOM     41  C30 UNL A   1      16.735  48.392  -0.875  1.00  0.00    +0.000 C 
ATOM     42  C31 UNL A   1      15.974  48.078  -2.010  1.00  0.00    +0.000 C 
ATOM     43  F6  UNL A   1      14.761  48.626  -2.182  1.00  0.00    +0.000 F 
ATOM     44  C32 UNL A   1      16.448  47.177  -2.959  1.00  0.00    +0.000 C 
ATOM     45  F7  UNL A   1      15.692  46.865  -4.021  1.00  0.00    +0.000 F 
ATOM     46  C33 UNL A   1      17.698  46.596  -2.806  1.00  0.00    +0.000 C 
ATOM     47  F8  UNL A   1      18.157  45.737  -3.727  1.00  0.00    +0.000 F 
ATOM     48  C34 UNL A   1      18.470  46.899  -1.695  1.00  0.00    +0.000 C 
ATOM     49  F9  UNL A   1      19.683  46.347  -1.551  1.00  0.00    +0.000 F 
ATOM     50  C35 UNL A   1      17.990  47.782  -0.732  1.00  0.00    +0.000 C 
ATOM     51  F10 UNL A   1      18.756  48.054   0.334  1.00  0.00    +0.000 F 
ENDBRANCH   40   41
BRANCH   55   56
ATOM     65  C44 UNL A   1      11.111  47.750   4.181  1.00  0.00    +0.000 C 
ATOM     66  F15 UNL A   1      10.576  48.547   3.244  1.00  0.00    +0.000 F 
ATOM     56  C39 UNL A   1      12.435  47.945   4.596  1.00  0.00    +0.000 C 
ATOM     57  C40 UNL A   1      12.945  47.090   5.583  1.00  0.00    +0.000 C 
ATOM     58  F11 UNL A   1      14.212  47.228   5.998  1.00  0.00    +0.000 F 
ATOM     59  C41 UNL A   1      12.164  46.072   6.125  1.00  0.00    +0.000 C 
ATOM     60  F12 UNL A   1      12.685  45.249   7.045  1.00  0.00    +0.000 F 
ATOM     61  C42 UNL A   1      10.852  45.905   5.709  1.00  0.00    +0.000 C 
ATOM     62  F13 UNL A   1      10.097  44.932   6.237  1.00  0.00    +0.000 F 
ATOM     63  C43 UNL A   1      10.323  46.746   4.740  1.00  0.00    +0.000 C 
ATOM     64  F14 UNL A   1       9.052  46.596   4.345  1.00  0.00    +0.000 F 
ENDBRANCH   55   56
TORSDOF 19
ENDMDL
MODEL 10
REMARK VINA RESULT:     -10.3     26.283     34.362
ROOT
ATOM     19  C15 UNL A   1      21.795  16.087   8.628  1.00  0.00    +0.000 C 
ATOM     20  C16 UNL A   1      20.496  16.683   8.166  1.00  0.00    +0.000 C 
ATOM     21  N3  UNL A   1      19.497  16.114   7.541  1.00  0.00    +0.000 N 
ATOM     22  C17 UNL A   1      18.523  17.096   7.417  1.00  0.00    +0.000 C 
ATOM     23  C18 UNL A   1      17.318  17.017   6.805  1.00  0.00    +0.000 C 
ATOM     35  C25 UNL A   1      16.832  15.845   6.127  1.00  0.00    +0.000 C 
ATOM     36  C26 UNL A   1      15.651  15.682   5.423  1.00  0.00    +0.000 C 
ATOM     37  C27 UNL A   1      15.597  14.363   4.962  1.00  0.00    +0.000 C 
ATOM     38  C28 UNL A   1      16.762  13.716   5.343  1.00  0.00    +0.000 C 
ATOM     39  N4  UNL A   1      17.507  14.635   6.063  1.00  0.00    +0.000 N 
ATOM     40  C29 UNL A   1      17.166  12.361   5.070  1.00  0.00    +0.000 C 
ATOM     52  C36 UNL A   1      18.323  11.792   5.488  1.00  0.00    +0.000 C 
ATOM     53  N5  UNL A   1      19.354  12.356   6.227  1.00  0.00    +0.000 N 
ATOM     54  C37 UNL A   1      20.250  11.412   6.375  1.00  0.00    +0.000 C 
ATOM     55  C38 UNL A   1      21.584  11.470   7.069  1.00  0.00    +0.000 C 
ATOM     67  C45 UNL A   1      22.005  12.638   7.591  1.00  0.00    +0.000 C 
ATOM     68  C46 UNL A   1      23.266  12.846   8.298  1.00  0.00    +0.000 C 
ATOM     69  C47 UNL A   1      23.312  14.109   8.749  1.00  0.00    +0.000 C 
ATOM     70  C48 UNL A   1      22.100  14.812   8.328  1.00  0.00    +0.000 C 
ATOM     71  N6  UNL A   1      21.398  13.870   7.618  1.00  0.00    +0.000 N 
ATOM     72  C49 UNL A   1      19.873  10.126   5.771  1.00  0.00    +0.000 C 
ATOM     73  C50 UNL A   1      18.705  10.422   5.216  1.00  0.00    +0.000 C 
ATOM     74  C51 UNL A   1      19.035  18.285   8.065  1.00  0.00    +0.000 C 
ATOM     75  C52 UNL A   1      20.280  18.104   8.480  1.00  0.00    +0.000 C 
ATOM    111  H21 UNL A   1      14.935  16.408   5.265  1.00  0.00    +0.000 H 
ATOM    112  H22 UNL A   1      14.820  13.941   4.429  1.00  0.00    +0.000 H 
ATOM    113  H23 UNL A   1      18.386  14.456   6.471  1.00  0.00    +0.000 H 
ATOM    114  H24 UNL A   1      24.002  12.135   8.431  1.00  0.00    +0.000 H 
ATOM    115  H25 UNL A   1      24.081  14.520   9.303  1.00  0.00    +0.000 H 
ATOM    116  H26 UNL A   1      20.541  14.059   7.172  1.00  0.00    +0.000 H 
ATOM    117  H27 UNL A   1      20.383   9.228   5.777  1.00  0.00    +0.000 H 
ATOM    118  H28 UNL A   1      18.140   9.760   4.662  1.00  0.00    +0.000 H 
ATOM    119  H29 UNL A   1      18.500  19.158   8.189  1.00  0.00    +0.000 H 
ATOM    120  H30 UNL A   1      20.928  18.782   8.910  1.00  0.00    +0.000 H 
ENDROOT
BRANCH   19   18
ATOM     76  C53 UNL A   1      23.606  17.770   8.906  1.00  0.00    +0.000 C 
ATOM    109  H19 UNL A   1      23.491  17.440  12.719  1.00  0.00    +0.000 H 
ATOM     77  C54 UNL A   1      24.491  18.499   9.693  1.00  0.00    +0.000 C 
ATOM     15  C11 UNL A   1      24.408  18.420  11.086  1.00  0.00    +0.000 C 
ATOM     16  C12 UNL A   1      23.521  17.525  11.690  1.00  0.00    +0.000 C 
ATOM     17  C13 UNL A   1      22.675  16.746  10.898  1.00  0.00    +0.000 C 
ATOM    110  H20 UNL A   1      22.035  16.069  11.340  1.00  0.00    +0.000 H 
ATOM     18  C14 UNL A   1      22.694  16.883   9.500  1.00  0.00    +0.000 C 
ATOM    121  H31 UNL A   1      23.620  17.880   7.881  1.00  0.00    +0.000 H 
ATOM    122  H32 UNL A   1      25.207  19.097   9.250  1.00  0.00    +0.000 H 
BRANCH   15   13
ATOM     13  C10 UNL A   1      25.255  19.280  11.939  1.00  0.00    +0.000 C 
ATOM     14  O2  UNL A   1      24.734  20.100  12.689  1.00  0.00    +0.000 O 
BRANCH   13   12
ATOM    108  H18 UNL A   1      27.015  18.421  12.376  1.00  0.00    +0.000 H 
ATOM     12  N2  UNL A   1      26.621  19.167  11.868  1.00  0.00    +0.000 N 
BRANCH   12   11
ATOM    106  H16 UNL A   1      27.019  20.626  10.463  1.00  0.00    +0.000 H 
ATOM     11  C9  UNL A   1      27.564  20.002  11.141  1.00  0.00    +0.000 C 
ATOM    107  H17 UNL A   1      28.106  20.583  11.858  1.00  0.00    +0.000 H 
BRANCH   11   10
ATOM    105  H15 UNL A   1      28.773  18.305  10.929  1.00  0.00    +0.000 H 
ATOM     10  C8  UNL A   1      28.574  19.181  10.348  1.00  0.00    +0.000 C 
ATOM    104  H14 UNL A   1      29.442  19.786  10.187  1.00  0.00    +0.000 H 
BRANCH   10    9
ATOM      9  C7  UNL A   1      28.075  18.693   8.987  1.00  0.00    +0.000 C 
ATOM    102  H12 UNL A   1      27.151  18.176   9.139  1.00  0.00    +0.000 H 
ATOM    103  H13 UNL A   1      27.978  19.565   8.375  1.00  0.00    +0.000 H 
BRANCH    9    8
ATOM    100  H10 UNL A   1      29.824  17.496   8.915  1.00  0.00    +0.000 H 
ATOM    101  H11 UNL A   1      28.439  16.916   7.939  1.00  0.00    +0.000 H 
ATOM      8  C6  UNL A   1      29.029  17.754   8.246  1.00  0.00    +0.000 C 
BRANCH    8    7
ATOM     98  H8  UNL A   1      29.332  19.340   6.862  1.00  0.00    +0.000 H 
ATOM     99  H9  UNL A   1      30.715  18.233   7.081  1.00  0.00    +0.000 H 
ATOM      7  C5  UNL A   1      29.655  18.326   6.967  1.00  0.00    +0.000 C 
BRANCH    7    6
ATOM     97  H7  UNL A   1      30.115  16.952   5.401  1.00  0.00    +0.000 H 
ATOM      6  C4  UNL A   1      29.288  17.570   5.684  1.00  0.00    +0.000 C 
ATOM     96  H6  UNL A   1      29.072  18.277   4.910  1.00  0.00    +0.000 H 
BRANCH    6    5
ATOM      5  N1  UNL A   1      28.127  16.727   5.896  1.00  0.00    +0.000 N 
ATOM     95  H5  UNL A   1      28.292  15.860   6.333  1.00  0.00    +0.000 H 
BRANCH    5    3
ATOM      3  C3  UNL A   1      26.829  16.998   5.558  1.00  0.00    +0.000 C 
ATOM      4  O1  UNL A   1      26.647  17.679   4.548  1.00  0.00    +0.000 O 
BRANCH    3    2
ATOM      2  C2  UNL A   1      25.687  16.487   6.460  1.00  0.00    +0.000 C 
ATOM     94  H4  UNL A   1      25.275  17.321   6.988  1.00  0.00    +0.000 H 
BRANCH    2    1
ATOM      1  C1  UNL A   1      26.268  15.483   7.464  1.00  0.00    +0.000 C 
ATOM     91  H1  UNL A   1      26.772  16.011   8.246  1.00  0.00    +0.000 H 
ATOM     92  H2  UNL A   1      26.961  14.839   6.965  1.00  0.00    +0.000 H 
ATOM     93  H3  UNL A   1      25.476  14.898   7.883  1.00  0.00    +0.000 H 
ENDBRANCH    2    1
BRANCH    2   78
ATOM    129  H39 UNL A   1      25.309  13.993   5.395  1.00  0.00    +0.000 H 
ATOM     78  C55 UNL A   1      24.490  15.918   5.678  1.00  0.00    +0.000 C 
ATOM     79  C56 UNL A   1      23.388  16.718   5.337  1.00  0.00    +0.000 C 
ATOM     80  C57 UNL A   1      22.280  16.183   4.669  1.00  0.00    +0.000 C 
ATOM     81  C58 UNL A   1      22.249  14.834   4.304  1.00  0.00    +0.000 C 
ATOM     89  C64 UNL A   1      23.374  14.046   4.563  1.00  0.00    +0.000 C 
ATOM     90  C65 UNL A   1      24.481  14.586   5.229  1.00  0.00    +0.000 C 
ATOM    123  H33 UNL A   1      23.394  17.721   5.583  1.00  0.00    +0.000 H 
ATOM    124  H34 UNL A   1      21.477  16.792   4.445  1.00  0.00    +0.000 H 
ATOM    128  H38 UNL A   1      23.388  13.058   4.261  1.00  0.00    +0.000 H 
BRANCH   81   82
ATOM     82  C59 UNL A   1      21.031  14.311   3.607  1.00  0.00    +0.000 C 
ATOM     83  O3  UNL A   1      19.942  14.802   3.902  1.00  0.00    +0.000 O 
BRANCH   82   84
ATOM     84  C60 UNL A   1      21.174  13.264   2.612  1.00  0.00    +0.000 C 
ATOM     85  C61 UNL A   1      20.939  11.905   2.718  1.00  0.00    +0.000 C 
ATOM     86  C62 UNL A   1      21.231  11.212   1.505  1.00  0.00    +0.000 C 
ATOM     87  C63 UNL A   1      21.662  12.067   0.514  1.00  0.00    +0.000 C 
ATOM     88  S1  UNL A   1      21.688  13.695   1.036  1.00  0.00    +0.000 S 
ATOM    125  H35 UNL A   1      20.593  11.446   3.574  1.00  0.00    +0.000 H 
ATOM    126  H36 UNL A   1      21.132  10.192   1.385  1.00  0.00    +0.000 H 
ATOM    127  H37 UNL A   1      21.935  11.760  -0.432  1.00  0.00    +0.000 H 
ENDBRANCH   82   84
ENDBRANCH   81   82
ENDBRANCH    2   78
ENDBRANCH    3    2
ENDBRANCH    5    3
ENDBRANCH    6    5
ENDBRANCH    7    6
ENDBRANCH    8    7
ENDBRANCH    9    8
ENDBRANCH   10    9
ENDBRANCH   11   10
ENDBRANCH   12   11
ENDBRANCH   13   12
ENDBRANCH   15   13
ENDBRANCH   19   18
BRANCH   23   24
ATOM     33  C24 UNL A   1      15.523  18.410   7.893  1.00  0.00    +0.000 C 
ATOM     34  F5  UNL A   1      15.419  17.492   8.866  1.00  0.00    +0.000 F 
ATOM     24  C19 UNL A   1      16.443  18.235   6.849  1.00  0.00    +0.000 C 
ATOM     25  C20 UNL A   1      16.504  19.224   5.855  1.00  0.00    +0.000 C 
ATOM     26  F1  UNL A   1      17.378  19.109   4.843  1.00  0.00    +0.000 F 
ATOM     27  C21 UNL A   1      15.704  20.361   5.925  1.00  0.00    +0.000 C 
ATOM     28  F2  UNL A   1      15.822  21.319   4.996  1.00  0.00    +0.000 F 
ATOM     29  C22 UNL A   1      14.801  20.512   6.966  1.00  0.00    +0.000 C 
ATOM     30  F3  UNL A   1      14.031  21.608   7.033  1.00  0.00    +0.000 F 
ATOM     31  C23 UNL A   1      14.702  19.534   7.944  1.00  0.00    +0.000 C 
ATOM     32  F4  UNL A   1      13.822  19.675   8.945  1.00  0.00    +0.000 F 
ENDBRANCH   23   24
BRANCH   40   41
ATOM     41  C30 UNL A   1      16.246  11.520   4.236  1.00  0.00    +0.000 C 
ATOM     42  C31 UNL A   1      16.350  11.481   2.838  1.00  0.00    +0.000 C 
ATOM     43  F6  UNL A   1      17.240  12.262   2.206  1.00  0.00    +0.000 F 
ATOM     44  C32 UNL A   1      15.518  10.660   2.084  1.00  0.00    +0.000 C 
ATOM     45  F7  UNL A   1      15.610  10.661   0.747  1.00  0.00    +0.000 F 
ATOM     46  C33 UNL A   1      14.589   9.843   2.711  1.00  0.00    +0.000 C 
ATOM     47  F8  UNL A   1      13.796   9.045   1.984  1.00  0.00    +0.000 F 
ATOM     48  C34 UNL A   1      14.476   9.859   4.094  1.00  0.00    +0.000 C 
ATOM     49  F9  UNL A   1      13.586   9.063   4.703  1.00  0.00    +0.000 F 
ATOM     50  C35 UNL A   1      15.290  10.697   4.850  1.00  0.00    +0.000 C 
ATOM     51  F10 UNL A   1      15.157  10.695   6.184  1.00  0.00    +0.000 F 
ENDBRANCH   40   41
BRANCH   55   56
ATOM     65  C44 UNL A   1      22.415   9.418   8.267  1.00  0.00    +0.000 C 
ATOM     66  F15 UNL A   1      21.566   9.666   9.275  1.00  0.00    +0.000 F 
ATOM     56  C39 UNL A   1      22.454  10.271   7.156  1.00  0.00    +0.000 C 
ATOM     57  C40 UNL A   1      23.364   9.972   6.132  1.00  0.00    +0.000 C 
ATOM     58  F11 UNL A   1      23.423  10.750   5.043  1.00  0.00    +0.000 F 
ATOM     59  C41 UNL A   1      24.193   8.856   6.211  1.00  0.00    +0.000 C 
ATOM     60  F12 UNL A   1      25.032   8.575   5.205  1.00  0.00    +0.000 F 
ATOM     61  C42 UNL A   1      24.147   8.032   7.325  1.00  0.00    +0.000 C 
ATOM     62  F13 UNL A   1      24.952   6.964   7.406  1.00  0.00    +0.000 F 
ATOM     63  C43 UNL A   1      23.261   8.314   8.356  1.00  0.00    +0.000 C 
ATOM     64  F14 UNL A   1      23.223   7.527   9.440  1.00  0.00    +0.000 F 
ENDBRANCH   55   56
TORSDOF 19
ENDMDL
