MODEL 1
REMARK VINA RESULT:     -10.4      0.000      0.000
ROOT
ATOM     30  C25 UNL A   1      38.184  29.691  29.884  1.00  0.00    +0.000 C 
ATOM     31  C26 UNL A   1      38.442  30.284  31.240  1.00  0.00    +0.000 C 
ATOM     32  N4  UNL A   1      39.497  30.172  32.008  1.00  0.00    +0.000 N 
ATOM     33  C27 UNL A   1      39.236  30.953  33.126  1.00  0.00    +0.000 C 
ATOM     34  C28 UNL A   1      39.997  31.123  34.234  1.00  0.00    +0.000 C 
ATOM     46  C35 UNL A   1      41.268  30.484  34.451  1.00  0.00    +0.000 C 
ATOM     47  C36 UNL A   1      42.086  30.546  35.566  1.00  0.00    +0.000 C 
ATOM     48  C37 UNL A   1      43.236  29.792  35.307  1.00  0.00    +0.000 C 
ATOM     49  C38 UNL A   1      43.116  29.229  34.047  1.00  0.00    +0.000 C 
ATOM     50  N5  UNL A   1      41.905  29.665  33.533  1.00  0.00    +0.000 N 
ATOM     51  C39 UNL A   1      44.036  28.357  33.362  1.00  0.00    +0.000 C 
ATOM     63  C46 UNL A   1      43.839  27.833  32.127  1.00  0.00    +0.000 C 
ATOM     64  N6  UNL A   1      42.758  27.997  31.273  1.00  0.00    +0.000 N 
ATOM     65  C47 UNL A   1      43.040  27.303  30.197  1.00  0.00    +0.000 C 
ATOM     66  C48 UNL A   1      42.216  27.099  28.955  1.00  0.00    +0.000 C 
ATOM     78  C55 UNL A   1      40.997  27.667  28.873  1.00  0.00    +0.000 C 
ATOM     79  C56 UNL A   1      40.087  27.555  27.736  1.00  0.00    +0.000 C 
ATOM     80  C57 UNL A   1      38.989  28.286  27.983  1.00  0.00    +0.000 C 
ATOM     81  C58 UNL A   1      39.104  28.891  29.311  1.00  0.00    +0.000 C 
ATOM     82  N7  UNL A   1      40.324  28.460  29.769  1.00  0.00    +0.000 N 
ATOM     83  C59 UNL A   1      44.350  26.639  30.239  1.00  0.00    +0.000 C 
ATOM     84  C60 UNL A   1      44.779  26.964  31.451  1.00  0.00    +0.000 C 
ATOM     85  C61 UNL A   1      37.944  31.571  32.918  1.00  0.00    +0.000 C 
ATOM     86  C62 UNL A   1      37.383  31.140  31.797  1.00  0.00    +0.000 C 
ATOM    119  H28 UNL A   1      41.883  31.059  36.438  1.00  0.00    +0.000 H 
ATOM    120  H29 UNL A   1      44.039  29.677  35.946  1.00  0.00    +0.000 H 
ATOM    121  H30 UNL A   1      41.551  29.428  32.645  1.00  0.00    +0.000 H 
ATOM    122  H31 UNL A   1      40.260  27.003  26.882  1.00  0.00    +0.000 H 
ATOM    123  H32 UNL A   1      38.191  28.403  27.340  1.00  0.00    +0.000 H 
ATOM    124  H33 UNL A   1      40.682  28.696  30.654  1.00  0.00    +0.000 H 
ATOM    125  H34 UNL A   1      44.816  26.069  29.514  1.00  0.00    +0.000 H 
ATOM    126  H35 UNL A   1      45.669  26.639  31.859  1.00  0.00    +0.000 H 
ATOM    127  H36 UNL A   1      37.516  32.256  33.558  1.00  0.00    +0.000 H 
ATOM    128  H37 UNL A   1      36.448  31.350  31.415  1.00  0.00    +0.000 H 
ENDROOT
BRANCH   30   29
ATOM    129  H38 UNL A   1      37.608  31.983  28.623  1.00  0.00    +0.000 H 
ATOM    130  H39 UNL A   1      35.560  32.617  27.492  1.00  0.00    +0.000 H 
ATOM    117  H26 UNL A   1      33.983  28.777  28.178  1.00  0.00    +0.000 H 
ATOM    118  H27 UNL A   1      35.949  28.207  29.483  1.00  0.00    +0.000 H 
ATOM     87  C63 UNL A   1      36.830  31.308  28.549  1.00  0.00    +0.000 C 
ATOM     88  C64 UNL A   1      35.669  31.660  27.864  1.00  0.00    +0.000 C 
ATOM     26  C21 UNL A   1      34.653  30.719  27.679  1.00  0.00    +0.000 C 
ATOM     27  C22 UNL A   1      34.750  29.460  28.280  1.00  0.00    +0.000 C 
ATOM     28  C23 UNL A   1      35.888  29.128  29.021  1.00  0.00    +0.000 C 
ATOM     29  C24 UNL A   1      36.948  30.039  29.139  1.00  0.00    +0.000 C 
BRANCH   26   24
ATOM     25  O2  UNL A   1      32.803  32.058  27.160  1.00  0.00    +0.000 O 
ATOM     24  C20 UNL A   1      33.437  31.044  26.899  1.00  0.00    +0.000 C 
BRANCH   24   23
ATOM    116  H25 UNL A   1      33.597  30.209  25.085  1.00  0.00    +0.000 H 
ATOM     23  N3  UNL A   1      33.021  30.218  25.883  1.00  0.00    +0.000 N 
BRANCH   23   22
ATOM    114  H23 UNL A   1      31.080  29.771  26.427  1.00  0.00    +0.000 H 
ATOM    115  H24 UNL A   1      31.548  29.290  24.793  1.00  0.00    +0.000 H 
ATOM     22  C19 UNL A   1      31.853  29.354  25.817  1.00  0.00    +0.000 C 
BRANCH   22   21
ATOM    113  H22 UNL A   1      31.317  27.339  26.034  1.00  0.00    +0.000 H 
ATOM     21  C18 UNL A   1      32.159  27.941  26.307  1.00  0.00    +0.000 C 
ATOM    112  H21 UNL A   1      32.323  27.984  27.365  1.00  0.00    +0.000 H 
BRANCH   21   20
ATOM     20  C17 UNL A   1      33.384  27.284  25.663  1.00  0.00    +0.000 C 
ATOM    110  H19 UNL A   1      33.281  27.365  24.602  1.00  0.00    +0.000 H 
ATOM    111  H20 UNL A   1      34.234  27.802  26.058  1.00  0.00    +0.000 H 
BRANCH   20   19
ATOM     19  C16 UNL A   1      33.603  25.803  26.005  1.00  0.00    +0.000 C 
ATOM    108  H17 UNL A   1      33.823  25.734  27.049  1.00  0.00    +0.000 H 
ATOM    109  H18 UNL A   1      32.705  25.299  25.720  1.00  0.00    +0.000 H 
BRANCH   19   18
ATOM     18  C15 UNL A   1      34.737  25.114  25.236  1.00  0.00    +0.000 C 
ATOM    107  H16 UNL A   1      35.633  25.656  25.455  1.00  0.00    +0.000 H 
ATOM    106  H15 UNL A   1      34.492  25.124  24.195  1.00  0.00    +0.000 H 
BRANCH   18   17
ATOM     17  C14 UNL A   1      34.982  23.664  25.659  1.00  0.00    +0.000 C 
ATOM    105  H14 UNL A   1      35.695  23.668  26.457  1.00  0.00    +0.000 H 
ATOM    104  H13 UNL A   1      35.348  23.115  24.816  1.00  0.00    +0.000 H 
BRANCH   17   16
ATOM    103  H12 UNL A   1      33.324  23.509  26.874  1.00  0.00    +0.000 H 
ATOM     16  N2  UNL A   1      33.773  23.030  26.142  1.00  0.00    +0.000 N 
BRANCH   16   14
ATOM     14  C13 UNL A   1      33.152  21.881  25.754  1.00  0.00    +0.000 C 
ATOM     15  O1  UNL A   1      33.505  20.843  26.327  1.00  0.00    +0.000 O 
BRANCH   14   12
ATOM     99  H8  UNL A   1      31.198  21.444  25.128  1.00  0.00    +0.000 H 
ATOM     12  C11 UNL A   1      32.080  21.824  24.656  1.00  0.00    +0.000 C 
BRANCH   12   11
ATOM     97  H6  UNL A   1      32.227  25.526  21.816  1.00  0.00    +0.000 H 
ATOM     98  H7  UNL A   1      32.822  23.269  22.419  1.00  0.00    +0.000 H 
ATOM    131  H40 UNL A   1      30.290  23.498  25.752  1.00  0.00    +0.000 H 
ATOM    132  H41 UNL A   1      29.589  25.704  25.071  1.00  0.00    +0.000 H 
ATOM      8  C7  UNL A   1      30.862  25.836  23.394  1.00  0.00    +0.000 C 
ATOM      9  C8  UNL A   1      31.797  25.097  22.651  1.00  0.00    +0.000 C 
ATOM     10  C9  UNL A   1      32.161  23.795  23.013  1.00  0.00    +0.000 C 
ATOM     11  C10 UNL A   1      31.646  23.196  24.164  1.00  0.00    +0.000 C 
ATOM     89  C65 UNL A   1      30.701  23.921  24.905  1.00  0.00    +0.000 C 
ATOM     90  C66 UNL A   1      30.305  25.208  24.518  1.00  0.00    +0.000 C 
BRANCH    8    7
ATOM      3  C3  UNL A   1      28.906  29.070  22.891  1.00  0.00    +0.000 C 
ATOM      4  C4  UNL A   1      29.910  29.819  22.287  1.00  0.00    +0.000 C 
ATOM      5  N1  UNL A   1      31.156  29.360  22.034  1.00  0.00    +0.000 N 
ATOM    133  H42 UNL A   1      28.496  27.160  23.686  1.00  0.00    +0.000 H 
ATOM      7  C6  UNL A   1      30.496  27.216  23.006  1.00  0.00    +0.000 C 
ATOM      6  C5  UNL A   1      31.408  28.078  22.392  1.00  0.00    +0.000 C 
ATOM     91  C67 UNL A   1      29.218  27.750  23.244  1.00  0.00    +0.000 C 
ATOM     95  H4  UNL A   1      29.690  30.789  22.015  1.00  0.00    +0.000 H 
ATOM     96  H5  UNL A   1      32.352  27.709  22.196  1.00  0.00    +0.000 H 
BRANCH    3    2
ATOM      2  C2  UNL A   1      27.573  29.652  23.076  1.00  0.00    +0.000 C 
ATOM     94  H3  UNL A   1      26.756  29.076  22.825  1.00  0.00    +0.000 H 
BRANCH    2    1
ATOM      1  C1  UNL A   1      27.348  30.884  23.552  1.00  0.00    +0.000 C 
ATOM     92  H1  UNL A   1      27.593  31.709  22.981  1.00  0.00    +0.000 H 
ATOM     93  H2  UNL A   1      26.932  31.008  24.487  1.00  0.00    +0.000 H 
ENDBRANCH    2    1
ENDBRANCH    3    2
ENDBRANCH    8    7
ENDBRANCH   12   11
BRANCH   12   13
ATOM    101  H10 UNL A   1      32.130  19.797  23.973  1.00  0.00    +0.000 H 
ATOM    100  H9  UNL A   1      31.710  20.957  22.736  1.00  0.00    +0.000 H 
ATOM     13  C12 UNL A   1      32.341  20.769  23.578  1.00  0.00    +0.000 C 
ATOM    102  H11 UNL A   1      33.366  20.816  23.274  1.00  0.00    +0.000 H 
ENDBRANCH   12   13
ENDBRANCH   14   12
ENDBRANCH   16   14
ENDBRANCH   17   16
ENDBRANCH   18   17
ENDBRANCH   19   18
ENDBRANCH   20   19
ENDBRANCH   21   20
ENDBRANCH   22   21
ENDBRANCH   23   22
ENDBRANCH   24   23
ENDBRANCH   26   24
ENDBRANCH   30   29
BRANCH   34   35
ATOM     35  C29 UNL A   1      39.469  32.037  35.302  1.00  0.00    +0.000 C 
ATOM     36  C30 UNL A   1      38.641  31.561  36.330  1.00  0.00    +0.000 C 
ATOM     37  F1  UNL A   1      38.268  30.273  36.355  1.00  0.00    +0.000 F 
ATOM     38  C31 UNL A   1      38.160  32.418  37.317  1.00  0.00    +0.000 C 
ATOM     39  F2  UNL A   1      37.332  31.952  38.261  1.00  0.00    +0.000 F 
ATOM     40  C32 UNL A   1      38.524  33.757  37.314  1.00  0.00    +0.000 C 
ATOM     41  F3  UNL A   1      38.064  34.579  38.267  1.00  0.00    +0.000 F 
ATOM     42  C33 UNL A   1      39.359  34.243  36.319  1.00  0.00    +0.000 C 
ATOM     43  F4  UNL A   1      39.721  35.534  36.323  1.00  0.00    +0.000 F 
ATOM     44  C34 UNL A   1      39.819  33.395  35.315  1.00  0.00    +0.000 C 
ATOM     45  F5  UNL A   1      40.614  33.899  34.359  1.00  0.00    +0.000 F 
ENDBRANCH   34   35
BRANCH   51   52
ATOM     52  C40 UNL A   1      45.300  27.978  34.074  1.00  0.00    +0.000 C 
ATOM     53  C41 UNL A   1      45.373  26.834  34.881  1.00  0.00    +0.000 C 
ATOM     54  F6  UNL A   1      44.285  26.074  35.076  1.00  0.00    +0.000 F 
ATOM     55  C42 UNL A   1      46.560  26.486  35.522  1.00  0.00    +0.000 C 
ATOM     56  F7  UNL A   1      46.597  25.413  36.323  1.00  0.00    +0.000 F 
ATOM     57  C43 UNL A   1      47.699  27.257  35.344  1.00  0.00    +0.000 C 
ATOM     58  F8  UNL A   1      48.842  26.918  35.957  1.00  0.00    +0.000 F 
ATOM     59  C44 UNL A   1      47.653  28.384  34.537  1.00  0.00    +0.000 C 
ATOM     60  F9  UNL A   1      48.756  29.124  34.356  1.00  0.00    +0.000 F 
ATOM     61  C45 UNL A   1      46.462  28.748  33.916  1.00  0.00    +0.000 C 
ATOM     62  F10 UNL A   1      46.443  29.851  33.150  1.00  0.00    +0.000 F 
ENDBRANCH   51   52
BRANCH   66   67
ATOM     67  C49 UNL A   1      42.718  26.258  27.840  1.00  0.00    +0.000 C 
ATOM     68  C50 UNL A   1      43.573  26.794  26.867  1.00  0.00    +0.000 C 
ATOM     69  F11 UNL A   1      43.927  28.086  26.927  1.00  0.00    +0.000 F 
ATOM     70  C51 UNL A   1      44.037  26.016  25.809  1.00  0.00    +0.000 C 
ATOM     71  F12 UNL A   1      44.822  26.564  24.872  1.00  0.00    +0.000 F 
ATOM     72  C52 UNL A   1      43.677  24.680  25.719  1.00  0.00    +0.000 C 
ATOM     73  F13 UNL A   1      44.127  23.930  24.704  1.00  0.00    +0.000 F 
ATOM     74  C53 UNL A   1      42.843  24.124  26.678  1.00  0.00    +0.000 C 
ATOM     75  F14 UNL A   1      42.503  22.830  26.600  1.00  0.00    +0.000 F 
ATOM     76  C54 UNL A   1      42.358  24.908  27.723  1.00  0.00    +0.000 C 
ATOM     77  F15 UNL A   1      41.546  24.347  28.631  1.00  0.00    +0.000 F 
ENDBRANCH   66   67
TORSDOF 20
ENDMDL
MODEL 2
REMARK VINA RESULT:     -10.4      0.879      7.405
ROOT
ATOM     30  C25 UNL A   1      37.973  29.979  29.827  1.00  0.00    +0.000 C 
ATOM     31  C26 UNL A   1      39.021  29.058  29.269  1.00  0.00    +0.000 C 
ATOM     32  N4  UNL A   1      40.133  28.637  29.818  1.00  0.00    +0.000 N 
ATOM     33  C27 UNL A   1      40.705  27.771  28.896  1.00  0.00    +0.000 C 
ATOM     34  C28 UNL A   1      41.891  27.119  28.971  1.00  0.00    +0.000 C 
ATOM     46  C35 UNL A   1      42.805  27.223  30.078  1.00  0.00    +0.000 C 
ATOM     47  C36 UNL A   1      44.056  26.650  30.222  1.00  0.00    +0.000 C 
ATOM     48  C37 UNL A   1      44.557  27.003  31.480  1.00  0.00    +0.000 C 
ATOM     49  C38 UNL A   1      43.637  27.829  32.102  1.00  0.00    +0.000 C 
ATOM     50  N5  UNL A   1      42.565  27.953  31.232  1.00  0.00    +0.000 N 
ATOM     51  C39 UNL A   1      43.726  28.460  33.394  1.00  0.00    +0.000 C 
ATOM     63  C46 UNL A   1      42.781  29.272  33.931  1.00  0.00    +0.000 C 
ATOM     64  N6  UNL A   1      41.567  29.672  33.391  1.00  0.00    +0.000 N 
ATOM     65  C47 UNL A   1      41.009  30.443  34.293  1.00  0.00    +0.000 C 
ATOM     66  C48 UNL A   1      39.696  31.175  34.236  1.00  0.00    +0.000 C 
ATOM     78  C55 UNL A   1      38.943  31.090  33.122  1.00  0.00    +0.000 C 
ATOM     79  C56 UNL A   1      37.653  31.745  32.921  1.00  0.00    +0.000 C 
ATOM     80  C57 UNL A   1      37.170  31.398  31.718  1.00  0.00    +0.000 C 
ATOM     81  C58 UNL A   1      38.132  30.521  31.050  1.00  0.00    +0.000 C 
ATOM     82  N7  UNL A   1      39.158  30.401  31.954  1.00  0.00    +0.000 N 
ATOM     83  C59 UNL A   1      41.798  30.595  35.524  1.00  0.00    +0.000 C 
ATOM     84  C60 UNL A   1      42.884  29.891  35.236  1.00  0.00    +0.000 C 
ATOM     85  C61 UNL A   1      39.798  27.691  27.771  1.00  0.00    +0.000 C 
ATOM     86  C62 UNL A   1      38.773  28.517  27.923  1.00  0.00    +0.000 C 
ATOM    119  H28 UNL A   1      44.537  26.062  29.522  1.00  0.00    +0.000 H 
ATOM    120  H29 UNL A   1      45.460  26.698  31.877  1.00  0.00    +0.000 H 
ATOM    121  H30 UNL A   1      41.752  28.481  31.409  1.00  0.00    +0.000 H 
ATOM    122  H31 UNL A   1      37.190  32.375  33.594  1.00  0.00    +0.000 H 
ATOM    123  H32 UNL A   1      36.265  31.701  31.326  1.00  0.00    +0.000 H 
ATOM    124  H33 UNL A   1      39.970  29.873  31.782  1.00  0.00    +0.000 H 
ATOM    125  H34 UNL A   1      41.567  31.112  36.387  1.00  0.00    +0.000 H 
ATOM    126  H35 UNL A   1      43.700  29.798  35.861  1.00  0.00    +0.000 H 
ATOM    127  H36 UNL A   1      39.932  27.072  26.957  1.00  0.00    +0.000 H 
ATOM    128  H37 UNL A   1      38.003  28.725  27.270  1.00  0.00    +0.000 H 
ENDROOT
BRANCH   30   29
ATOM    129  H38 UNL A   1      37.255  32.227  28.560  1.00  0.00    +0.000 H 
ATOM    130  H39 UNL A   1      35.185  32.718  27.399  1.00  0.00    +0.000 H 
ATOM    117  H26 UNL A   1      33.871  28.776  28.061  1.00  0.00    +0.000 H 
ATOM    118  H27 UNL A   1      35.853  28.343  29.394  1.00  0.00    +0.000 H 
ATOM     87  C63 UNL A   1      36.529  31.499  28.474  1.00  0.00    +0.000 C 
ATOM     88  C64 UNL A   1      35.356  31.771  27.772  1.00  0.00    +0.000 C 
ATOM     26  C21 UNL A   1      34.410  30.761  27.573  1.00  0.00    +0.000 C 
ATOM     27  C22 UNL A   1      34.587  29.511  28.174  1.00  0.00    +0.000 C 
ATOM     28  C23 UNL A   1      35.734  29.258  28.931  1.00  0.00    +0.000 C 
ATOM     29  C24 UNL A   1      36.726  30.241  29.065  1.00  0.00    +0.000 C 
BRANCH   26   24
ATOM     25  O2  UNL A   1      32.488  31.978  27.016  1.00  0.00    +0.000 O 
ATOM     24  C20 UNL A   1      33.186  31.002  26.775  1.00  0.00    +0.000 C 
BRANCH   24   23
ATOM    116  H25 UNL A   1      31.911  30.233  25.435  1.00  0.00    +0.000 H 
ATOM     23  N3  UNL A   1      32.833  30.139  25.766  1.00  0.00    +0.000 N 
BRANCH   23   22
ATOM    114  H23 UNL A   1      34.108  29.529  24.260  1.00  0.00    +0.000 H 
ATOM    115  H24 UNL A   1      34.340  28.743  25.825  1.00  0.00    +0.000 H 
ATOM     22  C19 UNL A   1      33.625  29.106  25.116  1.00  0.00    +0.000 C 
BRANCH   22   21
ATOM    113  H22 UNL A   1      32.198  28.272  23.828  1.00  0.00    +0.000 H 
ATOM     21  C18 UNL A   1      32.767  27.926  24.665  1.00  0.00    +0.000 C 
ATOM    112  H21 UNL A   1      32.160  27.621  25.493  1.00  0.00    +0.000 H 
BRANCH   21   20
ATOM     20  C17 UNL A   1      33.553  26.705  24.177  1.00  0.00    +0.000 C 
ATOM    110  H19 UNL A   1      32.895  26.105  23.584  1.00  0.00    +0.000 H 
ATOM    111  H20 UNL A   1      34.391  27.094  23.637  1.00  0.00    +0.000 H 
BRANCH   20   19
ATOM     19  C16 UNL A   1      34.144  25.810  25.276  1.00  0.00    +0.000 C 
ATOM    108  H17 UNL A   1      34.830  26.399  25.848  1.00  0.00    +0.000 H 
ATOM    109  H18 UNL A   1      33.312  25.449  25.842  1.00  0.00    +0.000 H 
BRANCH   19   18
ATOM     18  C15 UNL A   1      34.889  24.567  24.778  1.00  0.00    +0.000 C 
ATOM    107  H16 UNL A   1      35.867  24.887  24.485  1.00  0.00    +0.000 H 
ATOM    106  H15 UNL A   1      34.334  24.143  23.968  1.00  0.00    +0.000 H 
BRANCH   18   17
ATOM     17  C14 UNL A   1      35.080  23.487  25.846  1.00  0.00    +0.000 C 
ATOM    105  H14 UNL A   1      35.990  23.696  26.370  1.00  0.00    +0.000 H 
ATOM    104  H13 UNL A   1      35.120  22.530  25.368  1.00  0.00    +0.000 H 
BRANCH   17   16
ATOM    103  H12 UNL A   1      34.017  24.235  27.447  1.00  0.00    +0.000 H 
ATOM     16  N2  UNL A   1      33.999  23.484  26.810  1.00  0.00    +0.000 N 
BRANCH   16   14
ATOM     14  C13 UNL A   1      32.963  22.618  26.986  1.00  0.00    +0.000 C 
ATOM     15  O1  UNL A   1      32.905  22.042  28.079  1.00  0.00    +0.000 O 
BRANCH   14   12
ATOM     99  H8  UNL A   1      31.120  21.799  26.406  1.00  0.00    +0.000 H 
ATOM     12  C11 UNL A   1      31.908  22.326  25.909  1.00  0.00    +0.000 C 
BRANCH   12   11
ATOM     97  H6  UNL A   1      29.510  26.307  26.342  1.00  0.00    +0.000 H 
ATOM     98  H7  UNL A   1      30.765  24.458  27.246  1.00  0.00    +0.000 H 
ATOM    131  H40 UNL A   1      31.514  23.075  23.360  1.00  0.00    +0.000 H 
ATOM    132  H41 UNL A   1      30.378  25.000  22.454  1.00  0.00    +0.000 H 
ATOM      8  C7  UNL A   1      29.812  25.823  24.312  1.00  0.00    +0.000 C 
ATOM      9  C8  UNL A   1      29.946  25.630  25.696  1.00  0.00    +0.000 C 
ATOM     10  C9  UNL A   1      30.654  24.544  26.223  1.00  0.00    +0.000 C 
ATOM     11  C10 UNL A   1      31.214  23.574  25.388  1.00  0.00    +0.000 C 
ATOM     89  C65 UNL A   1      31.097  23.765  24.004  1.00  0.00    +0.000 C 
ATOM     90  C66 UNL A   1      30.424  24.876  23.476  1.00  0.00    +0.000 C 
BRANCH    8    7
ATOM      3  C3  UNL A   1      28.917  29.078  22.539  1.00  0.00    +0.000 C 
ATOM      4  C4  UNL A   1      27.543  29.052  22.755  1.00  0.00    +0.000 C 
ATOM      5  N1  UNL A   1      26.896  28.072  23.423  1.00  0.00    +0.000 N 
ATOM    133  H42 UNL A   1      30.691  28.006  22.933  1.00  0.00    +0.000 H 
ATOM      7  C6  UNL A   1      29.050  26.969  23.769  1.00  0.00    +0.000 C 
ATOM      6  C5  UNL A   1      27.664  27.070  23.913  1.00  0.00    +0.000 C 
ATOM     91  C67 UNL A   1      29.667  28.017  23.065  1.00  0.00    +0.000 C 
ATOM     95  H4  UNL A   1      26.982  29.831  22.379  1.00  0.00    +0.000 H 
ATOM     96  H5  UNL A   1      27.185  26.319  24.435  1.00  0.00    +0.000 H 
BRANCH    3    2
ATOM      2  C2  UNL A   1      29.525  30.215  21.840  1.00  0.00    +0.000 C 
ATOM     94  H3  UNL A   1      30.539  30.182  21.656  1.00  0.00    +0.000 H 
BRANCH    2    1
ATOM      1  C1  UNL A   1      28.847  31.293  21.425  1.00  0.00    +0.000 C 
ATOM     92  H1  UNL A   1      28.071  31.665  21.995  1.00  0.00    +0.000 H 
ATOM     93  H2  UNL A   1      29.101  31.751  20.535  1.00  0.00    +0.000 H 
ENDBRANCH    2    1
ENDBRANCH    3    2
ENDBRANCH    8    7
ENDBRANCH   12   11
BRANCH   12   13
ATOM    101  H10 UNL A   1      33.415  21.356  24.740  1.00  0.00    +0.000 H 
ATOM    100  H9  UNL A   1      32.071  20.326  25.168  1.00  0.00    +0.000 H 
ATOM     13  C12 UNL A   1      32.352  21.309  24.855  1.00  0.00    +0.000 C 
ATOM    102  H11 UNL A   1      31.882  21.535  23.921  1.00  0.00    +0.000 H 
ENDBRANCH   12   13
ENDBRANCH   14   12
ENDBRANCH   16   14
ENDBRANCH   17   16
ENDBRANCH   18   17
ENDBRANCH   19   18
ENDBRANCH   20   19
ENDBRANCH   21   20
ENDBRANCH   22   21
ENDBRANCH   23   22
ENDBRANCH   24   23
ENDBRANCH   26   24
ENDBRANCH   30   29
BRANCH   34   35
ATOM     35  C29 UNL A   1      42.268  26.234  27.819  1.00  0.00    +0.000 C 
ATOM     36  C30 UNL A   1      43.171  26.659  26.833  1.00  0.00    +0.000 C 
ATOM     37  F1  UNL A   1      43.689  27.896  26.881  1.00  0.00    +0.000 F 
ATOM     38  C31 UNL A   1      43.516  25.828  25.771  1.00  0.00    +0.000 C 
ATOM     39  F2  UNL A   1      44.343  26.273  24.815  1.00  0.00    +0.000 F 
ATOM     40  C32 UNL A   1      42.992  24.546  25.692  1.00  0.00    +0.000 C 
ATOM     41  F3  UNL A   1      43.329  23.745  24.671  1.00  0.00    +0.000 F 
ATOM     42  C33 UNL A   1      42.115  24.097  26.668  1.00  0.00    +0.000 C 
ATOM     43  F4  UNL A   1      41.619  22.854  26.599  1.00  0.00    +0.000 F 
ATOM     44  C34 UNL A   1      41.747  24.936  27.716  1.00  0.00    +0.000 C 
ATOM     45  F5  UNL A   1      40.885  24.477  28.637  1.00  0.00    +0.000 F 
ENDBRANCH   34   35
BRANCH   51   52
ATOM     52  C40 UNL A   1      44.966  28.223  34.203  1.00  0.00    +0.000 C 
ATOM     53  C41 UNL A   1      45.072  27.135  35.081  1.00  0.00    +0.000 C 
ATOM     54  F6  UNL A   1      44.034  26.303  35.254  1.00  0.00    +0.000 F 
ATOM     55  C42 UNL A   1      46.237  26.918  35.813  1.00  0.00    +0.000 C 
ATOM     56  F7  UNL A   1      46.303  25.897  36.678  1.00  0.00    +0.000 F 
ATOM     57  C43 UNL A   1      47.324  27.766  35.658  1.00  0.00    +0.000 C 
ATOM     58  F8  UNL A   1      48.446  27.553  36.360  1.00  0.00    +0.000 F 
ATOM     59  C44 UNL A   1      47.245  28.839  34.783  1.00  0.00    +0.000 C 
ATOM     60  F9  UNL A   1      48.298  29.654  34.626  1.00  0.00    +0.000 F 
ATOM     61  C45 UNL A   1      46.074  29.073  34.070  1.00  0.00    +0.000 C 
ATOM     62  F10 UNL A   1      46.022  30.127  33.240  1.00  0.00    +0.000 F 
ENDBRANCH   51   52
BRANCH   66   67
ATOM     67  C49 UNL A   1      39.242  32.013  35.374  1.00  0.00    +0.000 C 
ATOM     68  C50 UNL A   1      38.439  31.472  36.386  1.00  0.00    +0.000 C 
ATOM     69  F11 UNL A   1      38.053  30.189  36.319  1.00  0.00    +0.000 F 
ATOM     70  C51 UNL A   1      37.997  32.254  37.450  1.00  0.00    +0.000 C 
ATOM     71  F12 UNL A   1      37.197  31.721  38.383  1.00  0.00    +0.000 F 
ATOM     72  C52 UNL A   1      38.372  33.586  37.536  1.00  0.00    +0.000 C 
ATOM     73  F13 UNL A   1      37.952  34.338  38.563  1.00  0.00    +0.000 F 
ATOM     74  C53 UNL A   1      39.179  34.140  36.554  1.00  0.00    +0.000 C 
ATOM     75  F14 UNL A   1      39.554  35.424  36.641  1.00  0.00    +0.000 F 
ATOM     76  C54 UNL A   1      39.602  33.365  35.476  1.00  0.00    +0.000 C 
ATOM     77  F15 UNL A   1      40.374  33.928  34.535  1.00  0.00    +0.000 F 
ENDBRANCH   66   67
TORSDOF 20
ENDMDL
MODEL 3
REMARK VINA RESULT:     -10.3      0.917      2.120
ROOT
ATOM     30  C25 UNL A   1      38.070  30.041  30.061  1.00  0.00    +0.000 C 
ATOM     31  C26 UNL A   1      38.337  30.519  31.461  1.00  0.00    +0.000 C 
ATOM     32  N4  UNL A   1      39.363  30.278  32.238  1.00  0.00    +0.000 N 
ATOM     33  C27 UNL A   1      39.132  30.996  33.404  1.00  0.00    +0.000 C 
ATOM     34  C28 UNL A   1      39.876  31.033  34.536  1.00  0.00    +0.000 C 
ATOM     46  C35 UNL A   1      41.094  30.291  34.730  1.00  0.00    +0.000 C 
ATOM     47  C36 UNL A   1      41.888  30.216  35.862  1.00  0.00    +0.000 C 
ATOM     48  C37 UNL A   1      42.988  29.402  35.571  1.00  0.00    +0.000 C 
ATOM     49  C38 UNL A   1      42.858  28.937  34.273  1.00  0.00    +0.000 C 
ATOM     50  N5  UNL A   1      41.693  29.494  33.768  1.00  0.00    +0.000 N 
ATOM     51  C39 UNL A   1      43.730  28.051  33.544  1.00  0.00    +0.000 C 
ATOM     63  C46 UNL A   1      43.526  27.630  32.272  1.00  0.00    +0.000 C 
ATOM     64  N6  UNL A   1      42.480  27.931  31.412  1.00  0.00    +0.000 N 
ATOM     65  C47 UNL A   1      42.737  27.295  30.295  1.00  0.00    +0.000 C 
ATOM     66  C48 UNL A   1      41.931  27.238  29.026  1.00  0.00    +0.000 C 
ATOM     78  C55 UNL A   1      40.757  27.896  28.962  1.00  0.00    +0.000 C 
ATOM     79  C56 UNL A   1      39.869  27.929  27.803  1.00  0.00    +0.000 C 
ATOM     80  C57 UNL A   1      38.819  28.718  28.081  1.00  0.00    +0.000 C 
ATOM     81  C58 UNL A   1      38.945  29.219  29.450  1.00  0.00    +0.000 C 
ATOM     82  N7  UNL A   1      40.120  28.671  29.899  1.00  0.00    +0.000 N 
ATOM     83  C59 UNL A   1      43.996  26.537  30.313  1.00  0.00    +0.000 C 
ATOM     84  C60 UNL A   1      44.418  26.745  31.553  1.00  0.00    +0.000 C 
ATOM     85  C61 UNL A   1      37.892  31.718  33.216  1.00  0.00    +0.000 C 
ATOM     86  C62 UNL A   1      37.328  31.407  32.058  1.00  0.00    +0.000 C 
ATOM    119  H28 UNL A   1      41.700  30.680  36.764  1.00  0.00    +0.000 H 
ATOM    120  H29 UNL A   1      43.765  29.185  36.215  1.00  0.00    +0.000 H 
ATOM    121  H30 UNL A   1      41.344  29.345  32.859  1.00  0.00    +0.000 H 
ATOM    122  H31 UNL A   1      40.022  27.427  26.915  1.00  0.00    +0.000 H 
ATOM    123  H32 UNL A   1      38.046  28.937  27.433  1.00  0.00    +0.000 H 
ATOM    124  H33 UNL A   1      40.473  28.819  30.805  1.00  0.00    +0.000 H 
ATOM    125  H34 UNL A   1      44.438  25.988  29.558  1.00  0.00    +0.000 H 
ATOM    126  H35 UNL A   1      45.273  26.329  31.954  1.00  0.00    +0.000 H 
ATOM    127  H36 UNL A   1      37.498  32.386  33.896  1.00  0.00    +0.000 H 
ATOM    128  H37 UNL A   1      36.419  31.710  31.675  1.00  0.00    +0.000 H 
ENDROOT
BRANCH   30   29
ATOM    129  H38 UNL A   1      35.855  28.680  29.419  1.00  0.00    +0.000 H 
ATOM    130  H39 UNL A   1      33.945  29.417  28.122  1.00  0.00    +0.000 H 
ATOM    117  H26 UNL A   1      35.596  33.278  27.872  1.00  0.00    +0.000 H 
ATOM    118  H27 UNL A   1      37.599  32.491  28.996  1.00  0.00    +0.000 H 
ATOM     87  C63 UNL A   1      35.812  29.651  29.073  1.00  0.00    +0.000 C 
ATOM     88  C64 UNL A   1      34.696  30.084  28.361  1.00  0.00    +0.000 C 
ATOM     26  C21 UNL A   1      34.591  31.422  27.971  1.00  0.00    +0.000 C 
ATOM     27  C22 UNL A   1      35.656  32.300  28.194  1.00  0.00    +0.000 C 
ATOM     28  C23 UNL A   1      36.803  31.849  28.852  1.00  0.00    +0.000 C 
ATOM     29  C24 UNL A   1      36.880  30.529  29.320  1.00  0.00    +0.000 C 
BRANCH   26   24
ATOM     25  O2  UNL A   1      32.955  33.042  27.533  1.00  0.00    +0.000 O 
ATOM     24  C20 UNL A   1      33.386  31.926  27.272  1.00  0.00    +0.000 C 
BRANCH   24   23
ATOM    116  H25 UNL A   1      33.168  31.150  25.437  1.00  0.00    +0.000 H 
ATOM     23  N3  UNL A   1      32.754  31.150  26.330  1.00  0.00    +0.000 N 
BRANCH   23   22
ATOM    114  H23 UNL A   1      31.471  30.012  27.480  1.00  0.00    +0.000 H 
ATOM    115  H24 UNL A   1      30.719  30.919  26.164  1.00  0.00    +0.000 H 
ATOM     22  C19 UNL A   1      31.560  30.329  26.462  1.00  0.00    +0.000 C 
BRANCH   22   21
ATOM    113  H22 UNL A   1      32.265  29.342  24.753  1.00  0.00    +0.000 H 
ATOM     21  C18 UNL A   1      31.613  29.095  25.564  1.00  0.00    +0.000 C 
ATOM    112  H21 UNL A   1      30.614  28.869  25.251  1.00  0.00    +0.000 H 
BRANCH   21   20
ATOM     20  C17 UNL A   1      32.200  27.842  26.222  1.00  0.00    +0.000 C 
ATOM    110  H19 UNL A   1      32.658  28.138  27.142  1.00  0.00    +0.000 H 
ATOM    111  H20 UNL A   1      31.380  27.165  26.343  1.00  0.00    +0.000 H 
BRANCH   20   19
ATOM     19  C16 UNL A   1      33.249  27.085  25.395  1.00  0.00    +0.000 C 
ATOM    108  H17 UNL A   1      32.851  26.938  24.413  1.00  0.00    +0.000 H 
ATOM    109  H18 UNL A   1      34.132  27.686  25.416  1.00  0.00    +0.000 H 
BRANCH   19   18
ATOM     18  C15 UNL A   1      33.657  25.715  25.950  1.00  0.00    +0.000 C 
ATOM    107  H16 UNL A   1      32.758  25.147  26.066  1.00  0.00    +0.000 H 
ATOM    106  H15 UNL A   1      34.171  25.867  26.876  1.00  0.00    +0.000 H 
BRANCH   18   17
ATOM     17  C14 UNL A   1      34.569  24.914  25.019  1.00  0.00    +0.000 C 
ATOM    105  H14 UNL A   1      35.560  24.941  25.423  1.00  0.00    +0.000 H 
ATOM    104  H13 UNL A   1      34.538  25.351  24.042  1.00  0.00    +0.000 H 
BRANCH   17   16
ATOM    103  H12 UNL A   1      34.776  22.891  25.357  1.00  0.00    +0.000 H 
ATOM     16  N2  UNL A   1      34.162  23.527  24.925  1.00  0.00    +0.000 N 
BRANCH   16   14
ATOM     14  C13 UNL A   1      33.074  22.955  24.339  1.00  0.00    +0.000 C 
ATOM     15  O1  UNL A   1      32.544  22.022  24.955  1.00  0.00    +0.000 O 
BRANCH   14   12
ATOM     99  H8  UNL A   1      31.817  22.633  22.690  1.00  0.00    +0.000 H 
ATOM     12  C11 UNL A   1      32.510  23.395  22.980  1.00  0.00    +0.000 C 
BRANCH   12   11
ATOM     97  H6  UNL A   1      28.905  25.927  24.523  1.00  0.00    +0.000 H 
ATOM     98  H7  UNL A   1      30.350  23.998  24.594  1.00  0.00    +0.000 H 
ATOM    131  H40 UNL A   1      32.726  25.673  21.575  1.00  0.00    +0.000 H 
ATOM    132  H41 UNL A   1      31.362  27.662  21.602  1.00  0.00    +0.000 H 
ATOM      8  C7  UNL A   1      29.987  26.973  23.045  1.00  0.00    +0.000 C 
ATOM      9  C8  UNL A   1      29.727  25.889  23.898  1.00  0.00    +0.000 C 
ATOM     10  C9  UNL A   1      30.551  24.758  23.925  1.00  0.00    +0.000 C 
ATOM     11  C10 UNL A   1      31.641  24.640  23.061  1.00  0.00    +0.000 C 
ATOM     89  C65 UNL A   1      31.918  25.723  22.214  1.00  0.00    +0.000 C 
ATOM     90  C66 UNL A   1      31.116  26.874  22.219  1.00  0.00    +0.000 C 
BRANCH    8    7
ATOM      3  C3  UNL A   1      28.680  30.523  22.573  1.00  0.00    +0.000 C 
ATOM      4  C4  UNL A   1      27.363  30.305  22.962  1.00  0.00    +0.000 C 
ATOM      5  N1  UNL A   1      26.874  29.110  23.360  1.00  0.00    +0.000 N 
ATOM    133  H42 UNL A   1      30.537  29.550  22.341  1.00  0.00    +0.000 H 
ATOM      7  C6  UNL A   1      29.100  28.156  23.019  1.00  0.00    +0.000 C 
ATOM      6  C5  UNL A   1      27.753  28.079  23.384  1.00  0.00    +0.000 C 
ATOM     91  C67 UNL A   1      29.549  29.425  22.614  1.00  0.00    +0.000 C 
ATOM     95  H4  UNL A   1      26.716  31.108  22.944  1.00  0.00    +0.000 H 
ATOM     96  H5  UNL A   1      27.399  27.161  23.696  1.00  0.00    +0.000 H 
BRANCH    3    2
ATOM      2  C2  UNL A   1      29.117  31.873  22.202  1.00  0.00    +0.000 C 
ATOM     94  H3  UNL A   1      29.590  31.994  21.294  1.00  0.00    +0.000 H 
BRANCH    2    1
ATOM      1  C1  UNL A   1      28.943  32.959  22.967  1.00  0.00    +0.000 C 
ATOM     92  H1  UNL A   1      28.084  33.058  23.532  1.00  0.00    +0.000 H 
ATOM     93  H2  UNL A   1      29.665  33.695  22.991  1.00  0.00    +0.000 H 
ENDBRANCH    2    1
ENDBRANCH    3    2
ENDBRANCH    8    7
ENDBRANCH   12   11
BRANCH   12   13
ATOM    101  H10 UNL A   1      34.504  23.179  22.233  1.00  0.00    +0.000 H 
ATOM    100  H9  UNL A   1      33.269  22.559  21.163  1.00  0.00    +0.000 H 
ATOM     13  C12 UNL A   1      33.525  23.351  21.835  1.00  0.00    +0.000 C 
ATOM    102  H11 UNL A   1      33.512  24.283  21.311  1.00  0.00    +0.000 H 
ENDBRANCH   12   13
ENDBRANCH   14   12
ENDBRANCH   16   14
ENDBRANCH   17   16
ENDBRANCH   18   17
ENDBRANCH   19   18
ENDBRANCH   20   19
ENDBRANCH   21   20
ENDBRANCH   22   21
ENDBRANCH   23   22
ENDBRANCH   24   23
ENDBRANCH   26   24
ENDBRANCH   30   29
BRANCH   34   35
ATOM     35  C29 UNL A   1      39.389  31.906  35.655  1.00  0.00    +0.000 C 
ATOM     36  C30 UNL A   1      39.821  33.234  35.791  1.00  0.00    +0.000 C 
ATOM     37  F1  UNL A   1      40.720  33.741  34.936  1.00  0.00    +0.000 F 
ATOM     38  C31 UNL A   1      39.359  34.034  36.833  1.00  0.00    +0.000 C 
ATOM     39  F2  UNL A   1      39.823  35.283  36.972  1.00  0.00    +0.000 F 
ATOM     40  C32 UNL A   1      38.433  33.535  37.737  1.00  0.00    +0.000 C 
ATOM     41  F3  UNL A   1      37.986  34.308  38.736  1.00  0.00    +0.000 F 
ATOM     42  C33 UNL A   1      37.975  32.232  37.608  1.00  0.00    +0.000 C 
ATOM     43  F4  UNL A   1      37.071  31.753  38.473  1.00  0.00    +0.000 F 
ATOM     44  C34 UNL A   1      38.456  31.420  36.584  1.00  0.00    +0.000 C 
ATOM     45  F5  UNL A   1      38.005  30.160  36.494  1.00  0.00    +0.000 F 
ENDBRANCH   34   35
BRANCH   51   52
ATOM     52  C40 UNL A   1      44.947  27.534  34.250  1.00  0.00    +0.000 C 
ATOM     53  C41 UNL A   1      46.163  28.234  34.225  1.00  0.00    +0.000 C 
ATOM     54  F6  UNL A   1      46.274  29.368  33.517  1.00  0.00    +0.000 F 
ATOM     55  C42 UNL A   1      47.281  27.750  34.900  1.00  0.00    +0.000 C 
ATOM     56  F7  UNL A   1      48.443  28.412  34.828  1.00  0.00    +0.000 F 
ATOM     57  C43 UNL A   1      47.196  26.576  35.635  1.00  0.00    +0.000 C 
ATOM     58  F8  UNL A   1      48.271  26.114  36.287  1.00  0.00    +0.000 F 
ATOM     59  C44 UNL A   1      45.999  25.877  35.685  1.00  0.00    +0.000 C 
ATOM     60  F9  UNL A   1      45.913  24.748  36.403  1.00  0.00    +0.000 F 
ATOM     61  C45 UNL A   1      44.888  26.345  34.991  1.00  0.00    +0.000 C 
ATOM     62  F10 UNL A   1      43.746  25.641  35.049  1.00  0.00    +0.000 F 
ENDBRANCH   51   52
BRANCH   66   67
ATOM     67  C49 UNL A   1      42.398  26.443  27.863  1.00  0.00    +0.000 C 
ATOM     68  C50 UNL A   1      43.287  26.993  26.929  1.00  0.00    +0.000 C 
ATOM     69  F11 UNL A   1      43.704  28.260  27.070  1.00  0.00    +0.000 F 
ATOM     70  C51 UNL A   1      43.719  26.259  25.827  1.00  0.00    +0.000 C 
ATOM     71  F12 UNL A   1      44.537  26.823  24.929  1.00  0.00    +0.000 F 
ATOM     72  C52 UNL A   1      43.293  24.951  25.653  1.00  0.00    +0.000 C 
ATOM     73  F13 UNL A   1      43.713  24.243  24.596  1.00  0.00    +0.000 F 
ATOM     74  C53 UNL A   1      42.425  24.380  26.572  1.00  0.00    +0.000 C 
ATOM     75  F14 UNL A   1      42.022  23.112  26.413  1.00  0.00    +0.000 F 
ATOM     76  C54 UNL A   1      41.973  25.122  27.661  1.00  0.00    +0.000 C 
ATOM     77  F15 UNL A   1      41.127  24.548  28.530  1.00  0.00    +0.000 F 
ENDBRANCH   66   67
TORSDOF 20
ENDMDL
MODEL 4
REMARK VINA RESULT:     -10.3      0.869      7.316
ROOT
ATOM     30  C25 UNL A   1      37.882  30.030  29.832  1.00  0.00    +0.000 C 
ATOM     31  C26 UNL A   1      38.922  29.104  29.266  1.00  0.00    +0.000 C 
ATOM     32  N4  UNL A   1      40.029  28.666  29.814  1.00  0.00    +0.000 N 
ATOM     33  C27 UNL A   1      40.595  27.805  28.884  1.00  0.00    +0.000 C 
ATOM     34  C28 UNL A   1      41.774  27.140  28.955  1.00  0.00    +0.000 C 
ATOM     46  C35 UNL A   1      42.685  27.223  30.067  1.00  0.00    +0.000 C 
ATOM     47  C36 UNL A   1      43.930  26.635  30.208  1.00  0.00    +0.000 C 
ATOM     48  C37 UNL A   1      44.431  26.968  31.471  1.00  0.00    +0.000 C 
ATOM     49  C38 UNL A   1      43.517  27.797  32.100  1.00  0.00    +0.000 C 
ATOM     50  N5  UNL A   1      42.449  27.942  31.228  1.00  0.00    +0.000 N 
ATOM     51  C39 UNL A   1      43.608  28.413  33.399  1.00  0.00    +0.000 C 
ATOM     63  C46 UNL A   1      42.670  29.228  33.942  1.00  0.00    +0.000 C 
ATOM     64  N6  UNL A   1      41.462  29.647  33.403  1.00  0.00    +0.000 N 
ATOM     65  C47 UNL A   1      40.908  30.412  34.312  1.00  0.00    +0.000 C 
ATOM     66  C48 UNL A   1      39.604  31.159  34.259  1.00  0.00    +0.000 C 
ATOM     78  C55 UNL A   1      38.853  31.093  33.142  1.00  0.00    +0.000 C 
ATOM     79  C56 UNL A   1      37.571  31.764  32.944  1.00  0.00    +0.000 C 
ATOM     80  C57 UNL A   1      37.088  31.435  31.736  1.00  0.00    +0.000 C 
ATOM     81  C58 UNL A   1      38.044  30.556  31.061  1.00  0.00    +0.000 C 
ATOM     82  N7  UNL A   1      39.065  30.416  31.967  1.00  0.00    +0.000 N 
ATOM     83  C59 UNL A   1      41.696  30.543  35.546  1.00  0.00    +0.000 C 
ATOM     84  C60 UNL A   1      42.776  29.832  35.254  1.00  0.00    +0.000 C 
ATOM     85  C61 UNL A   1      39.691  27.746  27.756  1.00  0.00    +0.000 C 
ATOM     86  C62 UNL A   1      38.674  28.581  27.914  1.00  0.00    +0.000 C 
ATOM    119  H28 UNL A   1      44.407  26.051  29.503  1.00  0.00    +0.000 H 
ATOM    120  H29 UNL A   1      45.330  26.650  31.867  1.00  0.00    +0.000 H 
ATOM    121  H30 UNL A   1      41.641  28.476  31.408  1.00  0.00    +0.000 H 
ATOM    122  H31 UNL A   1      37.112  32.391  33.623  1.00  0.00    +0.000 H 
ATOM    123  H32 UNL A   1      36.187  31.752  31.345  1.00  0.00    +0.000 H 
ATOM    124  H33 UNL A   1      39.872  29.882  31.791  1.00  0.00    +0.000 H 
ATOM    125  H34 UNL A   1      41.467  31.053  36.414  1.00  0.00    +0.000 H 
ATOM    126  H35 UNL A   1      43.588  29.723  35.881  1.00  0.00    +0.000 H 
ATOM    127  H36 UNL A   1      39.821  27.136  26.935  1.00  0.00    +0.000 H 
ATOM    128  H37 UNL A   1      37.907  28.804  27.261  1.00  0.00    +0.000 H 
ENDROOT
BRANCH   30   29
ATOM    129  H38 UNL A   1      37.191  32.299  28.589  1.00  0.00    +0.000 H 
ATOM    130  H39 UNL A   1      35.129  32.824  27.428  1.00  0.00    +0.000 H 
ATOM    117  H26 UNL A   1      33.775  28.888  28.038  1.00  0.00    +0.000 H 
ATOM    118  H27 UNL A   1      35.748  28.420  29.373  1.00  0.00    +0.000 H 
ATOM     87  C63 UNL A   1      36.457  31.580  28.492  1.00  0.00    +0.000 C 
ATOM     88  C64 UNL A   1      35.289  31.871  27.790  1.00  0.00    +0.000 C 
ATOM     26  C21 UNL A   1      34.335  30.873  27.576  1.00  0.00    +0.000 C 
ATOM     27  C22 UNL A   1      34.497  29.615  28.163  1.00  0.00    +0.000 C 
ATOM     28  C23 UNL A   1      35.640  29.342  28.920  1.00  0.00    +0.000 C 
ATOM     29  C24 UNL A   1      36.641  30.313  29.069  1.00  0.00    +0.000 C 
BRANCH   26   24
ATOM     25  O2  UNL A   1      32.577  32.233  26.836  1.00  0.00    +0.000 O 
ATOM     24  C20 UNL A   1      33.116  31.135  26.777  1.00  0.00    +0.000 C 
BRANCH   24   23
ATOM    116  H25 UNL A   1      31.610  30.067  25.998  1.00  0.00    +0.000 H 
ATOM     23  N3  UNL A   1      32.590  30.156  25.969  1.00  0.00    +0.000 N 
BRANCH   23   22
ATOM    114  H23 UNL A   1      33.107  29.543  24.066  1.00  0.00    +0.000 H 
ATOM    115  H24 UNL A   1      34.314  29.246  25.321  1.00  0.00    +0.000 H 
ATOM     22  C19 UNL A   1      33.272  29.232  25.076  1.00  0.00    +0.000 C 
BRANCH   22   21
ATOM    113  H22 UNL A   1      31.740  27.809  24.944  1.00  0.00    +0.000 H 
ATOM     21  C18 UNL A   1      32.768  27.800  25.241  1.00  0.00    +0.000 C 
ATOM    112  H21 UNL A   1      32.911  27.512  26.262  1.00  0.00    +0.000 H 
BRANCH   21   20
ATOM     20  C17 UNL A   1      33.464  26.764  24.353  1.00  0.00    +0.000 C 
ATOM    110  H19 UNL A   1      32.724  26.327  23.715  1.00  0.00    +0.000 H 
ATOM    111  H20 UNL A   1      34.230  27.297  23.828  1.00  0.00    +0.000 H 
BRANCH   20   19
ATOM     19  C16 UNL A   1      34.181  25.626  25.094  1.00  0.00    +0.000 C 
ATOM    108  H17 UNL A   1      34.979  26.054  25.662  1.00  0.00    +0.000 H 
ATOM    109  H18 UNL A   1      33.435  25.148  25.693  1.00  0.00    +0.000 H 
BRANCH   19   18
ATOM     18  C15 UNL A   1      34.770  24.530  24.199  1.00  0.00    +0.000 C 
ATOM    107  H16 UNL A   1      35.689  24.911  23.806  1.00  0.00    +0.000 H 
ATOM    106  H15 UNL A   1      34.058  24.301  23.433  1.00  0.00    +0.000 H 
BRANCH   18   17
ATOM     17  C14 UNL A   1      35.108  23.236  24.941  1.00  0.00    +0.000 C 
ATOM    105  H14 UNL A   1      36.135  23.285  25.242  1.00  0.00    +0.000 H 
ATOM    104  H13 UNL A   1      34.937  22.406  24.287  1.00  0.00    +0.000 H 
BRANCH   17   16
ATOM    103  H12 UNL A   1      34.495  23.713  26.851  1.00  0.00    +0.000 H 
ATOM     16  N2  UNL A   1      34.301  23.069  26.132  1.00  0.00    +0.000 N 
BRANCH   16   14
ATOM     14  C13 UNL A   1      33.320  22.172  26.426  1.00  0.00    +0.000 C 
ATOM     15  O1  UNL A   1      33.464  21.518  27.466  1.00  0.00    +0.000 O 
BRANCH   14   12
ATOM     99  H8  UNL A   1      31.368  21.449  26.159  1.00  0.00    +0.000 H 
ATOM     12  C11 UNL A   1      32.091  21.935  25.536  1.00  0.00    +0.000 C 
BRANCH   12   11
ATOM     97  H6  UNL A   1      29.774  25.910  26.324  1.00  0.00    +0.000 H 
ATOM     98  H7  UNL A   1      31.051  23.999  27.052  1.00  0.00    +0.000 H 
ATOM    131  H40 UNL A   1      31.568  22.831  23.059  1.00  0.00    +0.000 H 
ATOM    132  H41 UNL A   1      30.410  24.816  22.326  1.00  0.00    +0.000 H 
ATOM      8  C7  UNL A   1      29.958  25.539  24.256  1.00  0.00    +0.000 C 
ATOM      9  C8  UNL A   1      30.165  25.266  25.617  1.00  0.00    +0.000 C 
ATOM     10  C9  UNL A   1      30.886  24.144  26.043  1.00  0.00    +0.000 C 
ATOM     11  C10 UNL A   1      31.386  23.218  25.126  1.00  0.00    +0.000 C 
ATOM     89  C65 UNL A   1      31.196  23.488  23.762  1.00  0.00    +0.000 C 
ATOM     90  C66 UNL A   1      30.510  24.634  23.336  1.00  0.00    +0.000 C 
BRANCH    8    7
ATOM      3  C3  UNL A   1      29.013  28.904  22.733  1.00  0.00    +0.000 C 
ATOM      4  C4  UNL A   1      27.651  28.873  23.009  1.00  0.00    +0.000 C 
ATOM      5  N1  UNL A   1      27.025  27.857  23.644  1.00  0.00    +0.000 N 
ATOM    133  H42 UNL A   1      30.793  27.798  22.978  1.00  0.00    +0.000 H 
ATOM      7  C6  UNL A   1      29.182  26.721  23.822  1.00  0.00    +0.000 C 
ATOM      6  C5  UNL A   1      27.805  26.821  24.035  1.00  0.00    +0.000 C 
ATOM     91  C67 UNL A   1      29.776  27.807  23.157  1.00  0.00    +0.000 C 
ATOM     95  H4  UNL A   1      27.080  29.678  22.709  1.00  0.00    +0.000 H 
ATOM     96  H5  UNL A   1      27.344  26.042  24.530  1.00  0.00    +0.000 H 
BRANCH    3    2
ATOM      2  C2  UNL A   1      29.599  30.079  22.079  1.00  0.00    +0.000 C 
ATOM     94  H3  UNL A   1      30.621  30.205  22.140  1.00  0.00    +0.000 H 
BRANCH    2    1
ATOM      1  C1  UNL A   1      28.893  30.997  21.408  1.00  0.00    +0.000 C 
ATOM     92  H1  UNL A   1      28.253  30.705  20.652  1.00  0.00    +0.000 H 
ATOM     93  H2  UNL A   1      28.988  31.997  21.646  1.00  0.00    +0.000 H 
ENDBRANCH    2    1
ENDBRANCH    3    2
ENDBRANCH    8    7
ENDBRANCH   12   11
BRANCH   12   13
ATOM    101  H10 UNL A   1      33.293  21.003  24.030  1.00  0.00    +0.000 H 
ATOM    100  H9  UNL A   1      32.190  19.915  24.838  1.00  0.00    +0.000 H 
ATOM     13  C12 UNL A   1      32.306  20.897  24.432  1.00  0.00    +0.000 C 
ATOM    102  H11 UNL A   1      31.587  21.050  23.655  1.00  0.00    +0.000 H 
ENDBRANCH   12   13
ENDBRANCH   14   12
ENDBRANCH   16   14
ENDBRANCH   17   16
ENDBRANCH   18   17
ENDBRANCH   19   18
ENDBRANCH   20   19
ENDBRANCH   21   20
ENDBRANCH   22   21
ENDBRANCH   23   22
ENDBRANCH   24   23
ENDBRANCH   26   24
ENDBRANCH   30   29
BRANCH   34   35
ATOM     35  C29 UNL A   1      42.146  26.264  27.795  1.00  0.00    +0.000 C 
ATOM     36  C30 UNL A   1      41.592  24.985  27.635  1.00  0.00    +0.000 C 
ATOM     37  F1  UNL A   1      40.740  24.498  28.549  1.00  0.00    +0.000 F 
ATOM     38  C31 UNL A   1      41.943  24.183  26.552  1.00  0.00    +0.000 C 
ATOM     39  F2  UNL A   1      41.440  22.946  26.445  1.00  0.00    +0.000 F 
ATOM     40  C32 UNL A   1      42.826  24.656  25.592  1.00  0.00    +0.000 C 
ATOM     41  F3  UNL A   1      43.160  23.885  24.548  1.00  0.00    +0.000 F 
ATOM     42  C33 UNL A   1      43.368  25.926  25.719  1.00  0.00    +0.000 C 
ATOM     43  F4  UNL A   1      44.211  26.389  24.786  1.00  0.00    +0.000 F 
ATOM     44  C34 UNL A   1      43.041  26.720  26.816  1.00  0.00    +0.000 C 
ATOM     45  F5  UNL A   1      43.593  27.938  26.918  1.00  0.00    +0.000 F 
ENDBRANCH   34   35
BRANCH   51   52
ATOM     52  C40 UNL A   1      44.843  28.154  34.208  1.00  0.00    +0.000 C 
ATOM     53  C41 UNL A   1      45.957  29.003  34.138  1.00  0.00    +0.000 C 
ATOM     54  F6  UNL A   1      45.959  30.048  33.297  1.00  0.00    +0.000 F 
ATOM     55  C42 UNL A   1      47.091  28.760  34.910  1.00  0.00    +0.000 C 
ATOM     56  F7  UNL A   1      48.161  29.558  34.797  1.00  0.00    +0.000 F 
ATOM     57  C43 UNL A   1      47.120  27.683  35.784  1.00  0.00    +0.000 C 
ATOM     58  F8  UNL A   1      48.210  27.453  36.529  1.00  0.00    +0.000 F 
ATOM     59  C44 UNL A   1      46.023  26.840  35.880  1.00  0.00    +0.000 C 
ATOM     60  F9  UNL A   1      46.046  25.805  36.732  1.00  0.00    +0.000 F 
ATOM     61  C45 UNL A   1      44.899  27.066  35.092  1.00  0.00    +0.000 C 
ATOM     62  F10 UNL A   1      43.856  26.227  35.197  1.00  0.00    +0.000 F 
ENDBRANCH   51   52
BRANCH   66   67
ATOM     67  C49 UNL A   1      39.155  31.989  35.405  1.00  0.00    +0.000 C 
ATOM     68  C50 UNL A   1      39.503  33.344  35.488  1.00  0.00    +0.000 C 
ATOM     69  F11 UNL A   1      40.269  33.897  34.536  1.00  0.00    +0.000 F 
ATOM     70  C51 UNL A   1      39.098  34.126  36.566  1.00  0.00    +0.000 C 
ATOM     71  F12 UNL A   1      39.478  35.409  36.640  1.00  0.00    +0.000 F 
ATOM     72  C52 UNL A   1      38.314  33.575  37.569  1.00  0.00    +0.000 C 
ATOM     73  F13 UNL A   1      37.920  34.329  38.604  1.00  0.00    +0.000 F 
ATOM     74  C53 UNL A   1      37.945  32.240  37.500  1.00  0.00    +0.000 C 
ATOM     75  F14 UNL A   1      37.177  31.708  38.462  1.00  0.00    +0.000 F 
ATOM     76  C54 UNL A   1      38.371  31.451  36.434  1.00  0.00    +0.000 C 
ATOM     77  F15 UNL A   1      38.007  30.160  36.398  1.00  0.00    +0.000 F 
ENDBRANCH   66   67
TORSDOF 20
ENDMDL
MODEL 5
REMARK VINA RESULT:     -10.2      3.648      8.776
ROOT
ATOM     30  C25 UNL A   1      40.670  27.896  28.462  1.00  0.00    +0.000 C 
ATOM     31  C26 UNL A   1      42.111  28.093  28.840  1.00  0.00    +0.000 C 
ATOM     32  N4  UNL A   1      42.679  29.109  29.442  1.00  0.00    +0.000 N 
ATOM     33  C27 UNL A   1      44.015  28.761  29.589  1.00  0.00    +0.000 C 
ATOM     34  C28 UNL A   1      45.029  29.498  30.104  1.00  0.00    +0.000 C 
ATOM     46  C35 UNL A   1      44.882  30.839  30.606  1.00  0.00    +0.000 C 
ATOM     47  C36 UNL A   1      45.859  31.691  31.092  1.00  0.00    +0.000 C 
ATOM     48  C37 UNL A   1      45.240  32.878  31.500  1.00  0.00    +0.000 C 
ATOM     49  C38 UNL A   1      43.886  32.782  31.230  1.00  0.00    +0.000 C 
ATOM     50  N5  UNL A   1      43.679  31.524  30.685  1.00  0.00    +0.000 N 
ATOM     51  C39 UNL A   1      42.854  33.763  31.452  1.00  0.00    +0.000 C 
ATOM     63  C46 UNL A   1      41.543  33.596  31.147  1.00  0.00    +0.000 C 
ATOM     64  N6  UNL A   1      40.914  32.501  30.573  1.00  0.00    +0.000 N 
ATOM     65  C47 UNL A   1      39.644  32.816  30.490  1.00  0.00    +0.000 C 
ATOM     66  C48 UNL A   1      38.501  32.018  29.927  1.00  0.00    +0.000 C 
ATOM     78  C55 UNL A   1      38.745  30.803  29.397  1.00  0.00    +0.000 C 
ATOM     79  C56 UNL A   1      37.741  29.918  28.813  1.00  0.00    +0.000 C 
ATOM     80  C57 UNL A   1      38.334  28.777  28.431  1.00  0.00    +0.000 C 
ATOM     81  C58 UNL A   1      39.767  28.864  28.714  1.00  0.00    +0.000 C 
ATOM     82  N7  UNL A   1      39.921  30.105  29.278  1.00  0.00    +0.000 N 
ATOM     83  C59 UNL A   1      39.321  34.144  31.032  1.00  0.00    +0.000 C 
ATOM     84  C60 UNL A   1      40.518  34.591  31.384  1.00  0.00    +0.000 C 
ATOM     85  C61 UNL A   1      44.166  27.424  29.056  1.00  0.00    +0.000 C 
ATOM     86  C62 UNL A   1      43.032  26.991  28.522  1.00  0.00    +0.000 C 
ATOM    119  H28 UNL A   1      46.869  31.486  31.145  1.00  0.00    +0.000 H 
ATOM    120  H29 UNL A   1      45.715  33.688  31.930  1.00  0.00    +0.000 H 
ATOM    121  H30 UNL A   1      42.807  31.169  30.398  1.00  0.00    +0.000 H 
ATOM    122  H31 UNL A   1      36.738  30.136  28.709  1.00  0.00    +0.000 H 
ATOM    123  H32 UNL A   1      37.856  27.967  28.006  1.00  0.00    +0.000 H 
ATOM    124  H33 UNL A   1      40.791  30.462  29.568  1.00  0.00    +0.000 H 
ATOM    125  H34 UNL A   1      38.402  34.607  31.116  1.00  0.00    +0.000 H 
ATOM    126  H35 UNL A   1      40.697  35.528  31.777  1.00  0.00    +0.000 H 
ATOM    127  H36 UNL A   1      45.041  26.879  29.087  1.00  0.00    +0.000 H 
ATOM    128  H37 UNL A   1      42.845  26.112  28.017  1.00  0.00    +0.000 H 
ENDROOT
BRANCH   30   29
ATOM    129  H38 UNL A   1      39.303  25.926  29.655  1.00  0.00    +0.000 H 
ATOM    130  H39 UNL A   1      38.651  23.772  28.755  1.00  0.00    +0.000 H 
ATOM    117  H26 UNL A   1      40.215  24.859  25.004  1.00  0.00    +0.000 H 
ATOM    118  H27 UNL A   1      41.046  26.932  25.955  1.00  0.00    +0.000 H 
ATOM     87  C63 UNL A   1      39.517  25.692  28.674  1.00  0.00    +0.000 C 
ATOM     88  C64 UNL A   1      39.107  24.469  28.146  1.00  0.00    +0.000 C 
ATOM     26  C21 UNL A   1      39.311  24.187  26.792  1.00  0.00    +0.000 C 
ATOM     27  C22 UNL A   1      40.029  25.083  25.994  1.00  0.00    +0.000 C 
ATOM     28  C23 UNL A   1      40.497  26.282  26.539  1.00  0.00    +0.000 C 
ATOM     29  C24 UNL A   1      40.221  26.608  27.875  1.00  0.00    +0.000 C 
BRANCH   26   24
ATOM     25  O2  UNL A   1      39.601  21.989  26.037  1.00  0.00    +0.000 O 
ATOM     24  C20 UNL A   1      38.826  22.925  26.190  1.00  0.00    +0.000 C 
BRANCH   24   23
ATOM    116  H25 UNL A   1      36.849  22.998  26.502  1.00  0.00    +0.000 H 
ATOM     23  N3  UNL A   1      37.513  22.797  25.805  1.00  0.00    +0.000 N 
BRANCH   23   22
ATOM    114  H23 UNL A   1      37.751  22.409  23.791  1.00  0.00    +0.000 H 
ATOM    115  H24 UNL A   1      36.533  21.435  24.620  1.00  0.00    +0.000 H 
ATOM     22  C19 UNL A   1      36.964  22.409  24.515  1.00  0.00    +0.000 C 
BRANCH   22   21
ATOM    113  H22 UNL A   1      35.123  22.756  23.575  1.00  0.00    +0.000 H 
ATOM     21  C18 UNL A   1      35.866  23.362  24.051  1.00  0.00    +0.000 C 
ATOM    112  H21 UNL A   1      36.308  24.084  23.394  1.00  0.00    +0.000 H 
BRANCH   21   20
ATOM     20  C17 UNL A   1      35.149  24.119  25.174  1.00  0.00    +0.000 C 
ATOM    110  H19 UNL A   1      34.376  23.485  25.557  1.00  0.00    +0.000 H 
ATOM    111  H20 UNL A   1      35.906  24.362  25.891  1.00  0.00    +0.000 H 
BRANCH   20   19
ATOM     19  C16 UNL A   1      34.508  25.455  24.774  1.00  0.00    +0.000 C 
ATOM    108  H17 UNL A   1      35.286  26.106  24.436  1.00  0.00    +0.000 H 
ATOM    109  H18 UNL A   1      33.785  25.222  24.021  1.00  0.00    +0.000 H 
BRANCH   19   18
ATOM     18  C15 UNL A   1      33.741  26.174  25.889  1.00  0.00    +0.000 C 
ATOM    107  H16 UNL A   1      34.442  26.369  26.673  1.00  0.00    +0.000 H 
ATOM    106  H15 UNL A   1      32.935  25.544  26.204  1.00  0.00    +0.000 H 
BRANCH   18   17
ATOM     17  C14 UNL A   1      33.158  27.526  25.471  1.00  0.00    +0.000 C 
ATOM    105  H14 UNL A   1      33.864  28.286  25.733  1.00  0.00    +0.000 H 
ATOM    104  H13 UNL A   1      32.226  27.673  25.978  1.00  0.00    +0.000 H 
BRANCH   17   16
ATOM    103  H12 UNL A   1      33.715  27.374  23.492  1.00  0.00    +0.000 H 
ATOM     16  N2  UNL A   1      32.931  27.598  24.043  1.00  0.00    +0.000 N 
BRANCH   16   14
ATOM     14  C13 UNL A   1      31.815  27.924  23.332  1.00  0.00    +0.000 C 
ATOM     15  O1  UNL A   1      31.722  29.101  22.962  1.00  0.00    +0.000 O 
BRANCH   14   12
ATOM     99  H8  UNL A   1      30.637  26.899  21.932  1.00  0.00    +0.000 H 
ATOM     12  C11 UNL A   1      30.697  26.925  23.000  1.00  0.00    +0.000 C 
BRANCH   12   11
ATOM     97  H6  UNL A   1      30.717  23.160  25.759  1.00  0.00    +0.000 H 
ATOM     98  H7  UNL A   1      29.963  25.371  25.165  1.00  0.00    +0.000 H 
ATOM    131  H40 UNL A   1      32.190  25.171  21.619  1.00  0.00    +0.000 H 
ATOM    132  H41 UNL A   1      32.832  22.907  22.147  1.00  0.00    +0.000 H 
ATOM      8  C7  UNL A   1      31.858  22.827  24.017  1.00  0.00    +0.000 C 
ATOM      9  C8  UNL A   1      31.027  23.574  24.866  1.00  0.00    +0.000 C 
ATOM     10  C9  UNL A   1      30.606  24.868  24.533  1.00  0.00    +0.000 C 
ATOM     11  C10 UNL A   1      31.043  25.489  23.362  1.00  0.00    +0.000 C 
ATOM     89  C65 UNL A   1      31.864  24.745  22.501  1.00  0.00    +0.000 C 
ATOM     90  C66 UNL A   1      32.249  23.435  22.814  1.00  0.00    +0.000 C 
BRANCH    8    7
ATOM      3  C3  UNL A   1      32.774  19.130  23.838  1.00  0.00    +0.000 C 
ATOM      4  C4  UNL A   1      33.192  18.964  25.154  1.00  0.00    +0.000 C 
ATOM      5  N1  UNL A   1      33.199  19.947  26.081  1.00  0.00    +0.000 N 
ATOM    133  H42 UNL A   1      31.994  20.564  22.501  1.00  0.00    +0.000 H 
ATOM      7  C6  UNL A   1      32.304  21.466  24.387  1.00  0.00    +0.000 C 
ATOM      6  C5  UNL A   1      32.751  21.159  25.675  1.00  0.00    +0.000 C 
ATOM     91  C67 UNL A   1      32.321  20.404  23.467  1.00  0.00    +0.000 C 
ATOM     95  H4  UNL A   1      33.520  18.029  25.440  1.00  0.00    +0.000 H 
ATOM     96  H5  UNL A   1      32.739  21.919  26.374  1.00  0.00    +0.000 H 
BRANCH    3    2
ATOM      2  C2  UNL A   1      32.764  17.982  22.925  1.00  0.00    +0.000 C 
ATOM     94  H3  UNL A   1      31.995  17.917  22.242  1.00  0.00    +0.000 H 
BRANCH    2    1
ATOM      1  C1  UNL A   1      33.689  17.014  22.922  1.00  0.00    +0.000 C 
ATOM     92  H1  UNL A   1      34.688  17.256  22.816  1.00  0.00    +0.000 H 
ATOM     93  H2  UNL A   1      33.405  16.028  23.025  1.00  0.00    +0.000 H 
ENDBRANCH    2    1
ENDBRANCH    3    2
ENDBRANCH    8    7
ENDBRANCH   12   11
BRANCH   12   13
ATOM    101  H10 UNL A   1      28.834  26.675  24.022  1.00  0.00    +0.000 H 
ATOM    100  H9  UNL A   1      29.366  28.335  23.901  1.00  0.00    +0.000 H 
ATOM     13  C12 UNL A   1      29.295  27.401  23.385  1.00  0.00    +0.000 C 
ATOM    102  H11 UNL A   1      28.706  27.525  22.501  1.00  0.00    +0.000 H 
ENDBRANCH   12   13
ENDBRANCH   14   12
ENDBRANCH   16   14
ENDBRANCH   17   16
ENDBRANCH   18   17
ENDBRANCH   19   18
ENDBRANCH   20   19
ENDBRANCH   21   20
ENDBRANCH   22   21
ENDBRANCH   23   22
ENDBRANCH   24   23
ENDBRANCH   26   24
ENDBRANCH   30   29
BRANCH   34   35
ATOM     35  C29 UNL A   1      46.391  28.869  30.145  1.00  0.00    +0.000 C 
ATOM     36  C30 UNL A   1      46.824  28.133  31.258  1.00  0.00    +0.000 C 
ATOM     37  F1  UNL A   1      46.035  28.011  32.336  1.00  0.00    +0.000 F 
ATOM     38  C31 UNL A   1      48.089  27.551  31.284  1.00  0.00    +0.000 C 
ATOM     39  F2  UNL A   1      48.501  26.894  32.377  1.00  0.00    +0.000 F 
ATOM     40  C32 UNL A   1      48.930  27.665  30.187  1.00  0.00    +0.000 C 
ATOM     41  F3  UNL A   1      50.145  27.100  30.211  1.00  0.00    +0.000 F 
ATOM     42  C33 UNL A   1      48.513  28.369  29.067  1.00  0.00    +0.000 C 
ATOM     43  F4  UNL A   1      49.320  28.469  28.002  1.00  0.00    +0.000 F 
ATOM     44  C34 UNL A   1      47.260  28.976  29.050  1.00  0.00    +0.000 C 
ATOM     45  F5  UNL A   1      46.891  29.663  27.958  1.00  0.00    +0.000 F 
ENDBRANCH   34   35
BRANCH   51   52
ATOM     52  C40 UNL A   1      43.258  35.079  32.045  1.00  0.00    +0.000 C 
ATOM     53  C41 UNL A   1      43.289  35.279  33.433  1.00  0.00    +0.000 C 
ATOM     54  F6  UNL A   1      42.905  34.300  34.265  1.00  0.00    +0.000 F 
ATOM     55  C42 UNL A   1      43.683  36.502  33.970  1.00  0.00    +0.000 C 
ATOM     56  F7  UNL A   1      43.665  36.687  35.297  1.00  0.00    +0.000 F 
ATOM     57  C43 UNL A   1      44.080  37.535  33.133  1.00  0.00    +0.000 C 
ATOM     58  F8  UNL A   1      44.463  38.709  33.651  1.00  0.00    +0.000 F 
ATOM     59  C44 UNL A   1      44.071  37.352  31.758  1.00  0.00    +0.000 C 
ATOM     60  F9  UNL A   1      44.464  38.346  30.948  1.00  0.00    +0.000 F 
ATOM     61  C45 UNL A   1      43.653  36.140  31.218  1.00  0.00    +0.000 C 
ATOM     62  F10 UNL A   1      43.644  35.996  29.883  1.00  0.00    +0.000 F 
ENDBRANCH   51   52
BRANCH   66   67
ATOM     67  C49 UNL A   1      37.122  32.565  29.920  1.00  0.00    +0.000 C 
ATOM     68  C50 UNL A   1      36.666  33.345  28.848  1.00  0.00    +0.000 C 
ATOM     69  F11 UNL A   1      37.489  33.623  27.826  1.00  0.00    +0.000 F 
ATOM     70  C51 UNL A   1      35.378  33.874  28.839  1.00  0.00    +0.000 C 
ATOM     71  F12 UNL A   1      34.982  34.650  27.821  1.00  0.00    +0.000 F 
ATOM     72  C52 UNL A   1      34.511  33.611  29.889  1.00  0.00    +0.000 C 
ATOM     73  F13 UNL A   1      33.270  34.115  29.879  1.00  0.00    +0.000 F 
ATOM     74  C53 UNL A   1      34.935  32.829  30.954  1.00  0.00    +0.000 C 
ATOM     75  F14 UNL A   1      34.095  32.561  31.964  1.00  0.00    +0.000 F 
ATOM     76  C54 UNL A   1      36.232  32.319  30.975  1.00  0.00    +0.000 C 
ATOM     77  F15 UNL A   1      36.618  31.574  32.021  1.00  0.00    +0.000 F 
ENDBRANCH   66   67
TORSDOF 20
ENDMDL
MODEL 6
REMARK VINA RESULT:     -10.2     20.443     27.213
ROOT
ATOM     30  C25 UNL A   1      25.947  39.376  46.613  1.00  0.00    +0.000 C 
ATOM     31  C26 UNL A   1      25.063  40.403  47.264  1.00  0.00    +0.000 C 
ATOM     32  N4  UNL A   1      23.831  40.285  47.692  1.00  0.00    +0.000 N 
ATOM     33  C27 UNL A   1      23.505  41.515  48.248  1.00  0.00    +0.000 C 
ATOM     34  C28 UNL A   1      22.324  41.917  48.778  1.00  0.00    +0.000 C 
ATOM     46  C35 UNL A   1      21.146  41.093  48.852  1.00  0.00    +0.000 C 
ATOM     47  C36 UNL A   1      19.886  41.428  49.316  1.00  0.00    +0.000 C 
ATOM     48  C37 UNL A   1      19.072  40.294  49.228  1.00  0.00    +0.000 C 
ATOM     49  C38 UNL A   1      19.813  39.264  48.671  1.00  0.00    +0.000 C 
ATOM     50  N5  UNL A   1      21.085  39.768  48.449  1.00  0.00    +0.000 N 
ATOM     51  C39 UNL A   1      19.394  37.921  48.364  1.00  0.00    +0.000 C 
ATOM     63  C46 UNL A   1      20.180  36.969  47.805  1.00  0.00    +0.000 C 
ATOM     64  N6  UNL A   1      21.507  37.057  47.409  1.00  0.00    +0.000 N 
ATOM     65  C47 UNL A   1      21.822  35.874  46.938  1.00  0.00    +0.000 C 
ATOM     66  C48 UNL A   1      23.123  35.402  46.348  1.00  0.00    +0.000 C 
ATOM     78  C55 UNL A   1      24.149  36.268  46.238  1.00  0.00    +0.000 C 
ATOM     79  C56 UNL A   1      25.464  35.955  45.686  1.00  0.00    +0.000 C 
ATOM     80  C57 UNL A   1      26.246  37.042  45.779  1.00  0.00    +0.000 C 
ATOM     81  C58 UNL A   1      25.476  38.137  46.369  1.00  0.00    +0.000 C 
ATOM     82  N7  UNL A   1      24.239  37.589  46.600  1.00  0.00    +0.000 N 
ATOM     83  C59 UNL A   1      20.732  34.891  47.009  1.00  0.00    +0.000 C 
ATOM     84  C60 UNL A   1      19.744  35.620  47.510  1.00  0.00    +0.000 C 
ATOM     85  C61 UNL A   1      24.682  42.350  48.146  1.00  0.00    +0.000 C 
ATOM     86  C62 UNL A   1      25.652  41.732  47.487  1.00  0.00    +0.000 C 
ATOM    119  H28 UNL A   1      19.597  42.355  49.666  1.00  0.00    +0.000 H 
ATOM    120  H29 UNL A   1      18.085  40.234  49.528  1.00  0.00    +0.000 H 
ATOM    121  H30 UNL A   1      21.834  39.259  48.064  1.00  0.00    +0.000 H 
ATOM    122  H31 UNL A   1      25.745  35.047  45.286  1.00  0.00    +0.000 H 
ATOM    123  H32 UNL A   1      27.233  37.096  45.483  1.00  0.00    +0.000 H 
ATOM    124  H33 UNL A   1      23.489  38.094  46.987  1.00  0.00    +0.000 H 
ATOM    125  H34 UNL A   1      20.735  33.894  46.740  1.00  0.00    +0.000 H 
ATOM    126  H35 UNL A   1      18.786  35.270  47.669  1.00  0.00    +0.000 H 
ATOM    127  H36 UNL A   1      24.756  43.303  48.533  1.00  0.00    +0.000 H 
ATOM    128  H37 UNL A   1      26.578  42.089  47.206  1.00  0.00    +0.000 H 
ENDROOT
BRANCH   30   29
ATOM    129  H38 UNL A   1      26.959  40.307  44.315  1.00  0.00    +0.000 H 
ATOM    130  H39 UNL A   1      29.274  40.742  43.744  1.00  0.00    +0.000 H 
ATOM    117  H26 UNL A   1      30.432  39.773  47.671  1.00  0.00    +0.000 H 
ATOM    118  H27 UNL A   1      28.144  39.146  48.188  1.00  0.00    +0.000 H 
ATOM     87  C63 UNL A   1      27.697  40.172  45.023  1.00  0.00    +0.000 C 
ATOM     88  C64 UNL A   1      29.023  40.460  44.705  1.00  0.00    +0.000 C 
ATOM     26  C21 UNL A   1      30.014  40.369  45.687  1.00  0.00    +0.000 C 
ATOM     27  C22 UNL A   1      29.694  39.878  46.957  1.00  0.00    +0.000 C 
ATOM     28  C23 UNL A   1      28.375  39.529  47.257  1.00  0.00    +0.000 C 
ATOM     29  C24 UNL A   1      27.362  39.698  46.301  1.00  0.00    +0.000 C 
BRANCH   26   24
ATOM     25  O2  UNL A   1      31.892  41.756  45.873  1.00  0.00    +0.000 O 
ATOM     24  C20 UNL A   1      31.419  40.733  45.396  1.00  0.00    +0.000 C 
BRANCH   24   23
ATOM    116  H25 UNL A   1      32.474  40.326  43.742  1.00  0.00    +0.000 H 
ATOM     23  N3  UNL A   1      32.195  39.927  44.597  1.00  0.00    +0.000 N 
BRANCH   23   22
ATOM    114  H23 UNL A   1      33.689  38.502  44.540  1.00  0.00    +0.000 H 
ATOM    115  H24 UNL A   1      32.541  38.355  45.874  1.00  0.00    +0.000 H 
ATOM     22  C19 UNL A   1      32.662  38.569  44.833  1.00  0.00    +0.000 C 
BRANCH   22   21
ATOM    113  H22 UNL A   1      32.547  36.781  43.747  1.00  0.00    +0.000 H 
ATOM     21  C18 UNL A   1      31.856  37.541  44.043  1.00  0.00    +0.000 C 
ATOM    112  H21 UNL A   1      31.398  38.043  43.215  1.00  0.00    +0.000 H 
BRANCH   21   20
ATOM     20  C17 UNL A   1      30.753  36.835  44.839  1.00  0.00    +0.000 C 
ATOM    110  H19 UNL A   1      31.074  35.831  45.026  1.00  0.00    +0.000 H 
ATOM    111  H20 UNL A   1      30.614  37.418  45.725  1.00  0.00    +0.000 H 
BRANCH   20   19
ATOM     19  C16 UNL A   1      29.377  36.772  44.160  1.00  0.00    +0.000 C 
ATOM    108  H17 UNL A   1      28.654  37.161  44.845  1.00  0.00    +0.000 H 
ATOM    109  H18 UNL A   1      29.466  37.342  43.260  1.00  0.00    +0.000 H 
BRANCH   19   18
ATOM     18  C15 UNL A   1      28.921  35.373  43.733  1.00  0.00    +0.000 C 
ATOM    107  H16 UNL A   1      28.920  35.361  42.663  1.00  0.00    +0.000 H 
ATOM    106  H15 UNL A   1      27.951  35.193  44.148  1.00  0.00    +0.000 H 
BRANCH   18   17
ATOM     17  C14 UNL A   1      29.854  34.249  44.188  1.00  0.00    +0.000 C 
ATOM    105  H14 UNL A   1      30.709  34.695  44.651  1.00  0.00    +0.000 H 
ATOM    104  H13 UNL A   1      30.136  33.667  43.335  1.00  0.00    +0.000 H 
BRANCH   17   16
ATOM    103  H12 UNL A   1      28.482  32.837  44.801  1.00  0.00    +0.000 H 
ATOM     16  N2  UNL A   1      29.221  33.381  45.159  1.00  0.00    +0.000 N 
BRANCH   16   14
ATOM     14  C13 UNL A   1      29.475  33.189  46.483  1.00  0.00    +0.000 C 
ATOM     15  O1  UNL A   1      29.365  32.031  46.903  1.00  0.00    +0.000 O 
BRANCH   14   12
ATOM     99  H8  UNL A   1      30.229  35.116  46.832  1.00  0.00    +0.000 H 
ATOM     12  C11 UNL A   1      29.860  34.321  47.447  1.00  0.00    +0.000 C 
BRANCH   12   11
ATOM     97  H6  UNL A   1      25.469  34.421  49.025  1.00  0.00    +0.000 H 
ATOM     98  H7  UNL A   1      27.377  33.288  48.085  1.00  0.00    +0.000 H 
ATOM    131  H40 UNL A   1      29.639  36.797  48.462  1.00  0.00    +0.000 H 
ATOM    132  H41 UNL A   1      27.772  37.888  49.531  1.00  0.00    +0.000 H 
ATOM      8  C7  UNL A   1      26.433  36.268  49.355  1.00  0.00    +0.000 C 
ATOM      9  C8  UNL A   1      26.359  34.934  48.922  1.00  0.00    +0.000 C 
ATOM     10  C9  UNL A   1      27.459  34.281  48.355  1.00  0.00    +0.000 C 
ATOM     11  C10 UNL A   1      28.666  34.951  48.147  1.00  0.00    +0.000 C 
ATOM     89  C65 UNL A   1      28.755  36.280  48.588  1.00  0.00    +0.000 C 
ATOM     90  C66 UNL A   1      27.665  36.919  49.195  1.00  0.00    +0.000 C 
BRANCH    8    7
ATOM      3  C3  UNL A   1      22.935  36.959  50.705  1.00  0.00    +0.000 C 
ATOM      4  C4  UNL A   1      23.125  38.284  51.083  1.00  0.00    +0.000 C 
ATOM      5  N1  UNL A   1      24.286  38.960  50.934  1.00  0.00    +0.000 N 
ATOM    133  H42 UNL A   1      23.920  35.316  49.821  1.00  0.00    +0.000 H 
ATOM      7  C6  UNL A   1      25.258  36.948  49.941  1.00  0.00    +0.000 C 
ATOM      6  C5  UNL A   1      25.309  38.279  50.365  1.00  0.00    +0.000 C 
ATOM     91  C67 UNL A   1      24.025  36.298  50.123  1.00  0.00    +0.000 C 
ATOM     95  H4  UNL A   1      22.327  38.783  51.505  1.00  0.00    +0.000 H 
ATOM     96  H5  UNL A   1      26.200  38.784  50.234  1.00  0.00    +0.000 H 
BRANCH    3    2
ATOM      2  C2  UNL A   1      21.618  36.335  50.869  1.00  0.00    +0.000 C 
ATOM     94  H3  UNL A   1      20.785  36.936  50.779  1.00  0.00    +0.000 H 
BRANCH    2    1
ATOM      1  C1  UNL A   1      21.428  35.035  51.130  1.00  0.00    +0.000 C 
ATOM     92  H1  UNL A   1      21.897  34.319  50.552  1.00  0.00    +0.000 H 
ATOM     93  H2  UNL A   1      20.813  34.749  51.907  1.00  0.00    +0.000 H 
ENDBRANCH    2    1
ENDBRANCH    3    2
ENDBRANCH    8    7
ENDBRANCH   12   11
BRANCH   12   13
ATOM    101  H10 UNL A   1      30.978  34.523  49.260  1.00  0.00    +0.000 H 
ATOM    100  H9  UNL A   1      31.128  32.957  48.500  1.00  0.00    +0.000 H 
ATOM     13  C12 UNL A   1      31.074  34.011  48.325  1.00  0.00    +0.000 C 
ATOM    102  H11 UNL A   1      31.965  34.337  47.830  1.00  0.00    +0.000 H 
ENDBRANCH   12   13
ENDBRANCH   14   12
ENDBRANCH   16   14
ENDBRANCH   17   16
ENDBRANCH   18   17
ENDBRANCH   19   18
ENDBRANCH   20   19
ENDBRANCH   21   20
ENDBRANCH   22   21
ENDBRANCH   23   22
ENDBRANCH   24   23
ENDBRANCH   26   24
ENDBRANCH   30   29
BRANCH   34   35
ATOM     35  C29 UNL A   1      22.248  43.315  49.317  1.00  0.00    +0.000 C 
ATOM     36  C30 UNL A   1      22.539  43.600  50.660  1.00  0.00    +0.000 C 
ATOM     37  F1  UNL A   1      22.855  42.609  51.507  1.00  0.00    +0.000 F 
ATOM     38  C31 UNL A   1      22.468  44.902  51.148  1.00  0.00    +0.000 C 
ATOM     39  F2  UNL A   1      22.703  45.144  52.444  1.00  0.00    +0.000 F 
ATOM     40  C32 UNL A   1      22.139  45.947  50.297  1.00  0.00    +0.000 C 
ATOM     41  F3  UNL A   1      22.075  47.201  50.767  1.00  0.00    +0.000 F 
ATOM     42  C33 UNL A   1      21.870  45.692  48.961  1.00  0.00    +0.000 C 
ATOM     43  F4  UNL A   1      21.563  46.702  48.136  1.00  0.00    +0.000 F 
ATOM     44  C34 UNL A   1      21.912  44.387  48.476  1.00  0.00    +0.000 C 
ATOM     45  F5  UNL A   1      21.632  44.169  47.182  1.00  0.00    +0.000 F 
ENDBRANCH   34   35
BRANCH   51   52
ATOM     52  C40 UNL A   1      17.973  37.546  48.664  1.00  0.00    +0.000 C 
ATOM     53  C41 UNL A   1      17.056  37.270  47.640  1.00  0.00    +0.000 C 
ATOM     54  F6  UNL A   1      17.423  37.387  46.355  1.00  0.00    +0.000 F 
ATOM     55  C42 UNL A   1      15.744  36.907  47.934  1.00  0.00    +0.000 C 
ATOM     56  F7  UNL A   1      14.872  36.689  46.941  1.00  0.00    +0.000 F 
ATOM     57  C43 UNL A   1      15.335  36.785  49.254  1.00  0.00    +0.000 C 
ATOM     58  F8  UNL A   1      14.073  36.432  49.536  1.00  0.00    +0.000 F 
ATOM     59  C44 UNL A   1      16.231  37.039  50.282  1.00  0.00    +0.000 C 
ATOM     60  F9  UNL A   1      15.839  36.912  51.558  1.00  0.00    +0.000 F 
ATOM     61  C45 UNL A   1      17.535  37.427  49.991  1.00  0.00    +0.000 C 
ATOM     62  F10 UNL A   1      18.377  37.677  51.006  1.00  0.00    +0.000 F 
ENDBRANCH   51   52
BRANCH   66   67
ATOM     67  C49 UNL A   1      23.274  34.009  45.858  1.00  0.00    +0.000 C 
ATOM     68  C50 UNL A   1      22.867  33.656  44.565  1.00  0.00    +0.000 C 
ATOM     69  F11 UNL A   1      22.311  34.577  43.764  1.00  0.00    +0.000 F 
ATOM     70  C51 UNL A   1      22.992  32.348  44.102  1.00  0.00    +0.000 C 
ATOM     71  F12 UNL A   1      22.558  32.030  42.876  1.00  0.00    +0.000 F 
ATOM     72  C52 UNL A   1      23.554  31.375  44.914  1.00  0.00    +0.000 C 
ATOM     73  F13 UNL A   1      23.680  30.118  44.468  1.00  0.00    +0.000 F 
ATOM     74  C53 UNL A   1      23.978  31.704  46.193  1.00  0.00    +0.000 C 
ATOM     75  F14 UNL A   1      24.533  30.768  46.976  1.00  0.00    +0.000 F 
ATOM     76  C54 UNL A   1      23.830  33.006  46.666  1.00  0.00    +0.000 C 
ATOM     77  F15 UNL A   1      24.241  33.295  47.909  1.00  0.00    +0.000 F 
ENDBRANCH   66   67
TORSDOF 20
ENDMDL
MODEL 7
REMARK VINA RESULT:     -10.2     25.518     33.724
ROOT
ATOM     30  C25 UNL A   1      21.658  19.214   5.460  1.00  0.00    +0.000 C 
ATOM     31  C26 UNL A   1      21.406  20.189   4.344  1.00  0.00    +0.000 C 
ATOM     32  N4  UNL A   1      20.286  20.763   3.981  1.00  0.00    +0.000 N 
ATOM     33  C27 UNL A   1      20.618  21.606   2.929  1.00  0.00    +0.000 C 
ATOM     34  C28 UNL A   1      19.799  22.379   2.174  1.00  0.00    +0.000 C 
ATOM     46  C35 UNL A   1      18.372  22.455   2.345  1.00  0.00    +0.000 C 
ATOM     47  C36 UNL A   1      17.449  23.161   1.594  1.00  0.00    +0.000 C 
ATOM     48  C37 UNL A   1      16.183  22.962   2.155  1.00  0.00    +0.000 C 
ATOM     49  C38 UNL A   1      16.311  22.099   3.230  1.00  0.00    +0.000 C 
ATOM     50  N5  UNL A   1      17.660  21.798   3.337  1.00  0.00    +0.000 N 
ATOM     51  C39 UNL A   1      15.282  21.584   4.097  1.00  0.00    +0.000 C 
ATOM     63  C46 UNL A   1      15.488  20.727   5.127  1.00  0.00    +0.000 C 
ATOM     64  N6  UNL A   1      16.677  20.164   5.568  1.00  0.00    +0.000 N 
ATOM     65  C47 UNL A   1      16.362  19.416   6.597  1.00  0.00    +0.000 C 
ATOM     66  C48 UNL A   1      17.249  18.552   7.451  1.00  0.00    +0.000 C 
ATOM     78  C55 UNL A   1      18.563  18.473   7.165  1.00  0.00    +0.000 C 
ATOM     79  C56 UNL A   1      19.542  17.676   7.900  1.00  0.00    +0.000 C 
ATOM     80  C57 UNL A   1      20.757  17.876   7.365  1.00  0.00    +0.000 C 
ATOM     81  C58 UNL A   1      20.636  18.790   6.229  1.00  0.00    +0.000 C 
ATOM     82  N7  UNL A   1      19.297  19.084   6.179  1.00  0.00    +0.000 N 
ATOM     83  C59 UNL A   1      14.934  19.442   6.942  1.00  0.00    +0.000 C 
ATOM     84  C60 UNL A   1      14.441  20.226   5.993  1.00  0.00    +0.000 C 
ATOM     85  C61 UNL A   1      22.049  21.505   2.740  1.00  0.00    +0.000 C 
ATOM     86  C62 UNL A   1      22.574  20.594   3.547  1.00  0.00    +0.000 C 
ATOM    119  H28 UNL A   1      17.658  23.737   0.762  1.00  0.00    +0.000 H 
ATOM    120  H29 UNL A   1      15.302  23.387   1.824  1.00  0.00    +0.000 H 
ATOM    121  H30 UNL A   1      18.055  21.207   4.019  1.00  0.00    +0.000 H 
ATOM    122  H31 UNL A   1      19.334  17.058   8.699  1.00  0.00    +0.000 H 
ATOM    123  H32 UNL A   1      21.636  17.454   7.702  1.00  0.00    +0.000 H 
ATOM    124  H33 UNL A   1      18.900  19.676   5.501  1.00  0.00    +0.000 H 
ATOM    125  H34 UNL A   1      14.442  18.974   7.720  1.00  0.00    +0.000 H 
ATOM    126  H35 UNL A   1      13.440  20.451   5.886  1.00  0.00    +0.000 H 
ATOM    127  H36 UNL A   1      22.589  22.067   2.066  1.00  0.00    +0.000 H 
ATOM    128  H37 UNL A   1      23.548  20.258   3.602  1.00  0.00    +0.000 H 
ENDROOT
BRANCH   30   29
ATOM    129  H38 UNL A   1      22.955  17.083   4.487  1.00  0.00    +0.000 H 
ATOM    130  H39 UNL A   1      25.171  16.272   5.044  1.00  0.00    +0.000 H 
ATOM    117  H26 UNL A   1      25.769  19.604   7.542  1.00  0.00    +0.000 H 
ATOM    118  H27 UNL A   1      23.481  20.311   7.143  1.00  0.00    +0.000 H 
ATOM     87  C63 UNL A   1      23.543  17.608   5.153  1.00  0.00    +0.000 C 
ATOM     88  C64 UNL A   1      24.831  17.162   5.442  1.00  0.00    +0.000 C 
ATOM     26  C21 UNL A   1      25.665  17.919   6.270  1.00  0.00    +0.000 C 
ATOM     27  C22 UNL A   1      25.168  19.065   6.900  1.00  0.00    +0.000 C 
ATOM     28  C23 UNL A   1      23.854  19.478   6.660  1.00  0.00    +0.000 C 
ATOM     29  C24 UNL A   1      23.041  18.768   5.764  1.00  0.00    +0.000 C 
BRANCH   26   24
ATOM     25  O2  UNL A   1      27.355  16.317   6.516  1.00  0.00    +0.000 O 
ATOM     24  C20 UNL A   1      27.060  17.505   6.541  1.00  0.00    +0.000 C 
BRANCH   24   23
ATOM    116  H25 UNL A   1      28.584  18.709   6.052  1.00  0.00    +0.000 H 
ATOM     23  N3  UNL A   1      28.024  18.445   6.816  1.00  0.00    +0.000 N 
BRANCH   23   22
ATOM    114  H23 UNL A   1      29.371  19.374   8.076  1.00  0.00    +0.000 H 
ATOM    115  H24 UNL A   1      27.711  19.971   8.155  1.00  0.00    +0.000 H 
ATOM     22  C19 UNL A   1      28.335  19.106   8.074  1.00  0.00    +0.000 C 
BRANCH   22   21
ATOM    113  H22 UNL A   1      28.895  17.550   9.361  1.00  0.00    +0.000 H 
ATOM     21  C18 UNL A   1      28.056  18.208   9.277  1.00  0.00    +0.000 C 
ATOM    112  H21 UNL A   1      27.132  17.696   9.102  1.00  0.00    +0.000 H 
BRANCH   21   20
ATOM     20  C17 UNL A   1      27.947  18.940  10.618  1.00  0.00    +0.000 C 
ATOM    110  H19 UNL A   1      27.089  18.560  11.132  1.00  0.00    +0.000 H 
ATOM    111  H20 UNL A   1      28.872  18.759  11.125  1.00  0.00    +0.000 H 
BRANCH   20   19
ATOM     19  C16 UNL A   1      27.808  20.467  10.535  1.00  0.00    +0.000 C 
ATOM    108  H17 UNL A   1      28.261  20.887  11.408  1.00  0.00    +0.000 H 
ATOM    109  H18 UNL A   1      28.283  20.757   9.622  1.00  0.00    +0.000 H 
BRANCH   19   18
ATOM     18  C15 UNL A   1      26.371  20.991  10.449  1.00  0.00    +0.000 C 
ATOM    107  H16 UNL A   1      25.725  20.143  10.542  1.00  0.00    +0.000 H 
ATOM    106  H15 UNL A   1      26.252  21.498   9.514  1.00  0.00    +0.000 H 
BRANCH   18   17
ATOM     17  C14 UNL A   1      25.993  21.959  11.572  1.00  0.00    +0.000 C 
ATOM    105  H14 UNL A   1      25.322  22.689  11.168  1.00  0.00    +0.000 H 
ATOM    104  H13 UNL A   1      26.884  22.420  11.946  1.00  0.00    +0.000 H 
BRANCH   17   16
ATOM    103  H12 UNL A   1      25.625  21.554  13.559  1.00  0.00    +0.000 H 
ATOM     16  N2  UNL A   1      25.320  21.287  12.663  1.00  0.00    +0.000 N 
BRANCH   16   14
ATOM     14  C13 UNL A   1      24.335  20.346  12.658  1.00  0.00    +0.000 C 
ATOM     15  O1  UNL A   1      23.214  20.723  12.297  1.00  0.00    +0.000 O 
BRANCH   14   12
ATOM     99  H8  UNL A   1      23.855  18.711  13.883  1.00  0.00    +0.000 H 
ATOM     12  C11 UNL A   1      24.551  18.887  13.089  1.00  0.00    +0.000 C 
BRANCH   12   11
ATOM     97  H6  UNL A   1      22.723  14.861  11.593  1.00  0.00    +0.000 H 
ATOM     98  H7  UNL A   1      23.175  16.500  13.303  1.00  0.00    +0.000 H 
ATOM    131  H40 UNL A   1      24.929  19.001  10.433  1.00  0.00    +0.000 H 
ATOM    132  H41 UNL A   1      24.352  17.424   8.702  1.00  0.00    +0.000 H 
ATOM      8  C7  UNL A   1      23.507  15.979   9.986  1.00  0.00    +0.000 C 
ATOM      9  C8  UNL A   1      23.182  15.748  11.332  1.00  0.00    +0.000 C 
ATOM     10  C9  UNL A   1      23.465  16.689  12.330  1.00  0.00    +0.000 C 
ATOM     11  C10 UNL A   1      24.133  17.878  12.032  1.00  0.00    +0.000 C 
ATOM     89  C65 UNL A   1      24.450  18.123  10.688  1.00  0.00    +0.000 C 
ATOM     90  C66 UNL A   1      24.128  17.200   9.683  1.00  0.00    +0.000 C 
BRANCH    8    7
ATOM      3  C3  UNL A   1      22.332  14.330   6.755  1.00  0.00    +0.000 C 
ATOM      4  C4  UNL A   1      22.739  13.030   7.035  1.00  0.00    +0.000 C 
ATOM      5  N1  UNL A   1      23.357  12.654   8.177  1.00  0.00    +0.000 N 
ATOM    133  H42 UNL A   1      22.279  16.276   7.569  1.00  0.00    +0.000 H 
ATOM      7  C6  UNL A   1      23.213  14.971   8.945  1.00  0.00    +0.000 C 
ATOM      6  C5  UNL A   1      23.568  13.628   9.095  1.00  0.00    +0.000 C 
ATOM     91  C67 UNL A   1      22.575  15.301   7.737  1.00  0.00    +0.000 C 
ATOM     95  H4  UNL A   1      22.559  12.306   6.323  1.00  0.00    +0.000 H 
ATOM     96  H5  UNL A   1      24.028  13.355   9.977  1.00  0.00    +0.000 H 
BRANCH    3    2
ATOM      2  C2  UNL A   1      21.628  14.621   5.502  1.00  0.00    +0.000 C 
ATOM     94  H3  UNL A   1      22.195  14.772   4.654  1.00  0.00    +0.000 H 
BRANCH    2    1
ATOM      1  C1  UNL A   1      20.296  14.703   5.388  1.00  0.00    +0.000 C 
ATOM     92  H1  UNL A   1      19.731  15.048   6.181  1.00  0.00    +0.000 H 
ATOM     93  H2  UNL A   1      19.835  14.421   4.509  1.00  0.00    +0.000 H 
ENDBRANCH    2    1
ENDBRANCH    3    2
ENDBRANCH    8    7
ENDBRANCH   12   11
BRANCH   12   13
ATOM    101  H10 UNL A   1      25.747  17.956  14.599  1.00  0.00    +0.000 H 
ATOM    100  H9  UNL A   1      26.576  18.198  13.080  1.00  0.00    +0.000 H 
ATOM     13  C12 UNL A   1      25.892  18.629  13.780  1.00  0.00    +0.000 C 
ATOM    102  H11 UNL A   1      26.288  19.554  14.144  1.00  0.00    +0.000 H 
ENDBRANCH   12   13
ENDBRANCH   14   12
ENDBRANCH   16   14
ENDBRANCH   17   16
ENDBRANCH   18   17
ENDBRANCH   19   18
ENDBRANCH   20   19
ENDBRANCH   21   20
ENDBRANCH   22   21
ENDBRANCH   23   22
ENDBRANCH   24   23
ENDBRANCH   26   24
ENDBRANCH   30   29
BRANCH   34   35
ATOM     35  C29 UNL A   1      20.430  23.203   1.090  1.00  0.00    +0.000 C 
ATOM     36  C30 UNL A   1      20.458  22.764  -0.242  1.00  0.00    +0.000 C 
ATOM     37  F1  UNL A   1      19.951  21.566  -0.569  1.00  0.00    +0.000 F 
ATOM     38  C31 UNL A   1      21.044  23.539  -1.239  1.00  0.00    +0.000 C 
ATOM     39  F2  UNL A   1      21.102  23.079  -2.496  1.00  0.00    +0.000 F 
ATOM     40  C32 UNL A   1      21.582  24.780  -0.931  1.00  0.00    +0.000 C 
ATOM     41  F3  UNL A   1      22.141  25.527  -1.893  1.00  0.00    +0.000 F 
ATOM     42  C33 UNL A   1      21.545  25.243   0.376  1.00  0.00    +0.000 C 
ATOM     43  F4  UNL A   1      22.053  26.447   0.672  1.00  0.00    +0.000 F 
ATOM     44  C34 UNL A   1      20.985  24.458   1.380  1.00  0.00    +0.000 C 
ATOM     45  F5  UNL A   1      20.978  24.927   2.637  1.00  0.00    +0.000 F 
ENDBRANCH   34   35
BRANCH   51   52
ATOM     52  C40 UNL A   1      13.869  22.009   3.831  1.00  0.00    +0.000 C 
ATOM     53  C41 UNL A   1      13.289  23.092   4.506  1.00  0.00    +0.000 C 
ATOM     54  F6  UNL A   1      13.980  23.746   5.452  1.00  0.00    +0.000 F 
ATOM     55  C42 UNL A   1      11.981  23.486   4.236  1.00  0.00    +0.000 C 
ATOM     56  F7  UNL A   1      11.431  24.496   4.922  1.00  0.00    +0.000 F 
ATOM     57  C43 UNL A   1      11.241  22.823   3.267  1.00  0.00    +0.000 C 
ATOM     58  F8  UNL A   1       9.983  23.206   3.005  1.00  0.00    +0.000 F 
ATOM     59  C44 UNL A   1      11.801  21.759   2.576  1.00  0.00    +0.000 C 
ATOM     60  F9  UNL A   1      11.090  21.124   1.633  1.00  0.00    +0.000 F 
ATOM     61  C45 UNL A   1      13.099  21.347   2.863  1.00  0.00    +0.000 C 
ATOM     62  F10 UNL A   1      13.611  20.307   2.187  1.00  0.00    +0.000 F 
ENDBRANCH   51   52
BRANCH   66   67
ATOM     67  C49 UNL A   1      16.689  17.765   8.578  1.00  0.00    +0.000 C 
ATOM     68  C50 UNL A   1      16.394  18.379   9.803  1.00  0.00    +0.000 C 
ATOM     69  F11 UNL A   1      16.642  19.686   9.972  1.00  0.00    +0.000 F 
ATOM     70  C51 UNL A   1      15.881  17.646  10.870  1.00  0.00    +0.000 C 
ATOM     71  F12 UNL A   1      15.646  18.250  12.043  1.00  0.00    +0.000 F 
ATOM     72  C52 UNL A   1      15.627  16.291  10.724  1.00  0.00    +0.000 C 
ATOM     73  F13 UNL A   1      15.128  15.586  11.749  1.00  0.00    +0.000 F 
ATOM     74  C53 UNL A   1      15.896  15.665   9.516  1.00  0.00    +0.000 C 
ATOM     75  F14 UNL A   1      15.640  14.358   9.368  1.00  0.00    +0.000 F 
ATOM     76  C54 UNL A   1      16.433  16.392   8.456  1.00  0.00    +0.000 C 
ATOM     77  F15 UNL A   1      16.692  15.760   7.302  1.00  0.00    +0.000 F 
ENDBRANCH   66   67
TORSDOF 20
ENDMDL
MODEL 8
REMARK VINA RESULT:     -10.1     20.434     25.104
ROOT
ATOM     30  C25 UNL A   1      53.513  19.660  11.750  1.00  0.00    +0.000 C 
ATOM     31  C26 UNL A   1      53.254  20.379  13.044  1.00  0.00    +0.000 C 
ATOM     32  N4  UNL A   1      54.076  20.631  14.032  1.00  0.00    +0.000 N 
ATOM     33  C27 UNL A   1      53.342  21.360  14.958  1.00  0.00    +0.000 C 
ATOM     34  C28 UNL A   1      53.728  21.813  16.176  1.00  0.00    +0.000 C 
ATOM     46  C35 UNL A   1      55.033  21.598  16.744  1.00  0.00    +0.000 C 
ATOM     47  C36 UNL A   1      55.501  21.964  17.994  1.00  0.00    +0.000 C 
ATOM     48  C37 UNL A   1      56.842  21.577  18.089  1.00  0.00    +0.000 C 
ATOM     49  C38 UNL A   1      57.197  20.933  16.916  1.00  0.00    +0.000 C 
ATOM     50  N5  UNL A   1      56.078  20.956  16.098  1.00  0.00    +0.000 N 
ATOM     51  C39 UNL A   1      58.462  20.340  16.564  1.00  0.00    +0.000 C 
ATOM     63  C46 UNL A   1      58.728  19.712  15.392  1.00  0.00    +0.000 C 
ATOM     64  N6  UNL A   1      57.889  19.497  14.309  1.00  0.00    +0.000 N 
ATOM     65  C47 UNL A   1      58.608  18.859  13.417  1.00  0.00    +0.000 C 
ATOM     66  C48 UNL A   1      58.205  18.348  12.060  1.00  0.00    +0.000 C 
ATOM     78  C55 UNL A   1      56.936  18.518  11.643  1.00  0.00    +0.000 C 
ATOM     79  C56 UNL A   1      56.402  18.076  10.358  1.00  0.00    +0.000 C 
ATOM     80  C57 UNL A   1      55.118  18.456  10.265  1.00  0.00    +0.000 C 
ATOM     81  C58 UNL A   1      54.730  19.141  11.498  1.00  0.00    +0.000 C 
ATOM     82  N7  UNL A   1      55.870  19.123  12.262  1.00  0.00    +0.000 N 
ATOM     83  C59 UNL A   1      59.999  18.622  13.827  1.00  0.00    +0.000 C 
ATOM     84  C60 UNL A   1      60.009  19.128  15.053  1.00  0.00    +0.000 C 
ATOM     85  C61 UNL A   1      52.021  21.549  14.396  1.00  0.00    +0.000 C 
ATOM     86  C62 UNL A   1      51.895  20.907  13.244  1.00  0.00    +0.000 C 
ATOM    119  H28 UNL A   1      54.955  22.441  18.729  1.00  0.00    +0.000 H 
ATOM    120  H29 UNL A   1      57.462  21.744  18.898  1.00  0.00    +0.000 H 
ATOM    121  H30 UNL A   1      56.033  20.574  15.192  1.00  0.00    +0.000 H 
ATOM    122  H31 UNL A   1      56.926  17.553   9.639  1.00  0.00    +0.000 H 
ATOM    123  H32 UNL A   1      54.503  18.292   9.453  1.00  0.00    +0.000 H 
ATOM    124  H33 UNL A   1      55.919  19.505  13.167  1.00  0.00    +0.000 H 
ATOM    125  H34 UNL A   1      60.768  18.178  13.300  1.00  0.00    +0.000 H 
ATOM    126  H35 UNL A   1      60.825  19.108  15.684  1.00  0.00    +0.000 H 
ATOM    127  H36 UNL A   1      51.276  22.110  14.836  1.00  0.00    +0.000 H 
ATOM    128  H37 UNL A   1      51.063  20.806  12.643  1.00  0.00    +0.000 H 
ENDROOT
BRANCH   30   29
ATOM    129  H38 UNL A   1      52.833  21.509   9.936  1.00  0.00    +0.000 H 
ATOM    130  H39 UNL A   1      51.039  21.447   8.307  1.00  0.00    +0.000 H 
ATOM    117  H26 UNL A   1      50.106  17.514   9.474  1.00  0.00    +0.000 H 
ATOM    118  H27 UNL A   1      51.768  17.647  11.239  1.00  0.00    +0.000 H 
ATOM     87  C63 UNL A   1      52.241  20.668   9.854  1.00  0.00    +0.000 C 
ATOM     88  C64 UNL A   1      51.235  20.619   8.891  1.00  0.00    +0.000 C 
ATOM     26  C21 UNL A   1      50.493  19.448   8.713  1.00  0.00    +0.000 C 
ATOM     27  C22 UNL A   1      50.680  18.365   9.579  1.00  0.00    +0.000 C 
ATOM     28  C23 UNL A   1      51.646  18.438  10.586  1.00  0.00    +0.000 C 
ATOM     29  C24 UNL A   1      52.451  19.579  10.715  1.00  0.00    +0.000 C 
BRANCH   26   24
ATOM     25  O2  UNL A   1      49.238  18.260   7.132  1.00  0.00    +0.000 O 
ATOM     24  C20 UNL A   1      49.464  19.344   7.654  1.00  0.00    +0.000 C 
BRANCH   24   23
ATOM    116  H25 UNL A   1      48.232  20.894   7.961  1.00  0.00    +0.000 H 
ATOM     23  N3  UNL A   1      48.761  20.456   7.256  1.00  0.00    +0.000 N 
BRANCH   23   22
ATOM    114  H23 UNL A   1      48.943  22.113   6.038  1.00  0.00    +0.000 H 
ATOM    115  H24 UNL A   1      49.365  20.567   5.296  1.00  0.00    +0.000 H 
ATOM     22  C19 UNL A   1      48.685  21.079   5.944  1.00  0.00    +0.000 C 
BRANCH   22   21
ATOM    113  H22 UNL A   1      47.231  21.721   4.578  1.00  0.00    +0.000 H 
ATOM     21  C18 UNL A   1      47.287  20.972   5.340  1.00  0.00    +0.000 C 
ATOM    112  H21 UNL A   1      46.574  21.115   6.126  1.00  0.00    +0.000 H 
BRANCH   21   20
ATOM     20  C17 UNL A   1      46.979  19.637   4.656  1.00  0.00    +0.000 C 
ATOM    110  H19 UNL A   1      47.633  19.539   3.814  1.00  0.00    +0.000 H 
ATOM    111  H20 UNL A   1      47.121  18.885   5.405  1.00  0.00    +0.000 H 
BRANCH   20   19
ATOM     19  C16 UNL A   1      45.538  19.461   4.156  1.00  0.00    +0.000 C 
ATOM    108  H17 UNL A   1      45.466  18.502   3.688  1.00  0.00    +0.000 H 
ATOM    109  H18 UNL A   1      44.912  19.567   5.017  1.00  0.00    +0.000 H 
BRANCH   19   18
ATOM     18  C15 UNL A   1      45.059  20.515   3.152  1.00  0.00    +0.000 C 
ATOM    107  H16 UNL A   1      45.768  21.316   3.181  1.00  0.00    +0.000 H 
ATOM    106  H15 UNL A   1      44.074  20.826   3.434  1.00  0.00    +0.000 H 
BRANCH   18   17
ATOM     17  C14 UNL A   1      45.010  20.019   1.705  1.00  0.00    +0.000 C 
ATOM    105  H14 UNL A   1      44.909  18.954   1.724  1.00  0.00    +0.000 H 
ATOM    104  H13 UNL A   1      45.912  20.313   1.208  1.00  0.00    +0.000 H 
BRANCH   17   16
ATOM    103  H12 UNL A   1      44.032  21.456   0.597  1.00  0.00    +0.000 H 
ATOM     16  N2  UNL A   1      43.879  20.564   0.985  1.00  0.00    +0.000 N 
BRANCH   16   14
ATOM     14  C13 UNL A   1      42.638  20.052   0.753  1.00  0.00    +0.000 C 
ATOM     15  O1  UNL A   1      42.450  19.549  -0.361  1.00  0.00    +0.000 O 
BRANCH   14   12
ATOM     99  H8  UNL A   1      41.756  20.863   2.475  1.00  0.00    +0.000 H 
ATOM     12  C11 UNL A   1      41.497  20.092   1.779  1.00  0.00    +0.000 C 
BRANCH   12   11
ATOM     97  H6  UNL A   1      36.853  20.121   1.306  1.00  0.00    +0.000 H 
ATOM     98  H7  UNL A   1      38.885  19.444   2.412  1.00  0.00    +0.000 H 
ATOM    131  H40 UNL A   1      41.099  21.908  -0.158  1.00  0.00    +0.000 H 
ATOM    132  H41 UNL A   1      39.054  22.690  -1.172  1.00  0.00    +0.000 H 
ATOM      8  C7  UNL A   1      37.760  21.460  -0.048  1.00  0.00    +0.000 C 
ATOM      9  C8  UNL A   1      37.753  20.520   0.994  1.00  0.00    +0.000 C 
ATOM     10  C9  UNL A   1      38.935  20.108   1.623  1.00  0.00    +0.000 C 
ATOM     11  C10 UNL A   1      40.179  20.579   1.199  1.00  0.00    +0.000 C 
ATOM     89  C65 UNL A   1      40.195  21.528   0.167  1.00  0.00    +0.000 C 
ATOM     90  C66 UNL A   1      39.009  21.972  -0.433  1.00  0.00    +0.000 C 
BRANCH    8    7
ATOM      3  C3  UNL A   1      35.131  22.206  -2.707  1.00  0.00    +0.000 C 
ATOM      4  C4  UNL A   1      34.111  22.635  -1.864  1.00  0.00    +0.000 C 
ATOM      5  N1  UNL A   1      34.212  22.700  -0.518  1.00  0.00    +0.000 N 
ATOM    133  H42 UNL A   1      37.125  21.515  -2.700  1.00  0.00    +0.000 H 
ATOM      7  C6  UNL A   1      36.506  21.876  -0.711  1.00  0.00    +0.000 C 
ATOM      6  C5  UNL A   1      35.400  22.328   0.015  1.00  0.00    +0.000 C 
ATOM     91  C67 UNL A   1      36.341  21.831  -2.106  1.00  0.00    +0.000 C 
ATOM     95  H4  UNL A   1      33.219  22.922  -2.296  1.00  0.00    +0.000 H 
ATOM     96  H5  UNL A   1      35.497  22.382   1.041  1.00  0.00    +0.000 H 
BRANCH    3    2
ATOM      2  C2  UNL A   1      34.932  22.219  -4.160  1.00  0.00    +0.000 C 
ATOM     94  H3  UNL A   1      35.767  22.286  -4.760  1.00  0.00    +0.000 H 
BRANCH    2    1
ATOM      1  C1  UNL A   1      33.735  22.149  -4.756  1.00  0.00    +0.000 C 
ATOM     92  H1  UNL A   1      33.668  21.853  -5.743  1.00  0.00    +0.000 H 
ATOM     93  H2  UNL A   1      32.881  22.392  -4.230  1.00  0.00    +0.000 H 
ENDBRANCH    2    1
ENDBRANCH    3    2
ENDBRANCH    8    7
ENDBRANCH   12   11
BRANCH   12   13
ATOM    101  H10 UNL A   1      40.458  18.409   2.597  1.00  0.00    +0.000 H 
ATOM    100  H9  UNL A   1      42.174  18.157   2.390  1.00  0.00    +0.000 H 
ATOM     13  C12 UNL A   1      41.425  18.860   2.685  1.00  0.00    +0.000 C 
ATOM    102  H11 UNL A   1      41.590  19.154   3.700  1.00  0.00    +0.000 H 
ENDBRANCH   12   13
ENDBRANCH   14   12
ENDBRANCH   16   14
ENDBRANCH   17   16
ENDBRANCH   18   17
ENDBRANCH   19   18
ENDBRANCH   20   19
ENDBRANCH   21   20
ENDBRANCH   22   21
ENDBRANCH   23   22
ENDBRANCH   24   23
ENDBRANCH   26   24
ENDBRANCH   30   29
BRANCH   34   35
ATOM     35  C29 UNL A   1      52.721  22.584  16.978  1.00  0.00    +0.000 C 
ATOM     36  C30 UNL A   1      51.929  21.962  17.954  1.00  0.00    +0.000 C 
ATOM     37  F1  UNL A   1      52.028  20.641  18.162  1.00  0.00    +0.000 F 
ATOM     38  C31 UNL A   1      51.000  22.689  18.694  1.00  0.00    +0.000 C 
ATOM     39  F2  UNL A   1      50.220  22.065  19.586  1.00  0.00    +0.000 F 
ATOM     40  C32 UNL A   1      50.871  24.057  18.497  1.00  0.00    +0.000 C 
ATOM     41  F3  UNL A   1      49.980  24.756  19.213  1.00  0.00    +0.000 F 
ATOM     42  C33 UNL A   1      51.660  24.696  17.553  1.00  0.00    +0.000 C 
ATOM     43  F4  UNL A   1      51.544  26.019  17.371  1.00  0.00    +0.000 F 
ATOM     44  C34 UNL A   1      52.569  23.966  16.791  1.00  0.00    +0.000 C 
ATOM     45  F5  UNL A   1      53.308  24.611  15.876  1.00  0.00    +0.000 F 
ENDBRANCH   34   35
BRANCH   51   52
ATOM     52  C40 UNL A   1      59.566  20.398  17.576  1.00  0.00    +0.000 C 
ATOM     53  C41 UNL A   1      60.493  21.451  17.591  1.00  0.00    +0.000 C 
ATOM     54  F6  UNL A   1      60.439  22.411  16.655  1.00  0.00    +0.000 F 
ATOM     55  C42 UNL A   1      61.503  21.501  18.549  1.00  0.00    +0.000 C 
ATOM     56  F7  UNL A   1      62.403  22.492  18.519  1.00  0.00    +0.000 F 
ATOM     57  C43 UNL A   1      61.586  20.518  19.524  1.00  0.00    +0.000 C 
ATOM     58  F8  UNL A   1      62.556  20.570  20.447  1.00  0.00    +0.000 F 
ATOM     59  C44 UNL A   1      60.670  19.477  19.537  1.00  0.00    +0.000 C 
ATOM     60  F9  UNL A   1      60.744  18.532  20.485  1.00  0.00    +0.000 F 
ATOM     61  C45 UNL A   1      59.676  19.411  18.566  1.00  0.00    +0.000 C 
ATOM     62  F10 UNL A   1      58.810  18.385  18.597  1.00  0.00    +0.000 F 
ENDBRANCH   51   52
BRANCH   66   67
ATOM     67  C49 UNL A   1      59.179  17.635  11.197  1.00  0.00    +0.000 C 
ATOM     68  C50 UNL A   1      59.254  16.235  11.207  1.00  0.00    +0.000 C 
ATOM     69  F11 UNL A   1      58.456  15.529  12.021  1.00  0.00    +0.000 F 
ATOM     70  C51 UNL A   1      60.174  15.558  10.410  1.00  0.00    +0.000 C 
ATOM     71  F12 UNL A   1      60.252  14.222  10.469  1.00  0.00    +0.000 F 
ATOM     72  C52 UNL A   1      61.018  16.266   9.568  1.00  0.00    +0.000 C 
ATOM     73  F13 UNL A   1      61.900  15.615   8.797  1.00  0.00    +0.000 F 
ATOM     74  C53 UNL A   1      60.952  17.651   9.530  1.00  0.00    +0.000 C 
ATOM     75  F14 UNL A   1      61.757  18.337   8.708  1.00  0.00    +0.000 F 
ATOM     76  C54 UNL A   1      60.049  18.330  10.345  1.00  0.00    +0.000 C 
ATOM     77  F15 UNL A   1      60.012  19.670  10.295  1.00  0.00    +0.000 F 
ENDBRANCH   66   67
TORSDOF 20
ENDMDL
MODEL 9
REMARK VINA RESULT:     -10.1      2.629      3.858
ROOT
ATOM     30  C25 UNL A   1      39.985  28.854  29.153  1.00  0.00    +0.000 C 
ATOM     31  C26 UNL A   1      40.823  29.815  29.949  1.00  0.00    +0.000 C 
ATOM     32  N4  UNL A   1      42.087  29.733  30.283  1.00  0.00    +0.000 N 
ATOM     33  C27 UNL A   1      42.371  30.903  30.974  1.00  0.00    +0.000 C 
ATOM     34  C28 UNL A   1      43.530  31.271  31.573  1.00  0.00    +0.000 C 
ATOM     46  C35 UNL A   1      44.722  30.465  31.597  1.00  0.00    +0.000 C 
ATOM     47  C36 UNL A   1      45.926  30.723  32.228  1.00  0.00    +0.000 C 
ATOM     48  C37 UNL A   1      46.804  29.671  31.943  1.00  0.00    +0.000 C 
ATOM     49  C38 UNL A   1      46.133  28.738  31.169  1.00  0.00    +0.000 C 
ATOM     50  N5  UNL A   1      44.858  29.240  30.962  1.00  0.00    +0.000 N 
ATOM     51  C39 UNL A   1      46.618  27.482  30.656  1.00  0.00    +0.000 C 
ATOM     63  C46 UNL A   1      45.890  26.613  29.912  1.00  0.00    +0.000 C 
ATOM     64  N6  UNL A   1      44.572  26.717  29.492  1.00  0.00    +0.000 N 
ATOM     65  C47 UNL A   1      44.331  25.635  28.791  1.00  0.00    +0.000 C 
ATOM     66  C48 UNL A   1      43.058  25.204  28.116  1.00  0.00    +0.000 C 
ATOM     78  C55 UNL A   1      41.963  25.982  28.218  1.00  0.00    +0.000 C 
ATOM     79  C56 UNL A   1      40.662  25.693  27.621  1.00  0.00    +0.000 C 
ATOM     80  C57 UNL A   1      39.824  26.708  27.888  1.00  0.00    +0.000 C 
ATOM     81  C58 UNL A   1      40.522  27.703  28.703  1.00  0.00    +0.000 C 
ATOM     82  N7  UNL A   1      41.782  27.183  28.857  1.00  0.00    +0.000 N 
ATOM     83  C59 UNL A   1      45.485  24.733  28.666  1.00  0.00    +0.000 C 
ATOM     84  C60 UNL A   1      46.397  25.358  29.397  1.00  0.00    +0.000 C 
ATOM     85  C61 UNL A   1      41.163  31.699  30.974  1.00  0.00    +0.000 C 
ATOM     86  C62 UNL A   1      40.159  31.044  30.409  1.00  0.00    +0.000 C 
ATOM    119  H28 UNL A   1      46.141  31.549  32.809  1.00  0.00    +0.000 H 
ATOM    120  H29 UNL A   1      47.785  29.602  32.256  1.00  0.00    +0.000 H 
ATOM    121  H30 UNL A   1      44.154  28.793  30.439  1.00  0.00    +0.000 H 
ATOM    122  H31 UNL A   1      40.424  24.846  27.083  1.00  0.00    +0.000 H 
ATOM    123  H32 UNL A   1      38.845  26.775  27.569  1.00  0.00    +0.000 H 
ATOM    124  H33 UNL A   1      42.489  27.628  29.377  1.00  0.00    +0.000 H 
ATOM    125  H34 UNL A   1      45.565  23.845  28.144  1.00  0.00    +0.000 H 
ATOM    126  H35 UNL A   1      47.346  24.996  29.577  1.00  0.00    +0.000 H 
ATOM    127  H36 UNL A   1      41.092  32.652  31.362  1.00  0.00    +0.000 H 
ATOM    128  H37 UNL A   1      39.170  31.323  30.316  1.00  0.00    +0.000 H 
ENDROOT
BRANCH   30   29
ATOM    129  H38 UNL A   1      39.056  29.783  26.819  1.00  0.00    +0.000 H 
ATOM    130  H39 UNL A   1      36.798  30.455  26.246  1.00  0.00    +0.000 H 
ATOM    117  H26 UNL A   1      35.462  29.228  30.042  1.00  0.00    +0.000 H 
ATOM    118  H27 UNL A   1      37.752  28.742  30.687  1.00  0.00    +0.000 H 
ATOM     87  C63 UNL A   1      38.298  29.685  27.513  1.00  0.00    +0.000 C 
ATOM     88  C64 UNL A   1      36.994  30.035  27.169  1.00  0.00    +0.000 C 
ATOM     26  C21 UNL A   1      35.949  29.816  28.071  1.00  0.00    +0.000 C 
ATOM     27  C22 UNL A   1      36.228  29.353  29.361  1.00  0.00    +0.000 C 
ATOM     28  C23 UNL A   1      37.544  29.062  29.728  1.00  0.00    +0.000 C 
ATOM     29  C24 UNL A   1      38.586  29.200  28.798  1.00  0.00    +0.000 C 
BRANCH   26   24
ATOM     25  O2  UNL A   1      34.234  31.253  27.380  1.00  0.00    +0.000 O 
ATOM     24  C20 UNL A   1      34.545  30.116  27.709  1.00  0.00    +0.000 C 
BRANCH   24   23
ATOM    116  H25 UNL A   1      33.281  28.864  28.631  1.00  0.00    +0.000 H 
ATOM     23  N3  UNL A   1      33.594  29.125  27.735  1.00  0.00    +0.000 N 
BRANCH   23   22
ATOM    114  H23 UNL A   1      32.211  27.770  27.015  1.00  0.00    +0.000 H 
ATOM    115  H24 UNL A   1      32.583  29.126  25.946  1.00  0.00    +0.000 H 
ATOM     22  C19 UNL A   1      32.981  28.405  26.629  1.00  0.00    +0.000 C 
BRANCH   22   21
ATOM    113  H22 UNL A   1      34.946  27.747  26.317  1.00  0.00    +0.000 H 
ATOM     21  C18 UNL A   1      33.993  27.547  25.874  1.00  0.00    +0.000 C 
ATOM    112  H21 UNL A   1      33.944  27.811  24.837  1.00  0.00    +0.000 H 
BRANCH   21   20
ATOM     20  C17 UNL A   1      33.773  26.035  25.990  1.00  0.00    +0.000 C 
ATOM    110  H19 UNL A   1      33.967  25.751  27.003  1.00  0.00    +0.000 H 
ATOM    111  H20 UNL A   1      32.764  25.863  25.676  1.00  0.00    +0.000 H 
BRANCH   20   19
ATOM     19  C16 UNL A   1      34.649  25.163  25.079  1.00  0.00    +0.000 C 
ATOM    108  H17 UNL A   1      34.074  24.910  24.213  1.00  0.00    +0.000 H 
ATOM    109  H18 UNL A   1      35.520  25.744  24.862  1.00  0.00    +0.000 H 
BRANCH   19   18
ATOM     18  C15 UNL A   1      35.156  23.861  25.709  1.00  0.00    +0.000 C 
ATOM    107  H16 UNL A   1      36.053  24.101  26.238  1.00  0.00    +0.000 H 
ATOM    106  H15 UNL A   1      35.316  23.148  24.927  1.00  0.00    +0.000 H 
BRANCH   18   17
ATOM     17  C14 UNL A   1      34.193  23.247  26.728  1.00  0.00    +0.000 C 
ATOM    105  H14 UNL A   1      33.274  23.796  26.687  1.00  0.00    +0.000 H 
ATOM    104  H13 UNL A   1      34.635  23.305  27.701  1.00  0.00    +0.000 H 
BRANCH   17   16
ATOM    103  H12 UNL A   1      33.812  21.281  27.218  1.00  0.00    +0.000 H 
ATOM     16  N2  UNL A   1      33.899  21.861  26.428  1.00  0.00    +0.000 N 
BRANCH   16   14
ATOM     14  C13 UNL A   1      33.724  21.224  25.237  1.00  0.00    +0.000 C 
ATOM     15  O1  UNL A   1      34.702  20.611  24.791  1.00  0.00    +0.000 O 
BRANCH   14   12
ATOM     99  H8  UNL A   1      31.648  20.942  25.130  1.00  0.00    +0.000 H 
ATOM     12  C11 UNL A   1      32.409  21.251  24.444  1.00  0.00    +0.000 C 
BRANCH   12   11
ATOM     97  H6  UNL A   1      32.452  25.094  21.794  1.00  0.00    +0.000 H 
ATOM     98  H7  UNL A   1      33.042  22.800  22.244  1.00  0.00    +0.000 H 
ATOM    131  H40 UNL A   1      30.718  22.892  25.731  1.00  0.00    +0.000 H 
ATOM    132  H41 UNL A   1      30.017  25.140  25.208  1.00  0.00    +0.000 H 
ATOM      8  C7  UNL A   1      31.190  25.342  23.465  1.00  0.00    +0.000 C 
ATOM      9  C8  UNL A   1      32.065  24.629  22.631  1.00  0.00    +0.000 C 
ATOM     10  C9  UNL A   1      32.427  23.304  22.902  1.00  0.00    +0.000 C 
ATOM     11  C10 UNL A   1      31.971  22.653  24.050  1.00  0.00    +0.000 C 
ATOM     89  C65 UNL A   1      31.085  23.352  24.883  1.00  0.00    +0.000 C 
ATOM     90  C66 UNL A   1      30.690  24.664  24.587  1.00  0.00    +0.000 C 
BRANCH    8    7
ATOM      3  C3  UNL A   1      29.189  28.552  22.988  1.00  0.00    +0.000 C 
ATOM      4  C4  UNL A   1      30.241  29.395  22.647  1.00  0.00    +0.000 C 
ATOM      5  N1  UNL A   1      31.532  29.005  22.562  1.00  0.00    +0.000 N 
ATOM    133  H42 UNL A   1      28.746  26.551  23.492  1.00  0.00    +0.000 H 
ATOM      7  C6  UNL A   1      30.826  26.745  23.172  1.00  0.00    +0.000 C 
ATOM      6  C5  UNL A   1      31.784  27.699  22.818  1.00  0.00    +0.000 C 
ATOM     91  C67 UNL A   1      29.502  27.210  23.245  1.00  0.00    +0.000 C 
ATOM     95  H4  UNL A   1      30.022  30.382  22.448  1.00  0.00    +0.000 H 
ATOM     96  H5  UNL A   1      32.764  27.382  22.747  1.00  0.00    +0.000 H 
BRANCH    3    2
ATOM      2  C2  UNL A   1      27.816  29.068  23.005  1.00  0.00    +0.000 C 
ATOM     94  H3  UNL A   1      27.044  28.385  23.003  1.00  0.00    +0.000 H 
BRANCH    2    1
ATOM      1  C1  UNL A   1      27.502  30.370  23.024  1.00  0.00    +0.000 C 
ATOM     92  H1  UNL A   1      28.248  31.081  22.971  1.00  0.00    +0.000 H 
ATOM     93  H2  UNL A   1      26.514  30.661  23.092  1.00  0.00    +0.000 H 
ENDBRANCH    2    1
ENDBRANCH    3    2
ENDBRANCH    8    7
ENDBRANCH   12   11
BRANCH   12   13
ATOM    101  H10 UNL A   1      32.016  19.250  23.797  1.00  0.00    +0.000 H 
ATOM    100  H9  UNL A   1      31.583  20.476  22.630  1.00  0.00    +0.000 H 
ATOM     13  C12 UNL A   1      32.310  20.180  23.356  1.00  0.00    +0.000 C 
ATOM    102  H11 UNL A   1      33.262  20.065  22.882  1.00  0.00    +0.000 H 
ENDBRANCH   12   13
ENDBRANCH   14   12
ENDBRANCH   16   14
ENDBRANCH   17   16
ENDBRANCH   18   17
ENDBRANCH   19   18
ENDBRANCH   20   19
ENDBRANCH   21   20
ENDBRANCH   22   21
ENDBRANCH   23   22
ENDBRANCH   24   23
ENDBRANCH   26   24
ENDBRANCH   30   29
BRANCH   34   35
ATOM     35  C29 UNL A   1      43.562  32.607  32.256  1.00  0.00    +0.000 C 
ATOM     36  C30 UNL A   1      43.908  33.777  31.563  1.00  0.00    +0.000 C 
ATOM     37  F1  UNL A   1      44.261  33.716  30.271  1.00  0.00    +0.000 F 
ATOM     38  C31 UNL A   1      43.931  35.011  32.207  1.00  0.00    +0.000 C 
ATOM     39  F2  UNL A   1      44.312  36.107  31.538  1.00  0.00    +0.000 F 
ATOM     40  C32 UNL A   1      43.577  35.105  33.545  1.00  0.00    +0.000 C 
ATOM     41  F3  UNL A   1      43.595  36.294  34.163  1.00  0.00    +0.000 F 
ATOM     42  C33 UNL A   1      43.209  33.965  34.244  1.00  0.00    +0.000 C 
ATOM     43  F4  UNL A   1      42.855  34.056  35.533  1.00  0.00    +0.000 F 
ATOM     44  C34 UNL A   1      43.213  32.725  33.610  1.00  0.00    +0.000 C 
ATOM     45  F5  UNL A   1      42.867  31.638  34.316  1.00  0.00    +0.000 F 
ENDBRANCH   34   35
BRANCH   51   52
ATOM     52  C40 UNL A   1      48.027  27.090  30.986  1.00  0.00    +0.000 C 
ATOM     53  C41 UNL A   1      49.110  27.528  30.210  1.00  0.00    +0.000 C 
ATOM     54  F6  UNL A   1      48.899  28.273  29.115  1.00  0.00    +0.000 F 
ATOM     55  C42 UNL A   1      50.415  27.169  30.539  1.00  0.00    +0.000 C 
ATOM     56  F7  UNL A   1      51.433  27.562  29.760  1.00  0.00    +0.000 F 
ATOM     57  C43 UNL A   1      50.662  26.394  31.662  1.00  0.00    +0.000 C 
ATOM     58  F8  UNL A   1      51.919  26.054  31.980  1.00  0.00    +0.000 F 
ATOM     59  C44 UNL A   1      49.606  25.964  32.452  1.00  0.00    +0.000 C 
ATOM     60  F9  UNL A   1      49.844  25.223  33.543  1.00  0.00    +0.000 F 
ATOM     61  C45 UNL A   1      48.299  26.299  32.111  1.00  0.00    +0.000 C 
ATOM     62  F10 UNL A   1      47.296  25.859  32.887  1.00  0.00    +0.000 F 
ENDBRANCH   51   52
BRANCH   66   67
ATOM     67  C49 UNL A   1      42.988  23.922  27.370  1.00  0.00    +0.000 C 
ATOM     68  C50 UNL A   1      42.544  22.751  27.999  1.00  0.00    +0.000 C 
ATOM     69  F11 UNL A   1      42.199  22.778  29.295  1.00  0.00    +0.000 F 
ATOM     70  C51 UNL A   1      42.489  21.541  27.311  1.00  0.00    +0.000 C 
ATOM     71  F12 UNL A   1      42.098  20.429  27.948  1.00  0.00    +0.000 F 
ATOM     72  C52 UNL A   1      42.851  21.485  25.974  1.00  0.00    +0.000 C 
ATOM     73  F13 UNL A   1      42.793  20.323  25.311  1.00  0.00    +0.000 F 
ATOM     74  C53 UNL A   1      43.279  22.635  25.327  1.00  0.00    +0.000 C 
ATOM     75  F14 UNL A   1      43.618  22.586  24.031  1.00  0.00    +0.000 F 
ATOM     76  C54 UNL A   1      43.359  23.840  26.021  1.00  0.00    +0.000 C 
ATOM     77  F15 UNL A   1      43.785  24.934  25.373  1.00  0.00    +0.000 F 
ENDBRANCH   66   67
TORSDOF 20
ENDMDL
MODEL 10
REMARK VINA RESULT:     -10.1      4.131      9.673
ROOT
ATOM     30  C25 UNL A   1      41.424  26.466  27.446  1.00  0.00    +0.000 C 
ATOM     31  C26 UNL A   1      42.839  26.761  27.032  1.00  0.00    +0.000 C 
ATOM     32  N4  UNL A   1      43.587  27.798  27.317  1.00  0.00    +0.000 N 
ATOM     33  C27 UNL A   1      44.818  27.549  26.725  1.00  0.00    +0.000 C 
ATOM     34  C28 UNL A   1      45.914  28.345  26.686  1.00  0.00    +0.000 C 
ATOM     46  C35 UNL A   1      45.986  29.655  27.279  1.00  0.00    +0.000 C 
ATOM     47  C36 UNL A   1      47.029  30.563  27.243  1.00  0.00    +0.000 C 
ATOM     48  C37 UNL A   1      46.658  31.686  27.990  1.00  0.00    +0.000 C 
ATOM     49  C38 UNL A   1      45.369  31.495  28.457  1.00  0.00    +0.000 C 
ATOM     50  N5  UNL A   1      44.970  30.243  28.017  1.00  0.00    +0.000 N 
ATOM     51  C39 UNL A   1      44.559  32.387  29.247  1.00  0.00    +0.000 C 
ATOM     63  C46 UNL A   1      43.292  32.130  29.657  1.00  0.00    +0.000 C 
ATOM     64  N6  UNL A   1      42.510  31.009  29.422  1.00  0.00    +0.000 N 
ATOM     65  C47 UNL A   1      41.371  31.229  30.033  1.00  0.00    +0.000 C 
ATOM     66  C48 UNL A   1      40.143  30.363  30.094  1.00  0.00    +0.000 C 
ATOM     78  C55 UNL A   1      40.132  29.187  29.435  1.00  0.00    +0.000 C 
ATOM     79  C56 UNL A   1      39.016  28.247  29.401  1.00  0.00    +0.000 C 
ATOM     80  C57 UNL A   1      39.377  27.166  28.691  1.00  0.00    +0.000 C 
ATOM     81  C58 UNL A   1      40.740  27.354  28.194  1.00  0.00    +0.000 C 
ATOM     82  N7  UNL A   1      41.105  28.585  28.676  1.00  0.00    +0.000 N 
ATOM     83  C59 UNL A   1      41.314  32.510  30.750  1.00  0.00    +0.000 C 
ATOM     84  C60 UNL A   1      42.495  33.036  30.458  1.00  0.00    +0.000 C 
ATOM     85  C61 UNL A   1      44.733  26.244  26.105  1.00  0.00    +0.000 C 
ATOM     86  C62 UNL A   1      43.510  25.743  26.210  1.00  0.00    +0.000 C 
ATOM    119  H28 UNL A   1      47.927  30.434  26.749  1.00  0.00    +0.000 H 
ATOM    120  H29 UNL A   1      47.247  32.516  28.164  1.00  0.00    +0.000 H 
ATOM    121  H30 UNL A   1      44.095  29.832  28.202  1.00  0.00    +0.000 H 
ATOM    122  H31 UNL A   1      38.097  28.391  29.848  1.00  0.00    +0.000 H 
ATOM    123  H32 UNL A   1      38.788  26.336  28.524  1.00  0.00    +0.000 H 
ATOM    124  H33 UNL A   1      41.979  28.999  28.495  1.00  0.00    +0.000 H 
ATOM    125  H34 UNL A   1      40.553  32.899  31.330  1.00  0.00    +0.000 H 
ATOM    126  H35 UNL A   1      42.807  33.972  30.762  1.00  0.00    +0.000 H 
ATOM    127  H36 UNL A   1      45.520  25.767  25.640  1.00  0.00    +0.000 H 
ATOM    128  H37 UNL A   1      43.130  24.868  25.819  1.00  0.00    +0.000 H 
ENDROOT
BRANCH   30   29
ATOM    129  H38 UNL A   1      42.193  24.010  28.188  1.00  0.00    +0.000 H 
ATOM    130  H39 UNL A   1      41.256  21.869  27.543  1.00  0.00    +0.000 H 
ATOM    117  H26 UNL A   1      38.213  23.836  25.406  1.00  0.00    +0.000 H 
ATOM    118  H27 UNL A   1      39.263  25.972  25.883  1.00  0.00    +0.000 H 
ATOM     87  C63 UNL A   1      41.361  23.974  27.579  1.00  0.00    +0.000 C 
ATOM     88  C64 UNL A   1      40.800  22.744  27.241  1.00  0.00    +0.000 C 
ATOM     26  C21 UNL A   1      39.619  22.694  26.495  1.00  0.00    +0.000 C 
ATOM     27  C22 UNL A   1      39.063  23.874  25.990  1.00  0.00    +0.000 C 
ATOM     28  C23 UNL A   1      39.661  25.104  26.275  1.00  0.00    +0.000 C 
ATOM     29  C24 UNL A   1      40.799  25.166  27.094  1.00  0.00    +0.000 C 
BRANCH   26   24
ATOM     25  O2  UNL A   1      39.596  20.361  26.287  1.00  0.00    +0.000 O 
ATOM     24  C20 UNL A   1      38.965  21.405  26.179  1.00  0.00    +0.000 C 
BRANCH   24   23
ATOM    116  H25 UNL A   1      36.988  21.299  26.491  1.00  0.00    +0.000 H 
ATOM     23  N3  UNL A   1      37.653  21.372  25.769  1.00  0.00    +0.000 N 
BRANCH   23   22
ATOM    114  H23 UNL A   1      37.706  22.093  23.834  1.00  0.00    +0.000 H 
ATOM    115  H24 UNL A   1      37.115  20.439  24.020  1.00  0.00    +0.000 H 
ATOM     22  C19 UNL A   1      37.106  21.430  24.422  1.00  0.00    +0.000 C 
BRANCH   22   21
ATOM    113  H22 UNL A   1      35.045  21.067  24.533  1.00  0.00    +0.000 H 
ATOM     21  C18 UNL A   1      35.664  21.931  24.412  1.00  0.00    +0.000 C 
ATOM    112  H21 UNL A   1      35.497  22.445  23.488  1.00  0.00    +0.000 H 
BRANCH   21   20
ATOM     20  C17 UNL A   1      35.302  22.883  25.557  1.00  0.00    +0.000 C 
ATOM    110  H19 UNL A   1      34.329  22.615  25.913  1.00  0.00    +0.000 H 
ATOM    111  H20 UNL A   1      36.078  22.769  26.286  1.00  0.00    +0.000 H 
BRANCH   20   19
ATOM     19  C16 UNL A   1      35.280  24.376  25.201  1.00  0.00    +0.000 C 
ATOM    108  H17 UNL A   1      36.225  24.794  25.474  1.00  0.00    +0.000 H 
ATOM    109  H18 UNL A   1      35.074  24.426  24.152  1.00  0.00    +0.000 H 
BRANCH   19   18
ATOM     18  C15 UNL A   1      34.182  25.197  25.887  1.00  0.00    +0.000 C 
ATOM    107  H16 UNL A   1      34.567  25.493  26.840  1.00  0.00    +0.000 H 
ATOM    106  H15 UNL A   1      33.306  24.588  25.967  1.00  0.00    +0.000 H 
BRANCH   18   17
ATOM     17  C14 UNL A   1      33.809  26.481  25.142  1.00  0.00    +0.000 C 
ATOM    105  H14 UNL A   1      34.706  26.899  24.733  1.00  0.00    +0.000 H 
ATOM    104  H13 UNL A   1      33.345  27.157  25.829  1.00  0.00    +0.000 H 
BRANCH   17   16
ATOM    103  H12 UNL A   1      33.333  26.004  23.193  1.00  0.00    +0.000 H 
ATOM     16  N2  UNL A   1      32.896  26.224  24.047  1.00  0.00    +0.000 N 
BRANCH   16   14
ATOM     14  C13 UNL A   1      31.535  26.237  23.999  1.00  0.00    +0.000 C 
ATOM     15  O1  UNL A   1      31.010  27.240  23.501  1.00  0.00    +0.000 O 
BRANCH   14   12
ATOM     99  H8  UNL A   1      29.776  25.095  23.928  1.00  0.00    +0.000 H 
ATOM     12  C11 UNL A   1      30.655  25.099  24.539  1.00  0.00    +0.000 C 
BRANCH   12   11
ATOM     97  H6  UNL A   1      32.313  21.612  21.915  1.00  0.00    +0.000 H 
ATOM     98  H7  UNL A   1      31.571  23.884  22.231  1.00  0.00    +0.000 H 
ATOM    131  H40 UNL A   1      31.138  23.166  26.338  1.00  0.00    +0.000 H 
ATOM    132  H41 UNL A   1      32.012  20.937  26.043  1.00  0.00    +0.000 H 
ATOM      8  C7  UNL A   1      32.220  21.052  23.946  1.00  0.00    +0.000 C 
ATOM      9  C8  UNL A   1      32.078  21.938  22.866  1.00  0.00    +0.000 C 
ATOM     10  C9  UNL A   1      31.625  23.251  23.044  1.00  0.00    +0.000 C 
ATOM     11  C10 UNL A   1      31.244  23.717  24.304  1.00  0.00    +0.000 C 
ATOM     89  C65 UNL A   1      31.395  22.844  25.392  1.00  0.00    +0.000 C 
ATOM     90  C66 UNL A   1      31.889  21.544  25.218  1.00  0.00    +0.000 C 
BRANCH    8    7
ATOM      3  C3  UNL A   1      33.929  17.683  24.455  1.00  0.00    +0.000 C 
ATOM      4  C4  UNL A   1      33.480  17.054  23.298  1.00  0.00    +0.000 C 
ATOM      5  N1  UNL A   1      32.677  17.634  22.379  1.00  0.00    +0.000 N 
ATOM    133  H42 UNL A   1      33.843  19.511  25.504  1.00  0.00    +0.000 H 
ATOM      7  C6  UNL A   1      32.687  19.664  23.741  1.00  0.00    +0.000 C 
ATOM      6  C5  UNL A   1      32.312  18.915  22.623  1.00  0.00    +0.000 C 
ATOM     91  C67 UNL A   1      33.522  19.008  24.661  1.00  0.00    +0.000 C 
ATOM     95  H4  UNL A   1      33.780  16.081  23.132  1.00  0.00    +0.000 H 
ATOM     96  H5  UNL A   1      31.707  19.376  21.925  1.00  0.00    +0.000 H 
BRANCH    3    2
ATOM      2  C2  UNL A   1      34.838  16.976  25.364  1.00  0.00    +0.000 C 
ATOM     94  H3  UNL A   1      35.152  17.471  26.212  1.00  0.00    +0.000 H 
BRANCH    2    1
ATOM      1  C1  UNL A   1      35.285  15.730  25.163  1.00  0.00    +0.000 C 
ATOM     92  H1  UNL A   1      34.617  14.969  24.960  1.00  0.00    +0.000 H 
ATOM     93  H2  UNL A   1      36.296  15.530  25.212  1.00  0.00    +0.000 H 
ENDBRANCH    2    1
ENDBRANCH    3    2
ENDBRANCH    8    7
ENDBRANCH   12   11
BRANCH   12   13
ATOM    101  H10 UNL A   1      29.409  24.566  26.194  1.00  0.00    +0.000 H 
ATOM    100  H9  UNL A   1      30.869  25.413  26.644  1.00  0.00    +0.000 H 
ATOM     13  C12 UNL A   1      30.075  25.361  25.930  1.00  0.00    +0.000 C 
ATOM    102  H11 UNL A   1      29.539  26.287  25.924  1.00  0.00    +0.000 H 
ENDBRANCH   12   13
ENDBRANCH   14   12
ENDBRANCH   16   14
ENDBRANCH   17   16
ENDBRANCH   18   17
ENDBRANCH   19   18
ENDBRANCH   20   19
ENDBRANCH   21   20
ENDBRANCH   22   21
ENDBRANCH   23   22
ENDBRANCH   24   23
ENDBRANCH   26   24
ENDBRANCH   30   29
BRANCH   34   35
ATOM     35  C29 UNL A   1      47.125  27.820  25.973  1.00  0.00    +0.000 C 
ATOM     36  C30 UNL A   1      47.215  27.835  24.572  1.00  0.00    +0.000 C 
ATOM     37  F1  UNL A   1      46.189  28.286  23.835  1.00  0.00    +0.000 F 
ATOM     38  C31 UNL A   1      48.346  27.348  23.922  1.00  0.00    +0.000 C 
ATOM     39  F2  UNL A   1      48.389  27.327  22.583  1.00  0.00    +0.000 F 
ATOM     40  C32 UNL A   1      49.420  26.870  24.657  1.00  0.00    +0.000 C 
ATOM     41  F3  UNL A   1      50.510  26.406  24.030  1.00  0.00    +0.000 F 
ATOM     42  C33 UNL A   1      49.362  26.867  26.043  1.00  0.00    +0.000 C 
ATOM     43  F4  UNL A   1      50.404  26.416  26.754  1.00  0.00    +0.000 F 
ATOM     44  C34 UNL A   1      48.221  27.327  26.696  1.00  0.00    +0.000 C 
ATOM     45  F5  UNL A   1      48.189  27.297  28.037  1.00  0.00    +0.000 F 
ENDBRANCH   34   35
BRANCH   51   52
ATOM     52  C40 UNL A   1      45.148  33.711  29.630  1.00  0.00    +0.000 C 
ATOM     53  C41 UNL A   1      45.895  33.869  30.807  1.00  0.00    +0.000 C 
ATOM     54  F6  UNL A   1      46.056  32.836  31.648  1.00  0.00    +0.000 F 
ATOM     55  C42 UNL A   1      46.452  35.101  31.140  1.00  0.00    +0.000 C 
ATOM     56  F7  UNL A   1      47.126  35.241  32.289  1.00  0.00    +0.000 F 
ATOM     57  C43 UNL A   1      46.296  36.188  30.292  1.00  0.00    +0.000 C 
ATOM     58  F8  UNL A   1      46.835  37.372  30.612  1.00  0.00    +0.000 F 
ATOM     59  C44 UNL A   1      45.573  36.049  29.116  1.00  0.00    +0.000 C 
ATOM     60  F9  UNL A   1      45.431  37.096  28.290  1.00  0.00    +0.000 F 
ATOM     61  C45 UNL A   1      44.995  34.826  28.793  1.00  0.00    +0.000 C 
ATOM     62  F10 UNL A   1      44.292  34.724  27.654  1.00  0.00    +0.000 F 
ENDBRANCH   51   52
BRANCH   66   67
ATOM     67  C49 UNL A   1      38.938  30.803  30.840  1.00  0.00    +0.000 C 
ATOM     68  C50 UNL A   1      37.888  31.460  30.184  1.00  0.00    +0.000 C 
ATOM     69  F11 UNL A   1      37.978  31.717  28.870  1.00  0.00    +0.000 F 
ATOM     70  C51 UNL A   1      36.760  31.889  30.879  1.00  0.00    +0.000 C 
ATOM     71  F12 UNL A   1      35.790  32.549  30.234  1.00  0.00    +0.000 F 
ATOM     72  C52 UNL A   1      36.648  31.645  32.239  1.00  0.00    +0.000 C 
ATOM     73  F13 UNL A   1      35.561  32.053  32.908  1.00  0.00    +0.000 F 
ATOM     74  C53 UNL A   1      37.668  30.984  32.908  1.00  0.00    +0.000 C 
ATOM     75  F14 UNL A   1      37.557  30.735  34.220  1.00  0.00    +0.000 F 
ATOM     76  C54 UNL A   1      38.807  30.576  32.218  1.00  0.00    +0.000 C 
ATOM     77  F15 UNL A   1      39.782  29.947  32.891  1.00  0.00    +0.000 F 
ENDBRANCH   66   67
TORSDOF 20
ENDMDL
