MODEL 1
REMARK VINA RESULT:     -10.9      0.000      0.000
ROOT
ATOM     19  C15 UNL A   1      40.020  28.865  29.394  1.00  0.00    +0.000 C 
ATOM     20  C16 UNL A   1      40.930  29.813  30.121  1.00  0.00    +0.000 C 
ATOM     21  N3  UNL A   1      42.202  29.680  30.403  1.00  0.00    +0.000 N 
ATOM     22  C17 UNL A   1      42.571  30.856  31.044  1.00  0.00    +0.000 C 
ATOM     23  C18 UNL A   1      43.776  31.187  31.565  1.00  0.00    +0.000 C 
ATOM     35  C25 UNL A   1      44.928  30.323  31.566  1.00  0.00    +0.000 C 
ATOM     36  C26 UNL A   1      46.155  30.525  32.174  1.00  0.00    +0.000 C 
ATOM     37  C27 UNL A   1      46.983  29.444  31.858  1.00  0.00    +0.000 C 
ATOM     38  C28 UNL A   1      46.260  28.551  31.085  1.00  0.00    +0.000 C 
ATOM     39  N4  UNL A   1      44.997  29.097  30.923  1.00  0.00    +0.000 N 
ATOM     40  C29 UNL A   1      46.688  27.297  30.525  1.00  0.00    +0.000 C 
ATOM     52  C36 UNL A   1      45.890  26.439  29.843  1.00  0.00    +0.000 C 
ATOM     53  N5  UNL A   1      44.545  26.566  29.527  1.00  0.00    +0.000 N 
ATOM     54  C37 UNL A   1      44.234  25.493  28.844  1.00  0.00    +0.000 C 
ATOM     55  C38 UNL A   1      42.908  25.095  28.255  1.00  0.00    +0.000 C 
ATOM     67  C45 UNL A   1      41.840  25.896  28.432  1.00  0.00    +0.000 C 
ATOM     68  C46 UNL A   1      40.502  25.645  27.909  1.00  0.00    +0.000 C 
ATOM     69  C47 UNL A   1      39.715  26.692  28.200  1.00  0.00    +0.000 C 
ATOM     70  C48 UNL A   1      40.485  27.674  28.965  1.00  0.00    +0.000 C 
ATOM     71  N6  UNL A   1      41.727  27.099  29.087  1.00  0.00    +0.000 N 
ATOM     72  C49 UNL A   1      45.358  24.569  28.635  1.00  0.00    +0.000 C 
ATOM     73  C50 UNL A   1      46.334  25.177  29.293  1.00  0.00    +0.000 C 
ATOM     74  C51 UNL A   1      41.399  31.704  31.082  1.00  0.00    +0.000 C 
ATOM     75  C52 UNL A   1      40.344  31.085  30.568  1.00  0.00    +0.000 C 
ATOM    112  H21 UNL A   1      46.414  31.334  32.761  1.00  0.00    +0.000 H 
ATOM    113  H22 UNL A   1      47.967  29.331  32.149  1.00  0.00    +0.000 H 
ATOM    114  H23 UNL A   1      44.258  28.678  30.425  1.00  0.00    +0.000 H 
ATOM    115  H24 UNL A   1      40.208  24.798  27.397  1.00  0.00    +0.000 H 
ATOM    116  H25 UNL A   1      38.725  26.790  27.927  1.00  0.00    +0.000 H 
ATOM    117  H26 UNL A   1      42.464  27.508  29.595  1.00  0.00    +0.000 H 
ATOM    118  H27 UNL A   1      45.381  23.680  28.112  1.00  0.00    +0.000 H 
ATOM    119  H28 UNL A   1      47.288  24.798  29.401  1.00  0.00    +0.000 H 
ATOM    120  H29 UNL A   1      41.386  32.664  31.459  1.00  0.00    +0.000 H 
ATOM    121  H30 UNL A   1      39.367  31.411  30.499  1.00  0.00    +0.000 H 
ENDROOT
BRANCH   19   18
ATOM     76  C53 UNL A   1      37.631  29.200  30.035  1.00  0.00    +0.000 C 
ATOM     77  C54 UNL A   1      36.343  29.659  29.762  1.00  0.00    +0.000 C 
ATOM    110  H19 UNL A   1      36.810  30.660  26.593  1.00  0.00    +0.000 H 
ATOM     15  C11 UNL A   1      36.068  30.262  28.531  1.00  0.00    +0.000 C 
ATOM     16  C12 UNL A   1      37.036  30.274  27.522  1.00  0.00    +0.000 C 
ATOM     17  C13 UNL A   1      38.311  29.763  27.779  1.00  0.00    +0.000 C 
ATOM    111  H20 UNL A   1      39.020  29.751  27.028  1.00  0.00    +0.000 H 
ATOM     18  C14 UNL A   1      38.631  29.264  29.052  1.00  0.00    +0.000 C 
ATOM    122  H31 UNL A   1      37.850  28.809  30.965  1.00  0.00    +0.000 H 
ATOM    123  H32 UNL A   1      35.597  29.555  30.465  1.00  0.00    +0.000 H 
BRANCH   15   13
ATOM     13  C10 UNL A   1      34.759  30.900  28.270  1.00  0.00    +0.000 C 
ATOM     14  O2  UNL A   1      34.437  31.904  28.898  1.00  0.00    +0.000 O 
BRANCH   13   12
ATOM     12  N2  UNL A   1      33.901  30.354  27.347  1.00  0.00    +0.000 N 
ATOM    109  H18 UNL A   1      33.610  30.962  26.631  1.00  0.00    +0.000 H 
BRANCH   12   11
ATOM     11  C9  UNL A   1      33.362  29.005  27.276  1.00  0.00    +0.000 C 
ATOM    108  H17 UNL A   1      32.308  29.085  27.109  1.00  0.00    +0.000 H 
ATOM    107  H16 UNL A   1      33.576  28.500  28.195  1.00  0.00    +0.000 H 
BRANCH   11   10
ATOM    105  H14 UNL A   1      33.678  28.673  25.208  1.00  0.00    +0.000 H 
ATOM     10  C8  UNL A   1      33.956  28.198  26.125  1.00  0.00    +0.000 C 
ATOM    106  H15 UNL A   1      35.013  28.178  26.288  1.00  0.00    +0.000 H 
BRANCH   10    9
ATOM      9  C7  UNL A   1      33.505  26.737  26.059  1.00  0.00    +0.000 C 
ATOM    103  H12 UNL A   1      33.714  26.284  27.006  1.00  0.00    +0.000 H 
ATOM    104  H13 UNL A   1      32.463  26.761  25.815  1.00  0.00    +0.000 H 
BRANCH    9    8
ATOM    101  H10 UNL A   1      33.451  25.708  24.205  1.00  0.00    +0.000 H 
ATOM    102  H11 UNL A   1      35.021  26.459  24.640  1.00  0.00    +0.000 H 
ATOM      8  C6  UNL A   1      34.176  25.893  24.971  1.00  0.00    +0.000 C 
BRANCH    8    7
ATOM     99  H8  UNL A   1      35.432  24.715  26.220  1.00  0.00    +0.000 H 
ATOM    100  H9  UNL A   1      33.889  23.955  25.743  1.00  0.00    +0.000 H 
ATOM      7  C5  UNL A   1      34.731  24.537  25.432  1.00  0.00    +0.000 C 
BRANCH    7    6
ATOM     97  H6  UNL A   1      35.679  24.384  23.526  1.00  0.00    +0.000 H 
ATOM     98  H7  UNL A   1      36.323  23.301  24.753  1.00  0.00    +0.000 H 
ATOM      6  C4  UNL A   1      35.436  23.732  24.338  1.00  0.00    +0.000 C 
BRANCH    6    5
ATOM      5  N1  UNL A   1      34.590  22.664  23.851  1.00  0.00    +0.000 N 
ATOM     96  H5  UNL A   1      34.780  22.376  22.930  1.00  0.00    +0.000 H 
BRANCH    5    3
ATOM      3  C3  UNL A   1      33.571  21.991  24.459  1.00  0.00    +0.000 C 
ATOM      4  O1  UNL A   1      33.875  21.336  25.460  1.00  0.00    +0.000 O 
BRANCH    3    2
ATOM      2  C2  UNL A   1      32.144  22.040  23.877  1.00  0.00    +0.000 C 
ATOM     95  H4  UNL A   1      31.577  21.351  24.466  1.00  0.00    +0.000 H 
BRANCH    2    1
ATOM      1  C1  UNL A   1      32.081  21.583  22.415  1.00  0.00    +0.000 C 
ATOM     92  H1  UNL A   1      31.058  21.495  22.112  1.00  0.00    +0.000 H 
ATOM     93  H2  UNL A   1      32.564  20.632  22.318  1.00  0.00    +0.000 H 
ATOM     94  H3  UNL A   1      32.578  22.299  21.795  1.00  0.00    +0.000 H 
ENDBRANCH    2    1
BRANCH    2   78
ATOM    135  H44 UNL A   1      29.931  25.559  26.070  1.00  0.00    +0.000 H 
ATOM     78  C55 UNL A   1      31.522  23.434  23.997  1.00  0.00    +0.000 C 
ATOM     79  C56 UNL A   1      31.574  24.293  22.880  1.00  0.00    +0.000 C 
ATOM     80  C57 UNL A   1      31.050  25.584  22.924  1.00  0.00    +0.000 C 
ATOM     81  C58 UNL A   1      30.470  26.072  24.097  1.00  0.00    +0.000 C 
ATOM     89  C65 UNL A   1      30.383  25.221  25.206  1.00  0.00    +0.000 C 
ATOM     90  C66 UNL A   1      30.899  23.917  25.160  1.00  0.00    +0.000 C 
ATOM     91 Br1  UNL A   1      30.699  22.876  26.739  1.00  0.00    +0.000 Br
ATOM    124  H33 UNL A   1      32.010  23.958  22.008  1.00  0.00    +0.000 H 
ATOM    125  H34 UNL A   1      31.089  26.183  22.085  1.00  0.00    +0.000 H 
BRANCH   81   82
ATOM     82  C59 UNL A   1      29.979  27.498  24.169  1.00  0.00    +0.000 C 
ATOM    126  H35 UNL A   1      30.805  28.113  24.459  1.00  0.00    +0.000 H 
ATOM    127  H36 UNL A   1      29.170  27.486  24.869  1.00  0.00    +0.000 H 
BRANCH   82   83
ATOM    129  H38 UNL A   1      27.426  28.056  23.741  1.00  0.00    +0.000 H 
ATOM    130  H39 UNL A   1      27.411  28.290  22.033  1.00  0.00    +0.000 H 
ATOM    131  H40 UNL A   1      28.070  30.267  24.198  1.00  0.00    +0.000 H 
ATOM    132  H41 UNL A   1      27.076  30.521  22.820  1.00  0.00    +0.000 H 
ATOM    133  H42 UNL A   1      29.646  31.372  22.880  1.00  0.00    +0.000 H 
ATOM    134  H43 UNL A   1      28.969  30.874  21.402  1.00  0.00    +0.000 H 
ATOM     83  C60 UNL A   1      29.395  28.077  22.874  1.00  0.00    +0.000 C 
ATOM     84  C61 UNL A   1      27.934  28.538  22.933  1.00  0.00    +0.000 C 
ATOM     85  C62 UNL A   1      27.973  30.046  23.156  1.00  0.00    +0.000 C 
ATOM     86  C63 UNL A   1      29.195  30.535  22.392  1.00  0.00    +0.000 C 
ATOM     87  C64 UNL A   1      30.103  29.333  22.420  1.00  0.00    +0.000 C 
ATOM     88  O3  UNL A   1      31.282  29.367  22.087  1.00  0.00    +0.000 O 
ATOM    128  H37 UNL A   1      29.510  27.235  22.224  1.00  0.00    +0.000 H 
ENDBRANCH   82   83
ENDBRANCH   81   82
ENDBRANCH    2   78
ENDBRANCH    3    2
ENDBRANCH    5    3
ENDBRANCH    6    5
ENDBRANCH    7    6
ENDBRANCH    8    7
ENDBRANCH    9    8
ENDBRANCH   10    9
ENDBRANCH   11   10
ENDBRANCH   12   11
ENDBRANCH   13   12
ENDBRANCH   15   13
ENDBRANCH   19   18
BRANCH   23   24
ATOM     33  C24 UNL A   1      43.582  32.732  33.542  1.00  0.00    +0.000 C 
ATOM     34  F5  UNL A   1      43.194  31.694  34.297  1.00  0.00    +0.000 F 
ATOM     24  C19 UNL A   1      43.925  32.538  32.195  1.00  0.00    +0.000 C 
ATOM     25  C20 UNL A   1      44.319  33.657  31.447  1.00  0.00    +0.000 C 
ATOM     26  F1  UNL A   1      44.663  33.519  30.158  1.00  0.00    +0.000 F 
ATOM     27  C21 UNL A   1      44.373  34.922  32.028  1.00  0.00    +0.000 C 
ATOM     28  F2  UNL A   1      44.772  35.974  31.301  1.00  0.00    +0.000 F 
ATOM     29  C22 UNL A   1      44.012  35.094  33.356  1.00  0.00    +0.000 C 
ATOM     30  F3  UNL A   1      44.046  36.315  33.908  1.00  0.00    +0.000 F 
ATOM     31  C23 UNL A   1      43.616  34.001  34.113  1.00  0.00    +0.000 C 
ATOM     32  F4  UNL A   1      43.257  34.169  35.394  1.00  0.00    +0.000 F 
ENDBRANCH   23   24
BRANCH   40   41
ATOM     41  C30 UNL A   1      48.120  26.895  30.715  1.00  0.00    +0.000 C 
ATOM     42  C31 UNL A   1      48.505  26.050  31.766  1.00  0.00    +0.000 C 
ATOM     43  F6  UNL A   1      47.598  25.629  32.660  1.00  0.00    +0.000 F 
ATOM     44  C32 UNL A   1      49.833  25.664  31.922  1.00  0.00    +0.000 C 
ATOM     45  F7  UNL A   1      50.186  24.889  32.957  1.00  0.00    +0.000 F 
ATOM     46  C33 UNL A   1      50.793  26.090  31.017  1.00  0.00    +0.000 C 
ATOM     47  F8  UNL A   1      52.070  25.711  31.164  1.00  0.00    +0.000 F 
ATOM     48  C34 UNL A   1      50.431  26.915  29.962  1.00  0.00    +0.000 C 
ATOM     49  F9  UNL A   1      51.356  27.320  29.080  1.00  0.00    +0.000 F 
ATOM     50  C35 UNL A   1      49.109  27.325  29.818  1.00  0.00    +0.000 C 
ATOM     51  F10 UNL A   1      48.789  28.131  28.795  1.00  0.00    +0.000 F 
ENDBRANCH   40   41
BRANCH   55   56
ATOM     65  C44 UNL A   1      43.071  23.793  26.106  1.00  0.00    +0.000 C 
ATOM     66  F15 UNL A   1      43.456  24.906  25.467  1.00  0.00    +0.000 F 
ATOM     56  C39 UNL A   1      42.776  23.837  27.477  1.00  0.00    +0.000 C 
ATOM     57  C40 UNL A   1      42.373  22.646  28.096  1.00  0.00    +0.000 C 
ATOM     58  F11 UNL A   1      42.104  22.633  29.411  1.00  0.00    +0.000 F 
ATOM     59  C41 UNL A   1      42.295  21.453  27.380  1.00  0.00    +0.000 C 
ATOM     60  F12 UNL A   1      41.958  20.318  28.008  1.00  0.00    +0.000 F 
ATOM     61  C42 UNL A   1      42.588  21.435  26.024  1.00  0.00    +0.000 C 
ATOM     62  F13 UNL A   1      42.515  20.287  25.337  1.00  0.00    +0.000 F 
ATOM     63  C43 UNL A   1      42.966  22.606  25.385  1.00  0.00    +0.000 C 
ATOM     64  F14 UNL A   1      43.238  22.595  24.074  1.00  0.00    +0.000 F 
ENDBRANCH   55   56
TORSDOF 19
ENDMDL
MODEL 2
REMARK VINA RESULT:     -10.8      3.033      7.736
ROOT
ATOM     19  C15 UNL A   1      38.104  30.171  29.681  1.00  0.00    +0.000 C 
ATOM     20  C16 UNL A   1      39.133  29.222  29.135  1.00  0.00    +0.000 C 
ATOM     21  N3  UNL A   1      40.226  28.776  29.703  1.00  0.00    +0.000 N 
ATOM     22  C17 UNL A   1      40.792  27.896  28.791  1.00  0.00    +0.000 C 
ATOM     23  C18 UNL A   1      41.953  27.207  28.898  1.00  0.00    +0.000 C 
ATOM     35  C25 UNL A   1      42.852  27.295  30.018  1.00  0.00    +0.000 C 
ATOM     36  C26 UNL A   1      44.106  26.726  30.164  1.00  0.00    +0.000 C 
ATOM     37  C27 UNL A   1      44.583  27.037  31.440  1.00  0.00    +0.000 C 
ATOM     38  C28 UNL A   1      43.643  27.831  32.076  1.00  0.00    +0.000 C 
ATOM     39  N4  UNL A   1      42.591  27.990  31.188  1.00  0.00    +0.000 N 
ATOM     40  C29 UNL A   1      43.692  28.395  33.399  1.00  0.00    +0.000 C 
ATOM     52  C36 UNL A   1      42.762  29.232  33.919  1.00  0.00    +0.000 C 
ATOM     53  N5  UNL A   1      41.595  29.707  33.338  1.00  0.00    +0.000 N 
ATOM     54  C37 UNL A   1      41.025  30.463  34.242  1.00  0.00    +0.000 C 
ATOM     55  C38 UNL A   1      39.741  31.242  34.155  1.00  0.00    +0.000 C 
ATOM     67  C45 UNL A   1      39.035  31.224  33.008  1.00  0.00    +0.000 C 
ATOM     68  C46 UNL A   1      37.771  31.918  32.786  1.00  0.00    +0.000 C 
ATOM     69  C47 UNL A   1      37.309  31.604  31.566  1.00  0.00    +0.000 C 
ATOM     70  C48 UNL A   1      38.264  30.713  30.904  1.00  0.00    +0.000 C 
ATOM     71  N6  UNL A   1      39.276  30.573  31.823  1.00  0.00    +0.000 N 
ATOM     72  C49 UNL A   1      41.763  30.539  35.512  1.00  0.00    +0.000 C 
ATOM     73  C50 UNL A   1      42.830  29.798  35.249  1.00  0.00    +0.000 C 
ATOM     74  C51 UNL A   1      39.909  27.843  27.646  1.00  0.00    +0.000 C 
ATOM     75  C52 UNL A   1      38.892  28.684  27.788  1.00  0.00    +0.000 C 
ATOM    112  H21 UNL A   1      44.604  26.168  29.451  1.00  0.00    +0.000 H 
ATOM    113  H22 UNL A   1      45.482  26.727  31.842  1.00  0.00    +0.000 H 
ATOM    114  H23 UNL A   1      41.779  28.519  31.362  1.00  0.00    +0.000 H 
ATOM    115  H24 UNL A   1      37.307  32.549  33.458  1.00  0.00    +0.000 H 
ATOM    116  H25 UNL A   1      36.421  31.936  31.159  1.00  0.00    +0.000 H 
ATOM    117  H26 UNL A   1      40.096  30.056  31.648  1.00  0.00    +0.000 H 
ATOM    118  H27 UNL A   1      41.514  31.037  36.381  1.00  0.00    +0.000 H 
ATOM    119  H28 UNL A   1      43.609  29.646  35.908  1.00  0.00    +0.000 H 
ATOM    120  H29 UNL A   1      40.051  27.232  26.827  1.00  0.00    +0.000 H 
ATOM    121  H30 UNL A   1      38.131  28.904  27.126  1.00  0.00    +0.000 H 
ENDROOT
BRANCH   19   18
ATOM     76  C53 UNL A   1      35.936  29.408  28.707  1.00  0.00    +0.000 C 
ATOM     77  C54 UNL A   1      34.716  29.665  28.084  1.00  0.00    +0.000 C 
ATOM    110  H19 UNL A   1      35.070  32.967  27.595  1.00  0.00    +0.000 H 
ATOM     15  C11 UNL A   1      34.371  30.978  27.749  1.00  0.00    +0.000 C 
ATOM     16  C12 UNL A   1      35.302  32.010  27.904  1.00  0.00    +0.000 C 
ATOM     17  C13 UNL A   1      36.547  31.741  28.478  1.00  0.00    +0.000 C 
ATOM    111  H20 UNL A   1      37.244  32.497  28.572  1.00  0.00    +0.000 H 
ATOM     18  C14 UNL A   1      36.855  30.446  28.926  1.00  0.00    +0.000 C 
ATOM    122  H31 UNL A   1      36.166  28.447  29.008  1.00  0.00    +0.000 H 
ATOM    123  H32 UNL A   1      34.069  28.890  27.870  1.00  0.00    +0.000 H 
BRANCH   15   13
ATOM     13  C10 UNL A   1      33.024  31.305  27.233  1.00  0.00    +0.000 C 
ATOM     14  O2  UNL A   1      32.711  32.477  27.050  1.00  0.00    +0.000 O 
BRANCH   13   12
ATOM     12  N2  UNL A   1      32.122  30.299  26.986  1.00  0.00    +0.000 N 
ATOM    109  H18 UNL A   1      31.484  30.117  27.713  1.00  0.00    +0.000 H 
BRANCH   12   11
ATOM     11  C9  UNL A   1      31.974  29.466  25.803  1.00  0.00    +0.000 C 
ATOM    108  H17 UNL A   1      32.637  29.844  25.054  1.00  0.00    +0.000 H 
ATOM    107  H16 UNL A   1      30.954  29.505  25.481  1.00  0.00    +0.000 H 
BRANCH   11   10
ATOM    105  H14 UNL A   1      32.804  27.619  25.179  1.00  0.00    +0.000 H 
ATOM     10  C8  UNL A   1      32.348  28.009  26.065  1.00  0.00    +0.000 C 
ATOM    106  H15 UNL A   1      33.003  28.016  26.911  1.00  0.00    +0.000 H 
BRANCH   10    9
ATOM      9  C7  UNL A   1      31.177  27.097  26.438  1.00  0.00    +0.000 C 
ATOM    103  H12 UNL A   1      31.025  27.171  27.494  1.00  0.00    +0.000 H 
ATOM    104  H13 UNL A   1      30.343  27.438  25.859  1.00  0.00    +0.000 H 
BRANCH    9    8
ATOM    101  H10 UNL A   1      30.510  25.084  26.455  1.00  0.00    +0.000 H 
ATOM    102  H11 UNL A   1      31.468  25.580  25.023  1.00  0.00    +0.000 H 
ATOM      8  C6  UNL A   1      31.361  25.618  26.087  1.00  0.00    +0.000 C 
BRANCH    8    7
ATOM     99  H8  UNL A   1      33.398  25.026  25.930  1.00  0.00    +0.000 H 
ATOM    100  H9  UNL A   1      32.848  25.468  27.570  1.00  0.00    +0.000 H 
ATOM      7  C5  UNL A   1      32.620  24.952  26.661  1.00  0.00    +0.000 C 
BRANCH    7    6
ATOM     97  H6  UNL A   1      32.685  23.345  28.065  1.00  0.00    +0.000 H 
ATOM     98  H7  UNL A   1      31.436  23.194  26.836  1.00  0.00    +0.000 H 
ATOM      6  C4  UNL A   1      32.450  23.477  27.029  1.00  0.00    +0.000 C 
BRANCH    6    5
ATOM      5  N1  UNL A   1      33.321  22.638  26.235  1.00  0.00    +0.000 N 
ATOM     96  H5  UNL A   1      32.952  21.752  26.017  1.00  0.00    +0.000 H 
BRANCH    5    3
ATOM      3  C3  UNL A   1      34.569  22.874  25.737  1.00  0.00    +0.000 C 
ATOM      4  O1  UNL A   1      35.465  23.027  26.571  1.00  0.00    +0.000 O 
BRANCH    3    2
ATOM      2  C2  UNL A   1      34.798  22.975  24.216  1.00  0.00    +0.000 C 
ATOM     95  H4  UNL A   1      34.612  21.992  23.838  1.00  0.00    +0.000 H 
BRANCH    2    1
ATOM      1  C1  UNL A   1      36.237  23.361  23.855  1.00  0.00    +0.000 C 
ATOM     92  H1  UNL A   1      36.875  22.509  23.971  1.00  0.00    +0.000 H 
ATOM     93  H2  UNL A   1      36.569  24.145  24.502  1.00  0.00    +0.000 H 
ATOM     94  H3  UNL A   1      36.272  23.698  22.840  1.00  0.00    +0.000 H 
ENDBRANCH    2    1
BRANCH    2   78
ATOM    135  H44 UNL A   1      30.849  24.259  22.013  1.00  0.00    +0.000 H 
ATOM     78  C55 UNL A   1      33.830  23.959  23.553  1.00  0.00    +0.000 C 
ATOM     79  C56 UNL A   1      34.182  25.324  23.509  1.00  0.00    +0.000 C 
ATOM     80  C57 UNL A   1      33.340  26.280  22.943  1.00  0.00    +0.000 C 
ATOM     81  C58 UNL A   1      32.102  25.908  22.417  1.00  0.00    +0.000 C 
ATOM     89  C65 UNL A   1      31.750  24.552  22.425  1.00  0.00    +0.000 C 
ATOM     90  C66 UNL A   1      32.602  23.586  22.983  1.00  0.00    +0.000 C 
ATOM     91 Br1  UNL A   1      31.994  21.785  22.912  1.00  0.00    +0.000 Br
ATOM    124  H33 UNL A   1      35.086  25.622  23.905  1.00  0.00    +0.000 H 
ATOM    125  H34 UNL A   1      33.633  27.268  22.913  1.00  0.00    +0.000 H 
BRANCH   81   82
ATOM     82  C59 UNL A   1      31.155  26.955  21.881  1.00  0.00    +0.000 C 
ATOM    126  H35 UNL A   1      30.330  26.446  21.427  1.00  0.00    +0.000 H 
ATOM    127  H36 UNL A   1      31.735  27.545  21.204  1.00  0.00    +0.000 H 
BRANCH   82   83
ATOM    129  H38 UNL A   1      31.192  29.594  21.667  1.00  0.00    +0.000 H 
ATOM    130  H39 UNL A   1      30.771  30.070  23.269  1.00  0.00    +0.000 H 
ATOM    131  H40 UNL A   1      28.960  29.341  20.985  1.00  0.00    +0.000 H 
ATOM    132  H41 UNL A   1      28.798  30.669  22.063  1.00  0.00    +0.000 H 
ATOM    133  H42 UNL A   1      27.357  28.400  22.395  1.00  0.00    +0.000 H 
ATOM    134  H43 UNL A   1      27.829  29.293  23.762  1.00  0.00    +0.000 H 
ATOM     83  C60 UNL A   1      30.589  27.943  22.908  1.00  0.00    +0.000 C 
ATOM     84  C61 UNL A   1      30.510  29.410  22.470  1.00  0.00    +0.000 C 
ATOM     85  C62 UNL A   1      29.075  29.637  22.007  1.00  0.00    +0.000 C 
ATOM     86  C63 UNL A   1      28.216  28.769  22.914  1.00  0.00    +0.000 C 
ATOM     87  C64 UNL A   1      29.153  27.648  23.280  1.00  0.00    +0.000 C 
ATOM     88  O3  UNL A   1      28.794  26.619  23.840  1.00  0.00    +0.000 O 
ATOM    128  H37 UNL A   1      31.296  27.814  23.702  1.00  0.00    +0.000 H 
ENDBRANCH   82   83
ENDBRANCH   81   82
ENDBRANCH    2   78
ENDBRANCH    3    2
ENDBRANCH    5    3
ENDBRANCH    6    5
ENDBRANCH    7    6
ENDBRANCH    8    7
ENDBRANCH    9    8
ENDBRANCH   10    9
ENDBRANCH   11   10
ENDBRANCH   12   11
ENDBRANCH   13   12
ENDBRANCH   15   13
ENDBRANCH   19   18
BRANCH   23   24
ATOM     33  C24 UNL A   1      41.887  24.967  27.752  1.00  0.00    +0.000 C 
ATOM     34  F5  UNL A   1      41.045  24.525  28.696  1.00  0.00    +0.000 F 
ATOM     24  C19 UNL A   1      42.339  26.296  27.772  1.00  0.00    +0.000 C 
ATOM     25  C20 UNL A   1      43.224  26.707  26.766  1.00  0.00    +0.000 C 
ATOM     26  F1  UNL A   1      43.676  27.969  26.740  1.00  0.00    +0.000 F 
ATOM     27  C21 UNL A   1      43.637  25.822  25.772  1.00  0.00    +0.000 C 
ATOM     28  F2  UNL A   1      44.468  26.241  24.808  1.00  0.00    +0.000 F 
ATOM     29  C22 UNL A   1      43.193  24.508  25.782  1.00  0.00    +0.000 C 
ATOM     30  F3  UNL A   1      43.607  23.653  24.836  1.00  0.00    +0.000 F 
ATOM     31  C23 UNL A   1      42.320  24.080  26.770  1.00  0.00    +0.000 C 
ATOM     32  F4  UNL A   1      41.899  22.807  26.786  1.00  0.00    +0.000 F 
ENDBRANCH   23   24
BRANCH   40   41
ATOM     41  C30 UNL A   1      44.862  28.046  34.268  1.00  0.00    +0.000 C 
ATOM     42  C31 UNL A   1      44.849  26.902  35.080  1.00  0.00    +0.000 C 
ATOM     43  F6  UNL A   1      43.756  26.126  35.135  1.00  0.00    +0.000 F 
ATOM     44  C32 UNL A   1      45.949  26.573  35.866  1.00  0.00    +0.000 C 
ATOM     45  F7  UNL A   1      45.900  25.498  36.666  1.00  0.00    +0.000 F 
ATOM     46  C33 UNL A   1      47.090  27.361  35.834  1.00  0.00    +0.000 C 
ATOM     47  F8  UNL A   1      48.151  27.037  36.586  1.00  0.00    +0.000 F 
ATOM     48  C34 UNL A   1      47.129  28.488  35.027  1.00  0.00    +0.000 C 
ATOM     49  F9  UNL A   1      48.234  29.245  34.987  1.00  0.00    +0.000 F 
ATOM     50  C35 UNL A   1      46.021  28.836  34.259  1.00  0.00    +0.000 C 
ATOM     51  F10 UNL A   1      46.083  29.936  33.496  1.00  0.00    +0.000 F 
ENDBRANCH   40   41
BRANCH   55   56
ATOM     65  C44 UNL A   1      38.422  31.432  36.291  1.00  0.00    +0.000 C 
ATOM     66  F15 UNL A   1      38.039  30.154  36.161  1.00  0.00    +0.000 F 
ATOM     56  C39 UNL A   1      39.249  32.019  35.322  1.00  0.00    +0.000 C 
ATOM     57  C40 UNL A   1      39.617  33.359  35.502  1.00  0.00    +0.000 C 
ATOM     58  F11 UNL A   1      40.427  33.956  34.614  1.00  0.00    +0.000 F 
ATOM     59  C41 UNL A   1      39.198  34.077  36.621  1.00  0.00    +0.000 C 
ATOM     60  F12 UNL A   1      39.607  35.340  36.795  1.00  0.00    +0.000 F 
ATOM     61  C42 UNL A   1      38.377  33.476  37.564  1.00  0.00    +0.000 C 
ATOM     62  F13 UNL A   1      37.976  34.166  38.641  1.00  0.00    +0.000 F 
ATOM     63  C43 UNL A   1      37.981  32.158  37.394  1.00  0.00    +0.000 C 
ATOM     64  F14 UNL A   1      37.177  31.579  38.297  1.00  0.00    +0.000 F 
ENDBRANCH   55   56
TORSDOF 19
ENDMDL
MODEL 3
REMARK VINA RESULT:     -10.7     39.216     44.051
ROOT
ATOM     19  C15 UNL A   1      13.013  49.676   3.294  1.00  0.00    +0.000 C 
ATOM     20  C16 UNL A   1      13.963  49.326   2.185  1.00  0.00    +0.000 C 
ATOM     21  N3  UNL A   1      14.827  50.093   1.567  1.00  0.00    +0.000 N 
ATOM     22  C17 UNL A   1      15.482  49.270   0.661  1.00  0.00    +0.000 C 
ATOM     23  C18 UNL A   1      16.437  49.603  -0.239  1.00  0.00    +0.000 C 
ATOM     35  C25 UNL A   1      16.941  50.937  -0.436  1.00  0.00    +0.000 C 
ATOM     36  C26 UNL A   1      17.822  51.392  -1.402  1.00  0.00    +0.000 C 
ATOM     37  C27 UNL A   1      18.066  52.748  -1.169  1.00  0.00    +0.000 C 
ATOM     38  C28 UNL A   1      17.308  53.148  -0.081  1.00  0.00    +0.000 C 
ATOM     39  N4  UNL A   1      16.614  52.030   0.353  1.00  0.00    +0.000 N 
ATOM     40  C29 UNL A   1      17.228  54.449   0.528  1.00  0.00    +0.000 C 
ATOM     52  C36 UNL A   1      16.397  54.778   1.546  1.00  0.00    +0.000 C 
ATOM     53  N5  UNL A   1      15.483  53.979   2.218  1.00  0.00    +0.000 N 
ATOM     54  C37 UNL A   1      14.940  54.744   3.131  1.00  0.00    +0.000 C 
ATOM     55  C38 UNL A   1      13.877  54.407   4.141  1.00  0.00    +0.000 C 
ATOM     67  C45 UNL A   1      13.349  53.168   4.155  1.00  0.00    +0.000 C 
ATOM     68  C46 UNL A   1      12.327  52.698   5.083  1.00  0.00    +0.000 C 
ATOM     69  C47 UNL A   1      12.107  51.392   4.868  1.00  0.00    +0.000 C 
ATOM     70  C48 UNL A   1      12.949  50.940   3.758  1.00  0.00    +0.000 C 
ATOM     71  N6  UNL A   1      13.626  52.073   3.374  1.00  0.00    +0.000 N 
ATOM     72  C49 UNL A   1      15.462  56.119   3.150  1.00  0.00    +0.000 C 
ATOM     73  C50 UNL A   1      16.322  56.095   2.143  1.00  0.00    +0.000 C 
ATOM     74  C51 UNL A   1      14.941  47.939   0.829  1.00  0.00    +0.000 C 
ATOM     75  C52 UNL A   1      13.963  47.929   1.726  1.00  0.00    +0.000 C 
ATOM    112  H21 UNL A   1      18.228  50.826  -2.164  1.00  0.00    +0.000 H 
ATOM    113  H22 UNL A   1      18.704  53.350  -1.714  1.00  0.00    +0.000 H 
ATOM    114  H23 UNL A   1      15.983  52.013   1.108  1.00  0.00    +0.000 H 
ATOM    115  H24 UNL A   1      11.849  53.277   5.792  1.00  0.00    +0.000 H 
ATOM    116  H25 UNL A   1      11.451  50.800   5.399  1.00  0.00    +0.000 H 
ATOM    117  H26 UNL A   1      14.248  52.097   2.611  1.00  0.00    +0.000 H 
ATOM    118  H27 UNL A   1      15.222  56.897   3.783  1.00  0.00    +0.000 H 
ATOM    119  H28 UNL A   1      16.867  56.911   1.823  1.00  0.00    +0.000 H 
ATOM    120  H29 UNL A   1      15.273  47.106   0.319  1.00  0.00    +0.000 H 
ATOM    121  H30 UNL A   1      13.360  47.147   2.024  1.00  0.00    +0.000 H 
ENDROOT
BRANCH   19   18
ATOM     76  C53 UNL A   1      12.687  48.017   5.131  1.00  0.00    +0.000 C 
ATOM     77  C54 UNL A   1      11.904  47.093   5.821  1.00  0.00    +0.000 C 
ATOM    110  H19 UNL A   1       9.197  47.123   3.837  1.00  0.00    +0.000 H 
ATOM     15  C11 UNL A   1      10.601  46.827   5.388  1.00  0.00    +0.000 C 
ATOM     16  C12 UNL A   1      10.134  47.373   4.189  1.00  0.00    +0.000 C 
ATOM     17  C13 UNL A   1      10.942  48.256   3.468  1.00  0.00    +0.000 C 
ATOM    111  H20 UNL A   1      10.607  48.642   2.570  1.00  0.00    +0.000 H 
ATOM     18  C14 UNL A   1      12.206  48.621   3.958  1.00  0.00    +0.000 C 
ATOM    122  H31 UNL A   1      13.627  48.259   5.484  1.00  0.00    +0.000 H 
ATOM    123  H32 UNL A   1      12.284  46.608   6.648  1.00  0.00    +0.000 H 
BRANCH   15   13
ATOM     13  C10 UNL A   1       9.692  45.975   6.186  1.00  0.00    +0.000 C 
ATOM     14  O2  UNL A   1       8.681  45.513   5.667  1.00  0.00    +0.000 O 
BRANCH   13   12
ATOM     12  N2  UNL A   1       9.970  45.725   7.507  1.00  0.00    +0.000 N 
ATOM    109  H18 UNL A   1      10.680  45.063   7.670  1.00  0.00    +0.000 H 
BRANCH   12   11
ATOM     11  C9  UNL A   1       9.366  46.297   8.700  1.00  0.00    +0.000 C 
ATOM    108  H17 UNL A   1       8.935  45.496   9.263  1.00  0.00    +0.000 H 
ATOM    107  H16 UNL A   1       8.626  47.011   8.402  1.00  0.00    +0.000 H 
BRANCH   11   10
ATOM    105  H14 UNL A   1      10.423  48.028   9.314  1.00  0.00    +0.000 H 
ATOM     10  C8  UNL A   1      10.388  46.996   9.593  1.00  0.00    +0.000 C 
ATOM    106  H15 UNL A   1      10.060  46.840  10.600  1.00  0.00    +0.000 H 
BRANCH   10    9
ATOM      9  C7  UNL A   1      11.809  46.434   9.513  1.00  0.00    +0.000 C 
ATOM    103  H12 UNL A   1      11.746  45.367   9.562  1.00  0.00    +0.000 H 
ATOM    104  H13 UNL A   1      12.219  46.798   8.593  1.00  0.00    +0.000 H 
BRANCH    9    8
ATOM    101  H10 UNL A   1      12.318  46.661  11.559  1.00  0.00    +0.000 H 
ATOM    102  H11 UNL A   1      13.691  46.403  10.434  1.00  0.00    +0.000 H 
ATOM      8  C6  UNL A   1      12.762  46.903  10.616  1.00  0.00    +0.000 C 
BRANCH    8    7
ATOM     99  H8  UNL A   1      14.147  48.516  10.550  1.00  0.00    +0.000 H 
ATOM    100  H9  UNL A   1      12.563  48.828   9.787  1.00  0.00    +0.000 H 
ATOM      7  C5  UNL A   1      13.086  48.404  10.619  1.00  0.00    +0.000 C 
BRANCH    7    6
ATOM     97  H6  UNL A   1      11.727  49.715  11.615  1.00  0.00    +0.000 H 
ATOM     98  H7  UNL A   1      12.394  48.443  12.630  1.00  0.00    +0.000 H 
ATOM      6  C4  UNL A   1      12.606  49.157  11.862  1.00  0.00    +0.000 C 
BRANCH    6    5
ATOM      5  N1  UNL A   1      13.624  50.065  12.345  1.00  0.00    +0.000 N 
ATOM     96  H5  UNL A   1      14.471  49.635  12.600  1.00  0.00    +0.000 H 
BRANCH    5    3
ATOM      3  C3  UNL A   1      13.601  51.420  12.505  1.00  0.00    +0.000 C 
ATOM      4  O1  UNL A   1      12.677  51.870  13.187  1.00  0.00    +0.000 O 
BRANCH    3    2
ATOM      2  C2  UNL A   1      14.664  52.305  11.824  1.00  0.00    +0.000 C 
ATOM     95  H4  UNL A   1      15.551  52.179  12.409  1.00  0.00    +0.000 H 
BRANCH    2    1
ATOM      1  C1  UNL A   1      14.295  53.793  11.833  1.00  0.00    +0.000 C 
ATOM     92  H1  UNL A   1      13.457  53.949  12.480  1.00  0.00    +0.000 H 
ATOM     93  H2  UNL A   1      14.040  54.103  10.841  1.00  0.00    +0.000 H 
ATOM     94  H3  UNL A   1      15.128  54.366  12.182  1.00  0.00    +0.000 H 
ENDBRANCH    2    1
BRANCH    2   78
ATOM    135  H44 UNL A   1      17.040  50.114   8.411  1.00  0.00    +0.000 H 
ATOM     78  C55 UNL A   1      14.944  51.863  10.385  1.00  0.00    +0.000 C 
ATOM     79  C56 UNL A   1      14.043  52.252   9.373  1.00  0.00    +0.000 C 
ATOM     80  C57 UNL A   1      14.221  51.866   8.045  1.00  0.00    +0.000 C 
ATOM     81  C58 UNL A   1      15.299  51.058   7.683  1.00  0.00    +0.000 C 
ATOM     89  C65 UNL A   1      16.222  50.688   8.670  1.00  0.00    +0.000 C 
ATOM     90  C66 UNL A   1      16.051  51.085  10.006  1.00  0.00    +0.000 C 
ATOM     91 Br1  UNL A   1      17.389  50.516  11.231  1.00  0.00    +0.000 Br
ATOM    124  H33 UNL A   1      13.231  52.837   9.622  1.00  0.00    +0.000 H 
ATOM    125  H34 UNL A   1      13.551  52.180   7.326  1.00  0.00    +0.000 H 
BRANCH   81   82
ATOM     82  C59 UNL A   1      15.445  50.572   6.261  1.00  0.00    +0.000 C 
ATOM    126  H35 UNL A   1      15.521  51.432   5.629  1.00  0.00    +0.000 H 
ATOM    127  H36 UNL A   1      14.583  49.966   6.077  1.00  0.00    +0.000 H 
BRANCH   82   83
ATOM    129  H38 UNL A   1      15.545  47.955   6.655  1.00  0.00    +0.000 H 
ATOM    130  H39 UNL A   1      17.236  47.655   6.507  1.00  0.00    +0.000 H 
ATOM    131  H40 UNL A   1      15.160  47.824   4.342  1.00  0.00    +0.000 H 
ATOM    132  H41 UNL A   1      16.401  46.648   4.509  1.00  0.00    +0.000 H 
ATOM    133  H42 UNL A   1      16.658  48.737   2.805  1.00  0.00    +0.000 H 
ATOM    134  H43 UNL A   1      18.042  48.109   3.567  1.00  0.00    +0.000 H 
ATOM     83  C60 UNL A   1      16.652  49.670   5.975  1.00  0.00    +0.000 C 
ATOM     84  C61 UNL A   1      16.408  48.160   6.056  1.00  0.00    +0.000 C 
ATOM     85  C62 UNL A   1      16.182  47.689   4.624  1.00  0.00    +0.000 C 
ATOM     86  C63 UNL A   1      17.091  48.556   3.766  1.00  0.00    +0.000 C 
ATOM     87  C64 UNL A   1      17.184  49.828   4.569  1.00  0.00    +0.000 C 
ATOM     88  O3  UNL A   1      17.662  50.870   4.135  1.00  0.00    +0.000 O 
ATOM    128  H37 UNL A   1      17.317  49.998   6.748  1.00  0.00    +0.000 H 
ENDBRANCH   82   83
ENDBRANCH   81   82
ENDBRANCH    2   78
ENDBRANCH    3    2
ENDBRANCH    5    3
ENDBRANCH    6    5
ENDBRANCH    7    6
ENDBRANCH    8    7
ENDBRANCH    9    8
ENDBRANCH   10    9
ENDBRANCH   11   10
ENDBRANCH   12   11
ENDBRANCH   13   12
ENDBRANCH   15   13
ENDBRANCH   19   18
BRANCH   23   24
ATOM     33  C24 UNL A   1      16.351  48.134  -2.280  1.00  0.00    +0.000 C 
ATOM     34  F5  UNL A   1      15.256  48.791  -2.689  1.00  0.00    +0.000 F 
ATOM     24  C19 UNL A   1      17.006  48.516  -1.099  1.00  0.00    +0.000 C 
ATOM     25  C20 UNL A   1      18.143  47.793  -0.713  1.00  0.00    +0.000 C 
ATOM     26  F1  UNL A   1      18.806  48.126   0.405  1.00  0.00    +0.000 F 
ATOM     27  C21 UNL A   1      18.611  46.731  -1.483  1.00  0.00    +0.000 C 
ATOM     28  F2  UNL A   1      19.711  46.066  -1.106  1.00  0.00    +0.000 F 
ATOM     29  C22 UNL A   1      17.938  46.359  -2.637  1.00  0.00    +0.000 C 
ATOM     30  F3  UNL A   1      18.378  45.324  -3.366  1.00  0.00    +0.000 F 
ATOM     31  C23 UNL A   1      16.808  47.058  -3.036  1.00  0.00    +0.000 C 
ATOM     32  F4  UNL A   1      16.151  46.691  -4.145  1.00  0.00    +0.000 F 
ENDBRANCH   23   24
BRANCH   40   41
ATOM     41  C30 UNL A   1      18.120  55.530  -0.006  1.00  0.00    +0.000 C 
ATOM     42  C31 UNL A   1      19.313  55.876   0.645  1.00  0.00    +0.000 C 
ATOM     43  F6  UNL A   1      19.650  55.279   1.798  1.00  0.00    +0.000 F 
ATOM     44  C32 UNL A   1      20.146  56.864   0.130  1.00  0.00    +0.000 C 
ATOM     45  F7  UNL A   1      21.261  57.208   0.790  1.00  0.00    +0.000 F 
ATOM     46  C33 UNL A   1      19.818  57.503  -1.056  1.00  0.00    +0.000 C 
ATOM     47  F8  UNL A   1      20.626  58.449  -1.555  1.00  0.00    +0.000 F 
ATOM     48  C34 UNL A   1      18.650  57.165  -1.724  1.00  0.00    +0.000 C 
ATOM     49  F9  UNL A   1      18.337  57.775  -2.876  1.00  0.00    +0.000 F 
ATOM     50  C35 UNL A   1      17.801  56.196  -1.198  1.00  0.00    +0.000 C 
ATOM     51  F10 UNL A   1      16.673  55.897  -1.859  1.00  0.00    +0.000 F 
ENDBRANCH   40   41
BRANCH   55   56
ATOM     65  C44 UNL A   1      12.378  56.315   4.813  1.00  0.00    +0.000 C 
ATOM     66  F15 UNL A   1      11.796  56.276   3.606  1.00  0.00    +0.000 F 
ATOM     56  C39 UNL A   1      13.417  55.425   5.121  1.00  0.00    +0.000 C 
ATOM     57  C40 UNL A   1      13.994  55.511   6.395  1.00  0.00    +0.000 C 
ATOM     58  F11 UNL A   1      14.975  54.664   6.743  1.00  0.00    +0.000 F 
ATOM     59  C41 UNL A   1      13.533  56.432   7.333  1.00  0.00    +0.000 C 
ATOM     60  F12 UNL A   1      14.067  56.458   8.562  1.00  0.00    +0.000 F 
ATOM     61  C42 UNL A   1      12.507  57.305   7.004  1.00  0.00    +0.000 C 
ATOM     62  F13 UNL A   1      12.062  58.189   7.908  1.00  0.00    +0.000 F 
ATOM     63  C43 UNL A   1      11.936  57.254   5.742  1.00  0.00    +0.000 C 
ATOM     64  F14 UNL A   1      10.953  58.104   5.416  1.00  0.00    +0.000 F 
ENDBRANCH   55   56
TORSDOF 19
ENDMDL
MODEL 4
REMARK VINA RESULT:     -10.6      3.469      8.546
ROOT
ATOM     19  C15 UNL A   1      41.238  26.369  27.531  1.00  0.00    +0.000 C 
ATOM     20  C16 UNL A   1      42.655  26.589  27.082  1.00  0.00    +0.000 C 
ATOM     21  N3  UNL A   1      43.452  27.596  27.335  1.00  0.00    +0.000 N 
ATOM     22  C17 UNL A   1      44.659  27.285  26.722  1.00  0.00    +0.000 C 
ATOM     23  C18 UNL A   1      45.789  28.029  26.664  1.00  0.00    +0.000 C 
ATOM     35  C25 UNL A   1      45.928  29.344  27.234  1.00  0.00    +0.000 C 
ATOM     36  C26 UNL A   1      46.993  30.221  27.124  1.00  0.00    +0.000 C 
ATOM     37  C27 UNL A   1      46.706  31.356  27.888  1.00  0.00    +0.000 C 
ATOM     38  C28 UNL A   1      45.446  31.202  28.443  1.00  0.00    +0.000 C 
ATOM     39  N4  UNL A   1      44.976  29.968  28.024  1.00  0.00    +0.000 N 
ATOM     40  C29 UNL A   1      44.726  32.106  29.301  1.00  0.00    +0.000 C 
ATOM     52  C36 UNL A   1      43.458  31.914  29.738  1.00  0.00    +0.000 C 
ATOM     53  N5  UNL A   1      42.602  30.851  29.489  1.00  0.00    +0.000 N 
ATOM     54  C37 UNL A   1      41.501  31.114  30.147  1.00  0.00    +0.000 C 
ATOM     55  C38 UNL A   1      40.231  30.312  30.230  1.00  0.00    +0.000 C 
ATOM     67  C45 UNL A   1      40.131  29.160  29.540  1.00  0.00    +0.000 C 
ATOM     68  C46 UNL A   1      38.971  28.276  29.537  1.00  0.00    +0.000 C 
ATOM     69  C47 UNL A   1      39.256  27.181  28.816  1.00  0.00    +0.000 C 
ATOM     70  C48 UNL A   1      40.611  27.303  28.274  1.00  0.00    +0.000 C 
ATOM     71  N6  UNL A   1      41.039  28.528  28.725  1.00  0.00    +0.000 N 
ATOM     72  C49 UNL A   1      41.542  32.373  30.906  1.00  0.00    +0.000 C 
ATOM     73  C50 UNL A   1      42.744  32.837  30.594  1.00  0.00    +0.000 C 
ATOM     74  C51 UNL A   1      44.502  25.982  26.113  1.00  0.00    +0.000 C 
ATOM     75  C52 UNL A   1      43.264  25.529  26.264  1.00  0.00    +0.000 C 
ATOM    112  H21 UNL A   1      47.852  30.065  26.572  1.00  0.00    +0.000 H 
ATOM    113  H22 UNL A   1      47.327  32.170  28.019  1.00  0.00    +0.000 H 
ATOM    114  H23 UNL A   1      44.096  29.590  28.254  1.00  0.00    +0.000 H 
ATOM    115  H24 UNL A   1      38.074  28.463  30.013  1.00  0.00    +0.000 H 
ATOM    116  H25 UNL A   1      38.623  26.380  28.669  1.00  0.00    +0.000 H 
ATOM    117  H26 UNL A   1      41.913  28.915  28.488  1.00  0.00    +0.000 H 
ATOM    118  H27 UNL A   1      40.824  32.787  31.520  1.00  0.00    +0.000 H 
ATOM    119  H28 UNL A   1      43.121  33.741  30.918  1.00  0.00    +0.000 H 
ATOM    120  H29 UNL A   1      45.254  25.472  25.625  1.00  0.00    +0.000 H 
ATOM    121  H30 UNL A   1      42.839  24.661  25.902  1.00  0.00    +0.000 H 
ENDROOT
BRANCH   19   18
ATOM     76  C53 UNL A   1      39.387  25.083  26.459  1.00  0.00    +0.000 C 
ATOM     77  C54 UNL A   1      38.777  23.881  26.104  1.00  0.00    +0.000 C 
ATOM    110  H19 UNL A   1      40.887  21.760  27.626  1.00  0.00    +0.000 H 
ATOM     15  C11 UNL A   1      39.370  22.668  26.467  1.00  0.00    +0.000 C 
ATOM     16  C12 UNL A   1      40.490  22.657  27.305  1.00  0.00    +0.000 C 
ATOM     17  C13 UNL A   1      41.067  23.864  27.707  1.00  0.00    +0.000 C 
ATOM    111  H20 UNL A   1      41.880  23.857  28.344  1.00  0.00    +0.000 H 
ATOM     18  C14 UNL A   1      40.547  25.085  27.249  1.00  0.00    +0.000 C 
ATOM    122  H31 UNL A   1      38.981  25.978  26.141  1.00  0.00    +0.000 H 
ATOM    123  H32 UNL A   1      37.891  23.886  25.575  1.00  0.00    +0.000 H 
BRANCH   15   13
ATOM     13  C10 UNL A   1      38.837  21.380  25.972  1.00  0.00    +0.000 C 
ATOM     14  O2  UNL A   1      39.577  20.403  25.900  1.00  0.00    +0.000 O 
BRANCH   13   12
ATOM     12  N2  UNL A   1      37.526  21.288  25.574  1.00  0.00    +0.000 N 
ATOM    109  H18 UNL A   1      36.866  21.241  26.303  1.00  0.00    +0.000 H 
BRANCH   12   11
ATOM     11  C9  UNL A   1      36.972  21.251  24.231  1.00  0.00    +0.000 C 
ATOM    108  H17 UNL A   1      36.059  20.695  24.270  1.00  0.00    +0.000 H 
ATOM    107  H16 UNL A   1      37.684  20.790  23.578  1.00  0.00    +0.000 H 
BRANCH   11   10
ATOM    105  H14 UNL A   1      37.132  23.362  24.320  1.00  0.00    +0.000 H 
ATOM     10  C8  UNL A   1      36.647  22.643  23.694  1.00  0.00    +0.000 C 
ATOM    106  H15 UNL A   1      36.991  22.661  22.681  1.00  0.00    +0.000 H 
BRANCH   10    9
ATOM      9  C7  UNL A   1      35.155  22.984  23.646  1.00  0.00    +0.000 C 
ATOM    103  H12 UNL A   1      34.751  22.573  22.744  1.00  0.00    +0.000 H 
ATOM    104  H13 UNL A   1      34.729  22.569  24.535  1.00  0.00    +0.000 H 
BRANCH    9    8
ATOM    101  H10 UNL A   1      34.442  24.712  24.646  1.00  0.00    +0.000 H 
ATOM    102  H11 UNL A   1      35.736  24.986  23.435  1.00  0.00    +0.000 H 
ATOM      8  C6  UNL A   1      34.825  24.479  23.675  1.00  0.00    +0.000 C 
BRANCH    8    7
ATOM     99  H8  UNL A   1      34.166  24.703  21.664  1.00  0.00    +0.000 H 
ATOM    100  H9  UNL A   1      32.877  24.457  22.875  1.00  0.00    +0.000 H 
ATOM      7  C5  UNL A   1      33.796  24.951  22.637  1.00  0.00    +0.000 C 
BRANCH    7    6
ATOM     97  H6  UNL A   1      34.130  26.946  21.954  1.00  0.00    +0.000 H 
ATOM     98  H7  UNL A   1      32.471  26.602  22.425  1.00  0.00    +0.000 H 
ATOM      6  C4  UNL A   1      33.502  26.452  22.667  1.00  0.00    +0.000 C 
BRANCH    6    5
ATOM      5  N1  UNL A   1      33.751  27.005  23.980  1.00  0.00    +0.000 N 
ATOM     96  H5  UNL A   1      34.584  26.698  24.405  1.00  0.00    +0.000 H 
BRANCH    5    3
ATOM      3  C3  UNL A   1      33.021  27.882  24.728  1.00  0.00    +0.000 C 
ATOM      4  O1  UNL A   1      33.267  29.078  24.553  1.00  0.00    +0.000 O 
BRANCH    3    2
ATOM      2  C2  UNL A   1      31.987  27.367  25.749  1.00  0.00    +0.000 C 
ATOM     95  H4  UNL A   1      31.062  27.821  25.465  1.00  0.00    +0.000 H 
BRANCH    2    1
ATOM      1  C1  UNL A   1      32.307  27.794  27.187  1.00  0.00    +0.000 C 
ATOM     92  H1  UNL A   1      32.115  28.841  27.299  1.00  0.00    +0.000 H 
ATOM     93  H2  UNL A   1      33.337  27.596  27.397  1.00  0.00    +0.000 H 
ATOM     94  H3  UNL A   1      31.692  27.242  27.868  1.00  0.00    +0.000 H 
ENDBRANCH    2    1
BRANCH    2   78
ATOM    135  H44 UNL A   1      30.188  23.299  24.228  1.00  0.00    +0.000 H 
ATOM     78  C55 UNL A   1      31.837  25.844  25.696  1.00  0.00    +0.000 C 
ATOM     79  C56 UNL A   1      32.663  25.056  26.524  1.00  0.00    +0.000 C 
ATOM     80  C57 UNL A   1      32.598  23.664  26.511  1.00  0.00    +0.000 C 
ATOM     81  C58 UNL A   1      31.716  23.005  25.653  1.00  0.00    +0.000 C 
ATOM     89  C65 UNL A   1      30.866  23.773  24.847  1.00  0.00    +0.000 C 
ATOM     90  C66 UNL A   1      30.922  25.176  24.867  1.00  0.00    +0.000 C 
ATOM     91 Br1  UNL A   1      29.700  26.083  23.725  1.00  0.00    +0.000 Br
ATOM    124  H33 UNL A   1      33.332  25.522  27.155  1.00  0.00    +0.000 H 
ATOM    125  H34 UNL A   1      33.205  23.116  27.140  1.00  0.00    +0.000 H 
BRANCH   81   82
ATOM     82  C59 UNL A   1      31.705  21.497  25.580  1.00  0.00    +0.000 C 
ATOM    126  H35 UNL A   1      30.749  21.195  25.208  1.00  0.00    +0.000 H 
ATOM    127  H36 UNL A   1      31.917  21.161  26.573  1.00  0.00    +0.000 H 
BRANCH   82   83
ATOM    129  H38 UNL A   1      33.121  19.340  26.179  1.00  0.00    +0.000 H 
ATOM    130  H39 UNL A   1      34.355  19.400  24.976  1.00  0.00    +0.000 H 
ATOM    131  H40 UNL A   1      31.594  18.231  24.782  1.00  0.00    +0.000 H 
ATOM    132  H41 UNL A   1      33.065  17.531  24.237  1.00  0.00    +0.000 H 
ATOM    133  H42 UNL A   1      31.384  18.787  22.526  1.00  0.00    +0.000 H 
ATOM    134  H43 UNL A   1      33.058  18.840  22.236  1.00  0.00    +0.000 H 
ATOM     83  C60 UNL A   1      32.778  20.857  24.691  1.00  0.00    +0.000 C 
ATOM     84  C61 UNL A   1      33.300  19.486  25.134  1.00  0.00    +0.000 C 
ATOM     85  C62 UNL A   1      32.531  18.454  24.317  1.00  0.00    +0.000 C 
ATOM     86  C63 UNL A   1      32.311  19.100  22.956  1.00  0.00    +0.000 C 
ATOM     87  C64 UNL A   1      32.287  20.569  23.290  1.00  0.00    +0.000 C 
ATOM     88  O3  UNL A   1      31.930  21.438  22.502  1.00  0.00    +0.000 O 
ATOM    128  H37 UNL A   1      33.544  21.602  24.755  1.00  0.00    +0.000 H 
ENDBRANCH   82   83
ENDBRANCH   81   82
ENDBRANCH    2   78
ENDBRANCH    3    2
ENDBRANCH    5    3
ENDBRANCH    6    5
ENDBRANCH    7    6
ENDBRANCH    8    7
ENDBRANCH    9    8
ENDBRANCH   10    9
ENDBRANCH   11   10
ENDBRANCH   12   11
ENDBRANCH   13   12
ENDBRANCH   15   13
ENDBRANCH   19   18
BRANCH   23   24
ATOM     33  C24 UNL A   1      47.957  26.752  26.668  1.00  0.00    +0.000 C 
ATOM     34  F5  UNL A   1      47.802  26.521  27.980  1.00  0.00    +0.000 F 
ATOM     24  C19 UNL A   1      46.976  27.455  25.952  1.00  0.00    +0.000 C 
ATOM     25  C20 UNL A   1      47.189  27.676  24.585  1.00  0.00    +0.000 C 
ATOM     26  F1  UNL A   1      46.276  28.336  23.858  1.00  0.00    +0.000 F 
ATOM     27  C21 UNL A   1      48.339  27.206  23.955  1.00  0.00    +0.000 C 
ATOM     28  F2  UNL A   1      48.513  27.410  22.642  1.00  0.00    +0.000 F 
ATOM     29  C22 UNL A   1      49.305  26.529  24.685  1.00  0.00    +0.000 C 
ATOM     30  F3  UNL A   1      50.420  26.095  24.082  1.00  0.00    +0.000 F 
ATOM     31  C23 UNL A   1      49.116  26.303  26.041  1.00  0.00    +0.000 C 
ATOM     32  F4  UNL A   1      50.055  25.659  26.749  1.00  0.00    +0.000 F 
ENDBRANCH   23   24
BRANCH   40   41
ATOM     41  C30 UNL A   1      45.420  33.361  29.738  1.00  0.00    +0.000 C 
ATOM     42  C31 UNL A   1      45.301  34.550  29.004  1.00  0.00    +0.000 C 
ATOM     43  F6  UNL A   1      44.605  34.569  27.857  1.00  0.00    +0.000 F 
ATOM     44  C32 UNL A   1      45.929  35.717  29.430  1.00  0.00    +0.000 C 
ATOM     45  F7  UNL A   1      45.837  36.832  28.692  1.00  0.00    +0.000 F 
ATOM     46  C33 UNL A   1      46.661  35.724  30.608  1.00  0.00    +0.000 C 
ATOM     47  F8  UNL A   1      47.259  36.851  31.020  1.00  0.00    +0.000 F 
ATOM     48  C34 UNL A   1      46.779  34.561  31.356  1.00  0.00    +0.000 C 
ATOM     49  F9  UNL A   1      47.477  34.569  32.500  1.00  0.00    +0.000 F 
ATOM     50  C35 UNL A   1      46.174  33.386  30.920  1.00  0.00    +0.000 C 
ATOM     51  F10 UNL A   1      46.313  32.275  31.658  1.00  0.00    +0.000 F 
ENDBRANCH   40   41
BRANCH   55   56
ATOM     65  C44 UNL A   1      39.035  30.479  32.439  1.00  0.00    +0.000 C 
ATOM     66  F15 UNL A   1      39.995  29.736  33.009  1.00  0.00    +0.000 F 
ATOM     56  C39 UNL A   1      39.098  30.778  31.070  1.00  0.00    +0.000 C 
ATOM     57  C40 UNL A   1      38.067  31.554  30.524  1.00  0.00    +0.000 C 
ATOM     58  F11 UNL A   1      38.097  31.887  29.224  1.00  0.00    +0.000 F 
ATOM     59  C41 UNL A   1      37.028  32.034  31.319  1.00  0.00    +0.000 C 
ATOM     60  F12 UNL A   1      36.083  32.817  30.781  1.00  0.00    +0.000 F 
ATOM     61  C42 UNL A   1      36.985  31.721  32.669  1.00  0.00    +0.000 C 
ATOM     62  F13 UNL A   1      35.987  32.186  33.434  1.00  0.00    +0.000 F 
ATOM     63  C43 UNL A   1      37.982  30.936  33.228  1.00  0.00    +0.000 C 
ATOM     64  F14 UNL A   1      37.936  30.621  34.529  1.00  0.00    +0.000 F 
ENDBRANCH   55   56
TORSDOF 19
ENDMDL
MODEL 5
REMARK VINA RESULT:     -10.6      3.389      8.555
ROOT
ATOM     19  C15 UNL A   1      41.152  26.715  27.675  1.00  0.00    +0.000 C 
ATOM     20  C16 UNL A   1      42.595  26.945  27.329  1.00  0.00    +0.000 C 
ATOM     21  N3  UNL A   1      43.349  27.984  27.588  1.00  0.00    +0.000 N 
ATOM     22  C17 UNL A   1      44.608  27.670  27.092  1.00  0.00    +0.000 C 
ATOM     23  C18 UNL A   1      45.723  28.438  27.082  1.00  0.00    +0.000 C 
ATOM     35  C25 UNL A   1      45.789  29.785  27.587  1.00  0.00    +0.000 C 
ATOM     36  C26 UNL A   1      46.841  30.681  27.514  1.00  0.00    +0.000 C 
ATOM     37  C27 UNL A   1      46.470  31.848  28.189  1.00  0.00    +0.000 C 
ATOM     38  C28 UNL A   1      45.173  31.692  28.649  1.00  0.00    +0.000 C 
ATOM     39  N4  UNL A   1      44.764  30.427  28.263  1.00  0.00    +0.000 N 
ATOM     40  C29 UNL A   1      44.368  32.623  29.395  1.00  0.00    +0.000 C 
ATOM     52  C36 UNL A   1      43.073  32.423  29.740  1.00  0.00    +0.000 C 
ATOM     53  N5  UNL A   1      42.262  31.328  29.483  1.00  0.00    +0.000 N 
ATOM     54  C37 UNL A   1      41.106  31.599  30.036  1.00  0.00    +0.000 C 
ATOM     55  C38 UNL A   1      39.850  30.771  30.062  1.00  0.00    +0.000 C 
ATOM     67  C45 UNL A   1      39.830  29.582  29.431  1.00  0.00    +0.000 C 
ATOM     68  C46 UNL A   1      38.692  28.671  29.386  1.00  0.00    +0.000 C 
ATOM     69  C47 UNL A   1      39.057  27.546  28.751  1.00  0.00    +0.000 C 
ATOM     70  C48 UNL A   1      40.448  27.672  28.313  1.00  0.00    +0.000 C 
ATOM     71  N6  UNL A   1      40.813  28.929  28.728  1.00  0.00    +0.000 N 
ATOM     72  C49 UNL A   1      41.060  32.897  30.725  1.00  0.00    +0.000 C 
ATOM     73  C50 UNL A   1      42.273  33.373  30.484  1.00  0.00    +0.000 C 
ATOM     74  C51 UNL A   1      44.527  26.333  26.544  1.00  0.00    +0.000 C 
ATOM     75  C52 UNL A   1      43.290  25.859  26.621  1.00  0.00    +0.000 C 
ATOM    112  H21 UNL A   1      47.745  30.517  27.041  1.00  0.00    +0.000 H 
ATOM    113  H22 UNL A   1      47.062  32.683  28.323  1.00  0.00    +0.000 H 
ATOM    114  H23 UNL A   1      43.876  30.040  28.443  1.00  0.00    +0.000 H 
ATOM    115  H24 UNL A   1      37.756  28.861  29.777  1.00  0.00    +0.000 H 
ATOM    116  H25 UNL A   1      38.454  26.723  28.599  1.00  0.00    +0.000 H 
ATOM    117  H26 UNL A   1      41.695  29.325  28.539  1.00  0.00    +0.000 H 
ATOM    118  H27 UNL A   1      40.287  33.326  31.256  1.00  0.00    +0.000 H 
ATOM    119  H28 UNL A   1      42.605  34.302  30.787  1.00  0.00    +0.000 H 
ATOM    120  H29 UNL A   1      45.326  25.816  26.147  1.00  0.00    +0.000 H 
ATOM    121  H30 UNL A   1      42.913  24.962  26.276  1.00  0.00    +0.000 H 
ENDROOT
BRANCH   19   18
ATOM     76  C53 UNL A   1      39.345  25.344  26.633  1.00  0.00    +0.000 C 
ATOM     77  C54 UNL A   1      38.782  24.114  26.294  1.00  0.00    +0.000 C 
ATOM    110  H19 UNL A   1      40.993  22.097  27.811  1.00  0.00    +0.000 H 
ATOM     15  C11 UNL A   1      39.429  22.931  26.661  1.00  0.00    +0.000 C 
ATOM     16  C12 UNL A   1      40.556  22.973  27.488  1.00  0.00    +0.000 C 
ATOM     17  C13 UNL A   1      41.087  24.206  27.873  1.00  0.00    +0.000 C 
ATOM    111  H20 UNL A   1      41.905  24.239  28.502  1.00  0.00    +0.000 H 
ATOM     18  C14 UNL A   1      40.512  25.401  27.410  1.00  0.00    +0.000 C 
ATOM    122  H31 UNL A   1      38.900  26.218  26.311  1.00  0.00    +0.000 H 
ATOM    123  H32 UNL A   1      37.892  24.078  25.774  1.00  0.00    +0.000 H 
BRANCH   15   13
ATOM     13  C10 UNL A   1      38.945  21.618  26.182  1.00  0.00    +0.000 C 
ATOM     14  O2  UNL A   1      39.716  20.663  26.143  1.00  0.00    +0.000 O 
BRANCH   13   12
ATOM     12  N2  UNL A   1      37.645  21.477  25.762  1.00  0.00    +0.000 N 
ATOM    109  H18 UNL A   1      36.974  21.421  26.480  1.00  0.00    +0.000 H 
BRANCH   12   11
ATOM     11  C9  UNL A   1      37.118  21.400  24.410  1.00  0.00    +0.000 C 
ATOM    108  H17 UNL A   1      36.248  20.777  24.435  1.00  0.00    +0.000 H 
ATOM    107  H16 UNL A   1      37.873  20.993  23.769  1.00  0.00    +0.000 H 
BRANCH   11   10
ATOM    105  H14 UNL A   1      37.203  23.517  24.435  1.00  0.00    +0.000 H 
ATOM     10  C8  UNL A   1      36.698  22.764  23.867  1.00  0.00    +0.000 C 
ATOM    106  H15 UNL A   1      36.962  22.767  22.830  1.00  0.00    +0.000 H 
BRANCH   10    9
ATOM      9  C7  UNL A   1      35.196  23.050  23.929  1.00  0.00    +0.000 C 
ATOM    103  H12 UNL A   1      34.744  22.632  23.054  1.00  0.00    +0.000 H 
ATOM    104  H13 UNL A   1      34.850  22.612  24.842  1.00  0.00    +0.000 H 
BRANCH    9    8
ATOM    101  H10 UNL A   1      34.359  24.710  24.951  1.00  0.00    +0.000 H 
ATOM    102  H11 UNL A   1      35.722  25.076  23.843  1.00  0.00    +0.000 H 
ATOM      8  C6  UNL A   1      34.814  24.532  23.998  1.00  0.00    +0.000 C 
BRANCH    8    7
ATOM     99  H8  UNL A   1      34.258  24.772  21.959  1.00  0.00    +0.000 H 
ATOM    100  H9  UNL A   1      32.908  24.527  23.102  1.00  0.00    +0.000 H 
ATOM      7  C5  UNL A   1      33.841  25.017  22.913  1.00  0.00    +0.000 C 
BRANCH    7    6
ATOM     97  H6  UNL A   1      34.231  27.016  22.273  1.00  0.00    +0.000 H 
ATOM     98  H7  UNL A   1      32.543  26.678  22.633  1.00  0.00    +0.000 H 
ATOM      6  C4  UNL A   1      33.556  26.520  22.939  1.00  0.00    +0.000 C 
BRANCH    6    5
ATOM      5  N1  UNL A   1      33.724  27.058  24.271  1.00  0.00    +0.000 N 
ATOM     96  H5  UNL A   1      34.531  26.749  24.741  1.00  0.00    +0.000 H 
BRANCH    5    3
ATOM      3  C3  UNL A   1      32.947  27.924  24.983  1.00  0.00    +0.000 C 
ATOM      4  O1  UNL A   1      33.238  29.119  24.887  1.00  0.00    +0.000 O 
BRANCH    3    2
ATOM      2  C2  UNL A   1      31.806  27.398  25.877  1.00  0.00    +0.000 C 
ATOM     95  H4  UNL A   1      30.918  27.859  25.499  1.00  0.00    +0.000 H 
BRANCH    2    1
ATOM      1  C1  UNL A   1      31.965  27.802  27.347  1.00  0.00    +0.000 C 
ATOM     92  H1  UNL A   1      31.149  28.432  27.634  1.00  0.00    +0.000 H 
ATOM     93  H2  UNL A   1      32.886  28.333  27.473  1.00  0.00    +0.000 H 
ATOM     94  H3  UNL A   1      31.973  26.925  27.960  1.00  0.00    +0.000 H 
ENDBRANCH    2    1
BRANCH    2   78
ATOM    135  H44 UNL A   1      30.128  23.361  24.150  1.00  0.00    +0.000 H 
ATOM     78  C55 UNL A   1      31.660  25.876  25.785  1.00  0.00    +0.000 C 
ATOM     79  C56 UNL A   1      32.421  25.072  26.658  1.00  0.00    +0.000 C 
ATOM     80  C57 UNL A   1      32.357  23.680  26.616  1.00  0.00    +0.000 C 
ATOM     81  C58 UNL A   1      31.543  23.039  25.681  1.00  0.00    +0.000 C 
ATOM     89  C65 UNL A   1      30.756  23.822  24.826  1.00  0.00    +0.000 C 
ATOM     90  C66 UNL A   1      30.811  25.224  24.876  1.00  0.00    +0.000 C 
ATOM     91 Br1  UNL A   1      29.680  26.154  23.662  1.00  0.00    +0.000 Br
ATOM    124  H33 UNL A   1      33.040  25.526  27.347  1.00  0.00    +0.000 H 
ATOM    125  H34 UNL A   1      32.914  23.121  27.279  1.00  0.00    +0.000 H 
BRANCH   81   82
ATOM     82  C59 UNL A   1      31.538  21.533  25.580  1.00  0.00    +0.000 C 
ATOM    126  H35 UNL A   1      30.631  21.241  25.092  1.00  0.00    +0.000 H 
ATOM    127  H36 UNL A   1      31.631  21.178  26.585  1.00  0.00    +0.000 H 
BRANCH   82   83
ATOM    129  H38 UNL A   1      33.095  19.581  26.464  1.00  0.00    +0.000 H 
ATOM    130  H39 UNL A   1      34.382  19.629  25.318  1.00  0.00    +0.000 H 
ATOM    131  H40 UNL A   1      31.743  18.206  25.125  1.00  0.00    +0.000 H 
ATOM    132  H41 UNL A   1      33.295  17.587  24.723  1.00  0.00    +0.000 H 
ATOM    133  H42 UNL A   1      31.608  18.510  22.816  1.00  0.00    +0.000 H 
ATOM    134  H43 UNL A   1      33.285  18.682  22.597  1.00  0.00    +0.000 H 
ATOM     83  C60 UNL A   1      32.707  20.903  24.811  1.00  0.00    +0.000 C 
ATOM     84  C61 UNL A   1      33.317  19.636  25.419  1.00  0.00    +0.000 C 
ATOM     85  C62 UNL A   1      32.682  18.463  24.681  1.00  0.00    +0.000 C 
ATOM     86  C63 UNL A   1      32.482  18.946  23.252  1.00  0.00    +0.000 C 
ATOM     87  C64 UNL A   1      32.317  20.433  23.428  1.00  0.00    +0.000 C 
ATOM     88  O3  UNL A   1      31.931  21.183  22.539  1.00  0.00    +0.000 O 
ATOM    128  H37 UNL A   1      33.403  21.717  24.831  1.00  0.00    +0.000 H 
ENDBRANCH   82   83
ENDBRANCH   81   82
ENDBRANCH    2   78
ENDBRANCH    3    2
ENDBRANCH    5    3
ENDBRANCH    6    5
ENDBRANCH    7    6
ENDBRANCH    8    7
ENDBRANCH    9    8
ENDBRANCH   10    9
ENDBRANCH   11   10
ENDBRANCH   12   11
ENDBRANCH   13   12
ENDBRANCH   15   13
ENDBRANCH   19   18
BRANCH   23   24
ATOM     33  C24 UNL A   1      47.201  27.908  25.116  1.00  0.00    +0.000 C 
ATOM     34  F5  UNL A   1      46.337  28.547  24.313  1.00  0.00    +0.000 F 
ATOM     24  C19 UNL A   1      46.975  27.856  26.500  1.00  0.00    +0.000 C 
ATOM     25  C20 UNL A   1      47.905  27.170  27.295  1.00  0.00    +0.000 C 
ATOM     26  F1  UNL A   1      47.734  27.100  28.623  1.00  0.00    +0.000 F 
ATOM     27  C21 UNL A   1      49.022  26.564  26.725  1.00  0.00    +0.000 C 
ATOM     28  F2  UNL A   1      49.908  25.931  27.505  1.00  0.00    +0.000 F 
ATOM     29  C22 UNL A   1      49.216  26.612  25.353  1.00  0.00    +0.000 C 
ATOM     30  F3  UNL A   1      50.282  26.011  24.805  1.00  0.00    +0.000 F 
ATOM     31  C23 UNL A   1      48.307  27.282  24.548  1.00  0.00    +0.000 C 
ATOM     32  F4  UNL A   1      48.489  27.319  23.220  1.00  0.00    +0.000 F 
ENDBRANCH   23   24
BRANCH   40   41
ATOM     41  C30 UNL A   1      44.998  33.916  29.816  1.00  0.00    +0.000 C 
ATOM     42  C31 UNL A   1      45.700  34.024  31.025  1.00  0.00    +0.000 C 
ATOM     43  F6  UNL A   1      45.770  32.976  31.861  1.00  0.00    +0.000 F 
ATOM     44  C32 UNL A   1      46.301  35.223  31.397  1.00  0.00    +0.000 C 
ATOM     45  F7  UNL A   1      46.932  35.315  32.577  1.00  0.00    +0.000 F 
ATOM     46  C33 UNL A   1      46.239  36.323  30.557  1.00  0.00    +0.000 C 
ATOM     47  F8  UNL A   1      46.826  37.475  30.914  1.00  0.00    +0.000 F 
ATOM     48  C34 UNL A   1      45.562  36.234  29.349  1.00  0.00    +0.000 C 
ATOM     49  F9  UNL A   1      45.509  37.295  28.531  1.00  0.00    +0.000 F 
ATOM     50  C35 UNL A   1      44.937  35.045  28.986  1.00  0.00    +0.000 C 
ATOM     51  F10 UNL A   1      44.281  34.990  27.817  1.00  0.00    +0.000 F 
ENDBRANCH   40   41
BRANCH   55   56
ATOM     65  C44 UNL A   1      37.597  31.894  30.103  1.00  0.00    +0.000 C 
ATOM     66  F15 UNL A   1      37.683  32.104  28.782  1.00  0.00    +0.000 F 
ATOM     56  C39 UNL A   1      38.644  31.254  30.782  1.00  0.00    +0.000 C 
ATOM     57  C40 UNL A   1      38.505  31.063  32.164  1.00  0.00    +0.000 C 
ATOM     58  F11 UNL A   1      39.470  30.434  32.852  1.00  0.00    +0.000 F 
ATOM     59  C41 UNL A   1      37.354  31.471  32.835  1.00  0.00    +0.000 C 
ATOM     60  F12 UNL A   1      37.224  31.229  34.146  1.00  0.00    +0.000 F 
ATOM     61  C42 UNL A   1      36.333  32.105  32.142  1.00  0.00    +0.000 C 
ATOM     62  F13 UNL A   1      35.225  32.495  32.787  1.00  0.00    +0.000 F 
ATOM     63  C43 UNL A   1      36.458  32.326  30.779  1.00  0.00    +0.000 C 
ATOM     64  F14 UNL A   1      35.480  32.949  30.109  1.00  0.00    +0.000 F 
ENDBRANCH   55   56
TORSDOF 19
ENDMDL
MODEL 6
REMARK VINA RESULT:     -10.5      3.558      8.409
ROOT
ATOM     19  C15 UNL A   1      41.889  26.292  27.752  1.00  0.00    +0.000 C 
ATOM     20  C16 UNL A   1      43.247  26.670  27.235  1.00  0.00    +0.000 C 
ATOM     21  N3  UNL A   1      43.889  27.805  27.358  1.00  0.00    +0.000 N 
ATOM     22  C17 UNL A   1      45.117  27.613  26.738  1.00  0.00    +0.000 C 
ATOM     23  C18 UNL A   1      46.121  28.506  26.568  1.00  0.00    +0.000 C 
ATOM     35  C25 UNL A   1      46.072  29.878  26.998  1.00  0.00    +0.000 C 
ATOM     36  C26 UNL A   1      46.991  30.887  26.766  1.00  0.00    +0.000 C 
ATOM     37  C27 UNL A   1      46.552  32.040  27.423  1.00  0.00    +0.000 C 
ATOM     38  C28 UNL A   1      45.340  31.760  28.034  1.00  0.00    +0.000 C 
ATOM     39  N4  UNL A   1      45.053  30.433  27.756  1.00  0.00    +0.000 N 
ATOM     40  C29 UNL A   1      44.510  32.631  28.822  1.00  0.00    +0.000 C 
ATOM     52  C36 UNL A   1      43.294  32.301  29.320  1.00  0.00    +0.000 C 
ATOM     53  N5  UNL A   1      42.602  31.104  29.207  1.00  0.00    +0.000 N 
ATOM     54  C37 UNL A   1      41.488  31.268  29.874  1.00  0.00    +0.000 C 
ATOM     55  C38 UNL A   1      40.354  30.301  30.080  1.00  0.00    +0.000 C 
ATOM     67  C45 UNL A   1      40.415  29.082  29.512  1.00  0.00    +0.000 C 
ATOM     68  C46 UNL A   1      39.400  28.041  29.637  1.00  0.00    +0.000 C 
ATOM     69  C47 UNL A   1      39.833  26.931  29.019  1.00  0.00    +0.000 C 
ATOM     70  C48 UNL A   1      41.143  27.194  28.420  1.00  0.00    +0.000 C 
ATOM     71  N6  UNL A   1      41.391  28.509  28.733  1.00  0.00    +0.000 N 
ATOM     72  C49 UNL A   1      41.354  32.591  30.502  1.00  0.00    +0.000 C 
ATOM     73  C50 UNL A   1      42.466  33.192  30.104  1.00  0.00    +0.000 C 
ATOM     74  C51 UNL A   1      45.145  26.246  26.267  1.00  0.00    +0.000 C 
ATOM     75  C52 UNL A   1      43.992  25.633  26.505  1.00  0.00    +0.000 C 
ATOM    112  H21 UNL A   1      47.852  30.803  26.202  1.00  0.00    +0.000 H 
ATOM    113  H22 UNL A   1      47.046  32.946  27.451  1.00  0.00    +0.000 H 
ATOM    114  H23 UNL A   1      44.244  29.956  28.052  1.00  0.00    +0.000 H 
ATOM    115  H24 UNL A   1      38.495  28.142  30.123  1.00  0.00    +0.000 H 
ATOM    116  H25 UNL A   1      39.324  26.035  28.973  1.00  0.00    +0.000 H 
ATOM    117  H26 UNL A   1      42.192  28.994  28.428  1.00  0.00    +0.000 H 
ATOM    118  H27 UNL A   1      40.594  32.955  31.097  1.00  0.00    +0.000 H 
ATOM    119  H28 UNL A   1      42.710  34.170  30.324  1.00  0.00    +0.000 H 
ATOM    120  H29 UNL A   1      45.956  25.804  25.806  1.00  0.00    +0.000 H 
ATOM    121  H30 UNL A   1      43.695  24.680  26.246  1.00  0.00    +0.000 H 
ENDROOT
BRANCH   19   18
ATOM     76  C53 UNL A   1      40.369  24.610  26.707  1.00  0.00    +0.000 C 
ATOM     77  C54 UNL A   1      39.955  23.295  26.502  1.00  0.00    +0.000 C 
ATOM    110  H19 UNL A   1      42.038  21.756  28.637  1.00  0.00    +0.000 H 
ATOM     15  C11 UNL A   1      40.618  22.249  27.151  1.00  0.00    +0.000 C 
ATOM     16  C12 UNL A   1      41.596  22.527  28.112  1.00  0.00    +0.000 C 
ATOM     17  C13 UNL A   1      41.971  23.849  28.357  1.00  0.00    +0.000 C 
ATOM    111  H20 UNL A   1      42.676  24.057  29.082  1.00  0.00    +0.000 H 
ATOM     18  C14 UNL A   1      41.393  24.898  27.623  1.00  0.00    +0.000 C 
ATOM    122  H31 UNL A   1      39.919  25.377  26.183  1.00  0.00    +0.000 H 
ATOM    123  H32 UNL A   1      39.162  23.093  25.874  1.00  0.00    +0.000 H 
BRANCH   15   13
ATOM     13  C10 UNL A   1      40.309  20.838  26.835  1.00  0.00    +0.000 C 
ATOM     14  O2  UNL A   1      40.844  19.939  27.478  1.00  0.00    +0.000 O 
BRANCH   13   12
ATOM     12  N2  UNL A   1      39.445  20.537  25.811  1.00  0.00    +0.000 N 
ATOM    109  H18 UNL A   1      39.275  21.269  25.175  1.00  0.00    +0.000 H 
BRANCH   12   11
ATOM     11  C9  UNL A   1      38.745  19.294  25.531  1.00  0.00    +0.000 C 
ATOM    108  H17 UNL A   1      38.506  18.837  26.469  1.00  0.00    +0.000 H 
ATOM    107  H16 UNL A   1      39.381  18.667  24.940  1.00  0.00    +0.000 H 
BRANCH   11   10
ATOM    105  H14 UNL A   1      37.660  19.546  23.729  1.00  0.00    +0.000 H 
ATOM     10  C8  UNL A   1      37.438  19.517  24.775  1.00  0.00    +0.000 C 
ATOM    106  H15 UNL A   1      36.792  18.709  25.049  1.00  0.00    +0.000 H 
BRANCH   10    9
ATOM      9  C7  UNL A   1      36.692  20.803  25.138  1.00  0.00    +0.000 C 
ATOM    103  H12 UNL A   1      36.891  21.021  26.167  1.00  0.00    +0.000 H 
ATOM    104  H13 UNL A   1      37.051  21.553  24.464  1.00  0.00    +0.000 H 
BRANCH    9    8
ATOM    101  H10 UNL A   1      34.974  20.302  24.001  1.00  0.00    +0.000 H 
ATOM    102  H11 UNL A   1      34.791  20.203  25.782  1.00  0.00    +0.000 H 
ATOM      8  C6  UNL A   1      35.173  20.756  24.949  1.00  0.00    +0.000 C 
BRANCH    8    7
ATOM     99  H8  UNL A   1      34.679  22.629  24.070  1.00  0.00    +0.000 H 
ATOM    100  H9  UNL A   1      33.416  21.906  25.104  1.00  0.00    +0.000 H 
ATOM      7  C5  UNL A   1      34.458  22.114  24.981  1.00  0.00    +0.000 C 
BRANCH    7    6
ATOM     97  H6  UNL A   1      35.143  22.409  26.982  1.00  0.00    +0.000 H 
ATOM     98  H7  UNL A   1      35.678  23.632  25.838  1.00  0.00    +0.000 H 
ATOM      6  C4  UNL A   1      34.859  23.018  26.149  1.00  0.00    +0.000 C 
BRANCH    6    5
ATOM      5  N1  UNL A   1      33.763  23.877  26.542  1.00  0.00    +0.000 N 
ATOM     96  H5  UNL A   1      33.335  23.634  27.395  1.00  0.00    +0.000 H 
BRANCH    5    3
ATOM      3  C3  UNL A   1      33.225  24.969  25.926  1.00  0.00    +0.000 C 
ATOM      4  O1  UNL A   1      33.979  25.594  25.176  1.00  0.00    +0.000 O 
BRANCH    3    2
ATOM      2  C2  UNL A   1      31.768  25.388  26.209  1.00  0.00    +0.000 C 
ATOM     95  H4  UNL A   1      31.757  25.688  27.235  1.00  0.00    +0.000 H 
BRANCH    2    1
ATOM      1  C1  UNL A   1      30.773  24.235  26.037  1.00  0.00    +0.000 C 
ATOM     92  H1  UNL A   1      31.055  23.643  25.191  1.00  0.00    +0.000 H 
ATOM     93  H2  UNL A   1      29.791  24.632  25.881  1.00  0.00    +0.000 H 
ATOM     94  H3  UNL A   1      30.776  23.626  26.916  1.00  0.00    +0.000 H 
ENDBRANCH    2    1
BRANCH    2   78
ATOM    135  H44 UNL A   1      31.484  29.912  24.963  1.00  0.00    +0.000 H 
ATOM     78  C55 UNL A   1      31.331  26.567  25.335  1.00  0.00    +0.000 C 
ATOM     79  C56 UNL A   1      30.566  26.303  24.180  1.00  0.00    +0.000 C 
ATOM     80  C57 UNL A   1      30.152  27.324  23.325  1.00  0.00    +0.000 C 
ATOM     81  C58 UNL A   1      30.507  28.649  23.585  1.00  0.00    +0.000 C 
ATOM     89  C65 UNL A   1      31.240  28.933  24.744  1.00  0.00    +0.000 C 
ATOM     90  C66 UNL A   1      31.647  27.907  25.612  1.00  0.00    +0.000 C 
ATOM     91 Br1  UNL A   1      32.627  28.446  27.150  1.00  0.00    +0.000 Br
ATOM    124  H33 UNL A   1      30.305  25.329  23.962  1.00  0.00    +0.000 H 
ATOM    125  H34 UNL A   1      29.581  27.099  22.497  1.00  0.00    +0.000 H 
BRANCH   81   82
ATOM     82  C59 UNL A   1      30.130  29.743  22.615  1.00  0.00    +0.000 C 
ATOM    126  H35 UNL A   1      30.079  29.309  21.638  1.00  0.00    +0.000 H 
ATOM    127  H36 UNL A   1      30.884  30.494  22.724  1.00  0.00    +0.000 H 
BRANCH   82   83
ATOM    129  H38 UNL A   1      29.691  31.532  24.517  1.00  0.00    +0.000 H 
ATOM    130  H39 UNL A   1      27.970  31.623  24.506  1.00  0.00    +0.000 H 
ATOM    131  H40 UNL A   1      29.942  33.097  22.784  1.00  0.00    +0.000 H 
ATOM    132  H41 UNL A   1      28.561  33.742  23.576  1.00  0.00    +0.000 H 
ATOM    133  H42 UNL A   1      28.511  33.114  20.943  1.00  0.00    +0.000 H 
ATOM    134  H43 UNL A   1      27.092  32.949  21.865  1.00  0.00    +0.000 H 
ATOM     83  C60 UNL A   1      28.798  30.454  22.883  1.00  0.00    +0.000 C 
ATOM     84  C61 UNL A   1      28.836  31.618  23.879  1.00  0.00    +0.000 C 
ATOM     85  C62 UNL A   1      28.925  32.890  23.043  1.00  0.00    +0.000 C 
ATOM     86  C63 UNL A   1      28.104  32.609  21.793  1.00  0.00    +0.000 C 
ATOM     87  C64 UNL A   1      28.225  31.114  21.649  1.00  0.00    +0.000 C 
ATOM     88  O3  UNL A   1      27.875  30.499  20.649  1.00  0.00    +0.000 O 
ATOM    128  H37 UNL A   1      28.223  29.636  23.264  1.00  0.00    +0.000 H 
ENDBRANCH   82   83
ENDBRANCH   81   82
ENDBRANCH    2   78
ENDBRANCH    3    2
ENDBRANCH    5    3
ENDBRANCH    6    5
ENDBRANCH    7    6
ENDBRANCH    8    7
ENDBRANCH    9    8
ENDBRANCH   10    9
ENDBRANCH   11   10
ENDBRANCH   12   11
ENDBRANCH   13   12
ENDBRANCH   15   13
ENDBRANCH   19   18
BRANCH   23   24
ATOM     33  C24 UNL A   1      47.377  27.867  24.483  1.00  0.00    +0.000 C 
ATOM     34  F5  UNL A   1      46.299  28.186  23.753  1.00  0.00    +0.000 F 
ATOM     24  C19 UNL A   1      47.366  28.042  25.875  1.00  0.00    +0.000 C 
ATOM     25  C20 UNL A   1      48.516  27.687  26.593  1.00  0.00    +0.000 C 
ATOM     26  F1  UNL A   1      48.556  27.844  27.925  1.00  0.00    +0.000 F 
ATOM     27  C21 UNL A   1      49.638  27.179  25.941  1.00  0.00    +0.000 C 
ATOM     28  F2  UNL A   1      50.734  26.865  26.644  1.00  0.00    +0.000 F 
ATOM     29  C22 UNL A   1      49.621  26.997  24.566  1.00  0.00    +0.000 C 
ATOM     30  F3  UNL A   1      50.694  26.491  23.943  1.00  0.00    +0.000 F 
ATOM     31  C23 UNL A   1      48.491  27.339  23.837  1.00  0.00    +0.000 C 
ATOM     32  F4  UNL A   1      48.470  27.152  22.510  1.00  0.00    +0.000 F 
ENDBRANCH   23   24
BRANCH   40   41
ATOM     41  C30 UNL A   1      45.015  34.013  29.108  1.00  0.00    +0.000 C 
ATOM     42  C31 UNL A   1      44.679  35.096  28.283  1.00  0.00    +0.000 C 
ATOM     43  F6  UNL A   1      43.939  34.900  27.181  1.00  0.00    +0.000 F 
ATOM     44  C32 UNL A   1      45.133  36.380  28.569  1.00  0.00    +0.000 C 
ATOM     45  F7  UNL A   1      44.834  37.394  27.745  1.00  0.00    +0.000 F 
ATOM     46  C33 UNL A   1      45.906  36.610  29.697  1.00  0.00    +0.000 C 
ATOM     47  F8  UNL A   1      46.336  37.849  29.975  1.00  0.00    +0.000 F 
ATOM     48  C34 UNL A   1      46.239  35.555  30.535  1.00  0.00    +0.000 C 
ATOM     49  F9  UNL A   1      46.977  35.777  31.631  1.00  0.00    +0.000 F 
ATOM     50  C35 UNL A   1      45.808  34.265  30.237  1.00  0.00    +0.000 C 
ATOM     51  F10 UNL A   1      46.152  33.263  31.059  1.00  0.00    +0.000 F 
ENDBRANCH   40   41
BRANCH   55   56
ATOM     65  C44 UNL A   1      39.140  30.402  32.283  1.00  0.00    +0.000 C 
ATOM     66  F15 UNL A   1      40.161  29.760  32.869  1.00  0.00    +0.000 F 
ATOM     56  C39 UNL A   1      39.181  30.679  30.909  1.00  0.00    +0.000 C 
ATOM     57  C40 UNL A   1      38.086  31.348  30.345  1.00  0.00    +0.000 C 
ATOM     58  F11 UNL A   1      38.090  31.656  29.039  1.00  0.00    +0.000 F 
ATOM     59  C41 UNL A   1      37.005  31.748  31.129  1.00  0.00    +0.000 C 
ATOM     60  F12 UNL A   1      35.995  32.431  30.574  1.00  0.00    +0.000 F 
ATOM     61  C42 UNL A   1      36.985  31.459  32.485  1.00  0.00    +0.000 C 
ATOM     62  F13 UNL A   1      35.947  31.846  33.239  1.00  0.00    +0.000 F 
ATOM     63  C43 UNL A   1      38.047  30.778  33.061  1.00  0.00    +0.000 C 
ATOM     64  F14 UNL A   1      38.025  30.486  34.368  1.00  0.00    +0.000 F 
ENDBRANCH   55   56
TORSDOF 19
ENDMDL
MODEL 7
REMARK VINA RESULT:     -10.5      4.492     10.313
ROOT
ATOM     19  C15 UNL A   1      39.776  28.994  29.584  1.00  0.00    +0.000 C 
ATOM     20  C16 UNL A   1      40.465  27.773  29.047  1.00  0.00    +0.000 C 
ATOM     21  N3  UNL A   1      41.605  27.241  29.413  1.00  0.00    +0.000 N 
ATOM     22  C17 UNL A   1      41.760  26.103  28.632  1.00  0.00    +0.000 C 
ATOM     23  C18 UNL A   1      42.797  25.234  28.609  1.00  0.00    +0.000 C 
ATOM     35  C25 UNL A   1      43.985  25.363  29.412  1.00  0.00    +0.000 C 
ATOM     36  C26 UNL A   1      45.138  24.598  29.373  1.00  0.00    +0.000 C 
ATOM     37  C27 UNL A   1      46.001  25.055  30.373  1.00  0.00    +0.000 C 
ATOM     38  C28 UNL A   1      45.401  26.129  31.010  1.00  0.00    +0.000 C 
ATOM     39  N4  UNL A   1      44.170  26.313  30.404  1.00  0.00    +0.000 N 
ATOM     40  C29 UNL A   1      45.907  26.922  32.099  1.00  0.00    +0.000 C 
ATOM     52  C36 UNL A   1      45.288  28.012  32.616  1.00  0.00    +0.000 C 
ATOM     53  N5  UNL A   1      44.079  28.583  32.248  1.00  0.00    +0.000 N 
ATOM     54  C37 UNL A   1      43.902  29.600  33.053  1.00  0.00    +0.000 C 
ATOM     55  C38 UNL A   1      42.765  30.584  33.103  1.00  0.00    +0.000 C 
ATOM     67  C45 UNL A   1      41.762  30.480  32.210  1.00  0.00    +0.000 C 
ATOM     68  C46 UNL A   1      40.594  31.351  32.149  1.00  0.00    +0.000 C 
ATOM     69  C47 UNL A   1      39.760  30.899  31.199  1.00  0.00    +0.000 C 
ATOM     70  C48 UNL A   1      40.355  29.725  30.557  1.00  0.00    +0.000 C 
ATOM     71  N6  UNL A   1      41.560  29.572  31.199  1.00  0.00    +0.000 N 
ATOM     72  C49 UNL A   1      44.978  29.778  34.040  1.00  0.00    +0.000 C 
ATOM     73  C50 UNL A   1      45.813  28.805  33.706  1.00  0.00    +0.000 C 
ATOM     74  C51 UNL A   1      40.585  26.001  27.793  1.00  0.00    +0.000 C 
ATOM     75  C52 UNL A   1      39.776  27.037  27.976  1.00  0.00    +0.000 C 
ATOM    112  H21 UNL A   1      45.329  23.824  28.717  1.00  0.00    +0.000 H 
ATOM    113  H22 UNL A   1      46.928  24.659  30.600  1.00  0.00    +0.000 H 
ATOM    114  H23 UNL A   1      43.522  27.016  30.641  1.00  0.00    +0.000 H 
ATOM    115  H24 UNL A   1      40.434  32.181  32.741  1.00  0.00    +0.000 H 
ATOM    116  H25 UNL A   1      38.846  31.313  30.959  1.00  0.00    +0.000 H 
ATOM    117  H26 UNL A   1      42.217  28.880  30.956  1.00  0.00    +0.000 H 
ATOM    118  H27 UNL A   1      45.060  30.477  34.794  1.00  0.00    +0.000 H 
ATOM    119  H28 UNL A   1      46.722  28.635  34.165  1.00  0.00    +0.000 H 
ATOM    120  H29 UNL A   1      40.400  25.225  27.140  1.00  0.00    +0.000 H 
ATOM    121  H30 UNL A   1      38.893  27.267  27.493  1.00  0.00    +0.000 H 
ENDROOT
BRANCH   19   18
ATOM     76  C53 UNL A   1      37.329  29.241  30.008  1.00  0.00    +0.000 C 
ATOM     77  C54 UNL A   1      36.057  29.664  29.625  1.00  0.00    +0.000 C 
ATOM    110  H19 UNL A   1      36.776  30.737  26.528  1.00  0.00    +0.000 H 
ATOM     15  C11 UNL A   1      35.874  30.279  28.383  1.00  0.00    +0.000 C 
ATOM     16  C12 UNL A   1      36.930  30.341  27.468  1.00  0.00    +0.000 C 
ATOM     17  C13 UNL A   1      38.192  29.867  27.833  1.00  0.00    +0.000 C 
ATOM    111  H20 UNL A   1      38.967  29.891  27.150  1.00  0.00    +0.000 H 
ATOM     18  C14 UNL A   1      38.411  29.355  29.122  1.00  0.00    +0.000 C 
ATOM    122  H31 UNL A   1      37.475  28.841  30.948  1.00  0.00    +0.000 H 
ATOM    123  H32 UNL A   1      35.253  29.523  30.256  1.00  0.00    +0.000 H 
BRANCH   15   13
ATOM     13  C10 UNL A   1      34.574  30.880  28.014  1.00  0.00    +0.000 C 
ATOM     14  O2  UNL A   1      33.890  30.358  27.138  1.00  0.00    +0.000 O 
BRANCH   13   12
ATOM     12  N2  UNL A   1      34.148  32.029  28.633  1.00  0.00    +0.000 N 
ATOM    109  H18 UNL A   1      34.185  32.016  29.616  1.00  0.00    +0.000 H 
BRANCH   12   11
ATOM     11  C9  UNL A   1      33.650  33.262  28.045  1.00  0.00    +0.000 C 
ATOM    108  H17 UNL A   1      32.585  33.261  28.141  1.00  0.00    +0.000 H 
ATOM    107  H16 UNL A   1      33.952  33.299  27.018  1.00  0.00    +0.000 H 
BRANCH   11   10
ATOM    105  H14 UNL A   1      34.584  34.200  29.699  1.00  0.00    +0.000 H 
ATOM     10  C8  UNL A   1      34.181  34.504  28.756  1.00  0.00    +0.000 C 
ATOM    106  H15 UNL A   1      34.910  34.935  28.102  1.00  0.00    +0.000 H 
BRANCH   10    9
ATOM      9  C7  UNL A   1      33.139  35.595  29.015  1.00  0.00    +0.000 C 
ATOM    103  H12 UNL A   1      33.576  36.537  28.756  1.00  0.00    +0.000 H 
ATOM    104  H13 UNL A   1      32.288  35.338  28.418  1.00  0.00    +0.000 H 
BRANCH    9    8
ATOM    101  H10 UNL A   1      31.603  35.977  30.426  1.00  0.00    +0.000 H 
ATOM    102  H11 UNL A   1      32.798  34.723  30.889  1.00  0.00    +0.000 H 
ATOM      8  C6  UNL A   1      32.633  35.688  30.457  1.00  0.00    +0.000 C 
BRANCH    8    7
ATOM     99  H8  UNL A   1      34.112  37.186  30.764  1.00  0.00    +0.000 H 
ATOM    100  H9  UNL A   1      32.634  37.348  31.752  1.00  0.00    +0.000 H 
ATOM      7  C5  UNL A   1      33.375  36.686  31.358  1.00  0.00    +0.000 C 
BRANCH    7    6
ATOM     97  H6  UNL A   1      34.682  36.799  33.043  1.00  0.00    +0.000 H 
ATOM     98  H7  UNL A   1      33.335  35.684  33.234  1.00  0.00    +0.000 H 
ATOM      6  C4  UNL A   1      34.079  36.057  32.562  1.00  0.00    +0.000 C 
BRANCH    6    5
ATOM      5  N1  UNL A   1      34.923  34.954  32.153  1.00  0.00    +0.000 N 
ATOM     96  H5  UNL A   1      35.600  35.183  31.477  1.00  0.00    +0.000 H 
BRANCH    5    3
ATOM      3  C3  UNL A   1      34.935  33.650  32.552  1.00  0.00    +0.000 C 
ATOM      4  O1  UNL A   1      34.172  33.359  33.477  1.00  0.00    +0.000 O 
BRANCH    3    2
ATOM      2  C2  UNL A   1      35.889  32.638  31.888  1.00  0.00    +0.000 C 
ATOM     95  H4  UNL A   1      35.303  32.149  31.138  1.00  0.00    +0.000 H 
BRANCH    2    1
ATOM      1  C1  UNL A   1      36.401  31.572  32.864  1.00  0.00    +0.000 C 
ATOM     92  H1  UNL A   1      35.956  30.628  32.627  1.00  0.00    +0.000 H 
ATOM     93  H2  UNL A   1      36.138  31.848  33.863  1.00  0.00    +0.000 H 
ATOM     94  H3  UNL A   1      37.465  31.496  32.784  1.00  0.00    +0.000 H 
ENDBRANCH    2    1
BRANCH    2   78
ATOM    135  H44 UNL A   1      39.864  35.145  31.779  1.00  0.00    +0.000 H 
ATOM     78  C55 UNL A   1      37.083  33.327  31.221  1.00  0.00    +0.000 C 
ATOM     79  C56 UNL A   1      37.217  33.238  29.820  1.00  0.00    +0.000 C 
ATOM     80  C57 UNL A   1      38.291  33.820  29.148  1.00  0.00    +0.000 C 
ATOM     81  C58 UNL A   1      39.284  34.498  29.856  1.00  0.00    +0.000 C 
ATOM     89  C65 UNL A   1      39.151  34.622  31.245  1.00  0.00    +0.000 C 
ATOM     90  C66 UNL A   1      38.064  34.047  31.923  1.00  0.00    +0.000 C 
ATOM     91 Br1  UNL A   1      38.013  34.307  33.806  1.00  0.00    +0.000 Br
ATOM    124  H33 UNL A   1      36.501  32.730  29.279  1.00  0.00    +0.000 H 
ATOM    125  H34 UNL A   1      38.351  33.751  28.121  1.00  0.00    +0.000 H 
BRANCH   81   82
ATOM     82  C59 UNL A   1      40.489  35.055  29.137  1.00  0.00    +0.000 C 
ATOM    126  H35 UNL A   1      40.327  36.103  28.994  1.00  0.00    +0.000 H 
ATOM    127  H36 UNL A   1      40.565  34.494  28.230  1.00  0.00    +0.000 H 
BRANCH   82   83
ATOM    129  H38 UNL A   1      41.598  32.742  29.797  1.00  0.00    +0.000 H 
ATOM    130  H39 UNL A   1      42.853  33.260  30.860  1.00  0.00    +0.000 H 
ATOM    131  H40 UNL A   1      42.887  33.070  27.862  1.00  0.00    +0.000 H 
ATOM    132  H41 UNL A   1      44.108  32.555  28.955  1.00  0.00    +0.000 H 
ATOM    133  H42 UNL A   1      44.298  34.913  27.638  1.00  0.00    +0.000 H 
ATOM    134  H43 UNL A   1      44.960  34.776  29.198  1.00  0.00    +0.000 H 
ATOM     83  C60 UNL A   1      41.839  34.880  29.844  1.00  0.00    +0.000 C 
ATOM     84  C61 UNL A   1      42.390  33.452  29.916  1.00  0.00    +0.000 C 
ATOM     85  C62 UNL A   1      43.389  33.325  28.771  1.00  0.00    +0.000 C 
ATOM     86  C63 UNL A   1      44.043  34.694  28.652  1.00  0.00    +0.000 C 
ATOM     87  C64 UNL A   1      42.964  35.618  29.154  1.00  0.00    +0.000 C 
ATOM     88  O3  UNL A   1      43.006  36.837  29.036  1.00  0.00    +0.000 O 
ATOM    128  H37 UNL A   1      41.589  35.249  30.818  1.00  0.00    +0.000 H 
ENDBRANCH   82   83
ENDBRANCH   81   82
ENDBRANCH    2   78
ENDBRANCH    3    2
ENDBRANCH    5    3
ENDBRANCH    6    5
ENDBRANCH    7    6
ENDBRANCH    8    7
ENDBRANCH    9    8
ENDBRANCH   10    9
ENDBRANCH   11   10
ENDBRANCH   12   11
ENDBRANCH   13   12
ENDBRANCH   15   13
ENDBRANCH   19   18
BRANCH   23   24
ATOM     33  C24 UNL A   1      42.363  22.794  28.172  1.00  0.00    +0.000 C 
ATOM     34  F5  UNL A   1      42.021  22.639  29.459  1.00  0.00    +0.000 F 
ATOM     24  C19 UNL A   1      42.715  24.061  27.681  1.00  0.00    +0.000 C 
ATOM     25  C20 UNL A   1      43.069  24.169  26.329  1.00  0.00    +0.000 C 
ATOM     26  F1  UNL A   1      43.406  25.360  25.812  1.00  0.00    +0.000 F 
ATOM     27  C21 UNL A   1      43.067  23.050  25.498  1.00  0.00    +0.000 C 
ATOM     28  F2  UNL A   1      43.390  23.179  24.204  1.00  0.00    +0.000 F 
ATOM     29  C22 UNL A   1      42.733  21.805  26.008  1.00  0.00    +0.000 C 
ATOM     30  F3  UNL A   1      42.750  20.727  25.212  1.00  0.00    +0.000 F 
ATOM     31  C23 UNL A   1      42.382  21.676  27.344  1.00  0.00    +0.000 C 
ATOM     32  F4  UNL A   1      42.070  20.470  27.840  1.00  0.00    +0.000 F 
ENDBRANCH   23   24
BRANCH   40   41
ATOM     41  C30 UNL A   1      47.219  26.527  32.706  1.00  0.00    +0.000 C 
ATOM     42  C31 UNL A   1      48.421  27.109  32.279  1.00  0.00    +0.000 C 
ATOM     43  F6  UNL A   1      48.422  27.995  31.271  1.00  0.00    +0.000 F 
ATOM     44  C32 UNL A   1      49.634  26.754  32.863  1.00  0.00    +0.000 C 
ATOM     45  F7  UNL A   1      50.776  27.292  32.412  1.00  0.00    +0.000 F 
ATOM     46  C33 UNL A   1      49.664  25.836  33.901  1.00  0.00    +0.000 C 
ATOM     47  F8  UNL A   1      50.832  25.501  34.468  1.00  0.00    +0.000 F 
ATOM     48  C34 UNL A   1      48.484  25.259  34.349  1.00  0.00    +0.000 C 
ATOM     49  F9  UNL A   1      48.510  24.378  35.359  1.00  0.00    +0.000 F 
ATOM     50  C35 UNL A   1      47.273  25.592  33.749  1.00  0.00    +0.000 C 
ATOM     51  F10 UNL A   1      46.150  25.011  34.195  1.00  0.00    +0.000 F 
ENDBRANCH   40   41
BRANCH   55   56
ATOM     65  C44 UNL A   1      43.365  32.894  33.906  1.00  0.00    +0.000 C 
ATOM     66  F15 UNL A   1      44.022  33.117  32.758  1.00  0.00    +0.000 F 
ATOM     56  C39 UNL A   1      42.741  31.658  34.129  1.00  0.00    +0.000 C 
ATOM     57  C40 UNL A   1      42.072  31.475  35.347  1.00  0.00    +0.000 C 
ATOM     58  F11 UNL A   1      41.440  30.318  35.596  1.00  0.00    +0.000 F 
ATOM     59  C41 UNL A   1      42.006  32.497  36.292  1.00  0.00    +0.000 C 
ATOM     60  F12 UNL A   1      41.315  32.314  37.426  1.00  0.00    +0.000 F 
ATOM     61  C42 UNL A   1      42.634  33.710  36.051  1.00  0.00    +0.000 C 
ATOM     62  F13 UNL A   1      42.567  34.693  36.959  1.00  0.00    +0.000 F 
ATOM     63  C43 UNL A   1      43.322  33.905  34.863  1.00  0.00    +0.000 C 
ATOM     64  F14 UNL A   1      43.940  35.071  34.631  1.00  0.00    +0.000 F 
ENDBRANCH   55   56
TORSDOF 19
ENDMDL
MODEL 8
REMARK VINA RESULT:     -10.4     21.902     27.332
ROOT
ATOM     19  C15 UNL A   1      46.384  50.773  18.270  1.00  0.00    +0.000 C 
ATOM     20  C16 UNL A   1      46.621  52.059  17.532  1.00  0.00    +0.000 C 
ATOM     21  N3  UNL A   1      47.611  52.908  17.654  1.00  0.00    +0.000 N 
ATOM     22  C17 UNL A   1      47.374  53.902  16.713  1.00  0.00    +0.000 C 
ATOM     23  C18 UNL A   1      48.094  55.023  16.475  1.00  0.00    +0.000 C 
ATOM     35  C25 UNL A   1      49.270  55.407  17.211  1.00  0.00    +0.000 C 
ATOM     36  C26 UNL A   1      49.998  56.581  17.120  1.00  0.00    +0.000 C 
ATOM     37  C27 UNL A   1      51.091  56.487  17.987  1.00  0.00    +0.000 C 
ATOM     38  C28 UNL A   1      51.023  55.270  18.645  1.00  0.00    +0.000 C 
ATOM     39  N4  UNL A   1      49.895  54.623  18.167  1.00  0.00    +0.000 N 
ATOM     40  C29 UNL A   1      51.924  54.731  19.628  1.00  0.00    +0.000 C 
ATOM     52  C36 UNL A   1      51.741  53.560  20.286  1.00  0.00    +0.000 C 
ATOM     53  N5  UNL A   1      50.706  52.645  20.165  1.00  0.00    +0.000 N 
ATOM     54  C37 UNL A   1      50.990  51.669  20.991  1.00  0.00    +0.000 C 
ATOM     55  C38 UNL A   1      50.212  50.415  21.280  1.00  0.00    +0.000 C 
ATOM     67  C45 UNL A   1      49.039  50.206  20.654  1.00  0.00    +0.000 C 
ATOM     68  C46 UNL A   1      48.188  49.034  20.825  1.00  0.00    +0.000 C 
ATOM     69  C47 UNL A   1      47.149  49.120  19.980  1.00  0.00    +0.000 C 
ATOM     70  C48 UNL A   1      47.241  50.375  19.231  1.00  0.00    +0.000 C 
ATOM     71  N6  UNL A   1      48.376  50.972  19.725  1.00  0.00    +0.000 N 
ATOM     72  C49 UNL A   1      52.254  51.851  21.721  1.00  0.00    +0.000 C 
ATOM     73  C50 UNL A   1      52.653  53.035  21.280  1.00  0.00    +0.000 C 
ATOM     74  C51 UNL A   1      46.166  53.536  16.005  1.00  0.00    +0.000 C 
ATOM     75  C52 UNL A   1      45.633  52.430  16.508  1.00  0.00    +0.000 C 
ATOM    112  H21 UNL A   1      49.771  57.388  16.517  1.00  0.00    +0.000 H 
ATOM    113  H22 UNL A   1      51.825  57.202  18.114  1.00  0.00    +0.000 H 
ATOM    114  H23 UNL A   1      49.584  53.736  18.463  1.00  0.00    +0.000 H 
ATOM    115  H24 UNL A   1      48.357  48.262  21.489  1.00  0.00    +0.000 H 
ATOM    116  H25 UNL A   1      46.405  48.414  19.873  1.00  0.00    +0.000 H 
ATOM    117  H26 UNL A   1      48.683  51.864  19.442  1.00  0.00    +0.000 H 
ATOM    118  H27 UNL A   1      52.710  51.221  22.399  1.00  0.00    +0.000 H 
ATOM    119  H28 UNL A   1      53.504  53.520  21.604  1.00  0.00    +0.000 H 
ATOM    120  H29 UNL A   1      45.770  54.067  15.214  1.00  0.00    +0.000 H 
ATOM    121  H30 UNL A   1      44.755  51.953  16.248  1.00  0.00    +0.000 H 
ENDROOT
BRANCH   19   18
ATOM     76  C53 UNL A   1      43.995  50.074  18.452  1.00  0.00    +0.000 C 
ATOM     77  C54 UNL A   1      42.908  49.306  18.034  1.00  0.00    +0.000 C 
ATOM    110  H19 UNL A   1      44.461  47.421  15.732  1.00  0.00    +0.000 H 
ATOM     15  C11 UNL A   1      43.066  48.392  16.988  1.00  0.00    +0.000 C 
ATOM     16  C12 UNL A   1      44.336  48.143  16.459  1.00  0.00    +0.000 C 
ATOM     17  C13 UNL A   1      45.434  48.874  16.917  1.00  0.00    +0.000 C 
ATOM    111  H20 UNL A   1      46.376  48.675  16.544  1.00  0.00    +0.000 H 
ATOM     18  C14 UNL A   1      45.263  49.877  17.885  1.00  0.00    +0.000 C 
ATOM    122  H31 UNL A   1      43.865  50.790  19.184  1.00  0.00    +0.000 H 
ATOM    123  H32 UNL A   1      41.992  49.411  18.496  1.00  0.00    +0.000 H 
BRANCH   15   13
ATOM     13  C10 UNL A   1      41.903  47.679  16.417  1.00  0.00    +0.000 C 
ATOM     14  O2  UNL A   1      41.146  48.268  15.649  1.00  0.00    +0.000 O 
BRANCH   13   12
ATOM     12  N2  UNL A   1      41.660  46.374  16.764  1.00  0.00    +0.000 N 
ATOM    109  H18 UNL A   1      41.056  46.247  17.531  1.00  0.00    +0.000 H 
BRANCH   12   11
ATOM     11  C9  UNL A   1      42.166  45.151  16.163  1.00  0.00    +0.000 C 
ATOM    108  H17 UNL A   1      42.752  45.426  15.311  1.00  0.00    +0.000 H 
ATOM    107  H16 UNL A   1      41.336  44.534  15.885  1.00  0.00    +0.000 H 
BRANCH   11   10
ATOM    105  H14 UNL A   1      42.899  43.320  16.937  1.00  0.00    +0.000 H 
ATOM     10  C8  UNL A   1      43.066  44.362  17.111  1.00  0.00    +0.000 C 
ATOM    106  H15 UNL A   1      44.068  44.673  16.900  1.00  0.00    +0.000 H 
BRANCH   10    9
ATOM      9  C7  UNL A   1      42.836  44.638  18.599  1.00  0.00    +0.000 C 
ATOM    103  H12 UNL A   1      43.620  45.281  18.940  1.00  0.00    +0.000 H 
ATOM    104  H13 UNL A   1      41.862  45.075  18.671  1.00  0.00    +0.000 H 
BRANCH    9    8
ATOM    101  H10 UNL A   1      42.827  42.535  18.869  1.00  0.00    +0.000 H 
ATOM    102  H11 UNL A   1      43.669  43.484  20.136  1.00  0.00    +0.000 H 
ATOM      8  C6  UNL A   1      42.813  43.399  19.499  1.00  0.00    +0.000 C 
BRANCH    8    7
ATOM     99  H8  UNL A   1      41.197  44.262  20.581  1.00  0.00    +0.000 H 
ATOM    100  H9  UNL A   1      40.916  42.611  19.960  1.00  0.00    +0.000 H 
ATOM      7  C5  UNL A   1      41.601  43.282  20.435  1.00  0.00    +0.000 C 
BRANCH    7    6
ATOM     97  H6  UNL A   1      40.998  42.565  22.353  1.00  0.00    +0.000 H 
ATOM     98  H7  UNL A   1      42.390  41.738  21.667  1.00  0.00    +0.000 H 
ATOM      6  C4  UNL A   1      41.912  42.684  21.809  1.00  0.00    +0.000 C 
BRANCH    6    5
ATOM      5  N1  UNL A   1      42.803  43.542  22.560  1.00  0.00    +0.000 N 
ATOM     96  H5  UNL A   1      42.722  44.501  22.353  1.00  0.00    +0.000 H 
BRANCH    5    3
ATOM      3  C3  UNL A   1      43.736  43.240  23.508  1.00  0.00    +0.000 C 
ATOM      4  O1  UNL A   1      43.391  42.427  24.368  1.00  0.00    +0.000 O 
BRANCH    3    2
ATOM      2  C2  UNL A   1      45.116  43.928  23.493  1.00  0.00    +0.000 C 
ATOM     95  H4  UNL A   1      45.799  43.194  23.865  1.00  0.00    +0.000 H 
BRANCH    2    1
ATOM      1  C1  UNL A   1      45.182  45.151  24.414  1.00  0.00    +0.000 C 
ATOM     92  H1  UNL A   1      45.263  46.040  23.822  1.00  0.00    +0.000 H 
ATOM     93  H2  UNL A   1      46.037  45.071  25.053  1.00  0.00    +0.000 H 
ATOM     94  H3  UNL A   1      44.295  45.199  25.010  1.00  0.00    +0.000 H 
ENDBRANCH    2    1
BRANCH    2   78
ATOM    135  H44 UNL A   1      46.912  43.247  19.202  1.00  0.00    +0.000 H 
ATOM     78  C55 UNL A   1      45.539  44.337  22.079  1.00  0.00    +0.000 C 
ATOM     79  C56 UNL A   1      45.311  45.665  21.666  1.00  0.00    +0.000 C 
ATOM     80  C57 UNL A   1      45.648  46.103  20.385  1.00  0.00    +0.000 C 
ATOM     81  C58 UNL A   1      46.209  45.219  19.462  1.00  0.00    +0.000 C 
ATOM     89  C65 UNL A   1      46.471  43.903  19.866  1.00  0.00    +0.000 C 
ATOM     90  C66 UNL A   1      46.143  43.465  21.159  1.00  0.00    +0.000 C 
ATOM     91 Br1  UNL A   1      46.566  41.656  21.566  1.00  0.00    +0.000 Br
ATOM    124  H33 UNL A   1      44.885  46.331  22.327  1.00  0.00    +0.000 H 
ATOM    125  H34 UNL A   1      45.483  47.085  20.119  1.00  0.00    +0.000 H 
BRANCH   81   82
ATOM     82  C59 UNL A   1      46.496  45.671  18.051  1.00  0.00    +0.000 C 
ATOM    126  H35 UNL A   1      46.225  46.703  17.977  1.00  0.00    +0.000 H 
ATOM    127  H36 UNL A   1      45.926  45.021  17.420  1.00  0.00    +0.000 H 
BRANCH   82   83
ATOM    129  H38 UNL A   1      47.371  46.122  15.592  1.00  0.00    +0.000 H 
ATOM    130  H39 UNL A   1      48.948  45.429  15.660  1.00  0.00    +0.000 H 
ATOM    131  H40 UNL A   1      48.068  48.187  16.466  1.00  0.00    +0.000 H 
ATOM    132  H41 UNL A   1      49.459  47.760  15.553  1.00  0.00    +0.000 H 
ATOM    133  H42 UNL A   1      49.624  48.311  18.199  1.00  0.00    +0.000 H 
ATOM    134  H43 UNL A   1      50.685  47.169  17.520  1.00  0.00    +0.000 H 
ATOM     83  C60 UNL A   1      47.949  45.532  17.579  1.00  0.00    +0.000 C 
ATOM     84  C61 UNL A   1      48.264  46.068  16.178  1.00  0.00    +0.000 C 
ATOM     85  C62 UNL A   1      48.849  47.462  16.379  1.00  0.00    +0.000 C 
ATOM     86  C63 UNL A   1      49.647  47.381  17.673  1.00  0.00    +0.000 C 
ATOM     87  C64 UNL A   1      48.923  46.304  18.438  1.00  0.00    +0.000 C 
ATOM     88  O3  UNL A   1      49.121  46.066  19.625  1.00  0.00    +0.000 O 
ATOM    128  H37 UNL A   1      48.058  44.467  17.620  1.00  0.00    +0.000 H 
ENDBRANCH   82   83
ENDBRANCH   81   82
ENDBRANCH    2   78
ENDBRANCH    3    2
ENDBRANCH    5    3
ENDBRANCH    6    5
ENDBRANCH    7    6
ENDBRANCH    8    7
ENDBRANCH    9    8
ENDBRANCH   10    9
ENDBRANCH   11   10
ENDBRANCH   12   11
ENDBRANCH   13   12
ENDBRANCH   15   13
ENDBRANCH   19   18
BRANCH   23   24
ATOM     33  C24 UNL A   1      47.991  55.676  14.047  1.00  0.00    +0.000 C 
ATOM     34  F5  UNL A   1      48.677  54.567  13.735  1.00  0.00    +0.000 F 
ATOM     24  C19 UNL A   1      47.636  55.937  15.379  1.00  0.00    +0.000 C 
ATOM     25  C20 UNL A   1      46.924  57.113  15.654  1.00  0.00    +0.000 C 
ATOM     26  F1  UNL A   1      46.556  57.401  16.911  1.00  0.00    +0.000 F 
ATOM     27  C21 UNL A   1      46.578  57.994  14.631  1.00  0.00    +0.000 C 
ATOM     28  F2  UNL A   1      45.880  59.102  14.913  1.00  0.00    +0.000 F 
ATOM     29  C22 UNL A   1      46.956  57.726  13.324  1.00  0.00    +0.000 C 
ATOM     30  F3  UNL A   1      46.638  58.584  12.344  1.00  0.00    +0.000 F 
ATOM     31  C23 UNL A   1      47.662  56.569  13.031  1.00  0.00    +0.000 C 
ATOM     32  F4  UNL A   1      48.038  56.315  11.769  1.00  0.00    +0.000 F 
ENDBRANCH   23   24
BRANCH   40   41
ATOM     41  C30 UNL A   1      53.152  55.522  19.965  1.00  0.00    +0.000 C 
ATOM     42  C31 UNL A   1      54.361  55.311  19.287  1.00  0.00    +0.000 C 
ATOM     43  F6  UNL A   1      54.454  54.349  18.356  1.00  0.00    +0.000 F 
ATOM     44  C32 UNL A   1      55.490  56.066  19.589  1.00  0.00    +0.000 C 
ATOM     45  F7  UNL A   1      56.647  55.821  18.958  1.00  0.00    +0.000 F 
ATOM     46  C33 UNL A   1      55.424  57.063  20.551  1.00  0.00    +0.000 C 
ATOM     47  F8  UNL A   1      56.511  57.794  20.836  1.00  0.00    +0.000 F 
ATOM     48  C34 UNL A   1      54.234  57.297  21.224  1.00  0.00    +0.000 C 
ATOM     49  F9  UNL A   1      54.167  58.266  22.147  1.00  0.00    +0.000 F 
ATOM     50  C35 UNL A   1      53.110  56.526  20.943  1.00  0.00    +0.000 C 
ATOM     51  F10 UNL A   1      51.975  56.768  21.615  1.00  0.00    +0.000 F 
ENDBRANCH   40   41
BRANCH   55   56
ATOM     65  C44 UNL A   1      51.615  48.397  21.830  1.00  0.00    +0.000 C 
ATOM     66  F15 UNL A   1      51.982  48.309  20.543  1.00  0.00    +0.000 F 
ATOM     56  C39 UNL A   1      50.734  49.408  22.241  1.00  0.00    +0.000 C 
ATOM     57  C40 UNL A   1      50.378  49.453  23.595  1.00  0.00    +0.000 C 
ATOM     58  F11 UNL A   1      49.557  50.417  24.040  1.00  0.00    +0.000 F 
ATOM     59  C41 UNL A   1      50.903  48.541  24.508  1.00  0.00    +0.000 C 
ATOM     60  F12 UNL A   1      50.587  48.638  25.807  1.00  0.00    +0.000 F 
ATOM     61  C42 UNL A   1      51.770  47.547  24.078  1.00  0.00    +0.000 C 
ATOM     62  F13 UNL A   1      52.277  46.672  24.956  1.00  0.00    +0.000 F 
ATOM     63  C43 UNL A   1      52.118  47.469  22.738  1.00  0.00    +0.000 C 
ATOM     64  F14 UNL A   1      52.945  46.503  22.316  1.00  0.00    +0.000 F 
ENDBRANCH   55   56
TORSDOF 19
ENDMDL
MODEL 9
REMARK VINA RESULT:     -10.4     37.973     43.174
ROOT
ATOM     19  C15 UNL A   1      13.645  53.577   5.264  1.00  0.00    +0.000 C 
ATOM     20  C16 UNL A   1      13.271  52.122   5.241  1.00  0.00    +0.000 C 
ATOM     21  N3  UNL A   1      13.648  51.188   4.405  1.00  0.00    +0.000 N 
ATOM     22  C17 UNL A   1      13.053  50.016   4.854  1.00  0.00    +0.000 C 
ATOM     23  C18 UNL A   1      13.108  48.781   4.303  1.00  0.00    +0.000 C 
ATOM     35  C25 UNL A   1      13.806  48.463   3.084  1.00  0.00    +0.000 C 
ATOM     36  C26 UNL A   1      13.820  47.267   2.387  1.00  0.00    +0.000 C 
ATOM     37  C27 UNL A   1      14.680  47.408   1.294  1.00  0.00    +0.000 C 
ATOM     38  C28 UNL A   1      15.171  48.703   1.288  1.00  0.00    +0.000 C 
ATOM     39  N4  UNL A   1      14.618  49.342   2.386  1.00  0.00    +0.000 N 
ATOM     40  C29 UNL A   1      16.085  49.312   0.359  1.00  0.00    +0.000 C 
ATOM     52  C36 UNL A   1      16.456  50.616   0.379  1.00  0.00    +0.000 C 
ATOM     53  N5  UNL A   1      16.074  51.617   1.260  1.00  0.00    +0.000 N 
ATOM     54  C37 UNL A   1      16.715  52.693   0.880  1.00  0.00    +0.000 C 
ATOM     55  C38 UNL A   1      16.673  54.078   1.467  1.00  0.00    +0.000 C 
ATOM     67  C45 UNL A   1      15.872  54.325   2.521  1.00  0.00    +0.000 C 
ATOM     68  C46 UNL A   1      15.742  55.610   3.198  1.00  0.00    +0.000 C 
ATOM     69  C47 UNL A   1      14.930  55.467   4.257  1.00  0.00    +0.000 C 
ATOM     70  C48 UNL A   1      14.451  54.084   4.311  1.00  0.00    +0.000 C 
ATOM     71  N6  UNL A   1      15.034  53.489   3.218  1.00  0.00    +0.000 N 
ATOM     72  C49 UNL A   1      17.592  52.491  -0.282  1.00  0.00    +0.000 C 
ATOM     73  C50 UNL A   1      17.370  51.216  -0.569  1.00  0.00    +0.000 C 
ATOM     74  C51 UNL A   1      12.315  50.348   6.053  1.00  0.00    +0.000 C 
ATOM     75  C52 UNL A   1      12.376  51.649   6.308  1.00  0.00    +0.000 C 
ATOM    112  H21 UNL A   1      13.287  46.417   2.632  1.00  0.00    +0.000 H 
ATOM    113  H22 UNL A   1      14.911  46.672   0.607  1.00  0.00    +0.000 H 
ATOM    114  H23 UNL A   1      14.778  50.282   2.634  1.00  0.00    +0.000 H 
ATOM    115  H24 UNL A   1      16.201  56.489   2.910  1.00  0.00    +0.000 H 
ATOM    116  H25 UNL A   1      14.683  56.212   4.926  1.00  0.00    +0.000 H 
ATOM    117  H26 UNL A   1      14.866  52.554   2.959  1.00  0.00    +0.000 H 
ATOM    118  H27 UNL A   1      18.217  53.164  -0.751  1.00  0.00    +0.000 H 
ATOM    119  H28 UNL A   1      17.794  50.716  -1.366  1.00  0.00    +0.000 H 
ATOM    120  H29 UNL A   1      11.807  49.663   6.634  1.00  0.00    +0.000 H 
ATOM    121  H30 UNL A   1      11.917  52.188   7.059  1.00  0.00    +0.000 H 
ENDROOT
BRANCH   19   18
ATOM     76  C53 UNL A   1      11.975  55.103   6.320  1.00  0.00    +0.000 C 
ATOM     77  C54 UNL A   1      11.511  55.849   7.402  1.00  0.00    +0.000 C 
ATOM    110  H19 UNL A   1      14.081  55.365   9.505  1.00  0.00    +0.000 H 
ATOM     15  C11 UNL A   1      12.247  55.879   8.590  1.00  0.00    +0.000 C 
ATOM     16  C12 UNL A   1      13.511  55.286   8.649  1.00  0.00    +0.000 C 
ATOM     17  C13 UNL A   1      14.000  54.584   7.544  1.00  0.00    +0.000 C 
ATOM    111  H20 UNL A   1      14.943  54.165   7.578  1.00  0.00    +0.000 H 
ATOM     18  C14 UNL A   1      13.215  54.449   6.387  1.00  0.00    +0.000 C 
ATOM    122  H31 UNL A   1      11.403  55.031   5.463  1.00  0.00    +0.000 H 
ATOM    123  H32 UNL A   1      10.628  56.377   7.326  1.00  0.00    +0.000 H 
BRANCH   15   13
ATOM     13  C10 UNL A   1      11.707  56.529   9.805  1.00  0.00    +0.000 C 
ATOM     14  O2  UNL A   1      11.453  57.730   9.790  1.00  0.00    +0.000 O 
BRANCH   13   12
ATOM     12  N2  UNL A   1      11.515  55.794  10.948  1.00  0.00    +0.000 N 
ATOM    109  H18 UNL A   1      11.682  56.274  11.791  1.00  0.00    +0.000 H 
BRANCH   12   11
ATOM     11  C9  UNL A   1      11.100  54.408  11.093  1.00  0.00    +0.000 C 
ATOM    108  H17 UNL A   1      10.848  54.040  10.120  1.00  0.00    +0.000 H 
ATOM    107  H16 UNL A   1      10.261  54.367  11.757  1.00  0.00    +0.000 H 
BRANCH   11   10
ATOM    105  H14 UNL A   1      13.017  53.516  10.950  1.00  0.00    +0.000 H 
ATOM     10  C8  UNL A   1      12.210  53.522  11.652  1.00  0.00    +0.000 C 
ATOM    106  H15 UNL A   1      12.476  53.939  12.601  1.00  0.00    +0.000 H 
BRANCH   10    9
ATOM      9  C7  UNL A   1      11.805  52.070  11.922  1.00  0.00    +0.000 C 
ATOM    103  H12 UNL A   1      10.740  52.005  11.842  1.00  0.00    +0.000 H 
ATOM    104  H13 UNL A   1      12.327  51.479  11.198  1.00  0.00    +0.000 H 
BRANCH    9    8
ATOM    101  H10 UNL A   1      12.902  52.210  13.731  1.00  0.00    +0.000 H 
ATOM    102  H11 UNL A   1      11.303  51.406  13.844  1.00  0.00    +0.000 H 
ATOM      8  C6  UNL A   1      12.212  51.520  13.292  1.00  0.00    +0.000 C 
BRANCH    8    7
ATOM     99  H8  UNL A   1      12.743  49.711  12.305  1.00  0.00    +0.000 H 
ATOM    100  H9  UNL A   1      13.901  50.286  13.537  1.00  0.00    +0.000 H 
ATOM      7  C5  UNL A   1      12.873  50.134  13.279  1.00  0.00    +0.000 C 
BRANCH    7    6
ATOM     97  H6  UNL A   1      13.108  48.790  14.922  1.00  0.00    +0.000 H 
ATOM     98  H7  UNL A   1      11.579  49.659  14.899  1.00  0.00    +0.000 H 
ATOM      6  C4  UNL A   1      12.310  49.150  14.306  1.00  0.00    +0.000 C 
BRANCH    6    5
ATOM      5  N1  UNL A   1      11.672  48.026  13.655  1.00  0.00    +0.000 N 
ATOM     96  H5  UNL A   1      10.692  48.088  13.594  1.00  0.00    +0.000 H 
BRANCH    5    3
ATOM      3  C3  UNL A   1      12.206  46.896  13.110  1.00  0.00    +0.000 C 
ATOM      4  O1  UNL A   1      12.855  46.179  13.876  1.00  0.00    +0.000 O 
BRANCH    3    2
ATOM      2  C2  UNL A   1      12.020  46.587  11.610  1.00  0.00    +0.000 C 
ATOM     95  H4  UNL A   1      10.971  46.690  11.430  1.00  0.00    +0.000 H 
BRANCH    2    1
ATOM      1  C1  UNL A   1      12.430  45.157  11.241  1.00  0.00    +0.000 C 
ATOM     92  H1  UNL A   1      12.848  45.149  10.256  1.00  0.00    +0.000 H 
ATOM     93  H2  UNL A   1      11.570  44.521  11.268  1.00  0.00    +0.000 H 
ATOM     94  H3  UNL A   1      13.158  44.802  11.941  1.00  0.00    +0.000 H 
ENDBRANCH    2    1
BRANCH    2   78
ATOM    135  H44 UNL A   1      12.500  50.363   8.852  1.00  0.00    +0.000 H 
ATOM     78  C55 UNL A   1      12.782  47.576  10.723  1.00  0.00    +0.000 C 
ATOM     79  C56 UNL A   1      14.165  47.381  10.530  1.00  0.00    +0.000 C 
ATOM     80  C57 UNL A   1      14.927  48.254   9.754  1.00  0.00    +0.000 C 
ATOM     81  C58 UNL A   1      14.335  49.368   9.157  1.00  0.00    +0.000 C 
ATOM     89  C65 UNL A   1      12.956  49.559   9.312  1.00  0.00    +0.000 C 
ATOM     90  C66 UNL A   1      12.185  48.675  10.083  1.00  0.00    +0.000 C 
ATOM     91 Br1  UNL A   1      10.325  49.057  10.195  1.00  0.00    +0.000 Br
ATOM    124  H33 UNL A   1      14.625  46.572  10.974  1.00  0.00    +0.000 H 
ATOM    125  H34 UNL A   1      15.934  48.075   9.620  1.00  0.00    +0.000 H 
BRANCH   81   82
ATOM     82  C59 UNL A   1      15.176  50.358   8.387  1.00  0.00    +0.000 C 
ATOM    126  H35 UNL A   1      14.522  50.915   7.749  1.00  0.00    +0.000 H 
ATOM    127  H36 UNL A   1      15.904  49.771   7.867  1.00  0.00    +0.000 H 
BRANCH   82   83
ATOM    129  H38 UNL A   1      14.246  51.741  10.445  1.00  0.00    +0.000 H 
ATOM    130  H39 UNL A   1      15.497  52.907  10.663  1.00  0.00    +0.000 H 
ATOM    131  H40 UNL A   1      15.328  50.106  11.738  1.00  0.00    +0.000 H 
ATOM    132  H41 UNL A   1      15.800  51.523  12.587  1.00  0.00    +0.000 H 
ATOM    133  H42 UNL A   1      17.635  49.787  11.613  1.00  0.00    +0.000 H 
ATOM    134  H43 UNL A   1      18.012  51.443  11.681  1.00  0.00    +0.000 H 
ATOM     83  C60 UNL A   1      15.978  51.360   9.226  1.00  0.00    +0.000 C 
ATOM     84  C61 UNL A   1      15.307  51.866  10.508  1.00  0.00    +0.000 C 
ATOM     85  C62 UNL A   1      15.873  51.022  11.645  1.00  0.00    +0.000 C 
ATOM     86  C63 UNL A   1      17.319  50.745  11.260  1.00  0.00    +0.000 C 
ATOM     87  C64 UNL A   1      17.272  50.783   9.755  1.00  0.00    +0.000 C 
ATOM     88  O3  UNL A   1      18.192  50.408   9.038  1.00  0.00    +0.000 O 
ATOM    128  H37 UNL A   1      16.095  52.150   8.513  1.00  0.00    +0.000 H 
ENDBRANCH   82   83
ENDBRANCH   81   82
ENDBRANCH    2   78
ENDBRANCH    3    2
ENDBRANCH    5    3
ENDBRANCH    6    5
ENDBRANCH    7    6
ENDBRANCH    8    7
ENDBRANCH    9    8
ENDBRANCH   10    9
ENDBRANCH   11   10
ENDBRANCH   12   11
ENDBRANCH   13   12
ENDBRANCH   15   13
ENDBRANCH   19   18
BRANCH   23   24
ATOM     33  C24 UNL A   1      11.127  47.247   4.543  1.00  0.00    +0.000 C 
ATOM     34  F5  UNL A   1      10.594  47.787   3.437  1.00  0.00    +0.000 F 
ATOM     24  C19 UNL A   1      12.387  47.666   4.997  1.00  0.00    +0.000 C 
ATOM     25  C20 UNL A   1      12.898  47.075   6.162  1.00  0.00    +0.000 C 
ATOM     26  F1  UNL A   1      14.101  47.437   6.630  1.00  0.00    +0.000 F 
ATOM     27  C21 UNL A   1      12.176  46.097   6.842  1.00  0.00    +0.000 C 
ATOM     28  F2  UNL A   1      12.692  45.530   7.941  1.00  0.00    +0.000 F 
ATOM     29  C22 UNL A   1      10.924  45.711   6.385  1.00  0.00    +0.000 C 
ATOM     30  F3  UNL A   1      10.223  44.783   7.053  1.00  0.00    +0.000 F 
ATOM     31  C23 UNL A   1      10.399  46.286   5.237  1.00  0.00    +0.000 C 
ATOM     32  F4  UNL A   1       9.185  45.921   4.802  1.00  0.00    +0.000 F 
ENDBRANCH   23   24
BRANCH   40   41
ATOM     41  C30 UNL A   1      16.666  48.451  -0.721  1.00  0.00    +0.000 C 
ATOM     42  C31 UNL A   1      17.943  47.885  -0.592  1.00  0.00    +0.000 C 
ATOM     43  F6  UNL A   1      18.695  48.156   0.485  1.00  0.00    +0.000 F 
ATOM     44  C32 UNL A   1      18.465  47.067  -1.590  1.00  0.00    +0.000 C 
ATOM     45  F7  UNL A   1      19.704  46.570  -1.465  1.00  0.00    +0.000 F 
ATOM     46  C33 UNL A   1      17.713  46.777  -2.717  1.00  0.00    +0.000 C 
ATOM     47  F8  UNL A   1      18.215  45.983  -3.673  1.00  0.00    +0.000 F 
ATOM     48  C34 UNL A   1      16.442  47.315  -2.858  1.00  0.00    +0.000 C 
ATOM     49  F9  UNL A   1      15.710  47.026  -3.943  1.00  0.00    +0.000 F 
ATOM     50  C35 UNL A   1      15.926  48.154  -1.875  1.00  0.00    +0.000 C 
ATOM     51  F10 UNL A   1      14.699  48.667  -2.042  1.00  0.00    +0.000 F 
ENDBRANCH   40   41
BRANCH   55   56
ATOM     65  C44 UNL A   1      18.749  55.504   1.469  1.00  0.00    +0.000 C 
ATOM     66  F15 UNL A   1      19.181  54.863   2.564  1.00  0.00    +0.000 F 
ATOM     56  C39 UNL A   1      17.513  55.164   0.898  1.00  0.00    +0.000 C 
ATOM     57  C40 UNL A   1      17.106  55.867  -0.243  1.00  0.00    +0.000 C 
ATOM     58  F11 UNL A   1      15.943  55.560  -0.838  1.00  0.00    +0.000 F 
ATOM     59  C41 UNL A   1      17.913  56.852  -0.808  1.00  0.00    +0.000 C 
ATOM     60  F12 UNL A   1      17.523  57.473  -1.929  1.00  0.00    +0.000 F 
ATOM     61  C42 UNL A   1      19.129  57.174  -0.224  1.00  0.00    +0.000 C 
ATOM     62  F13 UNL A   1      19.907  58.120  -0.769  1.00  0.00    +0.000 F 
ATOM     63  C43 UNL A   1      19.543  56.508   0.920  1.00  0.00    +0.000 C 
ATOM     64  F14 UNL A   1      20.711  56.824   1.494  1.00  0.00    +0.000 F 
ENDBRANCH   55   56
TORSDOF 19
ENDMDL
MODEL 10
REMARK VINA RESULT:     -10.3     20.817     25.573
ROOT
ATOM     19  C15 UNL A   1      25.897  35.486  45.488  1.00  0.00    +0.000 C 
ATOM     20  C16 UNL A   1      27.211  35.485  44.762  1.00  0.00    +0.000 C 
ATOM     21  N3  UNL A   1      28.218  36.315  44.878  1.00  0.00    +0.000 N 
ATOM     22  C17 UNL A   1      29.199  35.842  44.017  1.00  0.00    +0.000 C 
ATOM     23  C18 UNL A   1      30.413  36.378  43.751  1.00  0.00    +0.000 C 
ATOM     35  C25 UNL A   1      30.907  37.602  44.326  1.00  0.00    +0.000 C 
ATOM     36  C26 UNL A   1      32.074  38.284  44.028  1.00  0.00    +0.000 C 
ATOM     37  C27 UNL A   1      32.162  39.392  44.876  1.00  0.00    +0.000 C 
ATOM     38  C28 UNL A   1      31.031  39.422  45.675  1.00  0.00    +0.000 C 
ATOM     39  N4  UNL A   1      30.265  38.324  45.320  1.00  0.00    +0.000 N 
ATOM     40  C29 UNL A   1      30.678  40.372  46.696  1.00  0.00    +0.000 C 
ATOM     52  C36 UNL A   1      29.509  40.375  47.381  1.00  0.00    +0.000 C 
ATOM     53  N5  UNL A   1      28.437  39.501  47.278  1.00  0.00    +0.000 N 
ATOM     54  C37 UNL A   1      27.558  39.904  48.160  1.00  0.00    +0.000 C 
ATOM     55  C38 UNL A   1      26.202  39.335  48.477  1.00  0.00    +0.000 C 
ATOM     67  C45 UNL A   1      25.753  38.272  47.782  1.00  0.00    +0.000 C 
ATOM     68  C46 UNL A   1      24.471  37.609  47.990  1.00  0.00    +0.000 C 
ATOM     69  C47 UNL A   1      24.397  36.537  47.186  1.00  0.00    +0.000 C 
ATOM     70  C48 UNL A   1      25.615  36.458  46.378  1.00  0.00    +0.000 C 
ATOM     71  N6  UNL A   1      26.347  37.552  46.774  1.00  0.00    +0.000 N 
ATOM     72  C49 UNL A   1      27.984  41.077  48.938  1.00  0.00    +0.000 C 
ATOM     73  C50 UNL A   1      29.165  41.344  48.399  1.00  0.00    +0.000 C 
ATOM     74  C51 UNL A   1      28.683  34.636  43.407  1.00  0.00    +0.000 C 
ATOM     75  C52 UNL A   1      27.437  34.398  43.796  1.00  0.00    +0.000 C 
ATOM    112  H21 UNL A   1      32.761  38.021  43.304  1.00  0.00    +0.000 H 
ATOM    113  H22 UNL A   1      32.938  40.073  44.904  1.00  0.00    +0.000 H 
ATOM    114  H23 UNL A   1      29.393  38.091  45.714  1.00  0.00    +0.000 H 
ATOM    115  H24 UNL A   1      23.737  37.916  48.649  1.00  0.00    +0.000 H 
ATOM    116  H25 UNL A   1      23.608  35.873  47.145  1.00  0.00    +0.000 H 
ATOM    117  H26 UNL A   1      27.212  37.796  46.373  1.00  0.00    +0.000 H 
ATOM    118  H27 UNL A   1      27.492  41.564  49.703  1.00  0.00    +0.000 H 
ATOM    119  H28 UNL A   1      29.761  42.141  48.671  1.00  0.00    +0.000 H 
ATOM    120  H29 UNL A   1      29.214  34.038  42.755  1.00  0.00    +0.000 H 
ATOM    121  H30 UNL A   1      26.793  33.648  43.500  1.00  0.00    +0.000 H 
ENDROOT
BRANCH   19   18
ATOM     76  C53 UNL A   1      25.072  33.207  46.087  1.00  0.00    +0.000 C 
ATOM     77  C54 UNL A   1      24.125  32.187  46.003  1.00  0.00    +0.000 C 
ATOM    110  H19 UNL A   1      22.072  33.567  43.736  1.00  0.00    +0.000 H 
ATOM     15  C11 UNL A   1      22.993  32.355  45.202  1.00  0.00    +0.000 C 
ATOM     16  C12 UNL A   1      22.877  33.477  44.375  1.00  0.00    +0.000 C 
ATOM     17  C13 UNL A   1      23.854  34.474  44.419  1.00  0.00    +0.000 C 
ATOM    111  H20 UNL A   1      23.782  35.292  43.793  1.00  0.00    +0.000 H 
ATOM     18  C14 UNL A   1      24.935  34.368  45.310  1.00  0.00    +0.000 C 
ATOM    122  H31 UNL A   1      25.878  33.109  46.724  1.00  0.00    +0.000 H 
ATOM    123  H32 UNL A   1      24.261  31.311  46.530  1.00  0.00    +0.000 H 
BRANCH   15   13
ATOM     13  C10 UNL A   1      21.896  31.362  45.213  1.00  0.00    +0.000 C 
ATOM     14  O2  UNL A   1      22.019  30.313  44.587  1.00  0.00    +0.000 O 
BRANCH   13   12
ATOM     12  N2  UNL A   1      20.739  31.626  45.903  1.00  0.00    +0.000 N 
ATOM    109  H18 UNL A   1      20.805  31.549  46.882  1.00  0.00    +0.000 H 
BRANCH   12   11
ATOM     11  C9  UNL A   1      19.430  32.003  45.395  1.00  0.00    +0.000 C 
ATOM    108  H17 UNL A   1      18.700  31.700  46.117  1.00  0.00    +0.000 H 
ATOM    107  H16 UNL A   1      19.274  31.520  44.453  1.00  0.00    +0.000 H 
BRANCH   11   10
ATOM    105  H14 UNL A   1      18.953  33.936  46.121  1.00  0.00    +0.000 H 
ATOM     10  C8  UNL A   1      19.291  33.511  45.200  1.00  0.00    +0.000 C 
ATOM    106  H15 UNL A   1      20.256  33.863  44.899  1.00  0.00    +0.000 H 
BRANCH   10    9
ATOM      9  C7  UNL A   1      18.318  33.933  44.097  1.00  0.00    +0.000 C 
ATOM    103  H12 UNL A   1      18.737  34.779  43.592  1.00  0.00    +0.000 H 
ATOM    104  H13 UNL A   1      18.195  33.076  43.467  1.00  0.00    +0.000 H 
BRANCH    9    8
ATOM    101  H10 UNL A   1      16.729  33.802  45.495  1.00  0.00    +0.000 H 
ATOM    102  H11 UNL A   1      16.912  35.380  44.662  1.00  0.00    +0.000 H 
ATOM      8  C6  UNL A   1      16.913  34.314  44.573  1.00  0.00    +0.000 C 
BRANCH    8    7
ATOM     99  H8  UNL A   1      15.065  34.775  43.625  1.00  0.00    +0.000 H 
ATOM    100  H9  UNL A   1      16.218  33.825  42.647  1.00  0.00    +0.000 H 
ATOM      7  C5  UNL A   1      15.769  33.970  43.607  1.00  0.00    +0.000 C 
BRANCH    7    6
ATOM     97  H6  UNL A   1      15.343  32.322  44.896  1.00  0.00    +0.000 H 
ATOM     98  H7  UNL A   1      13.974  32.881  43.945  1.00  0.00    +0.000 H 
ATOM      6  C4  UNL A   1      15.024  32.675  43.937  1.00  0.00    +0.000 C 
BRANCH    6    5
ATOM      5  N1  UNL A   1      15.286  31.656  42.945  1.00  0.00    +0.000 N 
ATOM     96  H5  UNL A   1      14.540  31.480  42.328  1.00  0.00    +0.000 H 
BRANCH    5    3
ATOM      3  C3  UNL A   1      16.399  30.899  42.723  1.00  0.00    +0.000 C 
ATOM      4  O1  UNL A   1      17.226  31.367  41.935  1.00  0.00    +0.000 O 
BRANCH    3    2
ATOM      2  C2  UNL A   1      16.559  29.525  43.404  1.00  0.00    +0.000 C 
ATOM     95  H4  UNL A   1      16.020  29.603  44.324  1.00  0.00    +0.000 H 
BRANCH    2    1
ATOM      1  C1  UNL A   1      18.018  29.189  43.733  1.00  0.00    +0.000 C 
ATOM     92  H1  UNL A   1      18.606  30.083  43.702  1.00  0.00    +0.000 H 
ATOM     93  H2  UNL A   1      18.394  28.491  43.014  1.00  0.00    +0.000 H 
ATOM     94  H3  UNL A   1      18.074  28.759  44.711  1.00  0.00    +0.000 H 
ENDBRANCH    2    1
BRANCH    2   78
ATOM    135  H44 UNL A   1      14.658  25.288  42.672  1.00  0.00    +0.000 H 
ATOM     78  C55 UNL A   1      15.958  28.394  42.564  1.00  0.00    +0.000 C 
ATOM     79  C56 UNL A   1      15.811  28.591  41.176  1.00  0.00    +0.000 C 
ATOM     80  C57 UNL A   1      15.251  27.616  40.352  1.00  0.00    +0.000 C 
ATOM     81  C58 UNL A   1      14.797  26.411  40.892  1.00  0.00    +0.000 C 
ATOM     89  C65 UNL A   1      14.963  26.186  42.265  1.00  0.00    +0.000 C 
ATOM     90  C66 UNL A   1      15.538  27.163  43.093  1.00  0.00    +0.000 C 
ATOM     91 Br1  UNL A   1      15.708  26.711  44.933  1.00  0.00    +0.000 Br
ATOM    124  H33 UNL A   1      16.127  29.479  40.758  1.00  0.00    +0.000 H 
ATOM    125  H34 UNL A   1      15.171  27.784  39.338  1.00  0.00    +0.000 H 
BRANCH   81   82
ATOM     82  C59 UNL A   1      14.114  25.391  40.014  1.00  0.00    +0.000 C 
ATOM    126  H35 UNL A   1      14.127  25.763  39.010  1.00  0.00    +0.000 H 
ATOM    127  H36 UNL A   1      13.134  25.269  40.425  1.00  0.00    +0.000 H 
BRANCH   82   83
ATOM    129  H38 UNL A   1      13.104  23.247  41.197  1.00  0.00    +0.000 H 
ATOM    130  H39 UNL A   1      14.439  22.159  41.122  1.00  0.00    +0.000 H 
ATOM    131  H40 UNL A   1      12.337  22.703  39.045  1.00  0.00    +0.000 H 
ATOM    132  H41 UNL A   1      12.937  21.174  39.547  1.00  0.00    +0.000 H 
ATOM    133  H42 UNL A   1      13.818  22.357  37.277  1.00  0.00    +0.000 H 
ATOM    134  H43 UNL A   1      14.882  21.379  38.172  1.00  0.00    +0.000 H 
ATOM     83  C60 UNL A   1      14.733  23.988  40.001  1.00  0.00    +0.000 C 
ATOM     84  C61 UNL A   1      13.861  22.854  40.550  1.00  0.00    +0.000 C 
ATOM     85  C62 UNL A   1      13.224  22.183  39.338  1.00  0.00    +0.000 C 
ATOM     86  C63 UNL A   1      14.274  22.256  38.239  1.00  0.00    +0.000 C 
ATOM     87  C64 UNL A   1      15.048  23.496  38.607  1.00  0.00    +0.000 C 
ATOM     88  O3  UNL A   1      15.862  24.032  37.864  1.00  0.00    +0.000 O 
ATOM    128  H37 UNL A   1      15.588  24.155  40.623  1.00  0.00    +0.000 H 
ENDBRANCH   82   83
ENDBRANCH   81   82
ENDBRANCH    2   78
ENDBRANCH    3    2
ENDBRANCH    5    3
ENDBRANCH    6    5
ENDBRANCH    7    6
ENDBRANCH    8    7
ENDBRANCH    9    8
ENDBRANCH   10    9
ENDBRANCH   11   10
ENDBRANCH   12   11
ENDBRANCH   13   12
ENDBRANCH   15   13
ENDBRANCH   19   18
BRANCH   23   24
ATOM     33  C24 UNL A   1      31.351  36.047  41.440  1.00  0.00    +0.000 C 
ATOM     34  F5  UNL A   1      30.655  37.114  41.021  1.00  0.00    +0.000 F 
ATOM     24  C19 UNL A   1      31.307  35.658  42.787  1.00  0.00    +0.000 C 
ATOM     25  C20 UNL A   1      32.047  34.532  43.173  1.00  0.00    +0.000 C 
ATOM     26  F1  UNL A   1      32.041  34.126  44.451  1.00  0.00    +0.000 F 
ATOM     27  C21 UNL A   1      32.808  33.824  42.245  1.00  0.00    +0.000 C 
ATOM     28  F2  UNL A   1      33.524  32.763  42.639  1.00  0.00    +0.000 F 
ATOM     29  C22 UNL A   1      32.823  34.215  40.914  1.00  0.00    +0.000 C 
ATOM     30  F3  UNL A   1      33.540  33.522  40.019  1.00  0.00    +0.000 F 
ATOM     31  C23 UNL A   1      32.095  35.325  40.511  1.00  0.00    +0.000 C 
ATOM     32  F4  UNL A   1      32.101  35.697  39.223  1.00  0.00    +0.000 F 
ENDBRANCH   23   24
BRANCH   40   41
ATOM     41  C30 UNL A   1      31.667  41.450  47.024  1.00  0.00    +0.000 C 
ATOM     42  C31 UNL A   1      32.828  41.172  47.759  1.00  0.00    +0.000 C 
ATOM     43  F6  UNL A   1      33.047  39.937  48.235  1.00  0.00    +0.000 F 
ATOM     44  C32 UNL A   1      33.753  42.174  48.039  1.00  0.00    +0.000 C 
ATOM     45  F7  UNL A   1      34.836  41.896  48.779  1.00  0.00    +0.000 F 
ATOM     46  C33 UNL A   1      33.549  43.461  47.566  1.00  0.00    +0.000 C 
ATOM     47  F8  UNL A   1      34.445  44.423  47.831  1.00  0.00    +0.000 F 
ATOM     48  C34 UNL A   1      32.414  43.755  46.825  1.00  0.00    +0.000 C 
ATOM     49  F9  UNL A   1      32.221  44.996  46.359  1.00  0.00    +0.000 F 
ATOM     50  C35 UNL A   1      31.474  42.762  46.565  1.00  0.00    +0.000 C 
ATOM     51  F10 UNL A   1      30.382  43.075  45.854  1.00  0.00    +0.000 F 
ENDBRANCH   40   41
BRANCH   55   56
ATOM     65  C44 UNL A   1      24.463  40.968  49.281  1.00  0.00    +0.000 C 
ATOM     66  F15 UNL A   1      24.359  41.461  48.039  1.00  0.00    +0.000 F 
ATOM     56  C39 UNL A   1      25.366  39.930  49.552  1.00  0.00    +0.000 C 
ATOM     57  C40 UNL A   1      25.438  39.454  50.868  1.00  0.00    +0.000 C 
ATOM     58  F11 UNL A   1      26.270  38.446  51.170  1.00  0.00    +0.000 F 
ATOM     59  C41 UNL A   1      24.621  39.977  51.868  1.00  0.00    +0.000 C 
ATOM     60  F12 UNL A   1      24.674  39.469  53.107  1.00  0.00    +0.000 F 
ATOM     61  C42 UNL A   1      23.738  41.007  51.577  1.00  0.00    +0.000 C 
ATOM     62  F13 UNL A   1      22.951  41.507  52.539  1.00  0.00    +0.000 F 
ATOM     63  C43 UNL A   1      23.666  41.509  50.287  1.00  0.00    +0.000 C 
ATOM     64  F14 UNL A   1      22.823  42.512  50.005  1.00  0.00    +0.000 F 
ENDBRANCH   55   56
TORSDOF 19
ENDMDL
