MODEL 1
REMARK VINA RESULT:     -11.1      0.000      0.000
ROOT
ATOM     19  C15 UNL A   1      41.486  26.004  27.923  1.00  0.00    +0.000 C 
ATOM     20  C16 UNL A   1      40.739  27.102  28.623  1.00  0.00    +0.000 C 
ATOM     21  N3  UNL A   1      41.131  28.320  28.901  1.00  0.00    +0.000 N 
ATOM     22  C17 UNL A   1      40.045  28.936  29.508  1.00  0.00    +0.000 C 
ATOM     23  C18 UNL A   1      39.965  30.192  30.008  1.00  0.00    +0.000 C 
ATOM     35  C25 UNL A   1      41.054  31.132  30.026  1.00  0.00    +0.000 C 
ATOM     36  C26 UNL A   1      41.106  32.378  30.627  1.00  0.00    +0.000 C 
ATOM     37  C27 UNL A   1      42.345  32.954  30.329  1.00  0.00    +0.000 C 
ATOM     38  C28 UNL A   1      43.078  32.052  29.576  1.00  0.00    +0.000 C 
ATOM     39  N4  UNL A   1      42.278  30.933  29.408  1.00  0.00    +0.000 N 
ATOM     40  C29 UNL A   1      44.403  32.201  29.035  1.00  0.00    +0.000 C 
ATOM     52  C36 UNL A   1      45.087  31.232  28.380  1.00  0.00    +0.000 C 
ATOM     53  N5  UNL A   1      44.688  29.938  28.079  1.00  0.00    +0.000 N 
ATOM     54  C37 UNL A   1      45.686  29.398  27.423  1.00  0.00    +0.000 C 
ATOM     55  C38 UNL A   1      45.808  28.010  26.858  1.00  0.00    +0.000 C 
ATOM     67  C45 UNL A   1      44.799  27.135  27.033  1.00  0.00    +0.000 C 
ATOM     68  C46 UNL A   1      44.772  25.768  26.524  1.00  0.00    +0.000 C 
ATOM     69  C47 UNL A   1      43.573  25.225  26.793  1.00  0.00    +0.000 C 
ATOM     70  C48 UNL A   1      42.761  26.196  27.529  1.00  0.00    +0.000 C 
ATOM     71  N6  UNL A   1      43.588  27.284  27.666  1.00  0.00    +0.000 N 
ATOM     72  C49 UNL A   1      46.829  30.302  27.220  1.00  0.00    +0.000 C 
ATOM     73  C50 UNL A   1      46.423  31.395  27.851  1.00  0.00    +0.000 C 
ATOM     74  C51 UNL A   1      38.969  27.970  29.534  1.00  0.00    +0.000 C 
ATOM     75  C52 UNL A   1      39.362  26.802  29.045  1.00  0.00    +0.000 C 
ATOM    111  H21 UNL A   1      40.360  32.807  31.195  1.00  0.00    +0.000 H 
ATOM    112  H22 UNL A   1      42.659  33.893  30.621  1.00  0.00    +0.000 H 
ATOM    113  H23 UNL A   1      42.542  30.118  28.922  1.00  0.00    +0.000 H 
ATOM    114  H24 UNL A   1      45.548  25.294  26.036  1.00  0.00    +0.000 H 
ATOM    115  H25 UNL A   1      43.272  24.276  26.524  1.00  0.00    +0.000 H 
ATOM    116  H26 UNL A   1      43.338  28.093  28.168  1.00  0.00    +0.000 H 
ATOM    117  H27 UNL A   1      47.713  30.130  26.718  1.00  0.00    +0.000 H 
ATOM    118  H28 UNL A   1      46.990  32.252  27.951  1.00  0.00    +0.000 H 
ATOM    119  H29 UNL A   1      38.018  28.166  29.886  1.00  0.00    +0.000 H 
ATOM    120  H30 UNL A   1      38.840  25.915  28.978  1.00  0.00    +0.000 H 
ENDROOT
BRANCH   19   18
ATOM     76  C53 UNL A   1      39.698  24.781  26.688  1.00  0.00    +0.000 C 
ATOM    109  H19 UNL A   1      41.038  21.401  27.886  1.00  0.00    +0.000 H 
ATOM     77  C54 UNL A   1      39.091  23.602  26.264  1.00  0.00    +0.000 C 
ATOM     15  C11 UNL A   1      39.629  22.370  26.643  1.00  0.00    +0.000 C 
ATOM     16  C12 UNL A   1      40.685  22.314  27.558  1.00  0.00    +0.000 C 
ATOM     17  C13 UNL A   1      41.257  23.498  28.027  1.00  0.00    +0.000 C 
ATOM    110  H20 UNL A   1      42.022  23.460  28.719  1.00  0.00    +0.000 H 
ATOM     18  C14 UNL A   1      40.798  24.740  27.559  1.00  0.00    +0.000 C 
ATOM    121  H31 UNL A   1      39.337  25.691  26.361  1.00  0.00    +0.000 H 
ATOM    122  H32 UNL A   1      38.246  23.638  25.671  1.00  0.00    +0.000 H 
BRANCH   15   13
ATOM     13  C10 UNL A   1      39.108  21.108  26.075  1.00  0.00    +0.000 C 
ATOM     14  O2  UNL A   1      39.863  20.153  25.915  1.00  0.00    +0.000 O 
BRANCH   13   12
ATOM    108  H18 UNL A   1      37.163  20.770  26.426  1.00  0.00    +0.000 H 
ATOM     12  N2  UNL A   1      37.788  21.020  25.708  1.00  0.00    +0.000 N 
BRANCH   12   11
ATOM    106  H16 UNL A   1      37.932  21.616  23.736  1.00  0.00    +0.000 H 
ATOM     11  C9  UNL A   1      37.182  21.247  24.403  1.00  0.00    +0.000 C 
ATOM    107  H17 UNL A   1      36.780  20.315  24.065  1.00  0.00    +0.000 H 
BRANCH   11   10
ATOM    105  H15 UNL A   1      35.265  21.869  23.829  1.00  0.00    +0.000 H 
ATOM     10  C8  UNL A   1      36.037  22.254  24.461  1.00  0.00    +0.000 C 
ATOM    104  H14 UNL A   1      36.413  23.203  24.141  1.00  0.00    +0.000 H 
BRANCH   10    9
ATOM      9  C7  UNL A   1      35.408  22.435  25.845  1.00  0.00    +0.000 C 
ATOM    102  H12 UNL A   1      34.717  21.634  26.002  1.00  0.00    +0.000 H 
ATOM    103  H13 UNL A   1      36.220  22.442  26.542  1.00  0.00    +0.000 H 
BRANCH    9    8
ATOM    100  H10 UNL A   1      33.611  23.538  26.075  1.00  0.00    +0.000 H 
ATOM    101  H11 UNL A   1      35.033  24.167  26.965  1.00  0.00    +0.000 H 
ATOM      8  C6  UNL A   1      34.659  23.755  26.051  1.00  0.00    +0.000 C 
BRANCH    8    7
ATOM     98  H8  UNL A   1      35.946  25.025  24.931  1.00  0.00    +0.000 H 
ATOM     99  H9  UNL A   1      34.510  24.425  24.061  1.00  0.00    +0.000 H 
ATOM      7  C5  UNL A   1      34.897  24.824  24.975  1.00  0.00    +0.000 C 
BRANCH    7    6
ATOM     97  H7  UNL A   1      34.751  26.943  24.817  1.00  0.00    +0.000 H 
ATOM      6  C4  UNL A   1      34.164  26.144  25.221  1.00  0.00    +0.000 C 
ATOM     96  H6  UNL A   1      34.028  26.279  26.274  1.00  0.00    +0.000 H 
BRANCH    6    5
ATOM      5  N1  UNL A   1      32.870  26.145  24.571  1.00  0.00    +0.000 N 
ATOM     95  H5  UNL A   1      32.127  26.488  25.117  1.00  0.00    +0.000 H 
BRANCH    5    3
ATOM      3  C3  UNL A   1      32.531  25.737  23.314  1.00  0.00    +0.000 C 
ATOM      4  O1  UNL A   1      33.179  26.221  22.383  1.00  0.00    +0.000 O 
BRANCH    3    2
ATOM      2  C2  UNL A   1      31.380  24.741  23.116  1.00  0.00    +0.000 C 
ATOM     94  H4  UNL A   1      31.259  24.635  22.058  1.00  0.00    +0.000 H 
BRANCH    2    1
ATOM      1  C1  UNL A   1      30.057  25.260  23.685  1.00  0.00    +0.000 C 
ATOM     91  H1  UNL A   1      30.201  25.561  24.702  1.00  0.00    +0.000 H 
ATOM     92  H2  UNL A   1      29.322  24.483  23.644  1.00  0.00    +0.000 H 
ATOM     93  H3  UNL A   1      29.725  26.097  23.108  1.00  0.00    +0.000 H 
ENDBRANCH    2    1
BRANCH    2   78
ATOM    134  H44 UNL A   1      33.392  20.565  22.918  1.00  0.00    +0.000 H 
ATOM     78  C55 UNL A   1      31.710  23.375  23.697  1.00  0.00    +0.000 C 
ATOM     79  C56 UNL A   1      31.260  22.983  24.965  1.00  0.00    +0.000 C 
ATOM     80  C57 UNL A   1      31.568  21.716  25.465  1.00  0.00    +0.000 C 
ATOM     81  C58 UNL A   1      32.324  20.811  24.715  1.00  0.00    +0.000 C 
ATOM     88  C64 UNL A   1      32.805  21.207  23.472  1.00  0.00    +0.000 C 
ATOM     89  C65 UNL A   1      32.495  22.472  22.976  1.00  0.00    +0.000 C 
ATOM     90  F16 UNL A   1      32.960  22.812  21.764  1.00  0.00    +0.000 F 
ATOM    123  H33 UNL A   1      30.696  23.634  25.532  1.00  0.00    +0.000 H 
ATOM    124  H34 UNL A   1      31.234  21.444  26.402  1.00  0.00    +0.000 H 
BRANCH   81   82
ATOM     82  O3  UNL A   1      32.519  19.611  25.328  1.00  0.00    +0.000 O 
BRANCH   82   83
ATOM    129  H39 UNL A   1      34.300  16.599  22.956  1.00  0.00    +0.000 H 
ATOM    130  H40 UNL A   1      33.738  15.628  25.713  1.00  0.00    +0.000 H 
ATOM    131  H41 UNL A   1      32.881  15.257  24.257  1.00  0.00    +0.000 H 
ATOM    132  H42 UNL A   1      31.371  16.922  24.687  1.00  0.00    +0.000 H 
ATOM    133  H43 UNL A   1      32.120  17.180  26.213  1.00  0.00    +0.000 H 
ATOM     83  C59 UNL A   1      32.895  18.436  24.627  1.00  0.00    +0.000 C 
ATOM     84  C60 UNL A   1      34.387  18.192  24.412  1.00  0.00    +0.000 C 
ATOM     85  C61 UNL A   1      34.438  16.728  24.009  1.00  0.00    +0.000 C 
ATOM     86  C62 UNL A   1      33.332  16.050  24.817  1.00  0.00    +0.000 C 
ATOM     87  C63 UNL A   1      32.307  17.130  25.160  1.00  0.00    +0.000 C 
ATOM    125  H35 UNL A   1      32.455  18.684  23.683  1.00  0.00    +0.000 H 
ATOM    126  H36 UNL A   1      34.938  18.364  25.313  1.00  0.00    +0.000 H 
ATOM    127  H37 UNL A   1      34.821  18.846  23.684  1.00  0.00    +0.000 H 
ATOM    128  H38 UNL A   1      35.391  16.306  24.251  1.00  0.00    +0.000 H 
ENDBRANCH   82   83
ENDBRANCH   81   82
ENDBRANCH    2   78
ENDBRANCH    3    2
ENDBRANCH    5    3
ENDBRANCH    6    5
ENDBRANCH    7    6
ENDBRANCH    8    7
ENDBRANCH    9    8
ENDBRANCH   10    9
ENDBRANCH   11   10
ENDBRANCH   12   11
ENDBRANCH   13   12
ENDBRANCH   15   13
ENDBRANCH   19   18
BRANCH   23   24
ATOM     33  C24 UNL A   1      37.659  31.169  29.764  1.00  0.00    +0.000 C 
ATOM     34  F5  UNL A   1      37.837  31.216  28.436  1.00  0.00    +0.000 F 
ATOM     24  C19 UNL A   1      38.658  30.634  30.593  1.00  0.00    +0.000 C 
ATOM     25  C20 UNL A   1      38.425  30.613  31.974  1.00  0.00    +0.000 C 
ATOM     26  F1  UNL A   1      39.347  30.106  32.807  1.00  0.00    +0.000 F 
ATOM     27  C21 UNL A   1      37.234  31.102  32.507  1.00  0.00    +0.000 C 
ATOM     28  F2  UNL A   1      37.023  31.051  33.829  1.00  0.00    +0.000 F 
ATOM     29  C22 UNL A   1      36.267  31.640  31.671  1.00  0.00    +0.000 C 
ATOM     30  F3  UNL A   1      35.129  32.125  32.187  1.00  0.00    +0.000 F 
ATOM     31  C23 UNL A   1      36.479  31.676  30.301  1.00  0.00    +0.000 C 
ATOM     32  F4  UNL A   1      35.551  32.207  29.493  1.00  0.00    +0.000 F 
ENDBRANCH   23   24
BRANCH   40   41
ATOM     41  C30 UNL A   1      45.086  33.523  29.216  1.00  0.00    +0.000 C 
ATOM     42  C31 UNL A   1      44.903  34.568  28.299  1.00  0.00    +0.000 C 
ATOM     43  F6  UNL A   1      44.157  34.377  27.200  1.00  0.00    +0.000 F 
ATOM     44  C32 UNL A   1      45.512  35.803  28.493  1.00  0.00    +0.000 C 
ATOM     45  F7  UNL A   1      45.352  36.777  27.587  1.00  0.00    +0.000 F 
ATOM     46  C33 UNL A   1      46.292  36.026  29.619  1.00  0.00    +0.000 C 
ATOM     47  F8  UNL A   1      46.869  37.221  29.809  1.00  0.00    +0.000 F 
ATOM     48  C34 UNL A   1      46.478  35.008  30.543  1.00  0.00    +0.000 C 
ATOM     49  F9  UNL A   1      47.223  35.226  31.636  1.00  0.00    +0.000 F 
ATOM     50  C35 UNL A   1      45.891  33.764  30.339  1.00  0.00    +0.000 C 
ATOM     51  F10 UNL A   1      46.093  32.796  31.246  1.00  0.00    +0.000 F 
ENDBRANCH   40   41
BRANCH   55   56
ATOM     65  C44 UNL A   1      48.140  27.068  26.759  1.00  0.00    +0.000 C 
ATOM     66  F15 UNL A   1      48.136  26.931  28.093  1.00  0.00    +0.000 F 
ATOM     56  C39 UNL A   1      47.022  27.605  26.104  1.00  0.00    +0.000 C 
ATOM     57  C40 UNL A   1      47.080  27.730  24.710  1.00  0.00    +0.000 C 
ATOM     58  F11 UNL A   1      46.025  28.217  24.039  1.00  0.00    +0.000 F 
ATOM     59  C41 UNL A   1      48.200  27.312  23.995  1.00  0.00    +0.000 C 
ATOM     60  F12 UNL A   1      48.209  27.398  22.658  1.00  0.00    +0.000 F 
ATOM     61  C42 UNL A   1      49.297  26.789  24.664  1.00  0.00    +0.000 C 
ATOM     62  F13 UNL A   1      50.374  26.387  23.977  1.00  0.00    +0.000 F 
ATOM     63  C43 UNL A   1      49.271  26.676  26.047  1.00  0.00    +0.000 C 
ATOM     64  F14 UNL A   1      50.333  26.182  26.697  1.00  0.00    +0.000 F 
ENDBRANCH   55   56
TORSDOF 19
ENDMDL
MODEL 2
REMARK VINA RESULT:     -10.9      4.466     10.075
ROOT
ATOM     19  C15 UNL A   1      38.147  30.759  29.915  1.00  0.00    +0.000 C 
ATOM     20  C16 UNL A   1      39.088  29.747  29.326  1.00  0.00    +0.000 C 
ATOM     21  N3  UNL A   1      40.113  29.152  29.881  1.00  0.00    +0.000 N 
ATOM     22  C17 UNL A   1      40.607  28.278  28.922  1.00  0.00    +0.000 C 
ATOM     23  C18 UNL A   1      41.683  27.461  29.006  1.00  0.00    +0.000 C 
ATOM     35  C25 UNL A   1      42.559  27.383  30.145  1.00  0.00    +0.000 C 
ATOM     36  C26 UNL A   1      43.746  26.683  30.272  1.00  0.00    +0.000 C 
ATOM     37  C27 UNL A   1      44.217  26.856  31.578  1.00  0.00    +0.000 C 
ATOM     38  C28 UNL A   1      43.343  27.694  32.250  1.00  0.00    +0.000 C 
ATOM     39  N4  UNL A   1      42.337  28.021  31.356  1.00  0.00    +0.000 N 
ATOM     40  C29 UNL A   1      43.409  28.154  33.612  1.00  0.00    +0.000 C 
ATOM     52  C36 UNL A   1      42.558  29.047  34.172  1.00  0.00    +0.000 C 
ATOM     53  N5  UNL A   1      41.469  29.688  33.599  1.00  0.00    +0.000 N 
ATOM     54  C37 UNL A   1      40.956  30.438  34.542  1.00  0.00    +0.000 C 
ATOM     55  C38 UNL A   1      39.767  31.356  34.481  1.00  0.00    +0.000 C 
ATOM     67  C45 UNL A   1      39.100  31.496  33.320  1.00  0.00    +0.000 C 
ATOM     68  C46 UNL A   1      37.921  32.332  33.121  1.00  0.00    +0.000 C 
ATOM     69  C47 UNL A   1      37.459  32.147  31.874  1.00  0.00    +0.000 C 
ATOM     70  C48 UNL A   1      38.335  31.207  31.172  1.00  0.00    +0.000 C 
ATOM     71  N6  UNL A   1      39.309  30.909  32.095  1.00  0.00    +0.000 N 
ATOM     72  C49 UNL A   1      41.658  30.343  35.832  1.00  0.00    +0.000 C 
ATOM     73  C50 UNL A   1      42.645  29.507  35.541  1.00  0.00    +0.000 C 
ATOM     74  C51 UNL A   1      39.754  28.397  27.760  1.00  0.00    +0.000 C 
ATOM     75  C52 UNL A   1      38.829  29.331  27.938  1.00  0.00    +0.000 C 
ATOM    111  H21 UNL A   1      44.204  26.129  29.533  1.00  0.00    +0.000 H 
ATOM    112  H22 UNL A   1      45.070  26.431  31.972  1.00  0.00    +0.000 H 
ATOM    113  H23 UNL A   1      41.577  28.616  31.551  1.00  0.00    +0.000 H 
ATOM    114  H24 UNL A   1      37.508  32.963  33.825  1.00  0.00    +0.000 H 
ATOM    115  H25 UNL A   1      36.621  32.596  31.473  1.00  0.00    +0.000 H 
ATOM    116  H26 UNL A   1      40.081  30.331  31.898  1.00  0.00    +0.000 H 
ATOM    117  H27 UNL A   1      41.439  30.806  36.727  1.00  0.00    +0.000 H 
ATOM    118  H28 UNL A   1      43.380  29.222  36.206  1.00  0.00    +0.000 H 
ATOM    119  H29 UNL A   1      39.851  27.829  26.904  1.00  0.00    +0.000 H 
ATOM    120  H30 UNL A   1      38.115  29.676  27.278  1.00  0.00    +0.000 H 
ENDROOT
BRANCH   19   18
ATOM     76  C53 UNL A   1      35.876  30.291  28.997  1.00  0.00    +0.000 C 
ATOM    109  H19 UNL A   1      35.530  33.891  27.740  1.00  0.00    +0.000 H 
ATOM     77  C54 UNL A   1      34.700  30.700  28.373  1.00  0.00    +0.000 C 
ATOM     15  C11 UNL A   1      34.550  32.034  27.984  1.00  0.00    +0.000 C 
ATOM     16  C12 UNL A   1      35.623  32.923  28.088  1.00  0.00    +0.000 C 
ATOM     17  C13 UNL A   1      36.822  32.496  28.663  1.00  0.00    +0.000 C 
ATOM    110  H20 UNL A   1      37.624  33.144  28.721  1.00  0.00    +0.000 H 
ATOM     18  C14 UNL A   1      36.941  31.190  29.164  1.00  0.00    +0.000 C 
ATOM    121  H31 UNL A   1      35.966  29.321  29.339  1.00  0.00    +0.000 H 
ATOM    122  H32 UNL A   1      33.943  30.021  28.199  1.00  0.00    +0.000 H 
BRANCH   15   13
ATOM     13  C10 UNL A   1      33.256  32.533  27.472  1.00  0.00    +0.000 C 
ATOM     14  O2  UNL A   1      32.869  33.655  27.782  1.00  0.00    +0.000 O 
BRANCH   13   12
ATOM    108  H18 UNL A   1      32.274  32.088  25.781  1.00  0.00    +0.000 H 
ATOM     12  N2  UNL A   1      32.483  31.726  26.672  1.00  0.00    +0.000 N 
BRANCH   12   11
ATOM    106  H16 UNL A   1      32.469  29.982  27.777  1.00  0.00    +0.000 H 
ATOM     11  C9  UNL A   1      31.929  30.411  26.958  1.00  0.00    +0.000 C 
ATOM    107  H17 UNL A   1      30.894  30.537  27.194  1.00  0.00    +0.000 H 
BRANCH   11   10
ATOM    105  H15 UNL A   1      32.160  30.089  24.901  1.00  0.00    +0.000 H 
ATOM     10  C8  UNL A   1      32.022  29.468  25.762  1.00  0.00    +0.000 C 
ATOM    104  H14 UNL A   1      31.125  28.887  25.726  1.00  0.00    +0.000 H 
BRANCH   10    9
ATOM      9  C7  UNL A   1      33.212  28.505  25.792  1.00  0.00    +0.000 C 
ATOM    102  H12 UNL A   1      33.642  28.480  24.813  1.00  0.00    +0.000 H 
ATOM    103  H13 UNL A   1      33.878  28.879  26.542  1.00  0.00    +0.000 H 
BRANCH    9    8
ATOM    100  H10 UNL A   1      32.846  27.027  27.269  1.00  0.00    +0.000 H 
ATOM    101  H11 UNL A   1      31.937  26.842  25.735  1.00  0.00    +0.000 H 
ATOM      8  C6  UNL A   1      32.875  27.068  26.199  1.00  0.00    +0.000 C 
BRANCH    8    7
ATOM     98  H8  UNL A   1      33.872  26.017  24.642  1.00  0.00    +0.000 H 
ATOM     99  H9  UNL A   1      34.808  26.234  26.145  1.00  0.00    +0.000 H 
ATOM      7  C5  UNL A   1      33.859  25.996  25.711  1.00  0.00    +0.000 C 
BRANCH    7    6
ATOM     97  H7  UNL A   1      32.546  24.576  26.603  1.00  0.00    +0.000 H 
ATOM      6  C4  UNL A   1      33.519  24.573  26.159  1.00  0.00    +0.000 C 
ATOM     96  H6  UNL A   1      34.250  24.244  26.868  1.00  0.00    +0.000 H 
BRANCH    6    5
ATOM      5  N1  UNL A   1      33.511  23.665  25.030  1.00  0.00    +0.000 N 
ATOM     95  H5  UNL A   1      34.398  23.376  24.719  1.00  0.00    +0.000 H 
BRANCH    5    3
ATOM      3  C3  UNL A   1      32.454  23.154  24.336  1.00  0.00    +0.000 C 
ATOM      4  O1  UNL A   1      31.767  22.310  24.917  1.00  0.00    +0.000 O 
BRANCH    3    2
ATOM      2  C2  UNL A   1      32.184  23.620  22.899  1.00  0.00    +0.000 C 
ATOM     94  H4  UNL A   1      31.355  23.040  22.549  1.00  0.00    +0.000 H 
BRANCH    2    1
ATOM      1  C1  UNL A   1      33.367  23.349  21.967  1.00  0.00    +0.000 C 
ATOM     91  H1  UNL A   1      34.269  23.693  22.427  1.00  0.00    +0.000 H 
ATOM     92  H2  UNL A   1      33.218  23.866  21.042  1.00  0.00    +0.000 H 
ATOM     93  H3  UNL A   1      33.439  22.297  21.780  1.00  0.00    +0.000 H 
ENDBRANCH    2    1
BRANCH    2   78
ATOM    134  H44 UNL A   1      29.287  27.137  23.775  1.00  0.00    +0.000 H 
ATOM     78  C55 UNL A   1      31.792  25.089  22.846  1.00  0.00    +0.000 C 
ATOM     79  C56 UNL A   1      32.625  26.056  22.267  1.00  0.00    +0.000 C 
ATOM     80  C57 UNL A   1      32.230  27.395  22.223  1.00  0.00    +0.000 C 
ATOM     81  C58 UNL A   1      30.999  27.800  22.746  1.00  0.00    +0.000 C 
ATOM     88  C64 UNL A   1      30.185  26.852  23.355  1.00  0.00    +0.000 C 
ATOM     89  C65 UNL A   1      30.581  25.516  23.397  1.00  0.00    +0.000 C 
ATOM     90  F16 UNL A   1      29.759  24.627  23.974  1.00  0.00    +0.000 F 
ATOM    123  H33 UNL A   1      33.535  25.776  21.871  1.00  0.00    +0.000 H 
ATOM    124  H34 UNL A   1      32.857  28.095  21.798  1.00  0.00    +0.000 H 
BRANCH   81   82
ATOM     82  O3  UNL A   1      30.749  29.131  22.605  1.00  0.00    +0.000 O 
BRANCH   82   83
ATOM    129  H39 UNL A   1      27.216  30.974  24.016  1.00  0.00    +0.000 H 
ATOM    130  H40 UNL A   1      28.138  32.191  21.461  1.00  0.00    +0.000 H 
ATOM    131  H41 UNL A   1      26.811  31.110  21.709  1.00  0.00    +0.000 H 
ATOM    132  H42 UNL A   1      28.129  29.320  21.168  1.00  0.00    +0.000 H 
ATOM    133  H43 UNL A   1      29.400  30.405  20.760  1.00  0.00    +0.000 H 
ATOM     83  C59 UNL A   1      29.466  29.703  22.808  1.00  0.00    +0.000 C 
ATOM     84  C60 UNL A   1      29.362  30.866  23.792  1.00  0.00    +0.000 C 
ATOM     85  C61 UNL A   1      28.000  31.459  23.473  1.00  0.00    +0.000 C 
ATOM     86  C62 UNL A   1      27.834  31.296  21.963  1.00  0.00    +0.000 C 
ATOM     87  C63 UNL A   1      28.724  30.128  21.542  1.00  0.00    +0.000 C 
ATOM    125  H35 UNL A   1      28.995  28.848  23.246  1.00  0.00    +0.000 H 
ATOM    126  H36 UNL A   1      30.143  31.579  23.627  1.00  0.00    +0.000 H 
ATOM    127  H37 UNL A   1      29.463  30.564  24.813  1.00  0.00    +0.000 H 
ATOM    128  H38 UNL A   1      27.970  32.495  23.744  1.00  0.00    +0.000 H 
ENDBRANCH   82   83
ENDBRANCH   81   82
ENDBRANCH    2   78
ENDBRANCH    3    2
ENDBRANCH    5    3
ENDBRANCH    6    5
ENDBRANCH    7    6
ENDBRANCH    8    7
ENDBRANCH    9    8
ENDBRANCH   10    9
ENDBRANCH   11   10
ENDBRANCH   12   11
ENDBRANCH   13   12
ENDBRANCH   15   13
ENDBRANCH   19   18
BRANCH   23   24
ATOM     33  C24 UNL A   1      41.389  25.322  27.713  1.00  0.00    +0.000 C 
ATOM     34  F5  UNL A   1      40.472  24.927  28.608  1.00  0.00    +0.000 F 
ATOM     24  C19 UNL A   1      41.994  26.584  27.832  1.00  0.00    +0.000 C 
ATOM     25  C20 UNL A   1      42.950  26.947  26.874  1.00  0.00    +0.000 C 
ATOM     26  F1  UNL A   1      43.552  28.144  26.941  1.00  0.00    +0.000 F 
ATOM     27  C21 UNL A   1      43.284  26.084  25.833  1.00  0.00    +0.000 C 
ATOM     28  F2  UNL A   1      44.185  26.461  24.915  1.00  0.00    +0.000 F 
ATOM     29  C22 UNL A   1      42.685  24.836  25.743  1.00  0.00    +0.000 C 
ATOM     30  F3  UNL A   1      43.020  24.001  24.751  1.00  0.00    +0.000 F 
ATOM     31  C23 UNL A   1      41.740  24.454  26.684  1.00  0.00    +0.000 C 
ATOM     32  F4  UNL A   1      41.169  23.244  26.606  1.00  0.00    +0.000 F 
ENDBRANCH   23   24
BRANCH   40   41
ATOM     41  C30 UNL A   1      44.507  27.614  34.479  1.00  0.00    +0.000 C 
ATOM     42  C31 UNL A   1      45.721  28.301  34.626  1.00  0.00    +0.000 C 
ATOM     43  F6  UNL A   1      45.945  29.430  33.935  1.00  0.00    +0.000 F 
ATOM     44  C32 UNL A   1      46.721  27.812  35.460  1.00  0.00    +0.000 C 
ATOM     45  F7  UNL A   1      47.887  28.466  35.559  1.00  0.00    +0.000 F 
ATOM     46  C33 UNL A   1      46.518  26.646  36.182  1.00  0.00    +0.000 C 
ATOM     47  F8  UNL A   1      47.479  26.183  36.994  1.00  0.00    +0.000 F 
ATOM     48  C34 UNL A   1      45.320  25.957  36.059  1.00  0.00    +0.000 C 
ATOM     49  F9  UNL A   1      45.119  24.834  36.764  1.00  0.00    +0.000 F 
ATOM     50  C35 UNL A   1      44.327  26.428  35.206  1.00  0.00    +0.000 C 
ATOM     51  F10 UNL A   1      43.182  25.738  35.101  1.00  0.00    +0.000 F 
ENDBRANCH   40   41
BRANCH   55   56
ATOM     65  C44 UNL A   1      39.751  33.406  35.942  1.00  0.00    +0.000 C 
ATOM     66  F15 UNL A   1      40.599  34.010  35.096  1.00  0.00    +0.000 F 
ATOM     56  C39 UNL A   1      39.320  32.095  35.690  1.00  0.00    +0.000 C 
ATOM     57  C40 UNL A   1      38.438  31.511  36.608  1.00  0.00    +0.000 C 
ATOM     58  F11 UNL A   1      37.981  30.267  36.396  1.00  0.00    +0.000 F 
ATOM     59  C41 UNL A   1      37.983  32.216  37.720  1.00  0.00    +0.000 C 
ATOM     60  F12 UNL A   1      37.102  31.650  38.555  1.00  0.00    +0.000 F 
ATOM     61  C42 UNL A   1      38.427  33.510  37.952  1.00  0.00    +0.000 C 
ATOM     62  F13 UNL A   1      37.990  34.188  39.021  1.00  0.00    +0.000 F 
ATOM     63  C43 UNL A   1      39.318  34.102  37.069  1.00  0.00    +0.000 C 
ATOM     64  F14 UNL A   1      39.758  35.347  37.296  1.00  0.00    +0.000 F 
ENDBRANCH   55   56
TORSDOF 19
ENDMDL
MODEL 3
REMARK VINA RESULT:     -10.8      4.182      9.597
ROOT
ATOM     19  C15 UNL A   1      38.240  30.081  29.523  1.00  0.00    +0.000 C 
ATOM     20  C16 UNL A   1      39.273  29.110  29.025  1.00  0.00    +0.000 C 
ATOM     21  N3  UNL A   1      40.346  28.666  29.628  1.00  0.00    +0.000 N 
ATOM     22  C17 UNL A   1      40.922  27.756  28.752  1.00  0.00    +0.000 C 
ATOM     23  C18 UNL A   1      42.069  27.053  28.905  1.00  0.00    +0.000 C 
ATOM     35  C25 UNL A   1      42.943  27.161  30.043  1.00  0.00    +0.000 C 
ATOM     36  C26 UNL A   1      44.189  26.588  30.228  1.00  0.00    +0.000 C 
ATOM     37  C27 UNL A   1      44.637  26.923  31.510  1.00  0.00    +0.000 C 
ATOM     38  C28 UNL A   1      43.687  27.735  32.107  1.00  0.00    +0.000 C 
ATOM     39  N4  UNL A   1      42.659  27.884  31.191  1.00  0.00    +0.000 N 
ATOM     40  C29 UNL A   1      43.705  28.322  33.421  1.00  0.00    +0.000 C 
ATOM     52  C36 UNL A   1      42.773  29.181  33.899  1.00  0.00    +0.000 C 
ATOM     53  N5  UNL A   1      41.633  29.663  33.275  1.00  0.00    +0.000 N 
ATOM     54  C37 UNL A   1      41.048  30.447  34.148  1.00  0.00    +0.000 C 
ATOM     55  C38 UNL A   1      39.780  31.242  34.008  1.00  0.00    +0.000 C 
ATOM     67  C45 UNL A   1      39.108  31.213  32.842  1.00  0.00    +0.000 C 
ATOM     68  C46 UNL A   1      37.858  31.915  32.573  1.00  0.00    +0.000 C 
ATOM     69  C47 UNL A   1      37.420  31.574  31.350  1.00  0.00    +0.000 C 
ATOM     70  C48 UNL A   1      38.382  30.658  30.733  1.00  0.00    +0.000 C 
ATOM     71  N6  UNL A   1      39.375  30.537  31.675  1.00  0.00    +0.000 N 
ATOM     72  C49 UNL A   1      41.751  30.536  35.437  1.00  0.00    +0.000 C 
ATOM     73  C50 UNL A   1      42.812  29.771  35.220  1.00  0.00    +0.000 C 
ATOM     74  C51 UNL A   1      40.066  27.689  27.587  1.00  0.00    +0.000 C 
ATOM     75  C52 UNL A   1      39.058  28.546  27.683  1.00  0.00    +0.000 C 
ATOM    111  H21 UNL A   1      44.699  26.013  29.540  1.00  0.00    +0.000 H 
ATOM    112  H22 UNL A   1      45.525  26.616  31.938  1.00  0.00    +0.000 H 
ATOM    113  H23 UNL A   1      41.847  28.423  31.334  1.00  0.00    +0.000 H 
ATOM    114  H24 UNL A   1      37.385  32.567  33.218  1.00  0.00    +0.000 H 
ATOM    115  H25 UNL A   1      36.545  31.905  30.913  1.00  0.00    +0.000 H 
ATOM    116  H26 UNL A   1      40.197  30.017  31.529  1.00  0.00    +0.000 H 
ATOM    117  H27 UNL A   1      41.487  31.057  36.287  1.00  0.00    +0.000 H 
ATOM    118  H28 UNL A   1      43.568  29.616  35.906  1.00  0.00    +0.000 H 
ATOM    119  H29 UNL A   1      40.219  27.056  26.787  1.00  0.00    +0.000 H 
ATOM    120  H30 UNL A   1      38.318  28.762  26.998  1.00  0.00    +0.000 H 
ENDROOT
BRANCH   19   18
ATOM     76  C53 UNL A   1      36.177  29.246  28.398  1.00  0.00    +0.000 C 
ATOM    109  H19 UNL A   1      35.082  32.812  27.535  1.00  0.00    +0.000 H 
ATOM     77  C54 UNL A   1      34.969  29.463  27.742  1.00  0.00    +0.000 C 
ATOM     15  C11 UNL A   1      34.537  30.770  27.496  1.00  0.00    +0.000 C 
ATOM     16  C12 UNL A   1      35.376  31.852  27.777  1.00  0.00    +0.000 C 
ATOM     17  C13 UNL A   1      36.614  31.630  28.384  1.00  0.00    +0.000 C 
ATOM    110  H20 UNL A   1      37.244  32.425  28.573  1.00  0.00    +0.000 H 
ATOM     18  C14 UNL A   1      37.002  30.328  28.742  1.00  0.00    +0.000 C 
ATOM    121  H31 UNL A   1      36.469  28.284  28.633  1.00  0.00    +0.000 H 
ATOM    122  H32 UNL A   1      34.393  28.662  27.438  1.00  0.00    +0.000 H 
BRANCH   15   13
ATOM     13  C10 UNL A   1      33.188  31.033  26.952  1.00  0.00    +0.000 C 
ATOM     14  O2  UNL A   1      32.532  31.977  27.381  1.00  0.00    +0.000 O 
BRANCH   13   12
ATOM    108  H18 UNL A   1      33.068  30.292  25.094  1.00  0.00    +0.000 H 
ATOM     12  N2  UNL A   1      32.668  30.205  25.989  1.00  0.00    +0.000 N 
BRANCH   12   11
ATOM    106  H16 UNL A   1      30.977  29.482  26.927  1.00  0.00    +0.000 H 
ATOM     11  C9  UNL A   1      31.608  29.214  26.106  1.00  0.00    +0.000 C 
ATOM    107  H17 UNL A   1      31.068  29.204  25.182  1.00  0.00    +0.000 H 
BRANCH   11   10
ATOM    105  H15 UNL A   1      32.773  27.868  27.211  1.00  0.00    +0.000 H 
ATOM     10  C8  UNL A   1      32.151  27.807  26.343  1.00  0.00    +0.000 C 
ATOM    104  H14 UNL A   1      32.679  27.502  25.464  1.00  0.00    +0.000 H 
BRANCH   10    9
ATOM      9  C7  UNL A   1      31.087  26.750  26.649  1.00  0.00    +0.000 C 
ATOM    102  H12 UNL A   1      31.117  26.545  27.698  1.00  0.00    +0.000 H 
ATOM    103  H13 UNL A   1      30.155  27.162  26.320  1.00  0.00    +0.000 H 
BRANCH    9    8
ATOM    100  H10 UNL A   1      30.287  25.113  25.563  1.00  0.00    +0.000 H 
ATOM    101  H11 UNL A   1      31.945  25.618  25.107  1.00  0.00    +0.000 H 
ATOM      8  C6  UNL A   1      31.254  25.424  25.901  1.00  0.00    +0.000 C 
BRANCH    8    7
ATOM     98  H8  UNL A   1      32.829  24.582  27.057  1.00  0.00    +0.000 H 
ATOM     99  H9  UNL A   1      31.181  24.084  27.524  1.00  0.00    +0.000 H 
ATOM      7  C5  UNL A   1      31.861  24.276  26.720  1.00  0.00    +0.000 C 
BRANCH    7    6
ATOM     97  H7  UNL A   1      31.679  23.110  24.947  1.00  0.00    +0.000 H 
ATOM      6  C4  UNL A   1      32.013  22.962  25.952  1.00  0.00    +0.000 C 
ATOM     96  H6  UNL A   1      31.427  22.205  26.431  1.00  0.00    +0.000 H 
BRANCH    6    5
ATOM      5  N1  UNL A   1      33.398  22.540  25.923  1.00  0.00    +0.000 N 
ATOM     95  H5  UNL A   1      33.872  22.597  26.783  1.00  0.00    +0.000 H 
BRANCH    5    3
ATOM      3  C3  UNL A   1      34.141  22.076  24.877  1.00  0.00    +0.000 C 
ATOM      4  O1  UNL A   1      34.079  20.866  24.648  1.00  0.00    +0.000 O 
BRANCH    3    2
ATOM      2  C2  UNL A   1      35.013  23.046  24.067  1.00  0.00    +0.000 C 
ATOM     94  H4  UNL A   1      35.402  22.481  23.246  1.00  0.00    +0.000 H 
BRANCH    2    1
ATOM      1  C1  UNL A   1      36.204  23.571  24.874  1.00  0.00    +0.000 C 
ATOM     91  H1  UNL A   1      36.807  24.198  24.252  1.00  0.00    +0.000 H 
ATOM     92  H2  UNL A   1      36.789  22.746  25.223  1.00  0.00    +0.000 H 
ATOM     93  H3  UNL A   1      35.847  24.134  25.711  1.00  0.00    +0.000 H 
ENDBRANCH    2    1
BRANCH    2   78
ATOM    134  H44 UNL A   1      31.882  24.839  21.151  1.00  0.00    +0.000 H 
ATOM     78  C55 UNL A   1      34.200  24.203  23.507  1.00  0.00    +0.000 C 
ATOM     79  C56 UNL A   1      34.312  25.502  24.021  1.00  0.00    +0.000 C 
ATOM     80  C57 UNL A   1      33.561  26.546  23.476  1.00  0.00    +0.000 C 
ATOM     81  C58 UNL A   1      32.689  26.323  22.407  1.00  0.00    +0.000 C 
ATOM     88  C64 UNL A   1      32.545  25.030  21.918  1.00  0.00    +0.000 C 
ATOM     89  C65 UNL A   1      33.297  23.990  22.463  1.00  0.00    +0.000 C 
ATOM     90  F16 UNL A   1      33.146  22.759  21.951  1.00  0.00    +0.000 F 
ATOM    123  H33 UNL A   1      34.955  25.689  24.806  1.00  0.00    +0.000 H 
ATOM    124  H34 UNL A   1      33.651  27.496  23.868  1.00  0.00    +0.000 H 
BRANCH   81   82
ATOM     82  O3  UNL A   1      32.048  27.443  21.973  1.00  0.00    +0.000 O 
BRANCH   82   83
ATOM    129  H39 UNL A   1      29.515  30.183  23.959  1.00  0.00    +0.000 H 
ATOM    130  H40 UNL A   1      27.953  28.118  22.491  1.00  0.00    +0.000 H 
ATOM    131  H41 UNL A   1      28.220  28.240  24.195  1.00  0.00    +0.000 H 
ATOM    132  H42 UNL A   1      29.992  26.800  24.051  1.00  0.00    +0.000 H 
ATOM    133  H43 UNL A   1      29.625  26.546  22.390  1.00  0.00    +0.000 H 
ATOM     83  C59 UNL A   1      31.068  28.122  22.742  1.00  0.00    +0.000 C 
ATOM     84  C60 UNL A   1      30.562  29.461  22.212  1.00  0.00    +0.000 C 
ATOM     85  C61 UNL A   1      29.302  29.696  23.030  1.00  0.00    +0.000 C 
ATOM     86  C62 UNL A   1      28.694  28.310  23.238  1.00  0.00    +0.000 C 
ATOM     87  C63 UNL A   1      29.836  27.301  23.119  1.00  0.00    +0.000 C 
ATOM    125  H35 UNL A   1      31.670  28.309  23.608  1.00  0.00    +0.000 H 
ATOM    126  H36 UNL A   1      30.338  29.401  21.168  1.00  0.00    +0.000 H 
ATOM    127  H37 UNL A   1      31.278  30.250  22.305  1.00  0.00    +0.000 H 
ATOM    128  H38 UNL A   1      28.622  30.328  22.497  1.00  0.00    +0.000 H 
ENDBRANCH   82   83
ENDBRANCH   81   82
ENDBRANCH    2   78
ENDBRANCH    3    2
ENDBRANCH    5    3
ENDBRANCH    6    5
ENDBRANCH    7    6
ENDBRANCH    8    7
ENDBRANCH    9    8
ENDBRANCH   10    9
ENDBRANCH   11   10
ENDBRANCH   12   11
ENDBRANCH   13   12
ENDBRANCH   15   13
ENDBRANCH   19   18
BRANCH   23   24
ATOM     33  C24 UNL A   1      43.371  26.506  26.823  1.00  0.00    +0.000 C 
ATOM     34  F5  UNL A   1      43.950  27.715  26.887  1.00  0.00    +0.000 F 
ATOM     24  C19 UNL A   1      42.463  26.104  27.815  1.00  0.00    +0.000 C 
ATOM     25  C20 UNL A   1      41.882  24.834  27.698  1.00  0.00    +0.000 C 
ATOM     26  F1  UNL A   1      41.013  24.402  28.625  1.00  0.00    +0.000 F 
ATOM     27  C21 UNL A   1      42.202  23.996  26.634  1.00  0.00    +0.000 C 
ATOM     28  F2  UNL A   1      41.651  22.777  26.554  1.00  0.00    +0.000 F 
ATOM     29  C22 UNL A   1      43.090  24.419  25.656  1.00  0.00    +0.000 C 
ATOM     30  F3  UNL A   1      43.383  23.618  24.623  1.00  0.00    +0.000 F 
ATOM     31  C23 UNL A   1      43.673  25.674  25.749  1.00  0.00    +0.000 C 
ATOM     32  F4  UNL A   1      44.522  26.090  24.798  1.00  0.00    +0.000 F 
ENDBRANCH   23   24
BRANCH   40   41
ATOM     41  C30 UNL A   1      44.845  27.968  34.328  1.00  0.00    +0.000 C 
ATOM     42  C31 UNL A   1      44.791  26.836  35.155  1.00  0.00    +0.000 C 
ATOM     43  F6  UNL A   1      43.682  26.082  35.194  1.00  0.00    +0.000 F 
ATOM     44  C32 UNL A   1      45.868  26.494  35.967  1.00  0.00    +0.000 C 
ATOM     45  F7  UNL A   1      45.782  25.429  36.775  1.00  0.00    +0.000 F 
ATOM     46  C33 UNL A   1      47.025  27.259  35.949  1.00  0.00    +0.000 C 
ATOM     47  F8  UNL A   1      48.064  26.921  36.725  1.00  0.00    +0.000 F 
ATOM     48  C34 UNL A   1      47.102  28.376  35.131  1.00  0.00    +0.000 C 
ATOM     49  F9  UNL A   1      48.224  29.110  35.105  1.00  0.00    +0.000 F 
ATOM     50  C35 UNL A   1      46.019  28.736  34.336  1.00  0.00    +0.000 C 
ATOM     51  F10 UNL A   1      46.118  29.826  33.559  1.00  0.00    +0.000 F 
ENDBRANCH   40   41
BRANCH   55   56
ATOM     65  C44 UNL A   1      38.483  31.460  36.155  1.00  0.00    +0.000 C 
ATOM     66  F15 UNL A   1      38.173  30.157  36.094  1.00  0.00    +0.000 F 
ATOM     56  C39 UNL A   1      39.263  32.045  35.146  1.00  0.00    +0.000 C 
ATOM     57  C40 UNL A   1      39.554  33.411  35.255  1.00  0.00    +0.000 C 
ATOM     58  F11 UNL A   1      40.316  34.008  34.326  1.00  0.00    +0.000 F 
ATOM     59  C41 UNL A   1      39.106  34.159  36.342  1.00  0.00    +0.000 C 
ATOM     60  F12 UNL A   1      39.440  35.451  36.447  1.00  0.00    +0.000 F 
ATOM     61  C42 UNL A   1      38.332  33.560  37.326  1.00  0.00    +0.000 C 
ATOM     62  F13 UNL A   1      37.902  34.278  38.371  1.00  0.00    +0.000 F 
ATOM     63  C43 UNL A   1      38.012  32.213  37.227  1.00  0.00    +0.000 C 
ATOM     64  F14 UNL A   1      37.255  31.635  38.169  1.00  0.00    +0.000 F 
ENDBRANCH   55   56
TORSDOF 19
ENDMDL
MODEL 4
REMARK VINA RESULT:     -10.8      4.491      7.663
ROOT
ATOM     19  C15 UNL A   1      38.044  29.841  30.034  1.00  0.00    +0.000 C 
ATOM     20  C16 UNL A   1      38.292  30.343  31.427  1.00  0.00    +0.000 C 
ATOM     21  N3  UNL A   1      39.305  30.106  32.221  1.00  0.00    +0.000 N 
ATOM     22  C17 UNL A   1      39.066  30.849  33.369  1.00  0.00    +0.000 C 
ATOM     23  C18 UNL A   1      39.812  30.911  34.498  1.00  0.00    +0.000 C 
ATOM     35  C25 UNL A   1      41.016  30.156  34.722  1.00  0.00    +0.000 C 
ATOM     36  C26 UNL A   1      41.767  30.055  35.880  1.00  0.00    +0.000 C 
ATOM     37  C27 UNL A   1      42.883  29.258  35.608  1.00  0.00    +0.000 C 
ATOM     38  C28 UNL A   1      42.807  28.833  34.292  1.00  0.00    +0.000 C 
ATOM     39  N4  UNL A   1      41.650  29.381  33.763  1.00  0.00    +0.000 N 
ATOM     40  C29 UNL A   1      43.727  28.001  33.563  1.00  0.00    +0.000 C 
ATOM     52  C36 UNL A   1      43.535  27.556  32.298  1.00  0.00    +0.000 C 
ATOM     53  N5  UNL A   1      42.468  27.795  31.445  1.00  0.00    +0.000 N 
ATOM     54  C37 UNL A   1      42.751  27.166  30.330  1.00  0.00    +0.000 C 
ATOM     55  C38 UNL A   1      41.947  27.074  29.063  1.00  0.00    +0.000 C 
ATOM     67  C45 UNL A   1      40.745  27.678  28.999  1.00  0.00    +0.000 C 
ATOM     68  C46 UNL A   1      39.870  27.690  27.832  1.00  0.00    +0.000 C 
ATOM     69  C47 UNL A   1      38.810  28.474  28.089  1.00  0.00    +0.000 C 
ATOM     70  C48 UNL A   1      38.913  28.988  29.456  1.00  0.00    +0.000 C 
ATOM     71  N6  UNL A   1      40.071  28.426  29.935  1.00  0.00    +0.000 N 
ATOM     72  C49 UNL A   1      44.045  26.467  30.349  1.00  0.00    +0.000 C 
ATOM     73  C50 UNL A   1      44.466  26.710  31.583  1.00  0.00    +0.000 C 
ATOM     74  C51 UNL A   1      37.828  31.566  33.161  1.00  0.00    +0.000 C 
ATOM     75  C52 UNL A   1      37.281  31.249  31.995  1.00  0.00    +0.000 C 
ATOM    111  H21 UNL A   1      41.541  30.492  36.787  1.00  0.00    +0.000 H 
ATOM    112  H22 UNL A   1      43.636  29.027  36.275  1.00  0.00    +0.000 H 
ATOM    113  H23 UNL A   1      41.326  29.240  32.844  1.00  0.00    +0.000 H 
ATOM    114  H24 UNL A   1      40.038  27.180  26.951  1.00  0.00    +0.000 H 
ATOM    115  H25 UNL A   1      38.044  28.680  27.429  1.00  0.00    +0.000 H 
ATOM    116  H26 UNL A   1      40.388  28.546  30.859  1.00  0.00    +0.000 H 
ATOM    117  H27 UNL A   1      44.505  25.928  29.599  1.00  0.00    +0.000 H 
ATOM    118  H28 UNL A   1      45.345  26.343  31.980  1.00  0.00    +0.000 H 
ATOM    119  H29 UNL A   1      37.424  32.239  33.831  1.00  0.00    +0.000 H 
ATOM    120  H30 UNL A   1      36.383  31.556  31.591  1.00  0.00    +0.000 H 
ENDROOT
BRANCH   19   18
ATOM     76  C53 UNL A   1      35.865  29.495  28.871  1.00  0.00    +0.000 C 
ATOM    109  H19 UNL A   1      35.600  33.222  28.036  1.00  0.00    +0.000 H 
ATOM     77  C54 UNL A   1      34.745  29.980  28.201  1.00  0.00    +0.000 C 
ATOM     15  C11 UNL A   1      34.618  31.351  27.965  1.00  0.00    +0.000 C 
ATOM     16  C12 UNL A   1      35.671  32.219  28.270  1.00  0.00    +0.000 C 
ATOM     17  C13 UNL A   1      36.819  31.722  28.891  1.00  0.00    +0.000 C 
ATOM    110  H20 UNL A   1      37.606  32.356  29.098  1.00  0.00    +0.000 H 
ATOM     18  C14 UNL A   1      36.904  30.364  29.238  1.00  0.00    +0.000 C 
ATOM    121  H31 UNL A   1      35.933  28.490  29.098  1.00  0.00    +0.000 H 
ATOM    122  H32 UNL A   1      34.011  29.329  27.879  1.00  0.00    +0.000 H 
BRANCH   15   13
ATOM     13  C10 UNL A   1      33.369  31.912  27.406  1.00  0.00    +0.000 C 
ATOM     14  O2  UNL A   1      33.191  33.126  27.410  1.00  0.00    +0.000 O 
BRANCH   13   12
ATOM    108  H18 UNL A   1      31.545  31.081  27.386  1.00  0.00    +0.000 H 
ATOM     12  N2  UNL A   1      32.406  31.068  26.910  1.00  0.00    +0.000 N 
BRANCH   12   11
ATOM    106  H16 UNL A   1      32.198  30.689  24.890  1.00  0.00    +0.000 H 
ATOM     11  C9  UNL A   1      32.479  30.158  25.776  1.00  0.00    +0.000 C 
ATOM    107  H17 UNL A   1      33.484  29.795  25.714  1.00  0.00    +0.000 H 
BRANCH   11   10
ATOM    105  H15 UNL A   1      31.629  28.395  25.028  1.00  0.00    +0.000 H 
ATOM     10  C8  UNL A   1      31.558  28.952  25.939  1.00  0.00    +0.000 C 
ATOM    104  H14 UNL A   1      30.571  29.313  26.139  1.00  0.00    +0.000 H 
BRANCH   10    9
ATOM      9  C7  UNL A   1      31.950  27.990  27.063  1.00  0.00    +0.000 C 
ATOM    102  H12 UNL A   1      32.643  28.493  27.703  1.00  0.00    +0.000 H 
ATOM    103  H13 UNL A   1      31.038  27.716  27.551  1.00  0.00    +0.000 H 
BRANCH    9    8
ATOM    100  H10 UNL A   1      32.937  26.817  25.596  1.00  0.00    +0.000 H 
ATOM    101  H11 UNL A   1      33.382  26.477  27.298  1.00  0.00    +0.000 H 
ATOM      8  C6  UNL A   1      32.596  26.680  26.601  1.00  0.00    +0.000 C 
BRANCH    8    7
ATOM     98  H8  UNL A   1      31.214  25.397  27.587  1.00  0.00    +0.000 H 
ATOM     99  H9  UNL A   1      30.978  25.576  25.828  1.00  0.00    +0.000 H 
ATOM      7  C5  UNL A   1      31.680  25.448  26.626  1.00  0.00    +0.000 C 
BRANCH    7    6
ATOM     97  H7  UNL A   1      31.772  23.507  25.754  1.00  0.00    +0.000 H 
ATOM      6  C4  UNL A   1      32.396  24.121  26.369  1.00  0.00    +0.000 C 
ATOM     96  H6  UNL A   1      32.587  23.638  27.305  1.00  0.00    +0.000 H 
BRANCH    6    5
ATOM      5  N1  UNL A   1      33.653  24.338  25.683  1.00  0.00    +0.000 N 
ATOM     95  H5  UNL A   1      34.401  24.617  26.257  1.00  0.00    +0.000 H 
BRANCH    5    3
ATOM      3  C3  UNL A   1      33.950  24.212  24.357  1.00  0.00    +0.000 C 
ATOM      4  O1  UNL A   1      35.145  24.138  24.063  1.00  0.00    +0.000 O 
BRANCH    3    2
ATOM      2  C2  UNL A   1      32.821  24.191  23.317  1.00  0.00    +0.000 C 
ATOM     94  H4  UNL A   1      32.044  23.585  23.735  1.00  0.00    +0.000 H 
BRANCH    2    1
ATOM      1  C1  UNL A   1      33.255  23.545  21.999  1.00  0.00    +0.000 C 
ATOM     91  H1  UNL A   1      32.608  22.723  21.775  1.00  0.00    +0.000 H 
ATOM     92  H2  UNL A   1      34.262  23.193  22.089  1.00  0.00    +0.000 H 
ATOM     93  H3  UNL A   1      33.200  24.269  21.213  1.00  0.00    +0.000 H 
ENDBRANCH    2    1
BRANCH    2   78
ATOM    134  H44 UNL A   1      29.311  27.208  22.988  1.00  0.00    +0.000 H 
ATOM     78  C55 UNL A   1      32.258  25.582  23.068  1.00  0.00    +0.000 C 
ATOM     79  C56 UNL A   1      33.086  26.672  22.767  1.00  0.00    +0.000 C 
ATOM     80  C57 UNL A   1      32.536  27.933  22.530  1.00  0.00    +0.000 C 
ATOM     81  C58 UNL A   1      31.155  28.138  22.580  1.00  0.00    +0.000 C 
ATOM     88  C64 UNL A   1      30.331  27.069  22.914  1.00  0.00    +0.000 C 
ATOM     89  C65 UNL A   1      30.882  25.811  23.150  1.00  0.00    +0.000 C 
ATOM     90  F16 UNL A   1      30.053  24.799  23.450  1.00  0.00    +0.000 F 
ATOM    123  H33 UNL A   1      34.108  26.541  22.720  1.00  0.00    +0.000 H 
ATOM    124  H34 UNL A   1      33.160  28.727  22.315  1.00  0.00    +0.000 H 
BRANCH   81   82
ATOM     82  O3  UNL A   1      30.773  29.415  22.302  1.00  0.00    +0.000 O 
BRANCH   82   83
ATOM    129  H39 UNL A   1      27.147  30.884  23.904  1.00  0.00    +0.000 H 
ATOM    130  H40 UNL A   1      28.095  32.556  21.631  1.00  0.00    +0.000 H 
ATOM    131  H41 UNL A   1      26.798  31.413  21.644  1.00  0.00    +0.000 H 
ATOM    132  H42 UNL A   1      28.187  29.783  20.840  1.00  0.00    +0.000 H 
ATOM    133  H43 UNL A   1      29.432  30.957  20.667  1.00  0.00    +0.000 H 
ATOM     83  C59 UNL A   1      29.468  29.907  22.562  1.00  0.00    +0.000 C 
ATOM     84  C60 UNL A   1      29.301  30.875  23.731  1.00  0.00    +0.000 C 
ATOM     85  C61 UNL A   1      27.929  31.478  23.479  1.00  0.00    +0.000 C 
ATOM     86  C62 UNL A   1      27.807  31.579  21.959  1.00  0.00    +0.000 C 
ATOM     87  C63 UNL A   1      28.745  30.528  21.367  1.00  0.00    +0.000 C 
ATOM    125  H35 UNL A   1      29.014  28.975  22.829  1.00  0.00    +0.000 H 
ATOM    126  H36 UNL A   1      30.062  31.628  23.717  1.00  0.00    +0.000 H 
ATOM    127  H37 UNL A   1      29.385  30.401  24.686  1.00  0.00    +0.000 H 
ATOM    128  H38 UNL A   1      27.859  32.448  23.926  1.00  0.00    +0.000 H 
ENDBRANCH   82   83
ENDBRANCH   81   82
ENDBRANCH    2   78
ENDBRANCH    3    2
ENDBRANCH    5    3
ENDBRANCH    6    5
ENDBRANCH    7    6
ENDBRANCH    8    7
ENDBRANCH    9    8
ENDBRANCH   10    9
ENDBRANCH   11   10
ENDBRANCH   12   11
ENDBRANCH   13   12
ENDBRANCH   15   13
ENDBRANCH   19   18
BRANCH   23   24
ATOM     33  C24 UNL A   1      39.878  33.115  35.711  1.00  0.00    +0.000 C 
ATOM     34  F5  UNL A   1      40.742  33.575  34.794  1.00  0.00    +0.000 F 
ATOM     24  C19 UNL A   1      39.349  31.820  35.597  1.00  0.00    +0.000 C 
ATOM     25  C20 UNL A   1      38.455  31.385  36.585  1.00  0.00    +0.000 C 
ATOM     26  F1  UNL A   1      37.919  30.157  36.516  1.00  0.00    +0.000 F 
ATOM     27  C21 UNL A   1      38.098  32.217  37.643  1.00  0.00    +0.000 C 
ATOM     28  F2  UNL A   1      37.224  31.789  38.564  1.00  0.00    +0.000 F 
ATOM     29  C22 UNL A   1      38.644  33.488  37.744  1.00  0.00    +0.000 C 
ATOM     30  F3  UNL A   1      38.312  34.280  38.773  1.00  0.00    +0.000 F 
ATOM     31  C23 UNL A   1      39.535  33.937  36.781  1.00  0.00    +0.000 C 
ATOM     32  F4  UNL A   1      40.073  35.159  36.884  1.00  0.00    +0.000 F 
ENDBRANCH   23   24
BRANCH   40   41
ATOM     41  C30 UNL A   1      44.990  27.583  34.255  1.00  0.00    +0.000 C 
ATOM     42  C31 UNL A   1      46.142  28.381  34.209  1.00  0.00    +0.000 C 
ATOM     43  F6  UNL A   1      46.151  29.511  33.485  1.00  0.00    +0.000 F 
ATOM     44  C32 UNL A   1      47.299  28.005  34.884  1.00  0.00    +0.000 C 
ATOM     45  F7  UNL A   1      48.399  28.765  34.799  1.00  0.00    +0.000 F 
ATOM     46  C33 UNL A   1      47.318  26.840  35.637  1.00  0.00    +0.000 C 
ATOM     47  F8  UNL A   1      48.431  26.485  36.295  1.00  0.00    +0.000 F 
ATOM     48  C34 UNL A   1      46.186  26.041  35.703  1.00  0.00    +0.000 C 
ATOM     49  F9  UNL A   1      46.200  24.920  36.438  1.00  0.00    +0.000 F 
ATOM     50  C35 UNL A   1      45.035  26.401  35.009  1.00  0.00    +0.000 C 
ATOM     51  F10 UNL A   1      43.957  25.607  35.086  1.00  0.00    +0.000 F 
ENDBRANCH   40   41
BRANCH   55   56
ATOM     65  C44 UNL A   1      42.141  24.990  27.665  1.00  0.00    +0.000 C 
ATOM     66  F15 UNL A   1      41.353  24.339  28.534  1.00  0.00    +0.000 F 
ATOM     56  C39 UNL A   1      42.472  26.335  27.887  1.00  0.00    +0.000 C 
ATOM     57  C40 UNL A   1      43.302  26.966  26.950  1.00  0.00    +0.000 C 
ATOM     58  F11 UNL A   1      43.626  28.258  27.109  1.00  0.00    +0.000 F 
ATOM     59  C41 UNL A   1      43.762  26.289  25.823  1.00  0.00    +0.000 C 
ATOM     60  F12 UNL A   1      44.513  26.930  24.919  1.00  0.00    +0.000 F 
ATOM     61  C42 UNL A   1      43.426  24.957  25.627  1.00  0.00    +0.000 C 
ATOM     62  F13 UNL A   1      43.868  24.305  24.544  1.00  0.00    +0.000 F 
ATOM     63  C43 UNL A   1      42.624  24.305  26.552  1.00  0.00    +0.000 C 
ATOM     64  F14 UNL A   1      42.307  23.015  26.372  1.00  0.00    +0.000 F 
ENDBRANCH   55   56
TORSDOF 19
ENDMDL
MODEL 5
REMARK VINA RESULT:     -10.6     36.269     43.063
ROOT
ATOM     19  C15 UNL A   1      29.022 -14.044  31.573  1.00  0.00    +0.000 C 
ATOM     20  C16 UNL A   1      28.729 -14.130  33.043  1.00  0.00    +0.000 C 
ATOM     21  N3  UNL A   1      27.701 -13.669  33.708  1.00  0.00    +0.000 N 
ATOM     22  C17 UNL A   1      27.896 -14.060  35.025  1.00  0.00    +0.000 C 
ATOM     23  C18 UNL A   1      27.121 -13.794  36.103  1.00  0.00    +0.000 C 
ATOM     35  C25 UNL A   1      25.925 -12.994  36.069  1.00  0.00    +0.000 C 
ATOM     36  C26 UNL A   1      25.147 -12.563  37.129  1.00  0.00    +0.000 C 
ATOM     37  C27 UNL A   1      24.053 -11.863  36.611  1.00  0.00    +0.000 C 
ATOM     38  C28 UNL A   1      24.171 -11.827  35.232  1.00  0.00    +0.000 C 
ATOM     39  N4  UNL A   1      25.331 -12.514  34.913  1.00  0.00    +0.000 N 
ATOM     40  C29 UNL A   1      23.285 -11.224  34.271  1.00  0.00    +0.000 C 
ATOM     52  C36 UNL A   1      23.518 -11.155  32.938  1.00  0.00    +0.000 C 
ATOM     53  N5  UNL A   1      24.602 -11.636  32.218  1.00  0.00    +0.000 N 
ATOM     54  C37 UNL A   1      24.359 -11.344  30.964  1.00  0.00    +0.000 C 
ATOM     55  C38 UNL A   1      25.197 -11.621  29.747  1.00  0.00    +0.000 C 
ATOM     67  C45 UNL A   1      26.389 -12.232  29.891  1.00  0.00    +0.000 C 
ATOM     68  C46 UNL A   1      27.294 -12.581  28.801  1.00  0.00    +0.000 C 
ATOM     69  C47 UNL A   1      28.332 -13.271  29.300  1.00  0.00    +0.000 C 
ATOM     70  C48 UNL A   1      28.185 -13.379  30.753  1.00  0.00    +0.000 C 
ATOM     71  N6  UNL A   1      27.025 -12.692  31.019  1.00  0.00    +0.000 N 
ATOM     72  C49 UNL A   1      23.078 -10.654  30.747  1.00  0.00    +0.000 C 
ATOM     73  C50 UNL A   1      22.622 -10.536  31.986  1.00  0.00    +0.000 C 
ATOM     74  C51 UNL A   1      29.126 -14.820  35.064  1.00  0.00    +0.000 C 
ATOM     75  C52 UNL A   1      29.708 -14.850  33.872  1.00  0.00    +0.000 C 
ATOM    111  H21 UNL A   1      25.341 -12.729  38.128  1.00  0.00    +0.000 H 
ATOM    112  H22 UNL A   1      23.288 -11.446  37.164  1.00  0.00    +0.000 H 
ATOM    113  H23 UNL A   1      25.680 -12.641  34.001  1.00  0.00    +0.000 H 
ATOM    114  H24 UNL A   1      27.158 -12.338  27.808  1.00  0.00    +0.000 H 
ATOM    115  H25 UNL A   1      29.111 -13.663  28.748  1.00  0.00    +0.000 H 
ATOM    116  H26 UNL A   1      26.682 -12.544  31.930  1.00  0.00    +0.000 H 
ATOM    117  H27 UNL A   1      22.648 -10.344  29.862  1.00  0.00    +0.000 H 
ATOM    118  H28 UNL A   1      21.739 -10.063  32.238  1.00  0.00    +0.000 H 
ATOM    119  H29 UNL A   1      29.500 -15.281  35.908  1.00  0.00    +0.000 H 
ATOM    120  H30 UNL A   1      30.611 -15.267  33.599  1.00  0.00    +0.000 H 
ENDROOT
BRANCH   19   18
ATOM     76  C53 UNL A   1      29.975 -16.074  30.482  1.00  0.00    +0.000 C 
ATOM    109  H19 UNL A   1      33.400 -14.400  30.123  1.00  0.00    +0.000 H 
ATOM     77  C54 UNL A   1      31.017 -16.750  29.854  1.00  0.00    +0.000 C 
ATOM     15  C11 UNL A   1      32.243 -16.108  29.658  1.00  0.00    +0.000 C 
ATOM     16  C12 UNL A   1      32.472 -14.846  30.213  1.00  0.00    +0.000 C 
ATOM     17  C13 UNL A   1      31.443 -14.191  30.893  1.00  0.00    +0.000 C 
ATOM    110  H20 UNL A   1      31.616 -13.268  31.323  1.00  0.00    +0.000 H 
ATOM     18  C14 UNL A   1      30.173 -14.781  30.991  1.00  0.00    +0.000 C 
ATOM    121  H31 UNL A   1      29.051 -16.526  30.575  1.00  0.00    +0.000 H 
ATOM    122  H32 UNL A   1      30.886 -17.723  29.534  1.00  0.00    +0.000 H 
BRANCH   15   13
ATOM     13  C10 UNL A   1      33.309 -16.738  28.851  1.00  0.00    +0.000 C 
ATOM     14  O2  UNL A   1      34.413 -16.939  29.349  1.00  0.00    +0.000 O 
BRANCH   13   12
ATOM    108  H18 UNL A   1      32.597 -17.925  27.402  1.00  0.00    +0.000 H 
ATOM     12  N2  UNL A   1      33.066 -17.071  27.541  1.00  0.00    +0.000 N 
BRANCH   12   11
ATOM    106  H16 UNL A   1      34.316 -16.731  25.934  1.00  0.00    +0.000 H 
ATOM     11  C9  UNL A   1      33.403 -16.338  26.330  1.00  0.00    +0.000 C 
ATOM    107  H17 UNL A   1      32.593 -16.456  25.641  1.00  0.00    +0.000 H 
BRANCH   11   10
ATOM    105  H15 UNL A   1      34.481 -14.559  26.081  1.00  0.00    +0.000 H 
ATOM     10  C8  UNL A   1      33.582 -14.844  26.586  1.00  0.00    +0.000 C 
ATOM    104  H14 UNL A   1      33.623 -14.691  27.644  1.00  0.00    +0.000 H 
BRANCH   10    9
ATOM      9  C7  UNL A   1      32.471 -13.957  26.020  1.00  0.00    +0.000 C 
ATOM    102  H12 UNL A   1      32.928 -13.104  25.564  1.00  0.00    +0.000 H 
ATOM    103  H13 UNL A   1      31.924 -14.567  25.331  1.00  0.00    +0.000 H 
BRANCH    9    8
ATOM    100  H10 UNL A   1      30.489 -13.446  26.578  1.00  0.00    +0.000 H 
ATOM    101  H11 UNL A   1      31.517 -14.126  27.879  1.00  0.00    +0.000 H 
ATOM      8  C6  UNL A   1      31.451 -13.456  27.047  1.00  0.00    +0.000 C 
BRANCH    8    7
ATOM     98  H8  UNL A   1      30.839 -11.461  27.464  1.00  0.00    +0.000 H 
ATOM     99  H9  UNL A   1      31.966 -12.182  28.643  1.00  0.00    +0.000 H 
ATOM      7  C5  UNL A   1      31.718 -12.053  27.610  1.00  0.00    +0.000 C 
BRANCH    7    6
ATOM     97  H7  UNL A   1      33.038 -11.707  25.975  1.00  0.00    +0.000 H 
ATOM      6  C4  UNL A   1      32.899 -11.325  26.965  1.00  0.00    +0.000 C 
ATOM     96  H6  UNL A   1      33.777 -11.490  27.554  1.00  0.00    +0.000 H 
BRANCH    6    5
ATOM      5  N1  UNL A   1      32.644  -9.902  26.881  1.00  0.00    +0.000 N 
ATOM     95  H5  UNL A   1      31.841  -9.649  26.372  1.00  0.00    +0.000 H 
BRANCH    5    3
ATOM      3  C3  UNL A   1      33.355  -8.862  27.405  1.00  0.00    +0.000 C 
ATOM      4  O1  UNL A   1      34.581  -8.919  27.295  1.00  0.00    +0.000 O 
BRANCH    3    2
ATOM      2  C2  UNL A   1      32.622  -7.710  28.107  1.00  0.00    +0.000 C 
ATOM     94  H4  UNL A   1      32.356  -7.015  27.338  1.00  0.00    +0.000 H 
BRANCH    2    1
ATOM      1  C1  UNL A   1      33.516  -6.974  29.108  1.00  0.00    +0.000 C 
ATOM     91  H1  UNL A   1      33.034  -6.945  30.062  1.00  0.00    +0.000 H 
ATOM     92  H2  UNL A   1      33.689  -5.975  28.765  1.00  0.00    +0.000 H 
ATOM     93  H3  UNL A   1      34.451  -7.488  29.195  1.00  0.00    +0.000 H 
ENDBRANCH    2    1
BRANCH    2   78
ATOM    134  H44 UNL A   1      28.041  -7.533  28.825  1.00  0.00    +0.000 H 
ATOM     78  C55 UNL A   1      31.344  -8.182  28.783  1.00  0.00    +0.000 C 
ATOM     79  C56 UNL A   1      31.346  -9.227  29.718  1.00  0.00    +0.000 C 
ATOM     80  C57 UNL A   1      30.157  -9.629  30.332  1.00  0.00    +0.000 C 
ATOM     81  C58 UNL A   1      28.945  -8.999  30.035  1.00  0.00    +0.000 C 
ATOM     88  C64 UNL A   1      28.931  -7.988  29.081  1.00  0.00    +0.000 C 
ATOM     89  C65 UNL A   1      30.119  -7.588  28.471  1.00  0.00    +0.000 C 
ATOM     90  F16 UNL A   1      30.069  -6.595  27.571  1.00  0.00    +0.000 F 
ATOM    123  H33 UNL A   1      32.231  -9.701  29.955  1.00  0.00    +0.000 H 
ATOM    124  H34 UNL A   1      30.174 -10.402  31.014  1.00  0.00    +0.000 H 
BRANCH   81   82
ATOM     82  O3  UNL A   1      27.883  -9.487  30.733  1.00  0.00    +0.000 O 
BRANCH   82   83
ATOM    129  H39 UNL A   1      26.292  -7.528  34.124  1.00  0.00    +0.000 H 
ATOM    130  H40 UNL A   1      26.079 -10.487  34.371  1.00  0.00    +0.000 H 
ATOM    131  H41 UNL A   1      27.184  -9.427  35.176  1.00  0.00    +0.000 H 
ATOM    132  H42 UNL A   1      28.770  -9.817  33.573  1.00  0.00    +0.000 H 
ATOM    133  H43 UNL A   1      27.737 -10.996  32.866  1.00  0.00    +0.000 H 
ATOM     83  C59 UNL A   1      27.519  -9.014  32.020  1.00  0.00    +0.000 C 
ATOM     84  C60 UNL A   1      26.095  -8.493  32.201  1.00  0.00    +0.000 C 
ATOM     85  C61 UNL A   1      25.938  -8.450  33.712  1.00  0.00    +0.000 C 
ATOM     86  C62 UNL A   1      26.730  -9.649  34.232  1.00  0.00    +0.000 C 
ATOM     87  C63 UNL A   1      27.788  -9.974  33.178  1.00  0.00    +0.000 C 
ATOM    125  H35 UNL A   1      28.190  -8.182  32.062  1.00  0.00    +0.000 H 
ATOM    126  H36 UNL A   1      25.383  -9.158  31.758  1.00  0.00    +0.000 H 
ATOM    127  H37 UNL A   1      25.930  -7.545  31.732  1.00  0.00    +0.000 H 
ATOM    128  H38 UNL A   1      24.907  -8.536  33.984  1.00  0.00    +0.000 H 
ENDBRANCH   82   83
ENDBRANCH   81   82
ENDBRANCH    2   78
ENDBRANCH    3    2
ENDBRANCH    5    3
ENDBRANCH    6    5
ENDBRANCH    7    6
ENDBRANCH    8    7
ENDBRANCH    9    8
ENDBRANCH   10    9
ENDBRANCH   11   10
ENDBRANCH   12   11
ENDBRANCH   13   12
ENDBRANCH   15   13
ENDBRANCH   19   18
BRANCH   23   24
ATOM     33  C24 UNL A   1      26.848 -15.453  37.975  1.00  0.00    +0.000 C 
ATOM     34  F5  UNL A   1      25.863 -16.046  37.285  1.00  0.00    +0.000 F 
ATOM     24  C19 UNL A   1      27.538 -14.361  37.426  1.00  0.00    +0.000 C 
ATOM     25  C20 UNL A   1      28.556 -13.774  38.191  1.00  0.00    +0.000 C 
ATOM     26  F1  UNL A   1      29.248 -12.731  37.707  1.00  0.00    +0.000 F 
ATOM     27  C21 UNL A   1      28.877 -14.267  39.453  1.00  0.00    +0.000 C 
ATOM     28  F2  UNL A   1      29.868 -13.705  40.158  1.00  0.00    +0.000 F 
ATOM     29  C22 UNL A   1      28.172 -15.338  39.983  1.00  0.00    +0.000 C 
ATOM     30  F3  UNL A   1      28.471 -15.799  41.205  1.00  0.00    +0.000 F 
ATOM     31  C23 UNL A   1      27.158 -15.930  39.245  1.00  0.00    +0.000 C 
ATOM     32  F4  UNL A   1      26.468 -16.957  39.761  1.00  0.00    +0.000 F 
ENDBRANCH   23   24
BRANCH   40   41
ATOM     41  C30 UNL A   1      22.013 -10.615  34.779  1.00  0.00    +0.000 C 
ATOM     42  C31 UNL A   1      21.974  -9.292  35.243  1.00  0.00    +0.000 C 
ATOM     43  F6  UNL A   1      23.101  -8.565  35.298  1.00  0.00    +0.000 F 
ATOM     44  C32 UNL A   1      20.782  -8.723  35.679  1.00  0.00    +0.000 C 
ATOM     45  F7  UNL A   1      20.774  -7.469  36.150  1.00  0.00    +0.000 F 
ATOM     46  C33 UNL A   1      19.604  -9.454  35.635  1.00  0.00    +0.000 C 
ATOM     47  F8  UNL A   1      18.455  -8.900  36.046  1.00  0.00    +0.000 F 
ATOM     48  C34 UNL A   1      19.619 -10.762  35.171  1.00  0.00    +0.000 C 
ATOM     49  F9  UNL A   1      18.479 -11.466  35.120  1.00  0.00    +0.000 F 
ATOM     50  C35 UNL A   1      20.813 -11.343  34.758  1.00  0.00    +0.000 C 
ATOM     51  F10 UNL A   1      20.800 -12.611  34.320  1.00  0.00    +0.000 F 
ENDBRANCH   40   41
BRANCH   55   56
ATOM     65  C44 UNL A   1      23.834 -12.059  27.676  1.00  0.00    +0.000 C 
ATOM     66  F15 UNL A   1      23.425 -13.225  28.198  1.00  0.00    +0.000 F 
ATOM     56  C39 UNL A   1      24.716 -11.238  28.395  1.00  0.00    +0.000 C 
ATOM     57  C40 UNL A   1      25.115 -10.033  27.803  1.00  0.00    +0.000 C 
ATOM     58  F11 UNL A   1      25.939  -9.205  28.463  1.00  0.00    +0.000 F 
ATOM     59  C41 UNL A   1      24.633  -9.650  26.553  1.00  0.00    +0.000 C 
ATOM     60  F12 UNL A   1      24.993  -8.470  26.032  1.00  0.00    +0.000 F 
ATOM     61  C42 UNL A   1      23.766 -10.480  25.858  1.00  0.00    +0.000 C 
ATOM     62  F13 UNL A   1      23.302 -10.112  24.657  1.00  0.00    +0.000 F 
ATOM     63  C43 UNL A   1      23.374 -11.689  26.415  1.00  0.00    +0.000 C 
ATOM     64  F14 UNL A   1      22.546 -12.498  25.741  1.00  0.00    +0.000 F 
ENDBRANCH   55   56
TORSDOF 19
ENDMDL
MODEL 6
REMARK VINA RESULT:     -10.6      3.353      7.147
ROOT
ATOM     19  C15 UNL A   1      39.823  28.886  29.203  1.00  0.00    +0.000 C 
ATOM     20  C16 UNL A   1      40.676  29.883  29.932  1.00  0.00    +0.000 C 
ATOM     21  N3  UNL A   1      41.945  29.811  30.245  1.00  0.00    +0.000 N 
ATOM     22  C17 UNL A   1      42.250  31.014  30.866  1.00  0.00    +0.000 C 
ATOM     23  C18 UNL A   1      43.430  31.407  31.402  1.00  0.00    +0.000 C 
ATOM     35  C25 UNL A   1      44.614  30.591  31.450  1.00  0.00    +0.000 C 
ATOM     36  C26 UNL A   1      45.815  30.853  32.086  1.00  0.00    +0.000 C 
ATOM     37  C27 UNL A   1      46.694  29.801  31.808  1.00  0.00    +0.000 C 
ATOM     38  C28 UNL A   1      46.027  28.867  31.032  1.00  0.00    +0.000 C 
ATOM     39  N4  UNL A   1      44.747  29.359  30.830  1.00  0.00    +0.000 N 
ATOM     40  C29 UNL A   1      46.521  27.625  30.499  1.00  0.00    +0.000 C 
ATOM     52  C36 UNL A   1      45.776  26.722  29.819  1.00  0.00    +0.000 C 
ATOM     53  N5  UNL A   1      44.432  26.782  29.480  1.00  0.00    +0.000 N 
ATOM     54  C37 UNL A   1      44.181  25.683  28.811  1.00  0.00    +0.000 C 
ATOM     55  C38 UNL A   1      42.885  25.216  28.208  1.00  0.00    +0.000 C 
ATOM     67  C45 UNL A   1      41.779  25.971  28.355  1.00  0.00    +0.000 C 
ATOM     68  C46 UNL A   1      40.465  25.654  27.807  1.00  0.00    +0.000 C 
ATOM     69  C47 UNL A   1      39.629  26.675  28.057  1.00  0.00    +0.000 C 
ATOM     70  C48 UNL A   1      40.342  27.703  28.818  1.00  0.00    +0.000 C 
ATOM     71  N6  UNL A   1      41.600  27.177  28.988  1.00  0.00    +0.000 N 
ATOM     72  C49 UNL A   1      45.350  24.806  28.638  1.00  0.00    +0.000 C 
ATOM     73  C50 UNL A   1      46.286  25.472  29.299  1.00  0.00    +0.000 C 
ATOM     74  C51 UNL A   1      41.043  31.812  30.862  1.00  0.00    +0.000 C 
ATOM     75  C52 UNL A   1      40.026  31.138  30.341  1.00  0.00    +0.000 C 
ATOM    111  H21 UNL A   1      46.025  31.680  32.664  1.00  0.00    +0.000 H 
ATOM    112  H22 UNL A   1      47.673  29.733  32.128  1.00  0.00    +0.000 H 
ATOM    113  H23 UNL A   1      44.040  28.900  30.322  1.00  0.00    +0.000 H 
ATOM    114  H24 UNL A   1      40.217  24.786  27.307  1.00  0.00    +0.000 H 
ATOM    115  H25 UNL A   1      38.642  26.728  27.760  1.00  0.00    +0.000 H 
ATOM    116  H26 UNL A   1      42.304  27.621  29.513  1.00  0.00    +0.000 H 
ATOM    117  H27 UNL A   1      45.421  23.909  28.134  1.00  0.00    +0.000 H 
ATOM    118  H28 UNL A   1      47.256  25.140  29.425  1.00  0.00    +0.000 H 
ATOM    119  H29 UNL A   1      40.982  32.779  31.216  1.00  0.00    +0.000 H 
ATOM    120  H30 UNL A   1      39.038  31.419  30.247  1.00  0.00    +0.000 H 
ENDROOT
BRANCH   19   18
ATOM     76  C53 UNL A   1      37.399  29.123  29.739  1.00  0.00    +0.000 C 
ATOM    109  H19 UNL A   1      36.665  30.558  26.266  1.00  0.00    +0.000 H 
ATOM     77  C54 UNL A   1      36.107  29.527  29.412  1.00  0.00    +0.000 C 
ATOM     15  C11 UNL A   1      35.859  30.119  28.171  1.00  0.00    +0.000 C 
ATOM     16  C12 UNL A   1      36.868  30.179  27.205  1.00  0.00    +0.000 C 
ATOM     17  C13 UNL A   1      38.151  29.722  27.515  1.00  0.00    +0.000 C 
ATOM    110  H20 UNL A   1      38.892  29.745  26.797  1.00  0.00    +0.000 H 
ATOM     18  C14 UNL A   1      38.436  29.234  28.800  1.00  0.00    +0.000 C 
ATOM    121  H31 UNL A   1      37.595  28.740  30.677  1.00  0.00    +0.000 H 
ATOM    122  H32 UNL A   1      35.335  29.389  30.083  1.00  0.00    +0.000 H 
BRANCH   15   13
ATOM     13  C10 UNL A   1      34.537  30.705  27.861  1.00  0.00    +0.000 C 
ATOM     14  O2  UNL A   1      34.314  31.882  28.128  1.00  0.00    +0.000 O 
BRANCH   13   12
ATOM    108  H18 UNL A   1      32.681  29.958  27.742  1.00  0.00    +0.000 H 
ATOM     12  N2  UNL A   1      33.560  29.921  27.299  1.00  0.00    +0.000 N 
BRANCH   12   11
ATOM    106  H16 UNL A   1      32.886  29.335  25.437  1.00  0.00    +0.000 H 
ATOM     11  C9  UNL A   1      33.640  29.045  26.140  1.00  0.00    +0.000 C 
ATOM    107  H17 UNL A   1      34.621  29.141  25.725  1.00  0.00    +0.000 H 
BRANCH   11   10
ATOM    105  H15 UNL A   1      32.389  27.469  26.725  1.00  0.00    +0.000 H 
ATOM     10  C8  UNL A   1      33.430  27.578  26.505  1.00  0.00    +0.000 C 
ATOM    104  H14 UNL A   1      34.065  27.348  27.335  1.00  0.00    +0.000 H 
BRANCH   10    9
ATOM      9  C7  UNL A   1      33.739  26.585  25.381  1.00  0.00    +0.000 C 
ATOM    102  H12 UNL A   1      32.857  26.475  24.786  1.00  0.00    +0.000 H 
ATOM    103  H13 UNL A   1      34.569  26.992  24.844  1.00  0.00    +0.000 H 
BRANCH    9    8
ATOM    100  H10 UNL A   1      34.560  25.282  26.841  1.00  0.00    +0.000 H 
ATOM    101  H11 UNL A   1      33.304  24.572  25.778  1.00  0.00    +0.000 H 
ATOM      8  C6  UNL A   1      34.174  25.192  25.846  1.00  0.00    +0.000 C 
BRANCH    8    7
ATOM     98  H8  UNL A   1      34.755  23.980  24.197  1.00  0.00    +0.000 H 
ATOM     99  H9  UNL A   1      35.884  25.294  24.621  1.00  0.00    +0.000 H 
ATOM      7  C5  UNL A   1      35.247  24.514  24.983  1.00  0.00    +0.000 C 
BRANCH    7    6
ATOM     97  H7  UNL A   1      36.582  24.043  26.574  1.00  0.00    +0.000 H 
ATOM      6  C4  UNL A   1      36.144  23.533  25.741  1.00  0.00    +0.000 C 
ATOM     96  H6  UNL A   1      36.907  23.174  25.082  1.00  0.00    +0.000 H 
BRANCH    6    5
ATOM      5  N1  UNL A   1      35.376  22.409  26.236  1.00  0.00    +0.000 N 
ATOM     95  H5  UNL A   1      35.000  22.523  27.138  1.00  0.00    +0.000 H 
BRANCH    5    3
ATOM      3  C3  UNL A   1      35.100  21.216  25.634  1.00  0.00    +0.000 C 
ATOM      4  O1  UNL A   1      36.061  20.587  25.186  1.00  0.00    +0.000 O 
BRANCH    3    2
ATOM      2  C2  UNL A   1      33.647  20.732  25.525  1.00  0.00    +0.000 C 
ATOM     94  H4  UNL A   1      33.331  20.516  26.524  1.00  0.00    +0.000 H 
BRANCH    2    1
ATOM      1  C1  UNL A   1      33.523  19.443  24.709  1.00  0.00    +0.000 C 
ATOM     91  H1  UNL A   1      33.869  19.618  23.712  1.00  0.00    +0.000 H 
ATOM     92  H2  UNL A   1      32.499  19.135  24.682  1.00  0.00    +0.000 H 
ATOM     93  H3  UNL A   1      34.115  18.675  25.163  1.00  0.00    +0.000 H 
ENDBRANCH    2    1
BRANCH    2   78
ATOM    134  H44 UNL A   1      30.392  24.009  25.962  1.00  0.00    +0.000 H 
ATOM     78  C55 UNL A   1      32.734  21.809  24.959  1.00  0.00    +0.000 C 
ATOM     79  C56 UNL A   1      32.736  22.139  23.597  1.00  0.00    +0.000 C 
ATOM     80  C57 UNL A   1      31.876  23.124  23.107  1.00  0.00    +0.000 C 
ATOM     81  C58 UNL A   1      30.993  23.797  23.956  1.00  0.00    +0.000 C 
ATOM     88  C64 UNL A   1      31.013  23.501  25.314  1.00  0.00    +0.000 C 
ATOM     89  C65 UNL A   1      31.872  22.516  25.800  1.00  0.00    +0.000 C 
ATOM     90  F16 UNL A   1      31.848  22.244  27.114  1.00  0.00    +0.000 F 
ATOM    123  H33 UNL A   1      33.376  21.650  22.953  1.00  0.00    +0.000 H 
ATOM    124  H34 UNL A   1      31.893  23.359  22.102  1.00  0.00    +0.000 H 
BRANCH   81   82
ATOM     82  O3  UNL A   1      30.204  24.709  23.324  1.00  0.00    +0.000 O 
BRANCH   82   83
ATOM    129  H39 UNL A   1      31.416  28.756  23.481  1.00  0.00    +0.000 H 
ATOM    130  H40 UNL A   1      28.718  28.470  22.258  1.00  0.00    +0.000 H 
ATOM    131  H41 UNL A   1      29.115  29.042  23.841  1.00  0.00    +0.000 H 
ATOM    132  H42 UNL A   1      28.787  26.951  24.711  1.00  0.00    +0.000 H 
ATOM    133  H43 UNL A   1      28.231  26.421  23.173  1.00  0.00    +0.000 H 
ATOM     83  C59 UNL A   1      30.349  26.110  23.498  1.00  0.00    +0.000 C 
ATOM     84  C60 UNL A   1      31.181  26.865  22.464  1.00  0.00    +0.000 C 
ATOM     85  C61 UNL A   1      30.807  28.315  22.720  1.00  0.00    +0.000 C 
ATOM     86  C62 UNL A   1      29.332  28.286  23.115  1.00  0.00    +0.000 C 
ATOM     87  C63 UNL A   1      29.049  26.893  23.675  1.00  0.00    +0.000 C 
ATOM    125  H35 UNL A   1      30.897  26.085  24.417  1.00  0.00    +0.000 H 
ATOM    126  H36 UNL A   1      30.919  26.568  21.470  1.00  0.00    +0.000 H 
ATOM    127  H37 UNL A   1      32.231  26.678  22.549  1.00  0.00    +0.000 H 
ATOM    128  H38 UNL A   1      30.947  28.900  21.834  1.00  0.00    +0.000 H 
ENDBRANCH   82   83
ENDBRANCH   81   82
ENDBRANCH    2   78
ENDBRANCH    3    2
ENDBRANCH    5    3
ENDBRANCH    6    5
ENDBRANCH    7    6
ENDBRANCH    8    7
ENDBRANCH    9    8
ENDBRANCH   10    9
ENDBRANCH   11   10
ENDBRANCH   12   11
ENDBRANCH   13   12
ENDBRANCH   15   13
ENDBRANCH   19   18
BRANCH   23   24
ATOM     33  C24 UNL A   1      43.164  32.991  33.339  1.00  0.00    +0.000 C 
ATOM     34  F5  UNL A   1      42.834  31.953  34.122  1.00  0.00    +0.000 F 
ATOM     24  C19 UNL A   1      43.510  32.781  31.995  1.00  0.00    +0.000 C 
ATOM     25  C20 UNL A   1      43.841  33.900  31.219  1.00  0.00    +0.000 C 
ATOM     26  F1  UNL A   1      44.185  33.749  29.931  1.00  0.00    +0.000 F 
ATOM     27  C21 UNL A   1      43.834  35.179  31.768  1.00  0.00    +0.000 C 
ATOM     28  F2  UNL A   1      44.177  36.232  31.014  1.00  0.00    +0.000 F 
ATOM     29  C22 UNL A   1      43.474  35.366  33.095  1.00  0.00    +0.000 C 
ATOM     30  F3  UNL A   1      43.451  36.600  33.617  1.00  0.00    +0.000 F 
ATOM     31  C23 UNL A   1      43.137  34.273  33.880  1.00  0.00    +0.000 C 
ATOM     32  F4  UNL A   1      42.777  34.453  35.158  1.00  0.00    +0.000 F 
ENDBRANCH   23   24
BRANCH   40   41
ATOM     41  C30 UNL A   1      47.968  27.297  30.720  1.00  0.00    +0.000 C 
ATOM     42  C31 UNL A   1      48.376  26.502  31.801  1.00  0.00    +0.000 C 
ATOM     43  F6  UNL A   1      47.476  26.072  32.699  1.00  0.00    +0.000 F 
ATOM     44  C32 UNL A   1      49.715  26.172  31.978  1.00  0.00    +0.000 C 
ATOM     45  F7  UNL A   1      50.088  25.440  33.037  1.00  0.00    +0.000 F 
ATOM     46  C33 UNL A   1      50.667  26.607  31.067  1.00  0.00    +0.000 C 
ATOM     47  F8  UNL A   1      51.955  26.278  31.235  1.00  0.00    +0.000 F 
ATOM     48  C34 UNL A   1      50.282  27.386  29.986  1.00  0.00    +0.000 C 
ATOM     49  F9  UNL A   1      51.200  27.799  29.099  1.00  0.00    +0.000 F 
ATOM     50  C35 UNL A   1      48.947  27.740  29.819  1.00  0.00    +0.000 C 
ATOM     51  F10 UNL A   1      48.605  28.500  28.767  1.00  0.00    +0.000 F 
ENDBRANCH   40   41
BRANCH   55   56
ATOM     65  C44 UNL A   1      43.130  23.896  26.078  1.00  0.00    +0.000 C 
ATOM     66  F15 UNL A   1      43.470  25.019  25.428  1.00  0.00    +0.000 F 
ATOM     56  C39 UNL A   1      42.822  23.943  27.446  1.00  0.00    +0.000 C 
ATOM     57  C40 UNL A   1      42.469  22.743  28.077  1.00  0.00    +0.000 C 
ATOM     58  F11 UNL A   1      42.188  22.735  29.389  1.00  0.00    +0.000 F 
ATOM     59  C41 UNL A   1      42.449  21.539  27.376  1.00  0.00    +0.000 C 
ATOM     60  F12 UNL A   1      42.156  20.399  28.014  1.00  0.00    +0.000 F 
ATOM     61  C42 UNL A   1      42.753  21.518  26.022  1.00  0.00    +0.000 C 
ATOM     62  F13 UNL A   1      42.734  20.361  25.348  1.00  0.00    +0.000 F 
ATOM     63  C43 UNL A   1      43.084  22.697  25.371  1.00  0.00    +0.000 C 
ATOM     64  F14 UNL A   1      43.366  22.682  24.062  1.00  0.00    +0.000 F 
ENDBRANCH   55   56
TORSDOF 19
ENDMDL
MODEL 7
REMARK VINA RESULT:     -10.6     37.203     43.420
ROOT
ATOM     19  C15 UNL A   1      13.530  50.119   3.089  1.00  0.00    +0.000 C 
ATOM     20  C16 UNL A   1      14.359  49.670   1.920  1.00  0.00    +0.000 C 
ATOM     21  N3  UNL A   1      15.162  50.370   1.160  1.00  0.00    +0.000 N 
ATOM     22  C17 UNL A   1      15.716  49.467   0.264  1.00  0.00    +0.000 C 
ATOM     23  C18 UNL A   1      16.583  49.713  -0.748  1.00  0.00    +0.000 C 
ATOM     35  C25 UNL A   1      17.072  51.019  -1.101  1.00  0.00    +0.000 C 
ATOM     36  C26 UNL A   1      17.849  51.383  -2.187  1.00  0.00    +0.000 C 
ATOM     37  C27 UNL A   1      18.128  52.750  -2.086  1.00  0.00    +0.000 C 
ATOM     38  C28 UNL A   1      17.493  53.243  -0.958  1.00  0.00    +0.000 C 
ATOM     39  N4  UNL A   1      16.838  52.173  -0.370  1.00  0.00    +0.000 N 
ATOM     40  C29 UNL A   1      17.493  54.587  -0.443  1.00  0.00    +0.000 C 
ATOM     52  C36 UNL A   1      16.772  55.009   0.623  1.00  0.00    +0.000 C 
ATOM     53  N5  UNL A   1      15.917  54.282   1.438  1.00  0.00    +0.000 N 
ATOM     54  C37 UNL A   1      15.473  55.125   2.338  1.00  0.00    +0.000 C 
ATOM     55  C38 UNL A   1      14.512  54.886   3.468  1.00  0.00    +0.000 C 
ATOM     67  C45 UNL A   1      13.969  53.663   3.626  1.00  0.00    +0.000 C 
ATOM     68  C46 UNL A   1      13.042  53.284   4.686  1.00  0.00    +0.000 C 
ATOM     69  C47 UNL A   1      12.793  51.967   4.599  1.00  0.00    +0.000 C 
ATOM     70  C48 UNL A   1      13.516  51.417   3.449  1.00  0.00    +0.000 C 
ATOM     71  N6  UNL A   1      14.150  52.507   2.905  1.00  0.00    +0.000 N 
ATOM     72  C49 UNL A   1      16.015  56.486   2.201  1.00  0.00    +0.000 C 
ATOM     73  C50 UNL A   1      16.776  56.367   1.122  1.00  0.00    +0.000 C 
ATOM     74  C51 UNL A   1      15.182  48.163   0.590  1.00  0.00    +0.000 C 
ATOM     75  C52 UNL A   1      14.297  48.240   1.575  1.00  0.00    +0.000 C 
ATOM    111  H21 UNL A   1      18.167  50.755  -2.940  1.00  0.00    +0.000 H 
ATOM    112  H22 UNL A   1      18.708  53.297  -2.741  1.00  0.00    +0.000 H 
ATOM    113  H23 UNL A   1      16.289  52.225   0.446  1.00  0.00    +0.000 H 
ATOM    114  H24 UNL A   1      12.642  53.923   5.390  1.00  0.00    +0.000 H 
ATOM    115  H25 UNL A   1      12.189  51.428   5.239  1.00  0.00    +0.000 H 
ATOM    116  H26 UNL A   1      14.683  52.465   2.078  1.00  0.00    +0.000 H 
ATOM    117  H27 UNL A   1      15.847  57.315   2.791  1.00  0.00    +0.000 H 
ATOM    118  H28 UNL A   1      17.303  57.144   0.693  1.00  0.00    +0.000 H 
ATOM    119  H29 UNL A   1      15.455  47.286   0.119  1.00  0.00    +0.000 H 
ATOM    120  H30 UNL A   1      13.718  47.495   1.990  1.00  0.00    +0.000 H 
ENDROOT
BRANCH   19   18
ATOM     76  C53 UNL A   1      11.436  48.921   3.719  1.00  0.00    +0.000 C 
ATOM    109  H19 UNL A   1      13.320  46.741   6.242  1.00  0.00    +0.000 H 
ATOM     77  C54 UNL A   1      10.757  47.934   4.431  1.00  0.00    +0.000 C 
ATOM     15  C11 UNL A   1      11.463  47.092   5.294  1.00  0.00    +0.000 C 
ATOM     16  C12 UNL A   1      12.817  47.325   5.554  1.00  0.00    +0.000 C 
ATOM     17  C13 UNL A   1      13.484  48.351   4.882  1.00  0.00    +0.000 C 
ATOM    110  H20 UNL A   1      14.478  48.540   5.089  1.00  0.00    +0.000 H 
ATOM     18  C14 UNL A   1      12.809  49.126   3.925  1.00  0.00    +0.000 C 
ATOM    121  H31 UNL A   1      10.926  49.504   3.038  1.00  0.00    +0.000 H 
ATOM    122  H32 UNL A   1       9.737  47.826   4.321  1.00  0.00    +0.000 H 
BRANCH   15   13
ATOM     13  C10 UNL A   1      10.801  45.935   5.934  1.00  0.00    +0.000 C 
ATOM     14  O2  UNL A   1       9.605  45.735   5.745  1.00  0.00    +0.000 O 
BRANCH   13   12
ATOM    108  H18 UNL A   1      12.003  44.375   6.305  1.00  0.00    +0.000 H 
ATOM     12  N2  UNL A   1      11.524  45.106   6.756  1.00  0.00    +0.000 N 
BRANCH   12   11
ATOM    106  H16 UNL A   1      11.123  44.354   8.637  1.00  0.00    +0.000 H 
ATOM     11  C9  UNL A   1      11.681  45.158   8.202  1.00  0.00    +0.000 C 
ATOM    107  H17 UNL A   1      12.725  45.074   8.420  1.00  0.00    +0.000 H 
BRANCH   11   10
ATOM    105  H15 UNL A   1      10.730  46.230   9.730  1.00  0.00    +0.000 H 
ATOM     10  C8  UNL A   1      11.186  46.474   8.794  1.00  0.00    +0.000 C 
ATOM    104  H14 UNL A   1      10.508  46.919   8.095  1.00  0.00    +0.000 H 
BRANCH   10    9
ATOM      9  C7  UNL A   1      12.285  47.494   9.104  1.00  0.00    +0.000 C 
ATOM    102  H12 UNL A   1      12.578  47.364  10.125  1.00  0.00    +0.000 H 
ATOM    103  H13 UNL A   1      13.073  47.303   8.406  1.00  0.00    +0.000 H 
BRANCH    9    8
ATOM    100  H10 UNL A   1      11.639  49.098   7.876  1.00  0.00    +0.000 H 
ATOM    101  H11 UNL A   1      11.067  49.134   9.574  1.00  0.00    +0.000 H 
ATOM      8  C6  UNL A   1      11.887  48.959   8.908  1.00  0.00    +0.000 C 
BRANCH    8    7
ATOM     98  H8  UNL A   1      13.921  49.560   9.078  1.00  0.00    +0.000 H 
ATOM     99  H9  UNL A   1      12.764  50.862   8.691  1.00  0.00    +0.000 H 
ATOM      7  C5  UNL A   1      12.962  49.990   9.279  1.00  0.00    +0.000 C 
BRANCH    7    6
ATOM     97  H7  UNL A   1      12.034  50.074  11.194  1.00  0.00    +0.000 H 
ATOM      6  C4  UNL A   1      12.934  50.436  10.743  1.00  0.00    +0.000 C 
ATOM     96  H6  UNL A   1      12.967  51.505  10.785  1.00  0.00    +0.000 H 
BRANCH    6    5
ATOM      5  N1  UNL A   1      14.066  49.897  11.467  1.00  0.00    +0.000 N 
ATOM     95  H5  UNL A   1      13.917  49.018  11.884  1.00  0.00    +0.000 H 
BRANCH    5    3
ATOM      3  C3  UNL A   1      15.308  50.430  11.657  1.00  0.00    +0.000 C 
ATOM      4  O1  UNL A   1      15.369  51.467  12.322  1.00  0.00    +0.000 O 
BRANCH    3    2
ATOM      2  C2  UNL A   1      16.536  49.750  11.036  1.00  0.00    +0.000 C 
ATOM     94  H4  UNL A   1      16.557  48.757  11.432  1.00  0.00    +0.000 H 
BRANCH    2    1
ATOM      1  C1  UNL A   1      17.845  50.437  11.434  1.00  0.00    +0.000 C 
ATOM     91  H1  UNL A   1      18.420  49.777  12.049  1.00  0.00    +0.000 H 
ATOM     92  H2  UNL A   1      17.627  51.332  11.979  1.00  0.00    +0.000 H 
ATOM     93  H3  UNL A   1      18.401  50.681  10.553  1.00  0.00    +0.000 H 
ENDBRANCH    2    1
BRANCH    2   78
ATOM    134  H44 UNL A   1      15.923  47.377   7.096  1.00  0.00    +0.000 H 
ATOM     78  C55 UNL A   1      16.424  49.657   9.522  1.00  0.00    +0.000 C 
ATOM     79  C56 UNL A   1      16.530  50.789   8.702  1.00  0.00    +0.000 C 
ATOM     80  C57 UNL A   1      16.436  50.668   7.314  1.00  0.00    +0.000 C 
ATOM     81  C58 UNL A   1      16.242  49.422   6.711  1.00  0.00    +0.000 C 
ATOM     88  C64 UNL A   1      16.099  48.301   7.521  1.00  0.00    +0.000 C 
ATOM     89  C65 UNL A   1      16.194  48.425   8.906  1.00  0.00    +0.000 C 
ATOM     90  F16 UNL A   1      16.071  47.317   9.653  1.00  0.00    +0.000 F 
ATOM    123  H33 UNL A   1      16.678  51.717   9.127  1.00  0.00    +0.000 H 
ATOM    124  H34 UNL A   1      16.511  51.511   6.724  1.00  0.00    +0.000 H 
BRANCH   81   82
ATOM     82  O3  UNL A   1      16.197  49.466   5.351  1.00  0.00    +0.000 O 
BRANCH   82   83
ATOM    129  H39 UNL A   1      19.628  49.716   2.894  1.00  0.00    +0.000 H 
ATOM    130  H40 UNL A   1      17.407  51.395   1.843  1.00  0.00    +0.000 H 
ATOM    131  H41 UNL A   1      18.840  51.914   2.659  1.00  0.00    +0.000 H 
ATOM    132  H42 UNL A   1      17.728  51.943   4.658  1.00  0.00    +0.000 H 
ATOM    133  H43 UNL A   1      16.265  51.591   3.826  1.00  0.00    +0.000 H 
ATOM     83  C59 UNL A   1      17.308  49.837   4.551  1.00  0.00    +0.000 C 
ATOM     84  C60 UNL A   1      17.689  48.909   3.401  1.00  0.00    +0.000 C 
ATOM     85  C61 UNL A   1      18.614  49.772   2.559  1.00  0.00    +0.000 C 
ATOM     86  C62 UNL A   1      18.053  51.189   2.671  1.00  0.00    +0.000 C 
ATOM     87  C63 UNL A   1      17.269  51.254   3.980  1.00  0.00    +0.000 C 
ATOM    125  H35 UNL A   1      18.062  49.762   5.308  1.00  0.00    +0.000 H 
ATOM    126  H36 UNL A   1      16.824  48.613   2.844  1.00  0.00    +0.000 H 
ATOM    127  H37 UNL A   1      18.144  47.997   3.727  1.00  0.00    +0.000 H 
ATOM    128  H38 UNL A   1      18.606  49.446   1.539  1.00  0.00    +0.000 H 
ENDBRANCH   82   83
ENDBRANCH   81   82
ENDBRANCH    2   78
ENDBRANCH    3    2
ENDBRANCH    5    3
ENDBRANCH    6    5
ENDBRANCH    7    6
ENDBRANCH    8    7
ENDBRANCH    9    8
ENDBRANCH   10    9
ENDBRANCH   11   10
ENDBRANCH   12   11
ENDBRANCH   13   12
ENDBRANCH   15   13
ENDBRANCH   19   18
BRANCH   23   24
ATOM     33  C24 UNL A   1      16.387  48.188  -2.740  1.00  0.00    +0.000 C 
ATOM     34  F5  UNL A   1      15.359  48.928  -3.184  1.00  0.00    +0.000 F 
ATOM     24  C19 UNL A   1      17.061  48.550  -1.563  1.00  0.00    +0.000 C 
ATOM     25  C20 UNL A   1      18.123  47.741  -1.139  1.00  0.00    +0.000 C 
ATOM     26  F1  UNL A   1      18.802  48.048  -0.023  1.00  0.00    +0.000 F 
ATOM     27  C21 UNL A   1      18.503  46.617  -1.869  1.00  0.00    +0.000 C 
ATOM     28  F2  UNL A   1      19.537  45.870  -1.457  1.00  0.00    +0.000 F 
ATOM     29  C22 UNL A   1      17.814  46.270  -3.022  1.00  0.00    +0.000 C 
ATOM     30  F3  UNL A   1      18.169  45.179  -3.713  1.00  0.00    +0.000 F 
ATOM     31  C23 UNL A   1      16.755  47.053  -3.456  1.00  0.00    +0.000 C 
ATOM     32  F4  UNL A   1      16.080  46.712  -4.563  1.00  0.00    +0.000 F 
ENDBRANCH   23   24
BRANCH   40   41
ATOM     41  C30 UNL A   1      18.347  55.602  -1.142  1.00  0.00    +0.000 C 
ATOM     42  C31 UNL A   1      17.875  56.300  -2.263  1.00  0.00    +0.000 C 
ATOM     43  F6  UNL A   1      16.664  56.022  -2.770  1.00  0.00    +0.000 F 
ATOM     44  C32 UNL A   1      18.659  57.267  -2.884  1.00  0.00    +0.000 C 
ATOM     45  F7  UNL A   1      18.202  57.898  -3.974  1.00  0.00    +0.000 F 
ATOM     46  C33 UNL A   1      19.916  57.572  -2.382  1.00  0.00    +0.000 C 
ATOM     47  F8  UNL A   1      20.665  58.512  -2.976  1.00  0.00    +0.000 F 
ATOM     48  C34 UNL A   1      20.398  56.899  -1.269  1.00  0.00    +0.000 C 
ATOM     49  F9  UNL A   1      21.608  57.200  -0.778  1.00  0.00    +0.000 F 
ATOM     50  C35 UNL A   1      19.627  55.914  -0.660  1.00  0.00    +0.000 C 
ATOM     51  F10 UNL A   1      20.120  55.275   0.411  1.00  0.00    +0.000 F 
ENDBRANCH   40   41
BRANCH   55   56
ATOM     65  C44 UNL A   1      12.967  56.697   4.287  1.00  0.00    +0.000 C 
ATOM     66  F15 UNL A   1      12.115  56.414   3.292  1.00  0.00    +0.000 F 
ATOM     56  C39 UNL A   1      14.167  55.981   4.411  1.00  0.00    +0.000 C 
ATOM     57  C40 UNL A   1      15.024  56.319   5.466  1.00  0.00    +0.000 C 
ATOM     58  F11 UNL A   1      16.171  55.646   5.638  1.00  0.00    +0.000 F 
ATOM     59  C41 UNL A   1      14.685  57.317   6.378  1.00  0.00    +0.000 C 
ATOM     60  F12 UNL A   1      15.499  57.586   7.406  1.00  0.00    +0.000 F 
ATOM     61  C42 UNL A   1      13.495  58.016   6.233  1.00  0.00    +0.000 C 
ATOM     62  F13 UNL A   1      13.168  58.974   7.110  1.00  0.00    +0.000 F 
ATOM     63  C43 UNL A   1      12.641  57.713   5.183  1.00  0.00    +0.000 C 
ATOM     64  F14 UNL A   1      11.497  58.394   5.034  1.00  0.00    +0.000 F 
ENDBRANCH   55   56
TORSDOF 19
ENDMDL
MODEL 8
REMARK VINA RESULT:     -10.6     37.862     43.211
ROOT
ATOM     19  C15 UNL A   1      13.024  49.476   3.649  1.00  0.00    +0.000 C 
ATOM     20  C16 UNL A   1      13.880  49.150   2.458  1.00  0.00    +0.000 C 
ATOM     21  N3  UNL A   1      14.688  49.929   1.785  1.00  0.00    +0.000 N 
ATOM     22  C17 UNL A   1      15.269  49.122   0.816  1.00  0.00    +0.000 C 
ATOM     23  C18 UNL A   1      16.152  49.473  -0.149  1.00  0.00    +0.000 C 
ATOM     35  C25 UNL A   1      16.632  50.813  -0.365  1.00  0.00    +0.000 C 
ATOM     36  C26 UNL A   1      17.424  51.287  -1.396  1.00  0.00    +0.000 C 
ATOM     37  C27 UNL A   1      17.685  52.641  -1.157  1.00  0.00    +0.000 C 
ATOM     38  C28 UNL A   1      17.024  53.016   0.000  1.00  0.00    +0.000 C 
ATOM     39  N4  UNL A   1      16.371  51.888   0.470  1.00  0.00    +0.000 N 
ATOM     40  C29 UNL A   1      17.000  54.303   0.643  1.00  0.00    +0.000 C 
ATOM     52  C36 UNL A   1      16.254  54.614   1.730  1.00  0.00    +0.000 C 
ATOM     53  N5  UNL A   1      15.392  53.803   2.454  1.00  0.00    +0.000 N 
ATOM     54  C37 UNL A   1      14.923  54.550   3.423  1.00  0.00    +0.000 C 
ATOM     55  C38 UNL A   1      13.943  54.194   4.505  1.00  0.00    +0.000 C 
ATOM     67  C45 UNL A   1      13.412  52.956   4.534  1.00  0.00    +0.000 C 
ATOM     68  C46 UNL A   1      12.470  52.467   5.535  1.00  0.00    +0.000 C 
ATOM     69  C47 UNL A   1      12.238  51.162   5.315  1.00  0.00    +0.000 C 
ATOM     70  C48 UNL A   1      12.988  50.733   4.133  1.00  0.00    +0.000 C 
ATOM     71  N6  UNL A   1      13.620  51.877   3.708  1.00  0.00    +0.000 N 
ATOM     72  C49 UNL A   1      15.451  55.924   3.429  1.00  0.00    +0.000 C 
ATOM     73  C50 UNL A   1      16.232  55.917   2.358  1.00  0.00    +0.000 C 
ATOM     74  C51 UNL A   1      14.745  47.787   1.005  1.00  0.00    +0.000 C 
ATOM     75  C52 UNL A   1      13.841  47.761   1.976  1.00  0.00    +0.000 C 
ATOM    111  H21 UNL A   1      17.764  50.738  -2.200  1.00  0.00    +0.000 H 
ATOM    112  H22 UNL A   1      18.271  53.254  -1.745  1.00  0.00    +0.000 H 
ATOM    113  H23 UNL A   1      15.807  51.856   1.276  1.00  0.00    +0.000 H 
ATOM    114  H24 UNL A   1      12.050  53.031   6.289  1.00  0.00    +0.000 H 
ATOM    115  H25 UNL A   1      11.629  50.558   5.888  1.00  0.00    +0.000 H 
ATOM    116  H26 UNL A   1      14.168  51.920   2.892  1.00  0.00    +0.000 H 
ATOM    117  H27 UNL A   1      15.262  56.690   4.093  1.00  0.00    +0.000 H 
ATOM    118  H28 UNL A   1      16.758  56.737   2.017  1.00  0.00    +0.000 H 
ATOM    119  H29 UNL A   1      15.037  46.963   0.456  1.00  0.00    +0.000 H 
ATOM    120  H30 UNL A   1      13.263  46.973   2.306  1.00  0.00    +0.000 H 
ENDROOT
BRANCH   19   18
ATOM     76  C53 UNL A   1      12.913  47.772   5.466  1.00  0.00    +0.000 C 
ATOM    109  H19 UNL A   1       9.309  46.870   4.541  1.00  0.00    +0.000 H 
ATOM     77  C54 UNL A   1      12.220  46.822   6.212  1.00  0.00    +0.000 C 
ATOM     15  C11 UNL A   1      10.881  46.551   5.918  1.00  0.00    +0.000 C 
ATOM     16  C12 UNL A   1      10.278  47.122   4.793  1.00  0.00    +0.000 C 
ATOM     17  C13 UNL A   1      10.992  48.033   4.012  1.00  0.00    +0.000 C 
ATOM    110  H20 UNL A   1      10.557  48.439   3.169  1.00  0.00    +0.000 H 
ATOM     18  C14 UNL A   1      12.299  48.400   4.371  1.00  0.00    +0.000 C 
ATOM    121  H31 UNL A   1      13.883  48.016   5.720  1.00  0.00    +0.000 H 
ATOM    122  H32 UNL A   1      12.693  46.320   6.980  1.00  0.00    +0.000 H 
BRANCH   15   13
ATOM     13  C10 UNL A   1      10.075  45.673   6.792  1.00  0.00    +0.000 C 
ATOM     14  O2  UNL A   1       9.429  44.752   6.303  1.00  0.00    +0.000 O 
BRANCH   13   12
ATOM    108  H18 UNL A   1      10.452  45.221   8.708  1.00  0.00    +0.000 H 
ATOM     12  N2  UNL A   1      10.034  45.911   8.144  1.00  0.00    +0.000 N 
BRANCH   12   11
ATOM    106  H16 UNL A   1       9.827  47.946   8.425  1.00  0.00    +0.000 H 
ATOM     11  C9  UNL A   1       9.459  47.040   8.860  1.00  0.00    +0.000 C 
ATOM    107  H17 UNL A   1       8.394  46.970   8.779  1.00  0.00    +0.000 H 
BRANCH   11   10
ATOM    105  H15 UNL A   1       9.421  46.116  10.740  1.00  0.00    +0.000 H 
ATOM     10  C8  UNL A   1       9.814  47.029  10.344  1.00  0.00    +0.000 C 
ATOM    104  H14 UNL A   1       9.390  47.903  10.794  1.00  0.00    +0.000 H 
BRANCH   10    9
ATOM      9  C7  UNL A   1      11.314  47.019  10.647  1.00  0.00    +0.000 C 
ATOM    102  H12 UNL A   1      11.438  47.070  11.708  1.00  0.00    +0.000 H 
ATOM    103  H13 UNL A   1      11.698  46.118  10.214  1.00  0.00    +0.000 H 
BRANCH    9    8
ATOM    100  H10 UNL A   1      11.804  48.263   9.000  1.00  0.00    +0.000 H 
ATOM    101  H11 UNL A   1      11.904  49.030  10.616  1.00  0.00    +0.000 H 
ATOM      8  C6  UNL A   1      12.112  48.166  10.020  1.00  0.00    +0.000 C 
BRANCH    8    7
ATOM     98  H8  UNL A   1      13.858  46.951   9.971  1.00  0.00    +0.000 H 
ATOM     99  H9  UNL A   1      14.017  48.557   9.211  1.00  0.00    +0.000 H 
ATOM      7  C5  UNL A   1      13.638  47.995  10.039  1.00  0.00    +0.000 C 
BRANCH    7    6
ATOM     97  H7  UNL A   1      15.382  48.479  11.163  1.00  0.00    +0.000 H 
ATOM      6  C4  UNL A   1      14.322  48.549  11.291  1.00  0.00    +0.000 C 
ATOM     96  H6  UNL A   1      14.011  47.978  12.142  1.00  0.00    +0.000 H 
BRANCH    6    5
ATOM      5  N1  UNL A   1      13.970  49.938  11.498  1.00  0.00    +0.000 N 
ATOM     95  H5  UNL A   1      13.009  50.140  11.446  1.00  0.00    +0.000 H 
BRANCH    5    3
ATOM      3  C3  UNL A   1      14.777  51.008  11.754  1.00  0.00    +0.000 C 
ATOM      4  O1  UNL A   1      15.080  51.203  12.934  1.00  0.00    +0.000 O 
BRANCH    3    2
ATOM      2  C2  UNL A   1      15.244  51.909  10.602  1.00  0.00    +0.000 C 
ATOM     94  H4  UNL A   1      16.130  52.398  10.948  1.00  0.00    +0.000 H 
BRANCH    2    1
ATOM      1  C1  UNL A   1      14.219  52.992  10.259  1.00  0.00    +0.000 C 
ATOM     91  H1  UNL A   1      13.311  52.806  10.793  1.00  0.00    +0.000 H 
ATOM     92  H2  UNL A   1      14.023  52.978   9.207  1.00  0.00    +0.000 H 
ATOM     93  H3  UNL A   1      14.607  53.951  10.536  1.00  0.00    +0.000 H 
ENDBRANCH    2    1
BRANCH    2   78
ATOM    134  H44 UNL A   1      18.107  49.232   8.120  1.00  0.00    +0.000 H 
ATOM     78  C55 UNL A   1      15.599  51.101   9.363  1.00  0.00    +0.000 C 
ATOM     79  C56 UNL A   1      14.712  50.972   8.285  1.00  0.00    +0.000 C 
ATOM     80  C57 UNL A   1      15.074  50.235   7.156  1.00  0.00    +0.000 C 
ATOM     81  C58 UNL A   1      16.324  49.616   7.070  1.00  0.00    +0.000 C 
ATOM     88  C64 UNL A   1      17.193  49.709   8.151  1.00  0.00    +0.000 C 
ATOM     89  C65 UNL A   1      16.830  50.446   9.277  1.00  0.00    +0.000 C 
ATOM     90  F16 UNL A   1      17.704  50.530  10.291  1.00  0.00    +0.000 F 
ATOM    123  H33 UNL A   1      13.787  51.426   8.327  1.00  0.00    +0.000 H 
ATOM    124  H34 UNL A   1      14.408  50.145   6.373  1.00  0.00    +0.000 H 
BRANCH   81   82
ATOM     82  O3  UNL A   1      16.536  48.956   5.898  1.00  0.00    +0.000 O 
BRANCH   82   83
ATOM    129  H39 UNL A   1      16.910  51.641   2.654  1.00  0.00    +0.000 H 
ATOM    130  H40 UNL A   1      19.392  50.046   3.044  1.00  0.00    +0.000 H 
ATOM    131  H41 UNL A   1      18.190  49.862   1.815  1.00  0.00    +0.000 H 
ATOM    132  H42 UNL A   1      17.131  48.253   3.050  1.00  0.00    +0.000 H 
ATOM    133  H43 UNL A   1      18.414  48.314   4.193  1.00  0.00    +0.000 H 
ATOM     83  C59 UNL A   1      16.753  49.622   4.664  1.00  0.00    +0.000 C 
ATOM     84  C60 UNL A   1      17.200  51.081   4.720  1.00  0.00    +0.000 C 
ATOM     85  C61 UNL A   1      17.700  51.337   3.308  1.00  0.00    +0.000 C 
ATOM     86  C62 UNL A   1      18.338  50.023   2.863  1.00  0.00    +0.000 C 
ATOM     87  C63 UNL A   1      17.687  48.912   3.685  1.00  0.00    +0.000 C 
ATOM    125  H35 UNL A   1      15.745  49.592   4.305  1.00  0.00    +0.000 H 
ATOM    126  H36 UNL A   1      17.982  51.215   5.438  1.00  0.00    +0.000 H 
ATOM    127  H37 UNL A   1      16.420  51.749   5.020  1.00  0.00    +0.000 H 
ATOM    128  H38 UNL A   1      18.424  52.126   3.306  1.00  0.00    +0.000 H 
ENDBRANCH   82   83
ENDBRANCH   81   82
ENDBRANCH    2   78
ENDBRANCH    3    2
ENDBRANCH    5    3
ENDBRANCH    6    5
ENDBRANCH    7    6
ENDBRANCH    8    7
ENDBRANCH    9    8
ENDBRANCH   10    9
ENDBRANCH   11   10
ENDBRANCH   12   11
ENDBRANCH   13   12
ENDBRANCH   15   13
ENDBRANCH   19   18
BRANCH   23   24
ATOM     33  C24 UNL A   1      17.900  47.793  -0.820  1.00  0.00    +0.000 C 
ATOM     34  F5  UNL A   1      18.606  48.114   0.274  1.00  0.00    +0.000 F 
ATOM     24  C19 UNL A   1      16.658  48.399  -1.064  1.00  0.00    +0.000 C 
ATOM     25  C20 UNL A   1      15.963  48.033  -2.224  1.00  0.00    +0.000 C 
ATOM     26  F1  UNL A   1      14.769  48.581  -2.497  1.00  0.00    +0.000 F 
ATOM     27  C21 UNL A   1      16.487  47.089  -3.104  1.00  0.00    +0.000 C 
ATOM     28  F2  UNL A   1      15.796  46.737  -4.196  1.00  0.00    +0.000 F 
ATOM     29  C22 UNL A   1      17.724  46.513  -2.852  1.00  0.00    +0.000 C 
ATOM     30  F3  UNL A   1      18.234  45.619  -3.709  1.00  0.00    +0.000 F 
ATOM     31  C23 UNL A   1      18.431  46.866  -1.712  1.00  0.00    +0.000 C 
ATOM     32  F4  UNL A   1      19.631  46.319  -1.473  1.00  0.00    +0.000 F 
ENDBRANCH   23   24
BRANCH   40   41
ATOM     41  C30 UNL A   1      17.854  55.390   0.062  1.00  0.00    +0.000 C 
ATOM     42  C31 UNL A   1      19.117  55.686   0.595  1.00  0.00    +0.000 C 
ATOM     43  F6  UNL A   1      19.557  55.037   1.684  1.00  0.00    +0.000 F 
ATOM     44  C32 UNL A   1      19.918  56.671   0.028  1.00  0.00    +0.000 C 
ATOM     45  F7  UNL A   1      21.107  56.961   0.574  1.00  0.00    +0.000 F 
ATOM     46  C33 UNL A   1      19.486  57.359  -1.096  1.00  0.00    +0.000 C 
ATOM     47  F8  UNL A   1      20.265  58.301  -1.647  1.00  0.00    +0.000 F 
ATOM     48  C34 UNL A   1      18.244  57.076  -1.645  1.00  0.00    +0.000 C 
ATOM     49  F9  UNL A   1      17.829  57.734  -2.737  1.00  0.00    +0.000 F 
ATOM     50  C35 UNL A   1      17.428  56.109  -1.065  1.00  0.00    +0.000 C 
ATOM     51  F10 UNL A   1      16.229  55.859  -1.613  1.00  0.00    +0.000 F 
ENDBRANCH   40   41
BRANCH   55   56
ATOM     65  C44 UNL A   1      12.609  56.179   5.288  1.00  0.00    +0.000 C 
ATOM     66  F15 UNL A   1      12.025  56.256   4.083  1.00  0.00    +0.000 F 
ATOM     56  C39 UNL A   1      13.568  55.188   5.543  1.00  0.00    +0.000 C 
ATOM     57  C40 UNL A   1      14.150  55.155   6.817  1.00  0.00    +0.000 C 
ATOM     58  F11 UNL A   1      15.055  54.210   7.114  1.00  0.00    +0.000 F 
ATOM     59  C41 UNL A   1      13.770  56.059   7.807  1.00  0.00    +0.000 C 
ATOM     60  F12 UNL A   1      14.307  55.974   9.030  1.00  0.00    +0.000 F 
ATOM     61  C42 UNL A   1      12.823  57.035   7.530  1.00  0.00    +0.000 C 
ATOM     62  F13 UNL A   1      12.457  57.904   8.482  1.00  0.00    +0.000 F 
ATOM     63  C43 UNL A   1      12.249  57.101   6.269  1.00  0.00    +0.000 C 
ATOM     64  F14 UNL A   1      11.343  58.049   5.996  1.00  0.00    +0.000 F 
ENDBRANCH   55   56
TORSDOF 19
ENDMDL
MODEL 9
REMARK VINA RESULT:     -10.6     20.412     26.153
ROOT
ATOM     19  C15 UNL A   1      25.780  35.634  45.355  1.00  0.00    +0.000 C 
ATOM     20  C16 UNL A   1      27.106  35.621  44.650  1.00  0.00    +0.000 C 
ATOM     21  N3  UNL A   1      28.117  36.441  44.779  1.00  0.00    +0.000 N 
ATOM     22  C17 UNL A   1      29.109  35.954  43.939  1.00  0.00    +0.000 C 
ATOM     23  C18 UNL A   1      30.335  36.476  43.696  1.00  0.00    +0.000 C 
ATOM     35  C25 UNL A   1      30.826  37.701  44.269  1.00  0.00    +0.000 C 
ATOM     36  C26 UNL A   1      32.001  38.374  43.983  1.00  0.00    +0.000 C 
ATOM     37  C27 UNL A   1      32.083  39.485  44.829  1.00  0.00    +0.000 C 
ATOM     38  C28 UNL A   1      30.943  39.523  45.614  1.00  0.00    +0.000 C 
ATOM     39  N4  UNL A   1      30.174  38.429  45.251  1.00  0.00    +0.000 N 
ATOM     40  C29 UNL A   1      30.584  40.475  46.631  1.00  0.00    +0.000 C 
ATOM     52  C36 UNL A   1      29.404  40.493  47.296  1.00  0.00    +0.000 C 
ATOM     53  N5  UNL A   1      28.322  39.633  47.171  1.00  0.00    +0.000 N 
ATOM     54  C37 UNL A   1      27.431  40.048  48.038  1.00  0.00    +0.000 C 
ATOM     55  C38 UNL A   1      26.064  39.495  48.329  1.00  0.00    +0.000 C 
ATOM     67  C45 UNL A   1      25.614  38.440  47.624  1.00  0.00    +0.000 C 
ATOM     68  C46 UNL A   1      24.322  37.788  47.813  1.00  0.00    +0.000 C 
ATOM     69  C47 UNL A   1      24.255  36.710  47.014  1.00  0.00    +0.000 C 
ATOM     70  C48 UNL A   1      25.487  36.618  46.227  1.00  0.00    +0.000 C 
ATOM     71  N6  UNL A   1      26.216  37.714  46.623  1.00  0.00    +0.000 N 
ATOM     72  C49 UNL A   1      27.858  41.215  48.824  1.00  0.00    +0.000 C 
ATOM     73  C50 UNL A   1      29.054  41.464  48.309  1.00  0.00    +0.000 C 
ATOM     74  C51 UNL A   1      28.591  34.750  43.325  1.00  0.00    +0.000 C 
ATOM     75  C52 UNL A   1      27.336  34.528  43.692  1.00  0.00    +0.000 C 
ATOM    111  H21 UNL A   1      32.695  38.104  43.270  1.00  0.00    +0.000 H 
ATOM    112  H22 UNL A   1      32.862  40.161  44.863  1.00  0.00    +0.000 H 
ATOM    113  H23 UNL A   1      29.295  38.203  45.635  1.00  0.00    +0.000 H 
ATOM    114  H24 UNL A   1      23.580  38.104  48.456  1.00  0.00    +0.000 H 
ATOM    115  H25 UNL A   1      23.462  36.052  46.963  1.00  0.00    +0.000 H 
ATOM    116  H26 UNL A   1      27.085  37.955  46.229  1.00  0.00    +0.000 H 
ATOM    117  H27 UNL A   1      27.358  41.710  49.578  1.00  0.00    +0.000 H 
ATOM    118  H28 UNL A   1      29.658  42.251  48.596  1.00  0.00    +0.000 H 
ATOM    119  H29 UNL A   1      29.129  34.144  42.687  1.00  0.00    +0.000 H 
ATOM    120  H30 UNL A   1      26.690  33.784  43.386  1.00  0.00    +0.000 H 
ENDROOT
BRANCH   19   18
ATOM     76  C53 UNL A   1      25.005  33.335  45.933  1.00  0.00    +0.000 C 
ATOM    109  H19 UNL A   1      21.934  33.691  43.675  1.00  0.00    +0.000 H 
ATOM     77  C54 UNL A   1      24.076  32.301  45.854  1.00  0.00    +0.000 C 
ATOM     15  C11 UNL A   1      22.919  32.465  45.088  1.00  0.00    +0.000 C 
ATOM     16  C12 UNL A   1      22.759  33.602  44.289  1.00  0.00    +0.000 C 
ATOM     17  C13 UNL A   1      23.720  34.614  44.326  1.00  0.00    +0.000 C 
ATOM    110  H20 UNL A   1      23.615  35.444  43.721  1.00  0.00    +0.000 H 
ATOM     18  C14 UNL A   1      24.827  34.509  45.184  1.00  0.00    +0.000 C 
ATOM    121  H31 UNL A   1      25.831  33.238  46.545  1.00  0.00    +0.000 H 
ATOM    122  H32 UNL A   1      24.241  31.417  46.360  1.00  0.00    +0.000 H 
BRANCH   15   13
ATOM     13  C10 UNL A   1      21.840  31.455  45.117  1.00  0.00    +0.000 C 
ATOM     14  O2  UNL A   1      22.035  30.341  44.641  1.00  0.00    +0.000 O 
BRANCH   13   12
ATOM    108  H18 UNL A   1      20.639  32.125  46.575  1.00  0.00    +0.000 H 
ATOM     12  N2  UNL A   1      20.618  31.779  45.654  1.00  0.00    +0.000 N 
BRANCH   12   11
ATOM    106  H16 UNL A   1      18.942  30.678  45.161  1.00  0.00    +0.000 H 
ATOM     11  C9  UNL A   1      19.297  31.682  45.052  1.00  0.00    +0.000 C 
ATOM    107  H17 UNL A   1      18.658  32.380  45.553  1.00  0.00    +0.000 H 
BRANCH   11   10
ATOM    105  H15 UNL A   1      19.588  31.152  43.046  1.00  0.00    +0.000 H 
ATOM     10  C8  UNL A   1      19.306  32.041  43.569  1.00  0.00    +0.000 C 
ATOM    104  H14 UNL A   1      19.991  32.851  43.428  1.00  0.00    +0.000 H 
BRANCH   10    9
ATOM      9  C7  UNL A   1      17.949  32.462  43.000  1.00  0.00    +0.000 C 
ATOM    102  H12 UNL A   1      17.407  32.965  43.774  1.00  0.00    +0.000 H 
ATOM    103  H13 UNL A   1      18.160  33.082  42.154  1.00  0.00    +0.000 H 
BRANCH    9    8
ATOM    100  H10 UNL A   1      16.053  31.592  42.614  1.00  0.00    +0.000 H 
ATOM    101  H11 UNL A   1      17.354  31.176  41.455  1.00  0.00    +0.000 H 
ATOM      8  C6  UNL A   1      17.078  31.315  42.480  1.00  0.00    +0.000 C 
BRANCH    8    7
ATOM     98  H8  UNL A   1      17.359  29.207  42.407  1.00  0.00    +0.000 H 
ATOM     99  H9  UNL A   1      18.193  30.049  43.740  1.00  0.00    +0.000 H 
ATOM      7  C5  UNL A   1      17.295  29.958  43.165  1.00  0.00    +0.000 C 
BRANCH    7    6
ATOM     97  H7  UNL A   1      15.788  30.445  44.590  1.00  0.00    +0.000 H 
ATOM      6  C4  UNL A   1      16.188  29.559  44.144  1.00  0.00    +0.000 C 
ATOM     96  H6  UNL A   1      16.599  28.917  44.895  1.00  0.00    +0.000 H 
BRANCH    6    5
ATOM      5  N1  UNL A   1      15.120  28.863  43.457  1.00  0.00    +0.000 N 
ATOM     95  H5  UNL A   1      14.244  29.309  43.482  1.00  0.00    +0.000 H 
BRANCH    5    3
ATOM      3  C3  UNL A   1      15.152  27.677  42.782  1.00  0.00    +0.000 C 
ATOM      4  O1  UNL A   1      15.251  27.743  41.554  1.00  0.00    +0.000 O 
BRANCH    3    2
ATOM      2  C2  UNL A   1      15.044  26.354  43.552  1.00  0.00    +0.000 C 
ATOM     94  H4  UNL A   1      14.448  26.561  44.416  1.00  0.00    +0.000 H 
BRANCH    2    1
ATOM      1  C1  UNL A   1      16.406  25.850  44.037  1.00  0.00    +0.000 C 
ATOM     91  H1  UNL A   1      16.275  25.273  44.928  1.00  0.00    +0.000 H 
ATOM     92  H2  UNL A   1      17.042  26.685  44.243  1.00  0.00    +0.000 H 
ATOM     93  H3  UNL A   1      16.851  25.241  43.278  1.00  0.00    +0.000 H 
ENDBRANCH    2    1
BRANCH    2   78
ATOM    134  H44 UNL A   1      11.254  24.066  42.163  1.00  0.00    +0.000 H 
ATOM     78  C55 UNL A   1      14.341  25.281  42.734  1.00  0.00    +0.000 C 
ATOM     79  C56 UNL A   1      15.044  24.429  41.872  1.00  0.00    +0.000 C 
ATOM     80  C57 UNL A   1      14.371  23.445  41.145  1.00  0.00    +0.000 C 
ATOM     81  C58 UNL A   1      12.988  23.282  41.263  1.00  0.00    +0.000 C 
ATOM     88  C64 UNL A   1      12.279  24.149  42.088  1.00  0.00    +0.000 C 
ATOM     89  C65 UNL A   1      12.955  25.129  42.813  1.00  0.00    +0.000 C 
ATOM     90  F16 UNL A   1      12.239  25.934  43.614  1.00  0.00    +0.000 F 
ATOM    123  H33 UNL A   1      16.066  24.529  41.775  1.00  0.00    +0.000 H 
ATOM    124  H34 UNL A   1      14.903  22.829  40.511  1.00  0.00    +0.000 H 
BRANCH   81   82
ATOM     82  O3  UNL A   1      12.484  22.266  40.510  1.00  0.00    +0.000 O 
BRANCH   82   83
ATOM    129  H39 UNL A   1      13.871  18.350  41.291  1.00  0.00    +0.000 H 
ATOM    130  H40 UNL A   1      12.282  18.465  38.777  1.00  0.00    +0.000 H 
ATOM    131  H41 UNL A   1      13.997  18.330  38.948  1.00  0.00    +0.000 H 
ATOM    132  H42 UNL A   1      14.227  20.596  38.740  1.00  0.00    +0.000 H 
ATOM    133  H43 UNL A   1      12.545  20.716  38.403  1.00  0.00    +0.000 H 
ATOM     83  C59 UNL A   1      13.043  20.962  40.496  1.00  0.00    +0.000 C 
ATOM     84  C60 UNL A   1      12.363  19.896  41.353  1.00  0.00    +0.000 C 
ATOM     85  C61 UNL A   1      12.948  18.602  40.812  1.00  0.00    +0.000 C 
ATOM     86  C62 UNL A   1      13.129  18.839  39.313  1.00  0.00    +0.000 C 
ATOM     87  C63 UNL A   1      13.256  20.348  39.114  1.00  0.00    +0.000 C 
ATOM    125  H35 UNL A   1      13.984  21.204  40.945  1.00  0.00    +0.000 H 
ATOM    126  H36 UNL A   1      11.301  19.922  41.226  1.00  0.00    +0.000 H 
ATOM    127  H37 UNL A   1      12.528  20.029  42.401  1.00  0.00    +0.000 H 
ATOM    128  H38 UNL A   1      12.276  17.787  40.984  1.00  0.00    +0.000 H 
ENDBRANCH   82   83
ENDBRANCH   81   82
ENDBRANCH    2   78
ENDBRANCH    3    2
ENDBRANCH    5    3
ENDBRANCH    6    5
ENDBRANCH    7    6
ENDBRANCH    8    7
ENDBRANCH    9    8
ENDBRANCH   10    9
ENDBRANCH   11   10
ENDBRANCH   12   11
ENDBRANCH   13   12
ENDBRANCH   15   13
ENDBRANCH   19   18
BRANCH   23   24
ATOM     33  C24 UNL A   1      31.336  36.125  41.414  1.00  0.00    +0.000 C 
ATOM     34  F5  UNL A   1      30.678  37.209  40.976  1.00  0.00    +0.000 F 
ATOM     24  C19 UNL A   1      31.241  35.736  42.759  1.00  0.00    +0.000 C 
ATOM     25  C20 UNL A   1      31.944  34.594  43.165  1.00  0.00    +0.000 C 
ATOM     26  F1  UNL A   1      31.889  34.185  44.442  1.00  0.00    +0.000 F 
ATOM     27  C21 UNL A   1      32.720  33.873  42.260  1.00  0.00    +0.000 C 
ATOM     28  F2  UNL A   1      33.402  32.796  42.675  1.00  0.00    +0.000 F 
ATOM     29  C22 UNL A   1      32.788  34.267  40.932  1.00  0.00    +0.000 C 
ATOM     30  F3  UNL A   1      33.521  33.561  40.060  1.00  0.00    +0.000 F 
ATOM     31  C23 UNL A   1      32.096  35.391  40.508  1.00  0.00    +0.000 C 
ATOM     32  F4  UNL A   1      32.150  35.766  39.223  1.00  0.00    +0.000 F 
ENDBRANCH   23   24
BRANCH   40   41
ATOM     41  C30 UNL A   1      31.584  41.537  46.978  1.00  0.00    +0.000 C 
ATOM     42  C31 UNL A   1      31.378  42.876  46.614  1.00  0.00    +0.000 C 
ATOM     43  F6  UNL A   1      30.303  43.219  45.888  1.00  0.00    +0.000 F 
ATOM     44  C32 UNL A   1      32.293  43.861  46.970  1.00  0.00    +0.000 C 
ATOM     45  F7  UNL A   1      32.095  45.129  46.583  1.00  0.00    +0.000 F 
ATOM     46  C33 UNL A   1      33.415  43.533  47.718  1.00  0.00    +0.000 C 
ATOM     47  F8  UNL A   1      34.289  44.486  48.069  1.00  0.00    +0.000 F 
ATOM     48  C34 UNL A   1      33.632  42.216  48.096  1.00  0.00    +0.000 C 
ATOM     49  F9  UNL A   1      34.710  41.900  48.827  1.00  0.00    +0.000 F 
ATOM     50  C35 UNL A   1      32.732  41.224  47.720  1.00  0.00    +0.000 C 
ATOM     51  F10 UNL A   1      32.971  39.958  48.094  1.00  0.00    +0.000 F 
ENDBRANCH   40   41
BRANCH   55   56
ATOM     65  C44 UNL A   1      24.324  41.140  49.107  1.00  0.00    +0.000 C 
ATOM     66  F15 UNL A   1      24.238  41.630  47.862  1.00  0.00    +0.000 F 
ATOM     56  C39 UNL A   1      25.216  40.095  49.391  1.00  0.00    +0.000 C 
ATOM     57  C40 UNL A   1      25.270  39.623  50.709  1.00  0.00    +0.000 C 
ATOM     58  F11 UNL A   1      26.092  38.609  51.023  1.00  0.00    +0.000 F 
ATOM     59  C41 UNL A   1      24.447  40.154  51.699  1.00  0.00    +0.000 C 
ATOM     60  F12 UNL A   1      24.483  39.651  52.939  1.00  0.00    +0.000 F 
ATOM     61  C42 UNL A   1      23.575  41.191  51.396  1.00  0.00    +0.000 C 
ATOM     62  F13 UNL A   1      22.783  41.701  52.348  1.00  0.00    +0.000 F 
ATOM     63  C43 UNL A   1      23.520  41.690  50.103  1.00  0.00    +0.000 C 
ATOM     64  F14 UNL A   1      22.688  42.698  49.810  1.00  0.00    +0.000 F 
ENDBRANCH   55   56
TORSDOF 19
ENDMDL
MODEL 10
REMARK VINA RESULT:     -10.5      3.177      7.862
ROOT
ATOM     19  C15 UNL A   1      40.767  28.104  28.976  1.00  0.00    +0.000 C 
ATOM     20  C16 UNL A   1      42.135  28.227  29.584  1.00  0.00    +0.000 C 
ATOM     21  N3  UNL A   1      42.623  29.184  30.331  1.00  0.00    +0.000 N 
ATOM     22  C17 UNL A   1      43.909  28.784  30.665  1.00  0.00    +0.000 C 
ATOM     23  C18 UNL A   1      44.832  29.452  31.397  1.00  0.00    +0.000 C 
ATOM     35  C25 UNL A   1      44.638  30.766  31.950  1.00  0.00    +0.000 C 
ATOM     36  C26 UNL A   1      45.559  31.574  32.594  1.00  0.00    +0.000 C 
ATOM     37  C27 UNL A   1      44.902  32.737  33.010  1.00  0.00    +0.000 C 
ATOM     38  C28 UNL A   1      43.584  32.668  32.593  1.00  0.00    +0.000 C 
ATOM     39  N4  UNL A   1      43.438  31.459  31.932  1.00  0.00    +0.000 N 
ATOM     40  C29 UNL A   1      42.528  33.625  32.792  1.00  0.00    +0.000 C 
ATOM     52  C36 UNL A   1      41.281  33.524  32.273  1.00  0.00    +0.000 C 
ATOM     53  N5  UNL A   1      40.748  32.519  31.479  1.00  0.00    +0.000 N 
ATOM     54  C37 UNL A   1      39.504  32.862  31.250  1.00  0.00    +0.000 C 
ATOM     55  C38 UNL A   1      38.458  32.148  30.441  1.00  0.00    +0.000 C 
ATOM     67  C45 UNL A   1      38.777  30.999  29.816  1.00  0.00    +0.000 C 
ATOM     68  C46 UNL A   1      37.860  30.191  29.018  1.00  0.00    +0.000 C 
ATOM     69  C47 UNL A   1      38.487  29.066  28.638  1.00  0.00    +0.000 C 
ATOM     70  C48 UNL A   1      39.865  29.092  29.134  1.00  0.00    +0.000 C 
ATOM     71  N6  UNL A   1      39.960  30.300  29.783  1.00  0.00    +0.000 N 
ATOM     72  C49 UNL A   1      39.104  34.125  31.891  1.00  0.00    +0.000 C 
ATOM     73  C50 UNL A   1      40.233  34.501  32.474  1.00  0.00    +0.000 C 
ATOM     74  C51 UNL A   1      44.119  27.485  30.064  1.00  0.00    +0.000 C 
ATOM     75  C52 UNL A   1      43.070  27.117  29.340  1.00  0.00    +0.000 C 
ATOM    111  H21 UNL A   1      46.556  31.356  32.741  1.00  0.00    +0.000 H 
ATOM    112  H22 UNL A   1      45.329  33.513  33.540  1.00  0.00    +0.000 H 
ATOM    113  H23 UNL A   1      42.606  31.141  31.512  1.00  0.00    +0.000 H 
ATOM    114  H24 UNL A   1      36.887  30.443  28.785  1.00  0.00    +0.000 H 
ATOM    115  H25 UNL A   1      38.065  28.304  28.085  1.00  0.00    +0.000 H 
ATOM    116  H26 UNL A   1      40.794  30.632  30.186  1.00  0.00    +0.000 H 
ATOM    117  H27 UNL A   1      38.185  34.593  31.887  1.00  0.00    +0.000 H 
ATOM    118  H28 UNL A   1      40.349  35.379  33.005  1.00  0.00    +0.000 H 
ATOM    119  H29 UNL A   1      44.973  26.918  30.184  1.00  0.00    +0.000 H 
ATOM    120  H30 UNL A   1      42.942  26.275  28.759  1.00  0.00    +0.000 H 
ENDROOT
BRANCH   19   18
ATOM     76  C53 UNL A   1      39.580  25.911  28.986  1.00  0.00    +0.000 C 
ATOM    109  H19 UNL A   1      40.401  25.332  25.292  1.00  0.00    +0.000 H 
ATOM     77  C54 UNL A   1      39.111  24.770  28.340  1.00  0.00    +0.000 C 
ATOM     15  C11 UNL A   1      39.350  24.600  26.974  1.00  0.00    +0.000 C 
ATOM     16  C12 UNL A   1      40.174  25.496  26.286  1.00  0.00    +0.000 C 
ATOM     17  C13 UNL A   1      40.690  26.611  26.950  1.00  0.00    +0.000 C 
ATOM    110  H20 UNL A   1      41.317  27.261  26.450  1.00  0.00    +0.000 H 
ATOM     18  C14 UNL A   1      40.358  26.851  28.293  1.00  0.00    +0.000 C 
ATOM    121  H31 UNL A   1      39.354  26.067  29.982  1.00  0.00    +0.000 H 
ATOM    122  H32 UNL A   1      38.590  24.053  28.868  1.00  0.00    +0.000 H 
BRANCH   15   13
ATOM     13  C10 UNL A   1      38.726  23.486  26.228  1.00  0.00    +0.000 C 
ATOM     14  O2  UNL A   1      39.255  22.378  26.232  1.00  0.00    +0.000 O 
BRANCH   13   12
ATOM    108  H18 UNL A   1      37.699  24.016  24.590  1.00  0.00    +0.000 H 
ATOM     12  N2  UNL A   1      37.573  23.705  25.515  1.00  0.00    +0.000 N 
BRANCH   12   11
ATOM    106  H16 UNL A   1      35.942  22.498  25.900  1.00  0.00    +0.000 H 
ATOM     11  C9  UNL A   1      36.189  23.539  25.936  1.00  0.00    +0.000 C 
ATOM    107  H17 UNL A   1      36.101  23.930  26.927  1.00  0.00    +0.000 H 
BRANCH   11   10
ATOM    105  H15 UNL A   1      34.768  23.581  24.397  1.00  0.00    +0.000 H 
ATOM     10  C8  UNL A   1      35.216  24.305  25.045  1.00  0.00    +0.000 C 
ATOM    104  H14 UNL A   1      35.766  25.059  24.522  1.00  0.00    +0.000 H 
BRANCH   10    9
ATOM      9  C7  UNL A   1      34.064  24.987  25.788  1.00  0.00    +0.000 C 
ATOM    102  H12 UNL A   1      33.170  24.433  25.593  1.00  0.00    +0.000 H 
ATOM    103  H13 UNL A   1      34.343  25.000  26.821  1.00  0.00    +0.000 H 
BRANCH    9    8
ATOM    100  H10 UNL A   1      34.749  26.878  25.113  1.00  0.00    +0.000 H 
ATOM    101  H11 UNL A   1      33.093  26.420  24.604  1.00  0.00    +0.000 H 
ATOM      8  C6  UNL A   1      33.812  26.447  25.397  1.00  0.00    +0.000 C 
BRANCH    8    7
ATOM     98  H8  UNL A   1      32.606  26.704  27.131  1.00  0.00    +0.000 H 
ATOM     99  H9  UNL A   1      34.017  27.788  27.008  1.00  0.00    +0.000 H 
ATOM      7  C5  UNL A   1      33.199  27.327  26.495  1.00  0.00    +0.000 C 
BRANCH    7    6
ATOM     97  H7  UNL A   1      32.879  29.049  25.282  1.00  0.00    +0.000 H 
ATOM      6  C4  UNL A   1      32.313  28.462  25.976  1.00  0.00    +0.000 C 
ATOM     96  H6  UNL A   1      31.997  29.065  26.801  1.00  0.00    +0.000 H 
BRANCH    6    5
ATOM      5  N1  UNL A   1      31.147  27.937  25.297  1.00  0.00    +0.000 N 
ATOM     95  H5  UNL A   1      30.604  27.307  25.823  1.00  0.00    +0.000 H 
BRANCH    5    3
ATOM      3  C3  UNL A   1      30.692  28.187  24.036  1.00  0.00    +0.000 C 
ATOM      4  O1  UNL A   1      30.885  29.321  23.593  1.00  0.00    +0.000 O 
BRANCH    3    2
ATOM      2  C2  UNL A   1      29.964  27.086  23.252  1.00  0.00    +0.000 C 
ATOM     94  H4  UNL A   1      29.800  27.479  22.271  1.00  0.00    +0.000 H 
BRANCH    2    1
ATOM      1  C1  UNL A   1      28.596  26.752  23.853  1.00  0.00    +0.000 C 
ATOM     91  H1  UNL A   1      28.157  25.942  23.308  1.00  0.00    +0.000 H 
ATOM     92  H2  UNL A   1      27.960  27.610  23.791  1.00  0.00    +0.000 H 
ATOM     93  H3  UNL A   1      28.717  26.469  24.878  1.00  0.00    +0.000 H 
ENDBRANCH    2    1
BRANCH    2   78
ATOM    134  H44 UNL A   1      33.563  24.706  21.545  1.00  0.00    +0.000 H 
ATOM     78  C55 UNL A   1      30.811  25.829  23.126  1.00  0.00    +0.000 C 
ATOM     79  C56 UNL A   1      30.504  24.657  23.830  1.00  0.00    +0.000 C 
ATOM     80  C57 UNL A   1      31.293  23.515  23.683  1.00  0.00    +0.000 C 
ATOM     81  C58 UNL A   1      32.400  23.510  22.828  1.00  0.00    +0.000 C 
ATOM     88  C64 UNL A   1      32.731  24.680  22.155  1.00  0.00    +0.000 C 
ATOM     89  C65 UNL A   1      31.940  25.818  22.304  1.00  0.00    +0.000 C 
ATOM     90  F16 UNL A   1      32.280  26.923  21.622  1.00  0.00    +0.000 F 
ATOM    123  H33 UNL A   1      29.688  24.638  24.462  1.00  0.00    +0.000 H 
ATOM    124  H34 UNL A   1      31.057  22.662  24.212  1.00  0.00    +0.000 H 
BRANCH   81   82
ATOM     82  O3  UNL A   1      33.052  22.317  22.774  1.00  0.00    +0.000 O 
BRANCH   82   83
ATOM    129  H39 UNL A   1      31.581  18.885  24.757  1.00  0.00    +0.000 H 
ATOM    130  H40 UNL A   1      34.550  18.839  24.551  1.00  0.00    +0.000 H 
ATOM    131  H41 UNL A   1      33.584  19.172  25.946  1.00  0.00    +0.000 H 
ATOM    132  H42 UNL A   1      33.732  21.421  25.548  1.00  0.00    +0.000 H 
ATOM    133  H43 UNL A   1      34.828  21.101  24.263  1.00  0.00    +0.000 H 
ATOM     83  C59 UNL A   1      32.757  21.233  23.641  1.00  0.00    +0.000 C 
ATOM     84  C60 UNL A   1      32.290  19.927  23.003  1.00  0.00    +0.000 C 
ATOM     85  C61 UNL A   1      32.447  18.921  24.131  1.00  0.00    +0.000 C 
ATOM     86  C62 UNL A   1      33.689  19.371  24.899  1.00  0.00    +0.000 C 
ATOM     87  C63 UNL A   1      33.854  20.868  24.641  1.00  0.00    +0.000 C 
ATOM    125  H35 UNL A   1      31.925  21.677  24.148  1.00  0.00    +0.000 H 
ATOM    126  H36 UNL A   1      32.905  19.668  22.166  1.00  0.00    +0.000 H 
ATOM    127  H37 UNL A   1      31.292  19.979  22.619  1.00  0.00    +0.000 H 
ATOM    128  H38 UNL A   1      32.587  17.936  23.737  1.00  0.00    +0.000 H 
ENDBRANCH   82   83
ENDBRANCH   81   82
ENDBRANCH    2   78
ENDBRANCH    3    2
ENDBRANCH    5    3
ENDBRANCH    6    5
ENDBRANCH    7    6
ENDBRANCH    8    7
ENDBRANCH    9    8
ENDBRANCH   10    9
ENDBRANCH   11   10
ENDBRANCH   12   11
ENDBRANCH   13   12
ENDBRANCH   15   13
ENDBRANCH   19   18
BRANCH   23   24
ATOM     33  C24 UNL A   1      47.186  28.896  30.700  1.00  0.00    +0.000 C 
ATOM     34  F5  UNL A   1      47.027  29.663  29.611  1.00  0.00    +0.000 F 
ATOM     24  C19 UNL A   1      46.152  28.784  31.643  1.00  0.00    +0.000 C 
ATOM     25  C20 UNL A   1      46.366  27.966  32.760  1.00  0.00    +0.000 C 
ATOM     26  F1  UNL A   1      45.409  27.832  33.692  1.00  0.00    +0.000 F 
ATOM     27  C21 UNL A   1      47.571  27.290  32.931  1.00  0.00    +0.000 C 
ATOM     28  F2  UNL A   1      47.763  26.530  34.018  1.00  0.00    +0.000 F 
ATOM     29  C22 UNL A   1      48.574  27.403  31.979  1.00  0.00    +0.000 C 
ATOM     30  F3  UNL A   1      49.727  26.738  32.138  1.00  0.00    +0.000 F 
ATOM     31  C23 UNL A   1      48.382  28.203  30.864  1.00  0.00    +0.000 C 
ATOM     32  F4  UNL A   1      49.344  28.303  29.937  1.00  0.00    +0.000 F 
ENDBRANCH   23   24
BRANCH   40   41
ATOM     41  C30 UNL A   1      42.829  34.833  33.627  1.00  0.00    +0.000 C 
ATOM     42  C31 UNL A   1      42.736  34.792  35.026  1.00  0.00    +0.000 C 
ATOM     43  F6  UNL A   1      42.310  33.677  35.640  1.00  0.00    +0.000 F 
ATOM     44  C32 UNL A   1      43.052  35.906  35.796  1.00  0.00    +0.000 C 
ATOM     45  F7  UNL A   1      42.923  35.856  37.129  1.00  0.00    +0.000 F 
ATOM     46  C33 UNL A   1      43.492  37.072  35.186  1.00  0.00    +0.000 C 
ATOM     47  F8  UNL A   1      43.806  38.141  35.931  1.00  0.00    +0.000 F 
ATOM     48  C34 UNL A   1      43.600  37.131  33.805  1.00  0.00    +0.000 C 
ATOM     49  F9  UNL A   1      44.034  38.254  33.215  1.00  0.00    +0.000 F 
ATOM     50  C35 UNL A   1      43.260  36.027  33.029  1.00  0.00    +0.000 C 
ATOM     51  F10 UNL A   1      43.368  36.114  31.695  1.00  0.00    +0.000 F 
ENDBRANCH   40   41
BRANCH   55   56
ATOM     65  C44 UNL A   1      36.123  32.447  31.335  1.00  0.00    +0.000 C 
ATOM     66  F15 UNL A   1      36.438  31.690  32.396  1.00  0.00    +0.000 F 
ATOM     56  C39 UNL A   1      37.080  32.693  30.339  1.00  0.00    +0.000 C 
ATOM     57  C40 UNL A   1      36.698  33.487  29.249  1.00  0.00    +0.000 C 
ATOM     58  F11 UNL A   1      37.586  33.769  28.284  1.00  0.00    +0.000 F 
ATOM     59  C41 UNL A   1      35.420  34.036  29.170  1.00  0.00    +0.000 C 
ATOM     60  F12 UNL A   1      35.097  34.831  28.142  1.00  0.00    +0.000 F 
ATOM     61  C42 UNL A   1      34.488  33.775  30.165  1.00  0.00    +0.000 C 
ATOM     62  F13 UNL A   1      33.260  34.302  30.089  1.00  0.00    +0.000 F 
ATOM     63  C43 UNL A   1      34.837  32.973  31.242  1.00  0.00    +0.000 C 
ATOM     64  F14 UNL A   1      33.936  32.709  32.198  1.00  0.00    +0.000 F 
ENDBRANCH   55   56
TORSDOF 19
ENDMDL
