MODEL 1
REMARK VINA RESULT:      -7.4      0.000      0.000
ROOT
ATOM    129  H37 UNL A   1      18.299  42.266  50.640  1.00  0.00    +0.000 H 
ATOM    130  H38 UNL A   1      16.838  40.166  50.706  1.00  0.00    +0.000 H 
ATOM    131  H39 UNL A   1      23.904  34.993  45.778  1.00  0.00    +0.000 H 
ATOM    132  H40 UNL A   1      25.548  36.927  46.107  1.00  0.00    +0.000 H 
ATOM     31  C26 UNL A   1      24.381  39.232  47.313  1.00  0.00    +0.000 C 
ATOM     32  C27 UNL A   1      23.742  37.890  47.084  1.00  0.00    +0.000 C 
ATOM     33  N3  UNL A   1      22.532  37.488  47.382  1.00  0.00    +0.000 N 
ATOM     34  C28 UNL A   1      22.440  36.183  46.914  1.00  0.00    +0.000 C 
ATOM     35  C29 UNL A   1      21.405  35.317  47.025  1.00  0.00    +0.000 C 
ATOM     47  C36 UNL A   1      20.166  35.614  47.694  1.00  0.00    +0.000 C 
ATOM     48  C37 UNL A   1      19.087  34.778  47.923  1.00  0.00    +0.000 C 
ATOM     49  C38 UNL A   1      18.092  35.515  48.576  1.00  0.00    +0.000 C 
ATOM     50  C39 UNL A   1      18.568  36.798  48.791  1.00  0.00    +0.000 C 
ATOM     51  N4  UNL A   1      19.840  36.846  48.241  1.00  0.00    +0.000 N 
ATOM     52  C40 UNL A   1      17.913  37.900  49.446  1.00  0.00    +0.000 C 
ATOM     64  C47 UNL A   1      18.454  39.129  49.629  1.00  0.00    +0.000 C 
ATOM     65  N5  UNL A   1      19.706  39.595  49.250  1.00  0.00    +0.000 N 
ATOM     66  C48 UNL A   1      19.754  40.847  49.635  1.00  0.00    +0.000 C 
ATOM     67  C49 UNL A   1      20.880  41.835  49.508  1.00  0.00    +0.000 C 
ATOM     79  C56 UNL A   1      22.044  41.441  48.957  1.00  0.00    +0.000 C 
ATOM     80  C57 UNL A   1      23.223  42.283  48.778  1.00  0.00    +0.000 C 
ATOM     81  C58 UNL A   1      24.178  41.571  48.157  1.00  0.00    +0.000 C 
ATOM     82  C59 UNL A   1      23.688  40.213  47.921  1.00  0.00    +0.000 C 
ATOM     83  N6  UNL A   1      22.417  40.224  48.439  1.00  0.00    +0.000 N 
ATOM     84  C60 UNL A   1      18.524  41.324  50.282  1.00  0.00    +0.000 C 
ATOM     85  C61 UNL A   1      17.779  40.229  50.287  1.00  0.00    +0.000 C 
ATOM     86  C62 UNL A   1      23.700  35.875  46.273  1.00  0.00    +0.000 C 
ATOM     87  C63 UNL A   1      24.561  36.875  46.405  1.00  0.00    +0.000 C 
ATOM    123  H31 UNL A   1      19.026  33.782  47.659  1.00  0.00    +0.000 H 
ATOM    124  H32 UNL A   1      17.162  35.162  48.851  1.00  0.00    +0.000 H 
ATOM    125  H33 UNL A   1      20.426  37.638  48.241  1.00  0.00    +0.000 H 
ATOM    126  H34 UNL A   1      23.310  43.265  49.080  1.00  0.00    +0.000 H 
ATOM    127  H35 UNL A   1      25.110  41.927  47.888  1.00  0.00    +0.000 H 
ATOM    128  H36 UNL A   1      21.828  39.435  48.440  1.00  0.00    +0.000 H 
ENDROOT
BRANCH   31   30
ATOM    133  H41 UNL A   1      25.108  40.807  45.269  1.00  0.00    +0.000 H 
ATOM    134  H42 UNL A   1      27.328  41.227  44.393  1.00  0.00    +0.000 H 
ATOM     29  C24 UNL A   1      26.876  38.926  47.413  1.00  0.00    +0.000 C 
ATOM     88  C64 UNL A   1      25.928  40.372  45.718  1.00  0.00    +0.000 C 
ATOM     89  C65 UNL A   1      27.208  40.645  45.237  1.00  0.00    +0.000 C 
ATOM    122  H30 UNL A   1      26.754  38.257  48.188  1.00  0.00    +0.000 H 
ATOM     27  C22 UNL A   1      28.327  40.132  45.897  1.00  0.00    +0.000 C 
ATOM     28  C23 UNL A   1      28.160  39.249  46.968  1.00  0.00    +0.000 C 
ATOM    121  H29 UNL A   1      28.986  38.836  47.431  1.00  0.00    +0.000 H 
ATOM     30  C25 UNL A   1      25.750  39.508  46.809  1.00  0.00    +0.000 C 
BRANCH   27   25
ATOM     25  C21 UNL A   1      29.702  40.460  45.452  1.00  0.00    +0.000 C 
ATOM     26  O2  UNL A   1      30.028  40.252  44.290  1.00  0.00    +0.000 O 
BRANCH   25   24
ATOM    120  H28 UNL A   1      31.044  40.350  46.934  1.00  0.00    +0.000 H 
ATOM     24  N2  UNL A   1      30.610  40.997  46.332  1.00  0.00    +0.000 N 
BRANCH   24   23
ATOM    119  H27 UNL A   1      31.428  42.724  45.577  1.00  0.00    +0.000 H 
ATOM    118  H26 UNL A   1      31.751  42.427  47.288  1.00  0.00    +0.000 H 
ATOM     23  C20 UNL A   1      31.023  42.381  46.507  1.00  0.00    +0.000 C 
BRANCH   23   22
ATOM    116  H24 UNL A   1      30.207  44.297  46.906  1.00  0.00    +0.000 H 
ATOM    117  H25 UNL A   1      29.103  43.129  46.122  1.00  0.00    +0.000 H 
ATOM     22  C19 UNL A   1      29.849  43.289  46.872  1.00  0.00    +0.000 C 
BRANCH   22   21
ATOM    114  H22 UNL A   1      29.574  42.045  48.568  1.00  0.00    +0.000 H 
ATOM    115  H23 UNL A   1      29.402  43.809  48.851  1.00  0.00    +0.000 H 
ATOM     21  C18 UNL A   1      29.182  42.976  48.216  1.00  0.00    +0.000 C 
BRANCH   21   20
ATOM    113  H21 UNL A   1      27.329  42.987  49.203  1.00  0.00    +0.000 H 
ATOM     20  C17 UNL A   1      27.652  42.864  48.190  1.00  0.00    +0.000 C 
ATOM    112  H20 UNL A   1      27.397  41.913  47.771  1.00  0.00    +0.000 H 
BRANCH   20   19
ATOM     19  C16 UNL A   1      26.928  43.947  47.381  1.00  0.00    +0.000 C 
ATOM    110  H18 UNL A   1      27.664  44.570  46.919  1.00  0.00    +0.000 H 
ATOM    111  H19 UNL A   1      26.311  43.440  46.669  1.00  0.00    +0.000 H 
BRANCH   19   18
ATOM     18  C15 UNL A   1      26.004  44.833  48.217  1.00  0.00    +0.000 C 
ATOM    108  H16 UNL A   1      26.130  45.851  47.910  1.00  0.00    +0.000 H 
ATOM    109  H17 UNL A   1      24.998  44.505  48.060  1.00  0.00    +0.000 H 
BRANCH   18   17
ATOM     17  N1  UNL A   1      26.291  44.733  49.632  1.00  0.00    +0.000 N 
ATOM    107  H15 UNL A   1      27.225  44.924  49.873  1.00  0.00    +0.000 H 
BRANCH   17   15
ATOM     15  C14 UNL A   1      25.488  44.421  50.687  1.00  0.00    +0.000 C 
ATOM     16  O1  UNL A   1      24.353  44.912  50.679  1.00  0.00    +0.000 O 
BRANCH   15   13
ATOM     13  C12 UNL A   1      25.931  43.532  51.859  1.00  0.00    +0.000 C 
ATOM    103  H11 UNL A   1      25.274  43.776  52.668  1.00  0.00    +0.000 H 
BRANCH   13   12
ATOM    101  H9  UNL A   1      26.972  39.254  50.304  1.00  0.00    +0.000 H 
ATOM    102  H10 UNL A   1      27.545  41.537  50.825  1.00  0.00    +0.000 H 
ATOM    135  H43 UNL A   1      23.719  42.126  52.430  1.00  0.00    +0.000 H 
ATOM    136  H44 UNL A   1      23.205  39.801  52.058  1.00  0.00    +0.000 H 
ATOM      9  C8  UNL A   1      25.026  39.309  51.112  1.00  0.00    +0.000 C 
ATOM     10  C9  UNL A   1      26.274  39.854  50.772  1.00  0.00    +0.000 C 
ATOM     11  C10 UNL A   1      26.601  41.188  51.051  1.00  0.00    +0.000 C 
ATOM     12  C11 UNL A   1      25.670  42.053  51.629  1.00  0.00    +0.000 C 
ATOM     90  C66 UNL A   1      24.425  41.517  51.986  1.00  0.00    +0.000 C 
ATOM     91  C67 UNL A   1      24.119  40.170  51.752  1.00  0.00    +0.000 C 
BRANCH    9    8
ATOM     98  H6  UNL A   1      23.736  34.264  49.881  1.00  0.00    +0.000 H 
ATOM     99  H7  UNL A   1      25.962  35.099  49.410  1.00  0.00    +0.000 H 
ATOM      4  C3  UNL A   1      23.044  36.068  50.727  1.00  0.00    +0.000 C 
ATOM      5  C4  UNL A   1      23.986  35.234  50.126  1.00  0.00    +0.000 C 
ATOM      6  C5  UNL A   1      25.265  35.715  49.856  1.00  0.00    +0.000 C 
ATOM      7  C6  UNL A   1      25.606  37.029  50.191  1.00  0.00    +0.000 C 
ATOM      8  C7  UNL A   1      24.678  37.903  50.788  1.00  0.00    +0.000 C 
ATOM    137  H45 UNL A   1      22.693  37.993  51.502  1.00  0.00    +0.000 H 
ATOM    100  H8  UNL A   1      26.560  37.366  49.995  1.00  0.00    +0.000 H 
ATOM     92  C68 UNL A   1      23.395  37.385  51.053  1.00  0.00    +0.000 C 
BRANCH    4    3
ATOM      3  S1  UNL A   1      21.433  35.436  51.152  1.00  0.00    +0.000 S 
BRANCH    3    2
ATOM     97  H5  UNL A   1      19.651  36.971  51.504  1.00  0.00    +0.000 H 
ATOM      2  C2  UNL A   1      20.661  36.931  51.858  1.00  0.00    +0.000 C 
ATOM     96  H4  UNL A   1      21.222  37.787  51.546  1.00  0.00    +0.000 H 
BRANCH    2    1
ATOM      1  C1  UNL A   1      20.616  36.905  53.375  1.00  0.00    +0.000 C 
ATOM     93  H1  UNL A   1      20.114  37.780  53.732  1.00  0.00    +0.000 H 
ATOM     94  H2  UNL A   1      21.614  36.885  53.761  1.00  0.00    +0.000 H 
ATOM     95  H3  UNL A   1      20.090  36.033  53.702  1.00  0.00    +0.000 H 
ENDBRANCH    2    1
ENDBRANCH    3    2
ENDBRANCH    4    3
ENDBRANCH    9    8
ENDBRANCH   13   12
BRANCH   13   14
ATOM    105  H13 UNL A   1      27.248  43.866  53.511  1.00  0.00    +0.000 H 
ATOM    106  H14 UNL A   1      27.577  44.874  52.123  1.00  0.00    +0.000 H 
ATOM     14  C13 UNL A   1      27.299  43.892  52.443  1.00  0.00    +0.000 C 
ATOM    104  H12 UNL A   1      28.028  43.187  52.103  1.00  0.00    +0.000 H 
ENDBRANCH   13   14
ENDBRANCH   15   13
ENDBRANCH   17   15
ENDBRANCH   18   17
ENDBRANCH   19   18
ENDBRANCH   20   19
ENDBRANCH   21   20
ENDBRANCH   22   21
ENDBRANCH   23   22
ENDBRANCH   24   23
ENDBRANCH   25   24
ENDBRANCH   27   25
ENDBRANCH   31   30
BRANCH   35   36
ATOM     36  C30 UNL A   1      21.568  33.956  46.413  1.00  0.00    +0.000 C 
ATOM     37  C31 UNL A   1      22.081  32.878  47.147  1.00  0.00    +0.000 C 
ATOM     38  F1  UNL A   1      22.495  33.057  48.411  1.00  0.00    +0.000 F 
ATOM     39  C32 UNL A   1      22.205  31.615  46.574  1.00  0.00    +0.000 C 
ATOM     40  F2  UNL A   1      22.738  30.608  47.282  1.00  0.00    +0.000 F 
ATOM     41  C33 UNL A   1      21.788  31.399  45.270  1.00  0.00    +0.000 C 
ATOM     42  F3  UNL A   1      21.900  30.181  44.721  1.00  0.00    +0.000 F 
ATOM     43  C34 UNL A   1      21.260  32.447  44.530  1.00  0.00    +0.000 C 
ATOM     44  F4  UNL A   1      20.847  32.237  43.273  1.00  0.00    +0.000 F 
ATOM     45  C35 UNL A   1      21.161  33.718  45.092  1.00  0.00    +0.000 C 
ATOM     46  F5  UNL A   1      20.657  34.713  44.348  1.00  0.00    +0.000 F 
ENDBRANCH   35   36
BRANCH   52   53
ATOM     53  C41 UNL A   1      16.533  37.672  49.989  1.00  0.00    +0.000 C 
ATOM     54  C42 UNL A   1      16.292  37.587  51.367  1.00  0.00    +0.000 C 
ATOM     55  F6  UNL A   1      17.312  37.657  52.236  1.00  0.00    +0.000 F 
ATOM     56  C43 UNL A   1      15.003  37.391  51.856  1.00  0.00    +0.000 C 
ATOM     57  F7  UNL A   1      14.801  37.268  53.176  1.00  0.00    +0.000 F 
ATOM     58  C44 UNL A   1      13.930  37.307  50.980  1.00  0.00    +0.000 C 
ATOM     59  F8  UNL A   1      12.691  37.124  51.454  1.00  0.00    +0.000 F 
ATOM     60  C45 UNL A   1      14.145  37.406  49.615  1.00  0.00    +0.000 C 
ATOM     61  F9  UNL A   1      13.109  37.337  48.767  1.00  0.00    +0.000 F 
ATOM     62  C46 UNL A   1      15.436  37.576  49.120  1.00  0.00    +0.000 C 
ATOM     63  F10 UNL A   1      15.614  37.657  47.794  1.00  0.00    +0.000 F 
ENDBRANCH   52   53
BRANCH   67   68
ATOM     68  C50 UNL A   1      20.732  43.227  50.003  1.00  0.00    +0.000 C 
ATOM     69  C51 UNL A   1      20.980  43.540  51.347  1.00  0.00    +0.000 C 
ATOM     70  F11 UNL A   1      21.333  42.573  52.205  1.00  0.00    +0.000 F 
ATOM     71  C52 UNL A   1      20.826  44.841  51.822  1.00  0.00    +0.000 C 
ATOM     72  F12 UNL A   1      21.030  45.106  53.121  1.00  0.00    +0.000 F 
ATOM     73  C53 UNL A   1      20.451  45.858  50.958  1.00  0.00    +0.000 C 
ATOM     74  F13 UNL A   1      20.309  47.109  51.414  1.00  0.00    +0.000 F 
ATOM     75  C54 UNL A   1      20.217  45.574  49.620  1.00  0.00    +0.000 C 
ATOM     76  F14 UNL A   1      19.867  46.556  48.779  1.00  0.00    +0.000 F 
ATOM     77  C55 UNL A   1      20.345  44.269  49.150  1.00  0.00    +0.000 C 
ATOM     78  F15 UNL A   1      20.103  44.021  47.854  1.00  0.00    +0.000 F 
ENDBRANCH   67   68
TORSDOF 21
ENDMDL
MODEL 2
REMARK VINA RESULT:      -7.3     25.560     31.702
ROOT
ATOM    129  H37 UNL A   1      38.924  34.499  31.080  1.00  0.00    +0.000 H 
ATOM    130  H38 UNL A   1      41.239  35.578  31.239  1.00  0.00    +0.000 H 
ATOM    131  H39 UNL A   1      45.516  27.071  28.029  1.00  0.00    +0.000 H 
ATOM    132  H40 UNL A   1      43.208  26.138  27.428  1.00  0.00    +0.000 H 
ATOM     31  C26 UNL A   1      41.049  27.824  28.219  1.00  0.00    +0.000 C 
ATOM     32  C27 UNL A   1      42.522  28.113  28.308  1.00  0.00    +0.000 C 
ATOM     33  N3  UNL A   1      43.130  29.182  28.757  1.00  0.00    +0.000 N 
ATOM     34  C28 UNL A   1      44.490  28.914  28.660  1.00  0.00    +0.000 C 
ATOM     35  C29 UNL A   1      45.533  29.725  28.953  1.00  0.00    +0.000 C 
ATOM     47  C36 UNL A   1      45.403  31.078  29.426  1.00  0.00    +0.000 C 
ATOM     48  C37 UNL A   1      46.400  32.004  29.680  1.00  0.00    +0.000 C 
ATOM     49  C38 UNL A   1      45.800  33.173  30.162  1.00  0.00    +0.000 C 
ATOM     50  C39 UNL A   1      44.427  32.990  30.169  1.00  0.00    +0.000 C 
ATOM     51  N4  UNL A   1      44.197  31.699  29.719  1.00  0.00    +0.000 N 
ATOM     52  C40 UNL A   1      43.400  33.920  30.558  1.00  0.00    +0.000 C 
ATOM     64  C47 UNL A   1      42.068  33.668  30.524  1.00  0.00    +0.000 C 
ATOM     65  N5  UNL A   1      41.410  32.513  30.123  1.00  0.00    +0.000 N 
ATOM     66  C48 UNL A   1      40.132  32.753  30.285  1.00  0.00    +0.000 C 
ATOM     67  C49 UNL A   1      38.955  31.866  29.988  1.00  0.00    +0.000 C 
ATOM     79  C56 UNL A   1      39.166  30.649  29.450  1.00  0.00    +0.000 C 
ATOM     80  C57 UNL A   1      38.126  29.687  29.099  1.00  0.00    +0.000 C 
ATOM     81  C58 UNL A   1      38.704  28.569  28.631  1.00  0.00    +0.000 C 
ATOM     82  C59 UNL A   1      40.156  28.748  28.621  1.00  0.00    +0.000 C 
ATOM     83  N6  UNL A   1      40.338  30.016  29.113  1.00  0.00    +0.000 N 
ATOM     84  C60 UNL A   1      39.836  34.085  30.832  1.00  0.00    +0.000 C 
ATOM     85  C61 UNL A   1      41.047  34.614  30.923  1.00  0.00    +0.000 C 
ATOM     86  C62 UNL A   1      44.618  27.566  28.150  1.00  0.00    +0.000 C 
ATOM     87  C63 UNL A   1      43.432  27.049  27.858  1.00  0.00    +0.000 C 
ATOM    123  H31 UNL A   1      47.412  31.859  29.538  1.00  0.00    +0.000 H 
ATOM    124  H32 UNL A   1      46.297  34.027  30.462  1.00  0.00    +0.000 H 
ATOM    125  H33 UNL A   1      43.309  31.285  29.619  1.00  0.00    +0.000 H 
ATOM    126  H34 UNL A   1      37.110  29.842  29.195  1.00  0.00    +0.000 H 
ATOM    127  H35 UNL A   1      38.203  27.719  28.328  1.00  0.00    +0.000 H 
ATOM    128  H36 UNL A   1      41.224  30.433  29.214  1.00  0.00    +0.000 H 
ENDROOT
BRANCH   31   30
ATOM    133  H41 UNL A   1      41.006  26.857  25.719  1.00  0.00    +0.000 H 
ATOM    134  H42 UNL A   1      40.178  24.718  24.934  1.00  0.00    +0.000 H 
ATOM     29  C24 UNL A   1      40.063  25.553  28.664  1.00  0.00    +0.000 C 
ATOM     88  C64 UNL A   1      40.633  26.171  26.393  1.00  0.00    +0.000 C 
ATOM     89  C65 UNL A   1      40.192  24.926  25.945  1.00  0.00    +0.000 C 
ATOM    122  H30 UNL A   1      39.973  25.797  29.662  1.00  0.00    +0.000 H 
ATOM     27  C22 UNL A   1      39.771  23.962  26.864  1.00  0.00    +0.000 C 
ATOM     28  C23 UNL A   1      39.679  24.285  28.221  1.00  0.00    +0.000 C 
ATOM    121  H29 UNL A   1      39.329  23.586  28.896  1.00  0.00    +0.000 H 
ATOM     30  C25 UNL A   1      40.570  26.497  27.757  1.00  0.00    +0.000 C 
BRANCH   27   25
ATOM     25  C21 UNL A   1      39.362  22.607  26.425  1.00  0.00    +0.000 C 
ATOM     26  O2  UNL A   1      38.231  22.426  25.993  1.00  0.00    +0.000 O 
BRANCH   25   24
ATOM    120  H28 UNL A   1      40.481  21.147  25.633  1.00  0.00    +0.000 H 
ATOM     24  N2  UNL A   1      40.244  21.556  26.497  1.00  0.00    +0.000 N 
BRANCH   24   23
ATOM    119  H27 UNL A   1      40.107  20.682  28.351  1.00  0.00    +0.000 H 
ATOM    118  H26 UNL A   1      41.548  21.670  28.093  1.00  0.00    +0.000 H 
ATOM     23  C20 UNL A   1      40.878  20.957  27.661  1.00  0.00    +0.000 C 
BRANCH   23   22
ATOM    116  H24 UNL A   1      42.468  19.597  28.000  1.00  0.00    +0.000 H 
ATOM    117  H25 UNL A   1      40.962  18.886  27.347  1.00  0.00    +0.000 H 
ATOM     22  C19 UNL A   1      41.661  19.695  27.303  1.00  0.00    +0.000 C 
BRANCH   22   21
ATOM    114  H22 UNL A   1      41.486  19.344  25.219  1.00  0.00    +0.000 H 
ATOM    115  H23 UNL A   1      42.587  20.676  25.701  1.00  0.00    +0.000 H 
ATOM     21  C18 UNL A   1      42.250  19.678  25.888  1.00  0.00    +0.000 C 
BRANCH   21   20
ATOM    113  H21 UNL A   1      43.100  17.785  25.566  1.00  0.00    +0.000 H 
ATOM     20  C17 UNL A   1      43.477  18.779  25.689  1.00  0.00    +0.000 C 
ATOM    112  H20 UNL A   1      44.114  18.893  26.542  1.00  0.00    +0.000 H 
BRANCH   20   19
ATOM     19  C16 UNL A   1      44.310  19.073  24.435  1.00  0.00    +0.000 C 
ATOM    110  H18 UNL A   1      44.321  18.194  23.825  1.00  0.00    +0.000 H 
ATOM    111  H19 UNL A   1      43.851  19.907  23.948  1.00  0.00    +0.000 H 
BRANCH   19   18
ATOM     18  C15 UNL A   1      45.756  19.473  24.729  1.00  0.00    +0.000 C 
ATOM    108  H16 UNL A   1      46.212  18.709  25.324  1.00  0.00    +0.000 H 
ATOM    109  H17 UNL A   1      46.265  19.590  23.795  1.00  0.00    +0.000 H 
BRANCH   18   17
ATOM     17  N1  UNL A   1      45.836  20.730  25.442  1.00  0.00    +0.000 N 
ATOM    107  H15 UNL A   1      46.246  20.668  26.335  1.00  0.00    +0.000 H 
BRANCH   17   15
ATOM     15  C14 UNL A   1      45.443  21.984  25.088  1.00  0.00    +0.000 C 
ATOM     16  O1  UNL A   1      46.184  22.593  24.306  1.00  0.00    +0.000 O 
BRANCH   15   13
ATOM     13  C12 UNL A   1      44.171  22.660  25.623  1.00  0.00    +0.000 C 
ATOM    103  H11 UNL A   1      43.461  21.870  25.757  1.00  0.00    +0.000 H 
BRANCH   13   12
ATOM    101  H9  UNL A   1      46.572  24.483  29.189  1.00  0.00    +0.000 H 
ATOM    102  H10 UNL A   1      46.353  23.798  26.888  1.00  0.00    +0.000 H 
ATOM    135  H43 UNL A   1      42.320  22.872  27.553  1.00  0.00    +0.000 H 
ATOM    136  H44 UNL A   1      42.500  23.710  29.806  1.00  0.00    +0.000 H 
ATOM      9  C8  UNL A   1      44.563  24.145  29.729  1.00  0.00    +0.000 C 
ATOM     10  C9  UNL A   1      45.655  24.155  28.847  1.00  0.00    +0.000 C 
ATOM     11  C10 UNL A   1      45.537  23.733  27.515  1.00  0.00    +0.000 C 
ATOM     12  C11 UNL A   1      44.331  23.227  27.024  1.00  0.00    +0.000 C 
ATOM     90  C66 UNL A   1      43.229  23.225  27.890  1.00  0.00    +0.000 C 
ATOM     91  C67 UNL A   1      43.339  23.695  29.206  1.00  0.00    +0.000 C 
BRANCH    9    8
ATOM     98  H6  UNL A   1      45.127  25.615  34.843  1.00  0.00    +0.000 H 
ATOM     99  H7  UNL A   1      46.092  26.964  33.076  1.00  0.00    +0.000 H 
ATOM      4  C3  UNL A   1      44.300  24.179  33.538  1.00  0.00    +0.000 C 
ATOM      5  C4  UNL A   1      45.011  25.335  33.857  1.00  0.00    +0.000 C 
ATOM      6  C5  UNL A   1      45.564  26.110  32.841  1.00  0.00    +0.000 C 
ATOM      7  C6  UNL A   1      45.405  25.733  31.504  1.00  0.00    +0.000 C 
ATOM      8  C7  UNL A   1      44.704  24.567  31.145  1.00  0.00    +0.000 C 
ATOM    137  H45 UNL A   1      43.619  22.953  31.968  1.00  0.00    +0.000 H 
ATOM    100  H8  UNL A   1      45.811  26.324  30.763  1.00  0.00    +0.000 H 
ATOM     92  C68 UNL A   1      44.150  23.808  32.195  1.00  0.00    +0.000 C 
BRANCH    4    3
ATOM      3  S1  UNL A   1      43.516  23.228  34.825  1.00  0.00    +0.000 S 
BRANCH    3    2
ATOM     97  H5  UNL A   1      44.611  21.683  36.264  1.00  0.00    +0.000 H 
ATOM      2  C2  UNL A   1      44.969  22.431  35.588  1.00  0.00    +0.000 C 
ATOM     96  H4  UNL A   1      45.543  23.179  36.095  1.00  0.00    +0.000 H 
BRANCH    2    1
ATOM      1  C1  UNL A   1      45.860  21.743  34.569  1.00  0.00    +0.000 C 
ATOM     93  H1  UNL A   1      46.592  22.436  34.208  1.00  0.00    +0.000 H 
ATOM     94  H2  UNL A   1      45.264  21.396  33.750  1.00  0.00    +0.000 H 
ATOM     95  H3  UNL A   1      46.353  20.912  35.029  1.00  0.00    +0.000 H 
ENDBRANCH    2    1
ENDBRANCH    3    2
ENDBRANCH    4    3
ENDBRANCH    9    8
ENDBRANCH   13   12
BRANCH   13   14
ATOM    105  H13 UNL A   1      42.408  23.356  24.632  1.00  0.00    +0.000 H 
ATOM    106  H14 UNL A   1      43.839  23.362  23.630  1.00  0.00    +0.000 H 
ATOM     14  C13 UNL A   1      43.459  23.558  24.610  1.00  0.00    +0.000 C 
ATOM    104  H12 UNL A   1      43.630  24.584  24.861  1.00  0.00    +0.000 H 
ENDBRANCH   13   14
ENDBRANCH   15   13
ENDBRANCH   17   15
ENDBRANCH   18   17
ENDBRANCH   19   18
ENDBRANCH   20   19
ENDBRANCH   21   20
ENDBRANCH   22   21
ENDBRANCH   23   22
ENDBRANCH   24   23
ENDBRANCH   25   24
ENDBRANCH   27   25
ENDBRANCH   31   30
BRANCH   35   36
ATOM     36  C30 UNL A   1      46.917  29.175  28.764  1.00  0.00    +0.000 C 
ATOM     37  C31 UNL A   1      47.613  28.562  29.816  1.00  0.00    +0.000 C 
ATOM     38  F1  UNL A   1      47.071  28.504  31.041  1.00  0.00    +0.000 F 
ATOM     39  C32 UNL A   1      48.887  28.035  29.621  1.00  0.00    +0.000 C 
ATOM     40  F2  UNL A   1      49.551  27.491  30.651  1.00  0.00    +0.000 F 
ATOM     41  C33 UNL A   1      49.475  28.081  28.366  1.00  0.00    +0.000 C 
ATOM     42  F3  UNL A   1      50.698  27.566  28.176  1.00  0.00    +0.000 F 
ATOM     43  C34 UNL A   1      48.797  28.667  27.306  1.00  0.00    +0.000 C 
ATOM     44  F4  UNL A   1      49.359  28.702  26.091  1.00  0.00    +0.000 F 
ATOM     45  C35 UNL A   1      47.534  29.219  27.505  1.00  0.00    +0.000 C 
ATOM     46  F5  UNL A   1      46.909  29.789  26.464  1.00  0.00    +0.000 F 
ENDBRANCH   35   36
BRANCH   52   53
ATOM     53  C41 UNL A   1      43.826  35.282  31.019  1.00  0.00    +0.000 C 
ATOM     54  C42 UNL A   1      44.149  35.535  32.359  1.00  0.00    +0.000 C 
ATOM     55  F6  UNL A   1      44.031  34.564  33.277  1.00  0.00    +0.000 F 
ATOM     56  C43 UNL A   1      44.560  36.801  32.768  1.00  0.00    +0.000 C 
ATOM     57  F7  UNL A   1      44.821  37.033  34.063  1.00  0.00    +0.000 F 
ATOM     58  C44 UNL A   1      44.685  37.827  31.842  1.00  0.00    +0.000 C 
ATOM     59  F8  UNL A   1      45.085  39.042  32.239  1.00  0.00    +0.000 F 
ATOM     60  C45 UNL A   1      44.387  37.593  30.509  1.00  0.00    +0.000 C 
ATOM     61  F9  UNL A   1      44.518  38.580  29.611  1.00  0.00    +0.000 F 
ATOM     62  C46 UNL A   1      43.951  36.336  30.100  1.00  0.00    +0.000 C 
ATOM     63  F10 UNL A   1      43.660  36.142  28.806  1.00  0.00    +0.000 F 
ENDBRANCH   52   53
BRANCH   67   68
ATOM     68  C50 UNL A   1      37.569  32.325  30.255  1.00  0.00    +0.000 C 
ATOM     69  C51 UNL A   1      36.956  32.075  31.491  1.00  0.00    +0.000 C 
ATOM     70  F11 UNL A   1      37.616  31.396  32.440  1.00  0.00    +0.000 F 
ATOM     71  C52 UNL A   1      35.650  32.489  31.742  1.00  0.00    +0.000 C 
ATOM     72  F12 UNL A   1      35.073  32.202  32.918  1.00  0.00    +0.000 F 
ATOM     73  C53 UNL A   1      34.941  33.185  30.774  1.00  0.00    +0.000 C 
ATOM     74  F13 UNL A   1      33.687  33.586  31.018  1.00  0.00    +0.000 F 
ATOM     75  C54 UNL A   1      35.534  33.457  29.549  1.00  0.00    +0.000 C 
ATOM     76  F14 UNL A   1      34.857  34.140  28.616  1.00  0.00    +0.000 F 
ATOM     77  C55 UNL A   1      36.831  33.021  29.288  1.00  0.00    +0.000 C 
ATOM     78  F15 UNL A   1      37.376  33.289  28.092  1.00  0.00    +0.000 F 
ENDBRANCH   67   68
TORSDOF 21
ENDMDL
MODEL 3
REMARK VINA RESULT:      -7.2     44.541     47.769
ROOT
ATOM    129  H37 UNL A   1      13.202  46.841   2.288  1.00  0.00    +0.000 H 
ATOM    130  H38 UNL A   1      14.958  46.956   0.431  1.00  0.00    +0.000 H 
ATOM    131  H39 UNL A   1      16.628  56.647   2.496  1.00  0.00    +0.000 H 
ATOM    132  H40 UNL A   1      15.232  56.431   4.631  1.00  0.00    +0.000 H 
ATOM     31  C26 UNL A   1      13.971  53.891   4.925  1.00  0.00    +0.000 C 
ATOM     32  C27 UNL A   1      14.947  54.317   3.863  1.00  0.00    +0.000 C 
ATOM     33  N3  UNL A   1      15.427  53.629   2.857  1.00  0.00    +0.000 N 
ATOM     34  C28 UNL A   1      16.247  54.505   2.157  1.00  0.00    +0.000 C 
ATOM     35  C29 UNL A   1      17.011  54.257   1.067  1.00  0.00    +0.000 C 
ATOM     47  C36 UNL A   1      17.116  52.973   0.424  1.00  0.00    +0.000 C 
ATOM     48  C37 UNL A   1      17.921  52.605  -0.641  1.00  0.00    +0.000 C 
ATOM     49  C38 UNL A   1      17.655  51.265  -0.948  1.00  0.00    +0.000 C 
ATOM     50  C39 UNL A   1      16.717  50.787  -0.047  1.00  0.00    +0.000 C 
ATOM     51  N4  UNL A   1      16.392  51.847   0.786  1.00  0.00    +0.000 N 
ATOM     52  C40 UNL A   1      16.156  49.465   0.048  1.00  0.00    +0.000 C 
ATOM     64  C47 UNL A   1      15.246  49.070   0.971  1.00  0.00    +0.000 C 
ATOM     65  N5  UNL A   1      14.669  49.808   1.997  1.00  0.00    +0.000 N 
ATOM     66  C48 UNL A   1      13.845  48.991   2.606  1.00  0.00    +0.000 C 
ATOM     67  C49 UNL A   1      12.972  49.245   3.804  1.00  0.00    +0.000 C 
ATOM     79  C56 UNL A   1      13.012  50.448   4.406  1.00  0.00    +0.000 C 
ATOM     80  C57 UNL A   1      12.233  50.834   5.579  1.00  0.00    +0.000 C 
ATOM     81  C58 UNL A   1      12.494  52.118   5.874  1.00  0.00    +0.000 C 
ATOM     82  C59 UNL A   1      13.483  52.636   4.928  1.00  0.00    +0.000 C 
ATOM     83  N6  UNL A   1      13.741  51.572   4.100  1.00  0.00    +0.000 N 
ATOM     84  C60 UNL A   1      13.788  47.646   2.018  1.00  0.00    +0.000 C 
ATOM     85  C61 UNL A   1      14.688  47.736   1.050  1.00  0.00    +0.000 C 
ATOM     86  C62 UNL A   1      16.167  55.785   2.827  1.00  0.00    +0.000 C 
ATOM     87  C63 UNL A   1      15.425  55.706   3.923  1.00  0.00    +0.000 C 
ATOM    123  H31 UNL A   1      18.599  53.212  -1.126  1.00  0.00    +0.000 H 
ATOM    124  H32 UNL A   1      18.086  50.725  -1.714  1.00  0.00    +0.000 H 
ATOM    125  H33 UNL A   1      15.745  51.805   1.527  1.00  0.00    +0.000 H 
ATOM    126  H34 UNL A   1      11.587  50.220   6.097  1.00  0.00    +0.000 H 
ATOM    127  H35 UNL A   1      12.065  52.654   6.645  1.00  0.00    +0.000 H 
ATOM    128  H36 UNL A   1      14.387  51.611   3.358  1.00  0.00    +0.000 H 
ENDROOT
BRANCH   31   30
ATOM    133  H41 UNL A   1      15.007  54.443   7.335  1.00  0.00    +0.000 H 
ATOM    134  H42 UNL A   1      14.198  55.989   9.017  1.00  0.00    +0.000 H 
ATOM     29  C24 UNL A   1      12.348  55.657   5.686  1.00  0.00    +0.000 C 
ATOM     88  C64 UNL A   1      14.171  55.016   7.146  1.00  0.00    +0.000 C 
ATOM     89  C65 UNL A   1      13.728  55.933   8.099  1.00  0.00    +0.000 C 
ATOM    122  H30 UNL A   1      11.811  55.527   4.815  1.00  0.00    +0.000 H 
ATOM     27  C22 UNL A   1      12.651  56.775   7.812  1.00  0.00    +0.000 C 
ATOM     28  C23 UNL A   1      11.943  56.618   6.616  1.00  0.00    +0.000 C 
ATOM    121  H29 UNL A   1      11.121  57.211   6.420  1.00  0.00    +0.000 H 
ATOM     30  C25 UNL A   1      13.483  54.868   5.932  1.00  0.00    +0.000 C 
BRANCH   27   25
ATOM     25  C21 UNL A   1      12.201  57.806   8.776  1.00  0.00    +0.000 C 
ATOM     26  O2  UNL A   1      12.592  58.960   8.655  1.00  0.00    +0.000 O 
BRANCH   25   24
ATOM    120  H28 UNL A   1      11.420  58.038  10.605  1.00  0.00    +0.000 H 
ATOM     24  N2  UNL A   1      11.347  57.476   9.800  1.00  0.00    +0.000 N 
BRANCH   24   23
ATOM    119  H27 UNL A   1      10.073  56.160   8.870  1.00  0.00    +0.000 H 
ATOM    118  H26 UNL A   1       9.509  56.775  10.427  1.00  0.00    +0.000 H 
ATOM     23  C20 UNL A   1      10.350  56.419   9.871  1.00  0.00    +0.000 C 
BRANCH   23   22
ATOM    116  H24 UNL A   1      11.820  55.414  11.022  1.00  0.00    +0.000 H 
ATOM    117  H25 UNL A   1      10.138  54.843  11.236  1.00  0.00    +0.000 H 
ATOM     22  C19 UNL A   1      10.894  55.162  10.548  1.00  0.00    +0.000 C 
BRANCH   22   21
ATOM    114  H22 UNL A   1      10.530  54.104   8.746  1.00  0.00    +0.000 H 
ATOM    115  H23 UNL A   1      12.197  53.993   9.399  1.00  0.00    +0.000 H 
ATOM     21  C18 UNL A   1      11.148  53.978   9.609  1.00  0.00    +0.000 C 
BRANCH   21   20
ATOM    113  H21 UNL A   1      11.809  52.187  10.485  1.00  0.00    +0.000 H 
ATOM     20  C17 UNL A   1      10.861  52.589  10.195  1.00  0.00    +0.000 C 
ATOM    112  H20 UNL A   1      10.361  52.011   9.446  1.00  0.00    +0.000 H 
BRANCH   20   19
ATOM     19  C16 UNL A   1       9.993  52.577  11.460  1.00  0.00    +0.000 C 
ATOM    110  H18 UNL A   1       9.996  53.561  11.879  1.00  0.00    +0.000 H 
ATOM    111  H19 UNL A   1       9.016  52.259  11.161  1.00  0.00    +0.000 H 
BRANCH   19   18
ATOM     18  C15 UNL A   1      10.470  51.596  12.531  1.00  0.00    +0.000 C 
ATOM    108  H16 UNL A   1       9.637  51.006  12.856  1.00  0.00    +0.000 H 
ATOM    109  H17 UNL A   1      11.234  50.981  12.102  1.00  0.00    +0.000 H 
BRANCH   18   17
ATOM     17  N1  UNL A   1      11.035  52.277  13.676  1.00  0.00    +0.000 N 
ATOM    107  H15 UNL A   1      10.387  52.800  14.200  1.00  0.00    +0.000 H 
BRANCH   17   15
ATOM     15  C14 UNL A   1      12.310  52.316  14.154  1.00  0.00    +0.000 C 
ATOM     16  O1  UNL A   1      12.521  51.705  15.209  1.00  0.00    +0.000 O 
BRANCH   15   13
ATOM     13  C12 UNL A   1      13.451  53.082  13.470  1.00  0.00    +0.000 C 
ATOM    103  H11 UNL A   1      14.260  53.080  14.171  1.00  0.00    +0.000 H 
BRANCH   13   12
ATOM    101  H9  UNL A   1      15.023  52.772   9.084  1.00  0.00    +0.000 H 
ATOM    102  H10 UNL A   1      14.310  54.027  11.015  1.00  0.00    +0.000 H 
ATOM    135  H43 UNL A   1      13.976  50.466  13.198  1.00  0.00    +0.000 H 
ATOM    136  H44 UNL A   1      14.846  49.232  11.319  1.00  0.00    +0.000 H 
ATOM      9  C8  UNL A   1      14.986  50.877  10.006  1.00  0.00    +0.000 C 
ATOM     10  C9  UNL A   1      14.817  52.270   9.962  1.00  0.00    +0.000 C 
ATOM     11  C10 UNL A   1      14.378  53.000  11.075  1.00  0.00    +0.000 C 
ATOM     12  C11 UNL A   1      14.031  52.357  12.266  1.00  0.00    +0.000 C 
ATOM     90  C66 UNL A   1      14.208  50.968  12.327  1.00  0.00    +0.000 C 
ATOM     91  C67 UNL A   1      14.696  50.249  11.228  1.00  0.00    +0.000 C 
BRANCH    9    8
ATOM     98  H6  UNL A   1      16.640  48.120   5.728  1.00  0.00    +0.000 H 
ATOM     99  H7  UNL A   1      15.811  46.951   7.682  1.00  0.00    +0.000 H 
ATOM      4  C3  UNL A   1      16.351  50.047   6.537  1.00  0.00    +0.000 C 
ATOM      5  C4  UNL A   1      16.314  48.653   6.549  1.00  0.00    +0.000 C 
ATOM      6  C5  UNL A   1      15.836  47.982   7.672  1.00  0.00    +0.000 C 
ATOM      7  C6  UNL A   1      15.391  48.703   8.784  1.00  0.00    +0.000 C 
ATOM      8  C7  UNL A   1      15.425  50.110   8.813  1.00  0.00    +0.000 C 
ATOM    137  H45 UNL A   1      15.934  51.791   7.641  1.00  0.00    +0.000 H 
ATOM    100  H8  UNL A   1      15.030  48.192   9.604  1.00  0.00    +0.000 H 
ATOM     92  C68 UNL A   1      15.907  50.760   7.660  1.00  0.00    +0.000 C 
BRANCH    4    3
ATOM      3  S1  UNL A   1      16.880  50.915   5.074  1.00  0.00    +0.000 S 
BRANCH    3    2
ATOM     97  H5  UNL A   1      16.497  49.207   3.465  1.00  0.00    +0.000 H 
ATOM      2  C2  UNL A   1      17.365  49.515   4.009  1.00  0.00    +0.000 C 
ATOM     96  H4  UNL A   1      17.743  48.728   4.628  1.00  0.00    +0.000 H 
BRANCH    2    1
ATOM      1  C1  UNL A   1      18.432  49.893   2.997  1.00  0.00    +0.000 C 
ATOM     93  H1  UNL A   1      18.053  49.744   2.007  1.00  0.00    +0.000 H 
ATOM     94  H2  UNL A   1      19.297  49.280   3.144  1.00  0.00    +0.000 H 
ATOM     95  H3  UNL A   1      18.699  50.921   3.126  1.00  0.00    +0.000 H 
ENDBRANCH    2    1
ENDBRANCH    3    2
ENDBRANCH    4    3
ENDBRANCH    9    8
ENDBRANCH   13   12
BRANCH   13   14
ATOM    105  H13 UNL A   1      14.057  55.130  13.595  1.00  0.00    +0.000 H 
ATOM    106  H14 UNL A   1      12.355  54.870  13.895  1.00  0.00    +0.000 H 
ATOM     14  C13 UNL A   1      13.190  54.579  13.293  1.00  0.00    +0.000 C 
ATOM    104  H12 UNL A   1      12.978  54.785  12.265  1.00  0.00    +0.000 H 
ENDBRANCH   13   14
ENDBRANCH   15   13
ENDBRANCH   17   15
ENDBRANCH   18   17
ENDBRANCH   19   18
ENDBRANCH   20   19
ENDBRANCH   21   20
ENDBRANCH   22   21
ENDBRANCH   23   22
ENDBRANCH   24   23
ENDBRANCH   25   24
ENDBRANCH   27   25
ENDBRANCH   31   30
BRANCH   35   36
ATOM     36  C30 UNL A   1      17.803  55.398   0.498  1.00  0.00    +0.000 C 
ATOM     37  C31 UNL A   1      19.041  55.773   1.038  1.00  0.00    +0.000 C 
ATOM     38  F1  UNL A   1      19.523  55.148   2.123  1.00  0.00    +0.000 F 
ATOM     39  C32 UNL A   1      19.777  56.819   0.486  1.00  0.00    +0.000 C 
ATOM     40  F2  UNL A   1      20.938  57.188   1.045  1.00  0.00    +0.000 F 
ATOM     41  C33 UNL A   1      19.305  57.486  -0.635  1.00  0.00    +0.000 C 
ATOM     42  F3  UNL A   1      20.017  58.487  -1.171  1.00  0.00    +0.000 F 
ATOM     43  C34 UNL A   1      18.091  57.119  -1.197  1.00  0.00    +0.000 C 
ATOM     44  F4  UNL A   1      17.639  57.755  -2.286  1.00  0.00    +0.000 F 
ATOM     45  C35 UNL A   1      17.340  56.092  -0.630  1.00  0.00    +0.000 C 
ATOM     46  F5  UNL A   1      16.165  55.768  -1.189  1.00  0.00    +0.000 F 
ENDBRANCH   35   36
BRANCH   52   53
ATOM     53  C41 UNL A   1      16.625  48.434  -0.936  1.00  0.00    +0.000 C 
ATOM     54  C42 UNL A   1      15.883  48.126  -2.084  1.00  0.00    +0.000 C 
ATOM     55  F6  UNL A   1      14.699  48.718  -2.303  1.00  0.00    +0.000 F 
ATOM     56  C43 UNL A   1      16.340  47.178  -2.997  1.00  0.00    +0.000 C 
ATOM     57  F7  UNL A   1      15.593  46.866  -4.066  1.00  0.00    +0.000 F 
ATOM     58  C44 UNL A   1      17.557  46.544  -2.793  1.00  0.00    +0.000 C 
ATOM     59  F8  UNL A   1      17.996  45.637  -3.675  1.00  0.00    +0.000 F 
ATOM     60  C45 UNL A   1      18.314  46.848  -1.673  1.00  0.00    +0.000 C 
ATOM     61  F9  UNL A   1      19.497  46.245  -1.480  1.00  0.00    +0.000 F 
ATOM     62  C46 UNL A   1      17.850  47.776  -0.745  1.00  0.00    +0.000 C 
ATOM     63  F10 UNL A   1      18.598  48.040   0.335  1.00  0.00    +0.000 F 
ENDBRANCH   52   53
BRANCH   67   68
ATOM     68  C50 UNL A   1      12.090  48.179   4.342  1.00  0.00    +0.000 C 
ATOM     69  C51 UNL A   1      12.615  47.142   5.127  1.00  0.00    +0.000 C 
ATOM     70  F11 UNL A   1      13.930  47.094   5.379  1.00  0.00    +0.000 F 
ATOM     71  C52 UNL A   1      11.794  46.130   5.622  1.00  0.00    +0.000 C 
ATOM     72  F12 UNL A   1      12.328  45.128   6.335  1.00  0.00    +0.000 F 
ATOM     73  C53 UNL A   1      10.432  46.150   5.367  1.00  0.00    +0.000 C 
ATOM     74  F13 UNL A   1       9.644  45.180   5.846  1.00  0.00    +0.000 F 
ATOM     75  C54 UNL A   1       9.889  47.176   4.606  1.00  0.00    +0.000 C 
ATOM     76  F14 UNL A   1       8.571  47.207   4.368  1.00  0.00    +0.000 F 
ATOM     77  C55 UNL A   1      10.711  48.175   4.090  1.00  0.00    +0.000 C 
ATOM     78  F15 UNL A   1      10.161  49.149   3.349  1.00  0.00    +0.000 F 
ENDBRANCH   67   68
TORSDOF 21
ENDMDL
MODEL 4
REMARK VINA RESULT:      -7.1      2.390      8.435
ROOT
ATOM    129  H37 UNL A   1      20.429  33.850  46.815  1.00  0.00    +0.000 H 
ATOM    130  H38 UNL A   1      18.539  35.246  47.827  1.00  0.00    +0.000 H 
ATOM    131  H39 UNL A   1      24.710  43.129  48.689  1.00  0.00    +0.000 H 
ATOM    132  H40 UNL A   1      26.460  41.913  47.271  1.00  0.00    +0.000 H 
ATOM     31  C26 UNL A   1      25.746  39.230  46.621  1.00  0.00    +0.000 C 
ATOM     32  C27 UNL A   1      24.909  40.259  47.330  1.00  0.00    +0.000 C 
ATOM     33  N3  UNL A   1      23.690  40.155  47.798  1.00  0.00    +0.000 N 
ATOM     34  C28 UNL A   1      23.411  41.375  48.401  1.00  0.00    +0.000 C 
ATOM     35  C29 UNL A   1      22.260  41.783  48.986  1.00  0.00    +0.000 C 
ATOM     47  C36 UNL A   1      21.066  40.985  49.073  1.00  0.00    +0.000 C 
ATOM     48  C37 UNL A   1      19.827  41.337  49.581  1.00  0.00    +0.000 C 
ATOM     49  C38 UNL A   1      18.984  40.223  49.492  1.00  0.00    +0.000 C 
ATOM     50  C39 UNL A   1      19.685  39.191  48.892  1.00  0.00    +0.000 C 
ATOM     51  N4  UNL A   1      20.962  39.670  48.643  1.00  0.00    +0.000 N 
ATOM     52  C40 UNL A   1      19.227  37.865  48.568  1.00  0.00    +0.000 C 
ATOM     64  C47 UNL A   1      19.975  36.909  47.965  1.00  0.00    +0.000 C 
ATOM     65  N5  UNL A   1      21.293  36.978  47.533  1.00  0.00    +0.000 N 
ATOM     66  C48 UNL A   1      21.567  35.799  47.029  1.00  0.00    +0.000 C 
ATOM     67  C49 UNL A   1      22.840  35.313  46.393  1.00  0.00    +0.000 C 
ATOM     79  C56 UNL A   1      23.876  36.162  46.261  1.00  0.00    +0.000 C 
ATOM     80  C57 UNL A   1      25.165  35.836  45.656  1.00  0.00    +0.000 C 
ATOM     81  C58 UNL A   1      25.970  36.908  45.737  1.00  0.00    +0.000 C 
ATOM     82  C59 UNL A   1      25.242  38.006  46.373  1.00  0.00    +0.000 C 
ATOM     83  N6  UNL A   1      24.005  37.476  46.639  1.00  0.00    +0.000 N 
ATOM     84  C60 UNL A   1      20.457  34.839  47.107  1.00  0.00    +0.000 C 
ATOM     85  C61 UNL A   1      19.500  35.578  47.651  1.00  0.00    +0.000 C 
ATOM     86  C62 UNL A   1      24.601  42.188  48.279  1.00  0.00    +0.000 C 
ATOM     87  C63 UNL A   1      25.535  41.567  47.572  1.00  0.00    +0.000 C 
ATOM    123  H31 UNL A   1      19.568  42.262  49.959  1.00  0.00    +0.000 H 
ATOM    124  H32 UNL A   1      18.006  40.180  49.820  1.00  0.00    +0.000 H 
ATOM    125  H33 UNL A   1      21.687  39.154  48.222  1.00  0.00    +0.000 H 
ATOM    126  H34 UNL A   1      25.416  34.929  45.234  1.00  0.00    +0.000 H 
ATOM    127  H35 UNL A   1      26.946  36.950  45.404  1.00  0.00    +0.000 H 
ATOM    128  H36 UNL A   1      23.278  37.989  47.061  1.00  0.00    +0.000 H 
ENDROOT
BRANCH   31   30
ATOM    133  H41 UNL A   1      26.646  40.650  44.531  1.00  0.00    +0.000 H 
ATOM    134  H42 UNL A   1      28.936  41.104  43.880  1.00  0.00    +0.000 H 
ATOM     29  C24 UNL A   1      28.222  39.064  47.034  1.00  0.00    +0.000 C 
ATOM     88  C64 UNL A   1      27.424  40.301  45.112  1.00  0.00    +0.000 C 
ATOM     89  C65 UNL A   1      28.740  40.595  44.756  1.00  0.00    +0.000 C 
ATOM    122  H30 UNL A   1      28.036  38.462  47.851  1.00  0.00    +0.000 H 
ATOM     27  C22 UNL A   1      29.793  40.202  45.587  1.00  0.00    +0.000 C 
ATOM     28  C23 UNL A   1      29.536  39.411  46.711  1.00  0.00    +0.000 C 
ATOM    121  H29 UNL A   1      30.316  39.085  47.303  1.00  0.00    +0.000 H 
ATOM     30  C25 UNL A   1      27.153  39.530  46.253  1.00  0.00    +0.000 C 
BRANCH   27   25
ATOM     25  C21 UNL A   1      31.196  40.559  45.273  1.00  0.00    +0.000 C 
ATOM     26  O2  UNL A   1      31.669  41.599  45.711  1.00  0.00    +0.000 O 
BRANCH   25   24
ATOM    120  H28 UNL A   1      32.909  39.649  44.776  1.00  0.00    +0.000 H 
ATOM     24  N2  UNL A   1      31.969  39.729  44.496  1.00  0.00    +0.000 N 
BRANCH   24   23
ATOM    119  H27 UNL A   1      32.421  38.990  42.633  1.00  0.00    +0.000 H 
ATOM    118  H26 UNL A   1      30.717  39.373  42.894  1.00  0.00    +0.000 H 
ATOM     23  C20 UNL A   1      31.602  38.953  43.322  1.00  0.00    +0.000 C 
BRANCH   23   22
ATOM    116  H24 UNL A   1      31.822  36.883  42.921  1.00  0.00    +0.000 H 
ATOM    117  H25 UNL A   1      31.724  37.335  44.649  1.00  0.00    +0.000 H 
ATOM     22  C19 UNL A   1      31.339  37.487  43.661  1.00  0.00    +0.000 C 
BRANCH   22   21
ATOM    114  H22 UNL A   1      29.595  36.934  44.735  1.00  0.00    +0.000 H 
ATOM    115  H23 UNL A   1      29.328  37.887  43.239  1.00  0.00    +0.000 H 
ATOM     21  C18 UNL A   1      29.860  37.088  43.710  1.00  0.00    +0.000 C 
BRANCH   21   20
ATOM    113  H21 UNL A   1      30.372  35.222  42.895  1.00  0.00    +0.000 H 
ATOM     20  C17 UNL A   1      29.486  35.821  42.931  1.00  0.00    +0.000 C 
ATOM    112  H20 UNL A   1      29.130  36.118  41.966  1.00  0.00    +0.000 H 
BRANCH   20   19
ATOM     19  C16 UNL A   1      28.409  34.943  43.581  1.00  0.00    +0.000 C 
ATOM    110  H18 UNL A   1      27.909  35.523  44.328  1.00  0.00    +0.000 H 
ATOM    111  H19 UNL A   1      27.754  34.626  42.798  1.00  0.00    +0.000 H 
BRANCH   19   18
ATOM     18  C15 UNL A   1      28.956  33.677  44.242  1.00  0.00    +0.000 C 
ATOM    108  H16 UNL A   1      28.146  32.997  44.409  1.00  0.00    +0.000 H 
ATOM    109  H17 UNL A   1      29.689  33.252  43.589  1.00  0.00    +0.000 H 
BRANCH   18   17
ATOM     17  N1  UNL A   1      29.596  33.961  45.509  1.00  0.00    +0.000 N 
ATOM    107  H15 UNL A   1      29.960  34.872  45.588  1.00  0.00    +0.000 H 
BRANCH   17   15
ATOM     15  C14 UNL A   1      29.781  33.183  46.611  1.00  0.00    +0.000 C 
ATOM     16  O1  UNL A   1      30.930  32.769  46.807  1.00  0.00    +0.000 O 
BRANCH   15   13
ATOM     13  C12 UNL A   1      28.650  32.791  47.575  1.00  0.00    +0.000 C 
ATOM    103  H11 UNL A   1      29.135  32.377  48.434  1.00  0.00    +0.000 H 
BRANCH   13   12
ATOM    101  H9  UNL A   1      28.287  37.073  49.401  1.00  0.00    +0.000 H 
ATOM    102  H10 UNL A   1      29.522  35.310  48.317  1.00  0.00    +0.000 H 
ATOM    135  H43 UNL A   1      26.024  33.017  48.072  1.00  0.00    +0.000 H 
ATOM    136  H44 UNL A   1      24.760  34.845  49.006  1.00  0.00    +0.000 H 
ATOM      9  C8  UNL A   1      26.406  36.124  49.328  1.00  0.00    +0.000 C 
ATOM     10  C9  UNL A   1      27.790  36.217  49.108  1.00  0.00    +0.000 C 
ATOM     11  C10 UNL A   1      28.515  35.184  48.500  1.00  0.00    +0.000 C 
ATOM     12  C11 UNL A   1      27.897  33.984  48.140  1.00  0.00    +0.000 C 
ATOM     90  C66 UNL A   1      26.513  33.884  48.341  1.00  0.00    +0.000 C 
ATOM     91  C67 UNL A   1      25.782  34.940  48.903  1.00  0.00    +0.000 C 
BRANCH    9    8
ATOM     98  H6  UNL A   1      23.697  40.016  51.807  1.00  0.00    +0.000 H 
ATOM     99  H7  UNL A   1      25.980  40.393  51.086  1.00  0.00    +0.000 H 
ATOM      4  C3  UNL A   1      23.606  38.038  51.082  1.00  0.00    +0.000 C 
ATOM      5  C4  UNL A   1      24.216  39.268  51.322  1.00  0.00    +0.000 C 
ATOM      6  C5  UNL A   1      25.527  39.484  50.907  1.00  0.00    +0.000 C 
ATOM      7  C6  UNL A   1      26.230  38.471  50.247  1.00  0.00    +0.000 C 
ATOM      8  C7  UNL A   1      25.651  37.213  49.997  1.00  0.00    +0.000 C 
ATOM    137  H45 UNL A   1      23.860  36.122  50.246  1.00  0.00    +0.000 H 
ATOM    100  H8  UNL A   1      27.197  38.651  49.935  1.00  0.00    +0.000 H 
ATOM     92  C68 UNL A   1      24.321  37.028  50.424  1.00  0.00    +0.000 C 
BRANCH    4    3
ATOM      3  S1  UNL A   1      21.901  37.782  51.533  1.00  0.00    +0.000 S 
BRANCH    3    2
ATOM     97  H5  UNL A   1      21.321  35.894  52.859  1.00  0.00    +0.000 H 
ATOM      2  C2  UNL A   1      21.936  36.016  51.991  1.00  0.00    +0.000 C 
ATOM     96  H4  UNL A   1      22.949  35.731  52.183  1.00  0.00    +0.000 H 
BRANCH    2    1
ATOM      1  C1  UNL A   1      21.376  35.119  50.901  1.00  0.00    +0.000 C 
ATOM     93  H1  UNL A   1      21.276  34.121  51.277  1.00  0.00    +0.000 H 
ATOM     94  H2  UNL A   1      22.041  35.118  50.063  1.00  0.00    +0.000 H 
ATOM     95  H3  UNL A   1      20.417  35.482  50.596  1.00  0.00    +0.000 H 
ENDBRANCH    2    1
ENDBRANCH    3    2
ENDBRANCH    4    3
ENDBRANCH    9    8
ENDBRANCH   13   12
BRANCH   13   14
ATOM    105  H13 UNL A   1      28.393  30.733  47.056  1.00  0.00    +0.000 H 
ATOM    106  H14 UNL A   1      27.403  31.831  46.126  1.00  0.00    +0.000 H 
ATOM     14  C13 UNL A   1      27.792  31.617  47.099  1.00  0.00    +0.000 C 
ATOM    104  H12 UNL A   1      26.984  31.466  47.783  1.00  0.00    +0.000 H 
ENDBRANCH   13   14
ENDBRANCH   15   13
ENDBRANCH   17   15
ENDBRANCH   18   17
ENDBRANCH   19   18
ENDBRANCH   20   19
ENDBRANCH   21   20
ENDBRANCH   22   21
ENDBRANCH   23   22
ENDBRANCH   24   23
ENDBRANCH   25   24
ENDBRANCH   27   25
ENDBRANCH   31   30
BRANCH   35   36
ATOM     36  C30 UNL A   1      22.230  43.163  49.575  1.00  0.00    +0.000 C 
ATOM     37  C31 UNL A   1      22.575  43.397  50.914  1.00  0.00    +0.000 C 
ATOM     38  F1  UNL A   1      22.889  42.372  51.720  1.00  0.00    +0.000 F 
ATOM     39  C32 UNL A   1      22.566  44.686  51.442  1.00  0.00    +0.000 C 
ATOM     40  F2  UNL A   1      22.859  44.881  52.736  1.00  0.00    +0.000 F 
ATOM     41  C33 UNL A   1      22.245  45.766  50.635  1.00  0.00    +0.000 C 
ATOM     42  F3  UNL A   1      22.244  47.007  51.141  1.00  0.00    +0.000 F 
ATOM     43  C34 UNL A   1      21.917  45.561  49.302  1.00  0.00    +0.000 C 
ATOM     44  F4  UNL A   1      21.617  46.605  48.518  1.00  0.00    +0.000 F 
ATOM     45  C35 UNL A   1      21.899  44.270  48.779  1.00  0.00    +0.000 C 
ATOM     46  F5  UNL A   1      21.568  44.102  47.490  1.00  0.00    +0.000 F 
ENDBRANCH   35   36
BRANCH   52   53
ATOM     53  C41 UNL A   1      17.808  37.513  48.904  1.00  0.00    +0.000 C 
ATOM     54  C42 UNL A   1      17.375  37.399  50.233  1.00  0.00    +0.000 C 
ATOM     55  F6  UNL A   1      18.246  37.554  51.241  1.00  0.00    +0.000 F 
ATOM     56  C43 UNL A   1      16.051  37.088  50.529  1.00  0.00    +0.000 C 
ATOM     57  F7  UNL A   1      15.668  36.940  51.805  1.00  0.00    +0.000 F 
ATOM     58  C44 UNL A   1      15.130  36.915  49.505  1.00  0.00    +0.000 C 
ATOM     59  F8  UNL A   1      13.855  36.621  49.793  1.00  0.00    +0.000 F 
ATOM     60  C45 UNL A   1      15.533  37.041  48.185  1.00  0.00    +0.000 C 
ATOM     61  F9  UNL A   1      14.642  36.886  47.195  1.00  0.00    +0.000 F 
ATOM     62  C46 UNL A   1      16.862  37.327  47.884  1.00  0.00    +0.000 C 
ATOM     63  F10 UNL A   1      17.225  37.431  46.598  1.00  0.00    +0.000 F 
ENDBRANCH   52   53
BRANCH   67   68
ATOM     68  C50 UNL A   1      22.955  33.922  45.887  1.00  0.00    +0.000 C 
ATOM     69  C51 UNL A   1      22.900  33.651  44.513  1.00  0.00    +0.000 C 
ATOM     70  F11 UNL A   1      22.719  34.652  43.640  1.00  0.00    +0.000 F 
ATOM     71  C52 UNL A   1      22.992  32.346  44.034  1.00  0.00    +0.000 C 
ATOM     72  F12 UNL A   1      22.895  32.110  42.717  1.00  0.00    +0.000 F 
ATOM     73  C53 UNL A   1      23.168  31.290  44.916  1.00  0.00    +0.000 C 
ATOM     74  F13 UNL A   1      23.260  30.037  44.454  1.00  0.00    +0.000 F 
ATOM     75  C54 UNL A   1      23.241  31.537  46.279  1.00  0.00    +0.000 C 
ATOM     76  F14 UNL A   1      23.425  30.522  47.134  1.00  0.00    +0.000 F 
ATOM     77  C55 UNL A   1      23.125  32.839  46.761  1.00  0.00    +0.000 C 
ATOM     78  F15 UNL A   1      23.189  33.048  48.085  1.00  0.00    +0.000 F 
ENDBRANCH   67   68
TORSDOF 21
ENDMDL
MODEL 5
REMARK VINA RESULT:      -7.0     44.141     47.359
ROOT
ATOM    129  H37 UNL A   1      13.500  46.809   2.396  1.00  0.00    +0.000 H 
ATOM    130  H38 UNL A   1      15.235  46.912   0.519  1.00  0.00    +0.000 H 
ATOM    131  H39 UNL A   1      16.672  56.701   2.270  1.00  0.00    +0.000 H 
ATOM    132  H40 UNL A   1      15.302  56.516   4.425  1.00  0.00    +0.000 H 
ATOM     31  C26 UNL A   1      14.109  53.955   4.808  1.00  0.00    +0.000 C 
ATOM     32  C27 UNL A   1      15.064  54.372   3.724  1.00  0.00    +0.000 C 
ATOM     33  N3  UNL A   1      15.553  53.667   2.735  1.00  0.00    +0.000 N 
ATOM     34  C28 UNL A   1      16.344  54.541   2.001  1.00  0.00    +0.000 C 
ATOM     35  C29 UNL A   1      17.104  54.279   0.911  1.00  0.00    +0.000 C 
ATOM     47  C36 UNL A   1      17.237  52.980   0.307  1.00  0.00    +0.000 C 
ATOM     48  C37 UNL A   1      18.041  52.599  -0.755  1.00  0.00    +0.000 C 
ATOM     49  C38 UNL A   1      17.807  51.244  -1.017  1.00  0.00    +0.000 C 
ATOM     50  C39 UNL A   1      16.890  50.771  -0.093  1.00  0.00    +0.000 C 
ATOM     51  N4  UNL A   1      16.546  51.847   0.710  1.00  0.00    +0.000 N 
ATOM     52  C40 UNL A   1      16.364  49.438   0.047  1.00  0.00    +0.000 C 
ATOM     64  C47 UNL A   1      15.473  49.049   0.991  1.00  0.00    +0.000 C 
ATOM     65  N5  UNL A   1      14.887  49.802   1.999  1.00  0.00    +0.000 N 
ATOM     66  C48 UNL A   1      14.089  48.984   2.642  1.00  0.00    +0.000 C 
ATOM     67  C49 UNL A   1      13.221  49.252   3.839  1.00  0.00    +0.000 C 
ATOM     79  C56 UNL A   1      13.236  50.474   4.404  1.00  0.00    +0.000 C 
ATOM     80  C57 UNL A   1      12.457  50.876   5.572  1.00  0.00    +0.000 C 
ATOM     81  C58 UNL A   1      12.688  52.175   5.826  1.00  0.00    +0.000 C 
ATOM     82  C59 UNL A   1      13.654  52.689   4.854  1.00  0.00    +0.000 C 
ATOM     83  N6  UNL A   1      13.932  51.607   4.057  1.00  0.00    +0.000 N 
ATOM     84  C60 UNL A   1      14.062  47.620   2.095  1.00  0.00    +0.000 C 
ATOM     85  C61 UNL A   1      14.951  47.704   1.116  1.00  0.00    +0.000 C 
ATOM     86  C62 UNL A   1      16.237  55.838   2.632  1.00  0.00    +0.000 C 
ATOM     87  C63 UNL A   1      15.506  55.774   3.737  1.00  0.00    +0.000 C 
ATOM    123  H31 UNL A   1      18.699  53.209  -1.264  1.00  0.00    +0.000 H 
ATOM    124  H32 UNL A   1      18.245  50.692  -1.771  1.00  0.00    +0.000 H 
ATOM    125  H33 UNL A   1      15.906  51.811   1.458  1.00  0.00    +0.000 H 
ATOM    126  H34 UNL A   1      11.832  50.261   6.116  1.00  0.00    +0.000 H 
ATOM    127  H35 UNL A   1      12.252  52.723   6.584  1.00  0.00    +0.000 H 
ATOM    128  H36 UNL A   1      14.570  51.639   3.308  1.00  0.00    +0.000 H 
ENDROOT
BRANCH   31   30
ATOM    133  H41 UNL A   1      11.699  55.127   4.893  1.00  0.00    +0.000 H 
ATOM    134  H42 UNL A   1      10.876  56.792   6.449  1.00  0.00    +0.000 H 
ATOM     29  C24 UNL A   1      14.412  55.394   6.849  1.00  0.00    +0.000 C 
ATOM     88  C64 UNL A   1      12.300  55.449   5.667  1.00  0.00    +0.000 C 
ATOM     89  C65 UNL A   1      11.812  56.379   6.584  1.00  0.00    +0.000 C 
ATOM    122  H30 UNL A   1      15.387  55.066   6.925  1.00  0.00    +0.000 H 
ATOM     27  C22 UNL A   1      12.589  56.750   7.684  1.00  0.00    +0.000 C 
ATOM     28  C23 UNL A   1      13.900  56.279   7.801  1.00  0.00    +0.000 C 
ATOM    121  H29 UNL A   1      14.490  56.585   8.592  1.00  0.00    +0.000 H 
ATOM     30  C25 UNL A   1      13.606  54.949   5.789  1.00  0.00    +0.000 C 
BRANCH   27   25
ATOM     25  C21 UNL A   1      12.072  57.682   8.712  1.00  0.00    +0.000 C 
ATOM     26  O2  UNL A   1      12.259  58.886   8.588  1.00  0.00    +0.000 O 
BRANCH   25   24
ATOM    120  H28 UNL A   1      11.141  57.883  10.474  1.00  0.00    +0.000 H 
ATOM     24  N2  UNL A   1      11.382  57.206   9.801  1.00  0.00    +0.000 N 
BRANCH   24   23
ATOM    119  H27 UNL A   1      10.686  55.373   9.188  1.00  0.00    +0.000 H 
ATOM    118  H26 UNL A   1      10.130  55.891  10.783  1.00  0.00    +0.000 H 
ATOM     23  C20 UNL A   1      10.958  55.849  10.107  1.00  0.00    +0.000 C 
BRANCH   23   22
ATOM    116  H24 UNL A   1      12.977  55.605  10.706  1.00  0.00    +0.000 H 
ATOM    117  H25 UNL A   1      11.756  54.816  11.747  1.00  0.00    +0.000 H 
ATOM     22  C19 UNL A   1      12.076  55.029  10.748  1.00  0.00    +0.000 C 
BRANCH   22   21
ATOM    114  H22 UNL A   1      11.924  52.913  10.709  1.00  0.00    +0.000 H 
ATOM    115  H23 UNL A   1      11.908  53.732   9.113  1.00  0.00    +0.000 H 
ATOM     21  C18 UNL A   1      12.347  53.673  10.086  1.00  0.00    +0.000 C 
BRANCH   21   20
ATOM    113  H21 UNL A   1      14.197  52.980  10.799  1.00  0.00    +0.000 H 
ATOM     20  C17 UNL A   1      13.824  53.327   9.857  1.00  0.00    +0.000 C 
ATOM    112  H20 UNL A   1      14.318  54.205   9.498  1.00  0.00    +0.000 H 
BRANCH   20   19
ATOM     19  C16 UNL A   1      14.086  52.194   8.857  1.00  0.00    +0.000 C 
ATOM    110  H18 UNL A   1      14.047  51.264   9.384  1.00  0.00    +0.000 H 
ATOM    111  H19 UNL A   1      13.333  52.270   8.101  1.00  0.00    +0.000 H 
BRANCH   19   18
ATOM     18  C15 UNL A   1      15.438  52.290   8.149  1.00  0.00    +0.000 C 
ATOM    108  H16 UNL A   1      15.279  52.625   7.145  1.00  0.00    +0.000 H 
ATOM    109  H17 UNL A   1      16.049  52.979   8.694  1.00  0.00    +0.000 H 
BRANCH   18   17
ATOM     17  N1  UNL A   1      16.123  51.016   8.114  1.00  0.00    +0.000 N 
ATOM    107  H15 UNL A   1      15.947  50.480   7.308  1.00  0.00    +0.000 H 
BRANCH   17   15
ATOM     15  C14 UNL A   1      16.970  50.432   9.006  1.00  0.00    +0.000 C 
ATOM     16  O1  UNL A   1      18.162  50.754   8.925  1.00  0.00    +0.000 O 
BRANCH   15   13
ATOM     13  C12 UNL A   1      16.523  49.405  10.057  1.00  0.00    +0.000 C 
ATOM    103  H11 UNL A   1      17.400  49.177  10.627  1.00  0.00    +0.000 H 
BRANCH   13   12
ATOM    101  H9  UNL A   1      12.398  49.879  12.193  1.00  0.00    +0.000 H 
ATOM    102  H10 UNL A   1      13.898  48.773  10.665  1.00  0.00    +0.000 H 
ATOM    135  H43 UNL A   1      16.999  51.319  11.875  1.00  0.00    +0.000 H 
ATOM    136  H44 UNL A   1      15.541  52.313  13.518  1.00  0.00    +0.000 H 
ATOM      9  C8  UNL A   1      13.817  51.217  12.991  1.00  0.00    +0.000 C 
ATOM     10  C9  UNL A   1      13.383  50.185  12.145  1.00  0.00    +0.000 C 
ATOM     11  C10 UNL A   1      14.246  49.557  11.237  1.00  0.00    +0.000 C 
ATOM     12  C11 UNL A   1      15.571  49.977  11.095  1.00  0.00    +0.000 C 
ATOM     90  C66 UNL A   1      16.021  50.997  11.945  1.00  0.00    +0.000 C 
ATOM     91  C67 UNL A   1      15.168  51.588  12.886  1.00  0.00    +0.000 C 
BRANCH    9    8
ATOM     98  H6  UNL A   1      10.413  53.656  16.323  1.00  0.00    +0.000 H 
ATOM     99  H7  UNL A   1      10.922  51.304  16.611  1.00  0.00    +0.000 H 
ATOM      4  C3  UNL A   1      11.678  53.909  14.654  1.00  0.00    +0.000 C 
ATOM      5  C4  UNL A   1      11.076  53.189  15.685  1.00  0.00    +0.000 C 
ATOM      6  C5  UNL A   1      11.369  51.838  15.851  1.00  0.00    +0.000 C 
ATOM      7  C6  UNL A   1      12.269  51.204  14.988  1.00  0.00    +0.000 C 
ATOM      8  C7  UNL A   1      12.888  51.896  13.930  1.00  0.00    +0.000 C 
ATOM    137  H45 UNL A   1      13.020  53.804  13.036  1.00  0.00    +0.000 H 
ATOM    100  H8  UNL A   1      12.485  50.206  15.131  1.00  0.00    +0.000 H 
ATOM     92  C68 UNL A   1      12.575  53.262  13.792  1.00  0.00    +0.000 C 
BRANCH    4    3
ATOM      3  S1  UNL A   1      11.374  55.656  14.487  1.00  0.00    +0.000 S 
BRANCH    3    2
ATOM     97  H5  UNL A   1      10.689  55.178  16.714  1.00  0.00    +0.000 H 
ATOM      2  C2  UNL A   1      10.498  55.996  16.051  1.00  0.00    +0.000 C 
ATOM     96  H4  UNL A   1       9.453  56.099  15.842  1.00  0.00    +0.000 H 
BRANCH    2    1
ATOM      1  C1  UNL A   1      10.986  57.263  16.731  1.00  0.00    +0.000 C 
ATOM     93  H1  UNL A   1      10.944  57.136  17.793  1.00  0.00    +0.000 H 
ATOM     94  H2  UNL A   1      10.362  58.084  16.446  1.00  0.00    +0.000 H 
ATOM     95  H3  UNL A   1      11.994  57.462  16.435  1.00  0.00    +0.000 H 
ENDBRANCH    2    1
ENDBRANCH    3    2
ENDBRANCH    4    3
ENDBRANCH    9    8
ENDBRANCH   13   12
BRANCH   13   14
ATOM    105  H13 UNL A   1      16.400  48.006   8.445  1.00  0.00    +0.000 H 
ATOM    106  H14 UNL A   1      15.102  47.871   9.606  1.00  0.00    +0.000 H 
ATOM     14  C13 UNL A   1      16.152  48.035   9.485  1.00  0.00    +0.000 C 
ATOM    104  H12 UNL A   1      16.695  47.274  10.003  1.00  0.00    +0.000 H 
ENDBRANCH   13   14
ENDBRANCH   15   13
ENDBRANCH   17   15
ENDBRANCH   18   17
ENDBRANCH   19   18
ENDBRANCH   20   19
ENDBRANCH   21   20
ENDBRANCH   22   21
ENDBRANCH   23   22
ENDBRANCH   24   23
ENDBRANCH   25   24
ENDBRANCH   27   25
ENDBRANCH   31   30
BRANCH   35   36
ATOM     36  C30 UNL A   1      17.861  55.422   0.300  1.00  0.00    +0.000 C 
ATOM     37  C31 UNL A   1      19.106  55.829   0.801  1.00  0.00    +0.000 C 
ATOM     38  F1  UNL A   1      19.626  55.234   1.884  1.00  0.00    +0.000 F 
ATOM     39  C32 UNL A   1      19.809  56.876   0.209  1.00  0.00    +0.000 C 
ATOM     40  F2  UNL A   1      20.977  57.276   0.730  1.00  0.00    +0.000 F 
ATOM     41  C33 UNL A   1      19.297  57.512  -0.911  1.00  0.00    +0.000 C 
ATOM     42  F3  UNL A   1      19.977  58.514  -1.485  1.00  0.00    +0.000 F 
ATOM     43  C34 UNL A   1      18.075  57.114  -1.435  1.00  0.00    +0.000 C 
ATOM     44  F4  UNL A   1      17.585  57.721  -2.524  1.00  0.00    +0.000 F 
ATOM     45  C35 UNL A   1      17.358  56.085  -0.829  1.00  0.00    +0.000 C 
ATOM     46  F5  UNL A   1      16.175  55.730  -1.351  1.00  0.00    +0.000 F 
ENDBRANCH   35   36
BRANCH   52   53
ATOM     53  C41 UNL A   1      16.851  48.389  -0.909  1.00  0.00    +0.000 C 
ATOM     54  C42 UNL A   1      16.128  48.058  -2.063  1.00  0.00    +0.000 C 
ATOM     55  F6  UNL A   1      14.947  48.644  -2.312  1.00  0.00    +0.000 F 
ATOM     56  C43 UNL A   1      16.601  47.094  -2.950  1.00  0.00    +0.000 C 
ATOM     57  F7  UNL A   1      15.873  46.760  -4.025  1.00  0.00    +0.000 F 
ATOM     58  C44 UNL A   1      17.816  46.467  -2.715  1.00  0.00    +0.000 C 
ATOM     59  F8  UNL A   1      18.271  45.544  -3.572  1.00  0.00    +0.000 F 
ATOM     60  C45 UNL A   1      18.555  46.792  -1.588  1.00  0.00    +0.000 C 
ATOM     61  F9  UNL A   1      19.734  46.196  -1.365  1.00  0.00    +0.000 F 
ATOM     62  C46 UNL A   1      18.073  47.737  -0.686  1.00  0.00    +0.000 C 
ATOM     63  F10 UNL A   1      18.804  48.024   0.401  1.00  0.00    +0.000 F 
ENDBRANCH   52   53
BRANCH   67   68
ATOM     68  C50 UNL A   1      12.372  48.181   4.419  1.00  0.00    +0.000 C 
ATOM     69  C51 UNL A   1      12.826  47.410   5.498  1.00  0.00    +0.000 C 
ATOM     70  F11 UNL A   1      14.049  47.622   6.004  1.00  0.00    +0.000 F 
ATOM     71  C52 UNL A   1      12.040  46.393   6.036  1.00  0.00    +0.000 C 
ATOM     72  F12 UNL A   1      12.515  45.643   7.042  1.00  0.00    +0.000 F 
ATOM     73  C53 UNL A   1      10.776  46.146   5.525  1.00  0.00    +0.000 C 
ATOM     74  F13 UNL A   1      10.019  45.171   6.045  1.00  0.00    +0.000 F 
ATOM     75  C54 UNL A   1      10.299  46.907   4.468  1.00  0.00    +0.000 C 
ATOM     76  F14 UNL A   1       9.072  46.680   3.979  1.00  0.00    +0.000 F 
ATOM     77  C55 UNL A   1      11.094  47.908   3.913  1.00  0.00    +0.000 C 
ATOM     78  F15 UNL A   1      10.612  48.622   2.884  1.00  0.00    +0.000 F 
ENDBRANCH   67   68
TORSDOF 21
ENDMDL
MODEL 6
REMARK VINA RESULT:      -7.0      1.005      2.020
ROOT
ATOM    129  H37 UNL A   1      18.671  42.260  50.487  1.00  0.00    +0.000 H 
ATOM    130  H38 UNL A   1      17.159  40.201  50.614  1.00  0.00    +0.000 H 
ATOM    131  H39 UNL A   1      23.979  34.783  45.603  1.00  0.00    +0.000 H 
ATOM    132  H40 UNL A   1      25.679  36.679  45.869  1.00  0.00    +0.000 H 
ATOM     31  C26 UNL A   1      24.597  39.028  47.069  1.00  0.00    +0.000 C 
ATOM     32  C27 UNL A   1      23.920  37.700  46.872  1.00  0.00    +0.000 C 
ATOM     33  N3  UNL A   1      22.707  37.333  47.203  1.00  0.00    +0.000 N 
ATOM     34  C28 UNL A   1      22.572  36.025  46.754  1.00  0.00    +0.000 C 
ATOM     35  C29 UNL A   1      21.518  35.188  46.900  1.00  0.00    +0.000 C 
ATOM     47  C36 UNL A   1      20.302  35.525  47.592  1.00  0.00    +0.000 C 
ATOM     48  C37 UNL A   1      19.207  34.720  47.857  1.00  0.00    +0.000 C 
ATOM     49  C38 UNL A   1      18.246  35.491  48.521  1.00  0.00    +0.000 C 
ATOM     50  C39 UNL A   1      18.759  36.764  48.707  1.00  0.00    +0.000 C 
ATOM     51  N4  UNL A   1      20.019  36.772  48.129  1.00  0.00    +0.000 N 
ATOM     52  C40 UNL A   1      18.147  37.891  49.362  1.00  0.00    +0.000 C 
ATOM     64  C47 UNL A   1      18.723  39.108  49.516  1.00  0.00    +0.000 C 
ATOM     65  N5  UNL A   1      19.978  39.537  49.103  1.00  0.00    +0.000 N 
ATOM     66  C48 UNL A   1      20.067  40.792  49.470  1.00  0.00    +0.000 C 
ATOM     67  C49 UNL A   1      21.214  41.749  49.304  1.00  0.00    +0.000 C 
ATOM     79  C56 UNL A   1      22.355  41.318  48.733  1.00  0.00    +0.000 C 
ATOM     80  C57 UNL A   1      23.551  42.127  48.516  1.00  0.00    +0.000 C 
ATOM     81  C58 UNL A   1      24.474  41.383  47.884  1.00  0.00    +0.000 C 
ATOM     82  C59 UNL A   1      23.943  40.035  47.678  1.00  0.00    +0.000 C 
ATOM     83  N6  UNL A   1      22.685  40.085  48.224  1.00  0.00    +0.000 N 
ATOM     84  C60 UNL A   1      18.864  41.309  50.137  1.00  0.00    +0.000 C 
ATOM     85  C61 UNL A   1      18.092  40.233  50.173  1.00  0.00    +0.000 C 
ATOM     86  C62 UNL A   1      23.809  35.677  46.090  1.00  0.00    +0.000 C 
ATOM     87  C63 UNL A   1      24.698  36.656  46.189  1.00  0.00    +0.000 C 
ATOM    123  H31 UNL A   1      19.115  33.723  47.608  1.00  0.00    +0.000 H 
ATOM    124  H32 UNL A   1      17.314  35.165  48.821  1.00  0.00    +0.000 H 
ATOM    125  H33 UNL A   1      20.625  37.548  48.106  1.00  0.00    +0.000 H 
ATOM    126  H34 UNL A   1      23.669  43.110  48.803  1.00  0.00    +0.000 H 
ATOM    127  H35 UNL A   1      25.407  41.710  47.590  1.00  0.00    +0.000 H 
ATOM    128  H36 UNL A   1      22.077  39.311  48.249  1.00  0.00    +0.000 H 
ENDROOT
BRANCH   31   30
ATOM    133  H41 UNL A   1      25.349  40.735  45.142  1.00  0.00    +0.000 H 
ATOM    134  H42 UNL A   1      27.557  41.093  44.210  1.00  0.00    +0.000 H 
ATOM     29  C24 UNL A   1      27.068  38.557  47.030  1.00  0.00    +0.000 C 
ATOM     88  C64 UNL A   1      26.155  40.210  45.514  1.00  0.00    +0.000 C 
ATOM     89  C65 UNL A   1      27.431  40.445  45.003  1.00  0.00    +0.000 C 
ATOM    122  H30 UNL A   1      26.932  37.829  47.747  1.00  0.00    +0.000 H 
ATOM     27  C22 UNL A   1      28.538  39.803  45.564  1.00  0.00    +0.000 C 
ATOM     28  C23 UNL A   1      28.353  38.838  46.559  1.00  0.00    +0.000 C 
ATOM    121  H29 UNL A   1      29.167  38.333  46.946  1.00  0.00    +0.000 H 
ATOM     30  C25 UNL A   1      25.961  39.262  46.531  1.00  0.00    +0.000 C 
BRANCH   27   25
ATOM     25  C21 UNL A   1      29.913  40.083  45.089  1.00  0.00    +0.000 C 
ATOM     26  O2  UNL A   1      30.195  39.906  43.911  1.00  0.00    +0.000 O 
BRANCH   25   24
ATOM    120  H28 UNL A   1      31.280  39.854  46.534  1.00  0.00    +0.000 H 
ATOM     24  N2  UNL A   1      30.871  40.542  45.961  1.00  0.00    +0.000 N 
BRANCH   24   23
ATOM    119  H27 UNL A   1      31.762  42.242  45.228  1.00  0.00    +0.000 H 
ATOM    118  H26 UNL A   1      32.125  41.874  46.917  1.00  0.00    +0.000 H 
ATOM     23  C20 UNL A   1      31.369  41.894  46.161  1.00  0.00    +0.000 C 
BRANCH   23   22
ATOM    116  H24 UNL A   1      30.690  43.831  46.691  1.00  0.00    +0.000 H 
ATOM    117  H25 UNL A   1      29.504  42.796  45.842  1.00  0.00    +0.000 H 
ATOM     22  C19 UNL A   1      30.263  42.855  46.595  1.00  0.00    +0.000 C 
BRANCH   22   21
ATOM    114  H22 UNL A   1      29.885  41.513  48.194  1.00  0.00    +0.000 H 
ATOM    115  H23 UNL A   1      29.884  43.257  48.614  1.00  0.00    +0.000 H 
ATOM     21  C18 UNL A   1      29.581  42.501  47.921  1.00  0.00    +0.000 C 
BRANCH   21   20
ATOM    113  H21 UNL A   1      27.748  42.720  48.921  1.00  0.00    +0.000 H 
ATOM     20  C17 UNL A   1      28.047  42.536  47.911  1.00  0.00    +0.000 C 
ATOM    112  H20 UNL A   1      27.697  41.602  47.523  1.00  0.00    +0.000 H 
BRANCH   20   19
ATOM     19  C16 UNL A   1      27.421  43.658  47.074  1.00  0.00    +0.000 C 
ATOM    110  H18 UNL A   1      28.202  44.315  46.754  1.00  0.00    +0.000 H 
ATOM    111  H19 UNL A   1      26.916  43.189  46.256  1.00  0.00    +0.000 H 
BRANCH   19   18
ATOM     18  C15 UNL A   1      26.375  44.484  47.825  1.00  0.00    +0.000 C 
ATOM    108  H16 UNL A   1      26.352  45.471  47.411  1.00  0.00    +0.000 H 
ATOM    109  H17 UNL A   1      25.428  43.997  47.717  1.00  0.00    +0.000 H 
BRANCH   18   17
ATOM     17  N1  UNL A   1      26.672  44.577  49.238  1.00  0.00    +0.000 N 
ATOM    107  H15 UNL A   1      27.577  44.903  49.445  1.00  0.00    +0.000 H 
BRANCH   17   15
ATOM     15  C14 UNL A   1      25.912  44.292  50.332  1.00  0.00    +0.000 C 
ATOM     16  O1  UNL A   1      24.783  44.797  50.365  1.00  0.00    +0.000 O 
BRANCH   15   13
ATOM     13  C12 UNL A   1      26.395  43.417  51.499  1.00  0.00    +0.000 C 
ATOM    103  H11 UNL A   1      25.738  43.638  52.314  1.00  0.00    +0.000 H 
BRANCH   13   12
ATOM    101  H9  UNL A   1      27.568  39.170  49.951  1.00  0.00    +0.000 H 
ATOM    102  H10 UNL A   1      28.071  41.469  50.471  1.00  0.00    +0.000 H 
ATOM    135  H43 UNL A   1      24.224  41.946  52.063  1.00  0.00    +0.000 H 
ATOM    136  H44 UNL A   1      23.781  39.605  51.691  1.00  0.00    +0.000 H 
ATOM      9  C8  UNL A   1      25.618  39.168  50.751  1.00  0.00    +0.000 C 
ATOM     10  C9  UNL A   1      26.851  39.750  50.415  1.00  0.00    +0.000 C 
ATOM     11  C10 UNL A   1      27.137  41.093  50.694  1.00  0.00    +0.000 C 
ATOM     12  C11 UNL A   1      26.178  41.930  51.269  1.00  0.00    +0.000 C 
ATOM     90  C66 UNL A   1      24.948  41.358  51.622  1.00  0.00    +0.000 C 
ATOM     91  C67 UNL A   1      24.684  40.001  51.388  1.00  0.00    +0.000 C 
BRANCH    9    8
ATOM     98  H6  UNL A   1      24.544  34.042  49.652  1.00  0.00    +0.000 H 
ATOM     99  H7  UNL A   1      22.757  35.548  50.295  1.00  0.00    +0.000 H 
ATOM      4  C3  UNL A   1      26.059  35.505  49.765  1.00  0.00    +0.000 C 
ATOM      5  C4  UNL A   1      24.751  35.032  49.856  1.00  0.00    +0.000 C 
ATOM      6  C5  UNL A   1      23.725  35.898  50.225  1.00  0.00    +0.000 C 
ATOM      7  C6  UNL A   1      24.004  37.240  50.499  1.00  0.00    +0.000 C 
ATOM      8  C7  UNL A   1      25.313  37.751  50.427  1.00  0.00    +0.000 C 
ATOM    137  H45 UNL A   1      27.298  37.194  49.971  1.00  0.00    +0.000 H 
ATOM    100  H8  UNL A   1      23.231  37.872  50.760  1.00  0.00    +0.000 H 
ATOM     92  C68 UNL A   1      26.328  36.852  50.046  1.00  0.00    +0.000 C 
BRANCH    4    3
ATOM      3  S1  UNL A   1      27.364  34.425  49.211  1.00  0.00    +0.000 S 
BRANCH    3    2
ATOM     97  H5  UNL A   1      26.721  35.624  47.261  1.00  0.00    +0.000 H 
ATOM      2  C2  UNL A   1      27.358  34.779  47.422  1.00  0.00    +0.000 C 
ATOM     96  H4  UNL A   1      27.003  33.913  46.902  1.00  0.00    +0.000 H 
BRANCH    2    1
ATOM      1  C1  UNL A   1      28.736  35.135  46.892  1.00  0.00    +0.000 C 
ATOM     93  H1  UNL A   1      28.757  36.170  46.619  1.00  0.00    +0.000 H 
ATOM     94  H2  UNL A   1      28.953  34.536  46.032  1.00  0.00    +0.000 H 
ATOM     95  H3  UNL A   1      29.469  34.950  47.649  1.00  0.00    +0.000 H 
ENDBRANCH    2    1
ENDBRANCH    3    2
ENDBRANCH    4    3
ENDBRANCH    9    8
ENDBRANCH   13   12
BRANCH   13   14
ATOM    105  H13 UNL A   1      28.510  43.162  51.688  1.00  0.00    +0.000 H 
ATOM    106  H14 UNL A   1      27.730  43.750  53.136  1.00  0.00    +0.000 H 
ATOM     14  C13 UNL A   1      27.756  43.819  52.069  1.00  0.00    +0.000 C 
ATOM    104  H12 UNL A   1      27.980  44.824  51.782  1.00  0.00    +0.000 H 
ENDBRANCH   13   14
ENDBRANCH   15   13
ENDBRANCH   17   15
ENDBRANCH   18   17
ENDBRANCH   19   18
ENDBRANCH   20   19
ENDBRANCH   21   20
ENDBRANCH   22   21
ENDBRANCH   23   22
ENDBRANCH   24   23
ENDBRANCH   25   24
ENDBRANCH   27   25
ENDBRANCH   31   30
BRANCH   35   36
ATOM     36  C30 UNL A   1      21.632  33.815  46.303  1.00  0.00    +0.000 C 
ATOM     37  C31 UNL A   1      22.185  32.746  47.022  1.00  0.00    +0.000 C 
ATOM     38  F1  UNL A   1      22.680  32.944  48.253  1.00  0.00    +0.000 F 
ATOM     39  C32 UNL A   1      22.264  31.472  46.465  1.00  0.00    +0.000 C 
ATOM     40  F2  UNL A   1      22.834  30.474  47.155  1.00  0.00    +0.000 F 
ATOM     41  C33 UNL A   1      21.762  31.236  45.194  1.00  0.00    +0.000 C 
ATOM     42  F3  UNL A   1      21.831  30.008  44.661  1.00  0.00    +0.000 F 
ATOM     43  C34 UNL A   1      21.194  32.275  44.471  1.00  0.00    +0.000 C 
ATOM     44  F4  UNL A   1      20.699  32.047  43.247  1.00  0.00    +0.000 F 
ATOM     45  C35 UNL A   1      21.139  33.556  45.016  1.00  0.00    +0.000 C 
ATOM     46  F5  UNL A   1      20.595  34.543  44.288  1.00  0.00    +0.000 F 
ENDBRANCH   35   36
BRANCH   52   53
ATOM     53  C41 UNL A   1      16.775  37.705  49.938  1.00  0.00    +0.000 C 
ATOM     54  C42 UNL A   1      16.561  37.660  51.323  1.00  0.00    +0.000 C 
ATOM     55  F6  UNL A   1      17.599  37.731  52.169  1.00  0.00    +0.000 F 
ATOM     56  C43 UNL A   1      15.279  37.504  51.842  1.00  0.00    +0.000 C 
ATOM     57  F7  UNL A   1      15.101  37.418  53.169  1.00  0.00    +0.000 F 
ATOM     58  C44 UNL A   1      14.186  37.421  50.991  1.00  0.00    +0.000 C 
ATOM     59  F8  UNL A   1      12.954  37.276  51.494  1.00  0.00    +0.000 F 
ATOM     60  C45 UNL A   1      14.374  37.481  49.619  1.00  0.00    +0.000 C 
ATOM     61  F9  UNL A   1      13.319  37.412  48.795  1.00  0.00    +0.000 F 
ATOM     62  C46 UNL A   1      15.658  37.611  49.094  1.00  0.00    +0.000 C 
ATOM     63  F10 UNL A   1      15.810  37.655  47.763  1.00  0.00    +0.000 F 
ENDBRANCH   52   53
BRANCH   67   68
ATOM     68  C50 UNL A   1      21.113  43.150  49.784  1.00  0.00    +0.000 C 
ATOM     69  C51 UNL A   1      20.662  44.169  48.933  1.00  0.00    +0.000 C 
ATOM     70  F11 UNL A   1      20.338  43.887  47.663  1.00  0.00    +0.000 F 
ATOM     71  C52 UNL A   1      20.580  45.489  49.373  1.00  0.00    +0.000 C 
ATOM     72  F12 UNL A   1      20.184  46.451  48.527  1.00  0.00    +0.000 F 
ATOM     73  C53 UNL A   1      20.918  45.810  50.678  1.00  0.00    +0.000 C 
ATOM     74  F13 UNL A   1      20.835  47.078  51.102  1.00  0.00    +0.000 F 
ATOM     75  C54 UNL A   1      21.351  44.815  51.543  1.00  0.00    +0.000 C 
ATOM     76  F14 UNL A   1      21.667  45.119  52.809  1.00  0.00    +0.000 F 
ATOM     77  C55 UNL A   1      21.458  43.500  51.097  1.00  0.00    +0.000 C 
ATOM     78  F15 UNL A   1      21.889  42.559  51.951  1.00  0.00    +0.000 F 
ENDBRANCH   67   68
TORSDOF 21
ENDMDL
MODEL 7
REMARK VINA RESULT:      -6.9      3.980     10.279
ROOT
ATOM    129  H37 UNL A   1      19.231  38.435  49.011  1.00  0.00    +0.000 H 
ATOM    130  H38 UNL A   1      18.505  40.719  49.906  1.00  0.00    +0.000 H 
ATOM    131  H39 UNL A   1      27.582  44.503  47.841  1.00  0.00    +0.000 H 
ATOM    132  H40 UNL A   1      28.168  42.381  46.533  1.00  0.00    +0.000 H 
ATOM     31  C26 UNL A   1      26.173  40.350  46.691  1.00  0.00    +0.000 C 
ATOM     32  C27 UNL A   1      26.105  41.751  47.234  1.00  0.00    +0.000 C 
ATOM     33  N3  UNL A   1      25.133  42.339  47.886  1.00  0.00    +0.000 N 
ATOM     34  C28 UNL A   1      25.601  43.610  48.197  1.00  0.00    +0.000 C 
ATOM     35  C29 UNL A   1      24.950  44.619  48.823  1.00  0.00    +0.000 C 
ATOM     47  C36 UNL A   1      23.589  44.545  49.283  1.00  0.00    +0.000 C 
ATOM     48  C37 UNL A   1      22.818  45.539  49.862  1.00  0.00    +0.000 C 
ATOM     49  C38 UNL A   1      21.569  44.995  50.181  1.00  0.00    +0.000 C 
ATOM     50  C39 UNL A   1      21.547  43.675  49.763  1.00  0.00    +0.000 C 
ATOM     51  N4  UNL A   1      22.793  43.411  49.218  1.00  0.00    +0.000 N 
ATOM     52  C40 UNL A   1      20.471  42.723  49.855  1.00  0.00    +0.000 C 
ATOM     64  C47 UNL A   1      20.523  41.444  49.409  1.00  0.00    +0.000 C 
ATOM     65  N5  UNL A   1      21.572  40.781  48.784  1.00  0.00    +0.000 N 
ATOM     66  C48 UNL A   1      21.144  39.563  48.559  1.00  0.00    +0.000 C 
ATOM     67  C49 UNL A   1      21.850  38.420  47.885  1.00  0.00    +0.000 C 
ATOM     79  C56 UNL A   1      23.089  38.608  47.393  1.00  0.00    +0.000 C 
ATOM     80  C57 UNL A   1      23.890  37.598  46.707  1.00  0.00    +0.000 C 
ATOM     81  C58 UNL A   1      25.086  38.124  46.397  1.00  0.00    +0.000 C 
ATOM     82  C59 UNL A   1      25.124  39.519  46.836  1.00  0.00    +0.000 C 
ATOM     83  N6  UNL A   1      23.892  39.723  47.406  1.00  0.00    +0.000 N 
ATOM     84  C60 UNL A   1      19.778  39.309  49.038  1.00  0.00    +0.000 C 
ATOM     85  C61 UNL A   1      19.433  40.497  49.512  1.00  0.00    +0.000 C 
ATOM     86  C62 UNL A   1      26.958  43.693  47.702  1.00  0.00    +0.000 C 
ATOM     87  C63 UNL A   1      27.296  42.592  47.044  1.00  0.00    +0.000 C 
ATOM    123  H31 UNL A   1      23.113  46.514  50.029  1.00  0.00    +0.000 H 
ATOM    124  H32 UNL A   1      20.796  45.494  50.649  1.00  0.00    +0.000 H 
ATOM    125  H33 UNL A   1      23.072  42.546  48.838  1.00  0.00    +0.000 H 
ATOM    126  H34 UNL A   1      23.585  36.635  46.495  1.00  0.00    +0.000 H 
ATOM    127  H35 UNL A   1      25.855  37.624  45.925  1.00  0.00    +0.000 H 
ATOM    128  H36 UNL A   1      23.610  40.586  47.787  1.00  0.00    +0.000 H 
ENDROOT
BRANCH   31   30
ATOM    133  H41 UNL A   1      27.943  38.593  47.674  1.00  0.00    +0.000 H 
ATOM    134  H42 UNL A   1      30.010  37.806  46.683  1.00  0.00    +0.000 H 
ATOM     29  C24 UNL A   1      27.808  40.285  44.780  1.00  0.00    +0.000 C 
ATOM     88  C64 UNL A   1      28.221  38.920  46.736  1.00  0.00    +0.000 C 
ATOM     89  C65 UNL A   1      29.391  38.438  46.151  1.00  0.00    +0.000 C 
ATOM    122  H30 UNL A   1      27.249  41.000  44.289  1.00  0.00    +0.000 H 
ATOM     27  C22 UNL A   1      29.724  38.808  44.846  1.00  0.00    +0.000 C 
ATOM     28  C23 UNL A   1      28.948  39.755  44.171  1.00  0.00    +0.000 C 
ATOM    121  H29 UNL A   1      29.216  40.061  43.222  1.00  0.00    +0.000 H 
ATOM     30  C25 UNL A   1      27.419  39.850  46.057  1.00  0.00    +0.000 C 
BRANCH   27   25
ATOM     25  C21 UNL A   1      30.924  38.259  44.172  1.00  0.00    +0.000 C 
ATOM     26  O2  UNL A   1      31.898  38.978  43.989  1.00  0.00    +0.000 O 
BRANCH   25   24
ATOM    120  H28 UNL A   1      31.714  36.421  44.081  1.00  0.00    +0.000 H 
ATOM     24  N2  UNL A   1      30.951  36.950  43.755  1.00  0.00    +0.000 N 
BRANCH   24   23
ATOM    119  H27 UNL A   1      30.530  35.972  41.998  1.00  0.00    +0.000 H 
ATOM    118  H26 UNL A   1      29.177  36.862  42.703  1.00  0.00    +0.000 H 
ATOM     23  C20 UNL A   1      30.018  36.232  42.901  1.00  0.00    +0.000 C 
BRANCH   23   22
ATOM    116  H24 UNL A   1      28.931  34.413  42.831  1.00  0.00    +0.000 H 
ATOM    117  H25 UNL A   1      30.399  34.404  43.853  1.00  0.00    +0.000 H 
ATOM     22  C19 UNL A   1      29.524  34.940  43.550  1.00  0.00    +0.000 C 
BRANCH   22   21
ATOM    114  H22 UNL A   1      28.619  34.189  45.315  1.00  0.00    +0.000 H 
ATOM    115  H23 UNL A   1      29.170  35.895  45.380  1.00  0.00    +0.000 H 
ATOM     21  C18 UNL A   1      28.678  35.132  44.814  1.00  0.00    +0.000 C 
BRANCH   21   20
ATOM    113  H21 UNL A   1      27.341  36.602  44.136  1.00  0.00    +0.000 H 
ATOM     20  C17 UNL A   1      27.247  35.637  44.588  1.00  0.00    +0.000 C 
ATOM    112  H20 UNL A   1      26.749  35.654  45.535  1.00  0.00    +0.000 H 
BRANCH   20   19
ATOM     19  C16 UNL A   1      26.400  34.799  43.622  1.00  0.00    +0.000 C 
ATOM    110  H18 UNL A   1      26.541  35.181  42.633  1.00  0.00    +0.000 H 
ATOM    111  H19 UNL A   1      26.727  33.786  43.723  1.00  0.00    +0.000 H 
BRANCH   19   18
ATOM     18  C15 UNL A   1      24.903  34.814  43.936  1.00  0.00    +0.000 C 
ATOM    108  H16 UNL A   1      24.701  35.617  44.615  1.00  0.00    +0.000 H 
ATOM    109  H17 UNL A   1      24.373  34.944  43.016  1.00  0.00    +0.000 H 
BRANCH   18   17
ATOM     17  N1  UNL A   1      24.463  33.573  44.535  1.00  0.00    +0.000 N 
ATOM    107  H15 UNL A   1      25.113  33.163  45.150  1.00  0.00    +0.000 H 
BRANCH   17   15
ATOM     15  C14 UNL A   1      23.302  32.876  44.395  1.00  0.00    +0.000 C 
ATOM     16  O1  UNL A   1      23.070  32.411  43.272  1.00  0.00    +0.000 O 
BRANCH   15   13
ATOM     13  C12 UNL A   1      22.290  32.671  45.533  1.00  0.00    +0.000 C 
ATOM    103  H11 UNL A   1      21.884  33.640  45.735  1.00  0.00    +0.000 H 
BRANCH   13   12
ATOM    101  H9  UNL A   1      19.755  28.771  45.127  1.00  0.00    +0.000 H 
ATOM    102  H10 UNL A   1      21.617  30.028  46.000  1.00  0.00    +0.000 H 
ATOM    135  H43 UNL A   1      20.135  33.490  44.162  1.00  0.00    +0.000 H 
ATOM    136  H44 UNL A   1      18.191  32.267  43.429  1.00  0.00    +0.000 H 
ATOM      9  C8  UNL A   1      18.801  30.391  44.176  1.00  0.00    +0.000 C 
ATOM     10  C9  UNL A   1      19.818  29.781  44.927  1.00  0.00    +0.000 C 
ATOM     11  C10 UNL A   1      20.915  30.504  45.415  1.00  0.00    +0.000 C 
ATOM     12  C11 UNL A   1      21.072  31.861  45.121  1.00  0.00    +0.000 C 
ATOM     90  C66 UNL A   1      20.056  32.485  44.384  1.00  0.00    +0.000 C 
ATOM     91  C67 UNL A   1      18.936  31.770  43.940  1.00  0.00    +0.000 C 
BRANCH    9    8
ATOM     98  H6  UNL A   1      14.640  27.591  42.309  1.00  0.00    +0.000 H 
ATOM     99  H7  UNL A   1      14.924  29.914  41.678  1.00  0.00    +0.000 H 
ATOM      4  C3  UNL A   1      16.375  27.519  43.507  1.00  0.00    +0.000 C 
ATOM      5  C4  UNL A   1      15.447  28.128  42.663  1.00  0.00    +0.000 C 
ATOM      6  C5  UNL A   1      15.611  29.462  42.300  1.00  0.00    +0.000 C 
ATOM      7  C6  UNL A   1      16.706  30.189  42.777  1.00  0.00    +0.000 C 
ATOM      8  C7  UNL A   1      17.656  29.612  43.640  1.00  0.00    +0.000 C 
ATOM    137  H45 UNL A   1      18.150  27.799  44.603  1.00  0.00    +0.000 H 
ATOM    100  H8  UNL A   1      16.820  31.174  42.490  1.00  0.00    +0.000 H 
ATOM     92  C68 UNL A   1      17.466  28.259  43.983  1.00  0.00    +0.000 C 
BRANCH    4    3
ATOM      3  S1  UNL A   1      16.219  25.790  43.908  1.00  0.00    +0.000 S 
BRANCH    3    2
ATOM     97  H5  UNL A   1      14.221  26.322  42.732  1.00  0.00    +0.000 H 
ATOM      2  C2  UNL A   1      14.594  25.417  43.167  1.00  0.00    +0.000 C 
ATOM     96  H4  UNL A   1      13.944  25.051  43.933  1.00  0.00    +0.000 H 
BRANCH    2    1
ATOM      1  C1  UNL A   1      14.680  24.378  42.063  1.00  0.00    +0.000 C 
ATOM     93  H1  UNL A   1      13.754  23.844  42.003  1.00  0.00    +0.000 H 
ATOM     94  H2  UNL A   1      15.472  23.692  42.280  1.00  0.00    +0.000 H 
ATOM     95  H3  UNL A   1      14.873  24.863  41.129  1.00  0.00    +0.000 H 
ENDBRANCH    2    1
ENDBRANCH    3    2
ENDBRANCH    4    3
ENDBRANCH    9    8
ENDBRANCH   13   12
BRANCH   13   14
ATOM    105  H13 UNL A   1      22.854  31.246  47.025  1.00  0.00    +0.000 H 
ATOM    106  H14 UNL A   1      22.395  32.805  47.666  1.00  0.00    +0.000 H 
ATOM     14  C13 UNL A   1      22.918  32.304  46.879  1.00  0.00    +0.000 C 
ATOM    104  H12 UNL A   1      23.945  32.603  46.886  1.00  0.00    +0.000 H 
ENDBRANCH   13   14
ENDBRANCH   15   13
ENDBRANCH   17   15
ENDBRANCH   18   17
ENDBRANCH   19   18
ENDBRANCH   20   19
ENDBRANCH   21   20
ENDBRANCH   22   21
ENDBRANCH   23   22
ENDBRANCH   24   23
ENDBRANCH   25   24
ENDBRANCH   27   25
ENDBRANCH   31   30
BRANCH   35   36
ATOM     36  C30 UNL A   1      25.701  45.900  49.044  1.00  0.00    +0.000 C 
ATOM     37  C31 UNL A   1      26.468  46.111  50.199  1.00  0.00    +0.000 C 
ATOM     38  F1  UNL A   1      26.502  45.182  51.166  1.00  0.00    +0.000 F 
ATOM     39  C32 UNL A   1      27.179  47.295  50.381  1.00  0.00    +0.000 C 
ATOM     40  F2  UNL A   1      27.872  47.492  51.511  1.00  0.00    +0.000 F 
ATOM     41  C33 UNL A   1      27.163  48.273  49.399  1.00  0.00    +0.000 C 
ATOM     42  F3  UNL A   1      27.853  49.409  49.570  1.00  0.00    +0.000 F 
ATOM     43  C34 UNL A   1      26.425  48.079  48.240  1.00  0.00    +0.000 C 
ATOM     44  F4  UNL A   1      26.417  49.019  47.286  1.00  0.00    +0.000 F 
ATOM     45  C35 UNL A   1      25.691  46.907  48.068  1.00  0.00    +0.000 C 
ATOM     46  F5  UNL A   1      24.979  46.753  46.943  1.00  0.00    +0.000 F 
ENDBRANCH   35   36
BRANCH   52   53
ATOM     53  C41 UNL A   1      19.183  43.179  50.473  1.00  0.00    +0.000 C 
ATOM     54  C42 UNL A   1      18.899  42.954  51.827  1.00  0.00    +0.000 C 
ATOM     55  F6  UNL A   1      19.763  42.271  52.593  1.00  0.00    +0.000 F 
ATOM     56  C43 UNL A   1      17.705  43.398  52.390  1.00  0.00    +0.000 C 
ATOM     57  F7  UNL A   1      17.434  43.134  53.676  1.00  0.00    +0.000 F 
ATOM     58  C44 UNL A   1      16.790  44.101  51.620  1.00  0.00    +0.000 C 
ATOM     59  F8  UNL A   1      15.646  44.532  52.166  1.00  0.00    +0.000 F 
ATOM     60  C45 UNL A   1      17.059  44.349  50.283  1.00  0.00    +0.000 C 
ATOM     61  F9  UNL A   1      16.181  45.038  49.540  1.00  0.00    +0.000 F 
ATOM     62  C46 UNL A   1      18.240  43.884  49.710  1.00  0.00    +0.000 C 
ATOM     63  F10 UNL A   1      18.468  44.130  48.412  1.00  0.00    +0.000 F 
ENDBRANCH   52   53
BRANCH   67   68
ATOM     68  C50 UNL A   1      21.188  37.099  47.734  1.00  0.00    +0.000 C 
ATOM     69  C51 UNL A   1      21.353  36.099  48.703  1.00  0.00    +0.000 C 
ATOM     70  F11 UNL A   1      22.134  36.323  49.769  1.00  0.00    +0.000 F 
ATOM     71  C52 UNL A   1      20.748  34.852  48.559  1.00  0.00    +0.000 C 
ATOM     72  F12 UNL A   1      20.956  33.899  49.479  1.00  0.00    +0.000 F 
ATOM     73  C53 UNL A   1      19.944  34.591  47.460  1.00  0.00    +0.000 C 
ATOM     74  F13 UNL A   1      19.359  33.394  47.325  1.00  0.00    +0.000 F 
ATOM     75  C54 UNL A   1      19.753  35.572  46.498  1.00  0.00    +0.000 C 
ATOM     76  F14 UNL A   1      18.966  35.328  45.441  1.00  0.00    +0.000 F 
ATOM     77  C55 UNL A   1      20.378  36.810  46.628  1.00  0.00    +0.000 C 
ATOM     78  F15 UNL A   1      20.184  37.737  45.677  1.00  0.00    +0.000 F 
ENDBRANCH   67   68
TORSDOF 21
ENDMDL
MODEL 8
REMARK VINA RESULT:      -6.8     44.476     47.697
ROOT
ATOM    129  H37 UNL A   1      13.639  46.694   2.602  1.00  0.00    +0.000 H 
ATOM    130  H38 UNL A   1      15.299  46.880   0.663  1.00  0.00    +0.000 H 
ATOM    131  H39 UNL A   1      16.459  56.693   2.486  1.00  0.00    +0.000 H 
ATOM    132  H40 UNL A   1      15.177  56.435   4.687  1.00  0.00    +0.000 H 
ATOM     31  C26 UNL A   1      14.089  53.829   5.081  1.00  0.00    +0.000 C 
ATOM     32  C27 UNL A   1      14.988  54.292   3.968  1.00  0.00    +0.000 C 
ATOM     33  N3  UNL A   1      15.464  53.616   2.952  1.00  0.00    +0.000 N 
ATOM     34  C28 UNL A   1      16.196  54.526   2.201  1.00  0.00    +0.000 C 
ATOM     35  C29 UNL A   1      16.924  54.303   1.081  1.00  0.00    +0.000 C 
ATOM     47  C36 UNL A   1      17.079  53.016   0.456  1.00  0.00    +0.000 C 
ATOM     48  C37 UNL A   1      17.856  52.676  -0.639  1.00  0.00    +0.000 C 
ATOM     49  C38 UNL A   1      17.660  51.317  -0.910  1.00  0.00    +0.000 C 
ATOM     50  C39 UNL A   1      16.795  50.801   0.041  1.00  0.00    +0.000 C 
ATOM     51  N4  UNL A   1      16.443  51.855   0.870  1.00  0.00    +0.000 N 
ATOM     52  C40 UNL A   1      16.322  49.449   0.183  1.00  0.00    +0.000 C 
ATOM     64  C47 UNL A   1      15.480  49.018   1.154  1.00  0.00    +0.000 C 
ATOM     65  N5  UNL A   1      14.906  49.739   2.193  1.00  0.00    +0.000 N 
ATOM     66  C48 UNL A   1      14.161  48.886   2.853  1.00  0.00    +0.000 C 
ATOM     67  C49 UNL A   1      13.330  49.109   4.086  1.00  0.00    +0.000 C 
ATOM     79  C56 UNL A   1      13.322  50.325   4.665  1.00  0.00    +0.000 C 
ATOM     80  C57 UNL A   1      12.575  50.686   5.866  1.00  0.00    +0.000 C 
ATOM     81  C58 UNL A   1      12.769  51.988   6.127  1.00  0.00    +0.000 C 
ATOM     82  C59 UNL A   1      13.680  52.547   5.128  1.00  0.00    +0.000 C 
ATOM     83  N6  UNL A   1      13.966  51.485   4.307  1.00  0.00    +0.000 N 
ATOM     84  C60 UNL A   1      14.162  47.528   2.291  1.00  0.00    +0.000 C 
ATOM     85  C61 UNL A   1      15.010  47.654   1.281  1.00  0.00    +0.000 C 
ATOM     86  C62 UNL A   1      16.068  55.811   2.852  1.00  0.00    +0.000 C 
ATOM     87  C63 UNL A   1      15.381  55.709   3.982  1.00  0.00    +0.000 C 
ATOM    123  H31 UNL A   1      18.474  53.315  -1.165  1.00  0.00    +0.000 H 
ATOM    124  H32 UNL A   1      18.089  50.790  -1.687  1.00  0.00    +0.000 H 
ATOM    125  H33 UNL A   1      15.834  51.789   1.640  1.00  0.00    +0.000 H 
ATOM    126  H34 UNL A   1      11.992  50.043   6.424  1.00  0.00    +0.000 H 
ATOM    127  H35 UNL A   1      12.342  52.512   6.908  1.00  0.00    +0.000 H 
ATOM    128  H36 UNL A   1      14.574  51.548   3.536  1.00  0.00    +0.000 H 
ENDROOT
BRANCH   31   30
ATOM    133  H41 UNL A   1      11.763  55.163   5.090  1.00  0.00    +0.000 H 
ATOM    134  H42 UNL A   1      10.950  56.783   6.699  1.00  0.00    +0.000 H 
ATOM     29  C24 UNL A   1      14.349  55.113   7.229  1.00  0.00    +0.000 C 
ATOM     88  C64 UNL A   1      12.330  55.392   5.921  1.00  0.00    +0.000 C 
ATOM     89  C65 UNL A   1      11.844  56.296   6.865  1.00  0.00    +0.000 C 
ATOM    122  H30 UNL A   1      15.292  54.711   7.344  1.00  0.00    +0.000 H 
ATOM     27  C22 UNL A   1      12.568  56.541   8.035  1.00  0.00    +0.000 C 
ATOM     28  C23 UNL A   1      13.834  55.971   8.204  1.00  0.00    +0.000 C 
ATOM    121  H29 UNL A   1      14.388  56.184   9.049  1.00  0.00    +0.000 H 
ATOM     30  C25 UNL A   1      13.588  54.794   6.093  1.00  0.00    +0.000 C 
BRANCH   27   25
ATOM     25  C21 UNL A   1      12.046  57.442   9.088  1.00  0.00    +0.000 C 
ATOM     26  O2  UNL A   1      12.265  58.645   9.019  1.00  0.00    +0.000 O 
BRANCH   25   24
ATOM    120  H28 UNL A   1      11.789  56.915  11.003  1.00  0.00    +0.000 H 
ATOM     24  N2  UNL A   1      11.318  56.938  10.139  1.00  0.00    +0.000 N 
BRANCH   24   23
ATOM    119  H27 UNL A   1       9.400  56.943   9.402  1.00  0.00    +0.000 H 
ATOM    118  H26 UNL A   1       9.538  56.608  11.130  1.00  0.00    +0.000 H 
ATOM     23  C20 UNL A   1       9.954  56.432  10.161  1.00  0.00    +0.000 C 
BRANCH   23   22
ATOM    116  H24 UNL A   1       8.965  54.559  10.241  1.00  0.00    +0.000 H 
ATOM    117  H25 UNL A   1       9.987  54.838   8.800  1.00  0.00    +0.000 H 
ATOM     22  C19 UNL A   1       9.892  54.935   9.862  1.00  0.00    +0.000 C 
BRANCH   22   21
ATOM    114  H22 UNL A   1      11.809  54.777  10.758  1.00  0.00    +0.000 H 
ATOM    115  H23 UNL A   1      10.590  53.573  11.291  1.00  0.00    +0.000 H 
ATOM     21  C18 UNL A   1      11.027  54.105  10.473  1.00  0.00    +0.000 C 
BRANCH   21   20
ATOM    113  H21 UNL A   1      11.517  53.397   8.557  1.00  0.00    +0.000 H 
ATOM     20  C17 UNL A   1      11.636  53.034   9.557  1.00  0.00    +0.000 C 
ATOM    112  H20 UNL A   1      11.126  52.112   9.742  1.00  0.00    +0.000 H 
BRANCH   20   19
ATOM     19  C16 UNL A   1      13.138  52.789   9.742  1.00  0.00    +0.000 C 
ATOM    110  H18 UNL A   1      13.304  51.733   9.784  1.00  0.00    +0.000 H 
ATOM    111  H19 UNL A   1      13.631  53.251   8.913  1.00  0.00    +0.000 H 
BRANCH   19   18
ATOM     18  C15 UNL A   1      13.719  53.418  11.009  1.00  0.00    +0.000 C 
ATOM    108  H16 UNL A   1      13.722  54.483  10.896  1.00  0.00    +0.000 H 
ATOM    109  H17 UNL A   1      13.110  53.120  11.837  1.00  0.00    +0.000 H 
BRANCH   18   17
ATOM     17  N1  UNL A   1      15.071  52.971  11.265  1.00  0.00    +0.000 N 
ATOM    107  H15 UNL A   1      15.766  53.474  10.783  1.00  0.00    +0.000 H 
BRANCH   17   15
ATOM     15  C14 UNL A   1      15.547  51.975  12.062  1.00  0.00    +0.000 C 
ATOM     16  O1  UNL A   1      15.785  52.276  13.238  1.00  0.00    +0.000 O 
BRANCH   15   13
ATOM     13  C12 UNL A   1      15.816  50.545  11.567  1.00  0.00    +0.000 C 
ATOM    103  H11 UNL A   1      15.984  49.963  12.449  1.00  0.00    +0.000 H 
BRANCH   13   12
ATOM    101  H9  UNL A   1      13.399  48.604   8.075  1.00  0.00    +0.000 H 
ATOM    102  H10 UNL A   1      15.433  49.446   9.056  1.00  0.00    +0.000 H 
ATOM    135  H43 UNL A   1      13.418  50.078  12.676  1.00  0.00    +0.000 H 
ATOM    136  H44 UNL A   1      11.430  49.085  11.742  1.00  0.00    +0.000 H 
ATOM      9  C8  UNL A   1      12.210  48.780   9.806  1.00  0.00    +0.000 C 
ATOM     10  C9  UNL A   1      13.395  48.902   9.063  1.00  0.00    +0.000 C 
ATOM     11  C10 UNL A   1      14.573  49.415   9.624  1.00  0.00    +0.000 C 
ATOM     12  C11 UNL A   1      14.599  49.884  10.939  1.00  0.00    +0.000 C 
ATOM     90  C66 UNL A   1      13.427  49.755  11.696  1.00  0.00    +0.000 C 
ATOM     91  C67 UNL A   1      12.265  49.195  11.147  1.00  0.00    +0.000 C 
BRANCH    9    8
ATOM     98  H6  UNL A   1       7.745  46.883   7.547  1.00  0.00    +0.000 H 
ATOM     99  H7  UNL A   1       8.803  45.667   9.357  1.00  0.00    +0.000 H 
ATOM      4  C3  UNL A   1       9.153  48.454   7.541  1.00  0.00    +0.000 C 
ATOM      5  C4  UNL A   1       8.602  47.254   7.987  1.00  0.00    +0.000 C 
ATOM      6  C5  UNL A   1       9.209  46.556   9.028  1.00  0.00    +0.000 C 
ATOM      7  C6  UNL A   1      10.369  47.059   9.627  1.00  0.00    +0.000 C 
ATOM      8  C7  UNL A   1      10.960  48.261   9.195  1.00  0.00    +0.000 C 
ATOM    137  H45 UNL A   1      10.717  49.837   7.811  1.00  0.00    +0.000 H 
ATOM    100  H8  UNL A   1      10.801  46.537  10.404  1.00  0.00    +0.000 H 
ATOM     92  C68 UNL A   1      10.318  48.946   8.145  1.00  0.00    +0.000 C 
BRANCH    4    3
ATOM      3  S1  UNL A   1       8.335  49.395   6.268  1.00  0.00    +0.000 S 
BRANCH    3    2
ATOM     97  H5  UNL A   1       6.281  49.049   7.417  1.00  0.00    +0.000 H 
ATOM      2  C2  UNL A   1       6.834  49.928   7.157  1.00  0.00    +0.000 C 
ATOM     96  H4  UNL A   1       6.268  50.574   6.518  1.00  0.00    +0.000 H 
BRANCH    2    1
ATOM      1  C1  UNL A   1       7.149  50.670   8.444  1.00  0.00    +0.000 C 
ATOM     93  H1  UNL A   1       6.386  50.469   9.167  1.00  0.00    +0.000 H 
ATOM     94  H2  UNL A   1       7.186  51.722   8.249  1.00  0.00    +0.000 H 
ATOM     95  H3  UNL A   1       8.094  50.344   8.822  1.00  0.00    +0.000 H 
ENDBRANCH    2    1
ENDBRANCH    3    2
ENDBRANCH    4    3
ENDBRANCH    9    8
ENDBRANCH   13   12
BRANCH   13   14
ATOM    105  H13 UNL A   1      17.938  50.290  11.522  1.00  0.00    +0.000 H 
ATOM    106  H14 UNL A   1      17.304  51.222  10.187  1.00  0.00    +0.000 H 
ATOM     14  C13 UNL A   1      17.138  50.374  10.817  1.00  0.00    +0.000 C 
ATOM    104  H12 UNL A   1      17.096  49.488  10.218  1.00  0.00    +0.000 H 
ENDBRANCH   13   14
ENDBRANCH   15   13
ENDBRANCH   17   15
ENDBRANCH   18   17
ENDBRANCH   19   18
ENDBRANCH   20   19
ENDBRANCH   21   20
ENDBRANCH   22   21
ENDBRANCH   23   22
ENDBRANCH   24   23
ENDBRANCH   25   24
ENDBRANCH   27   25
ENDBRANCH   31   30
BRANCH   35   36
ATOM     36  C30 UNL A   1      17.618  55.479   0.457  1.00  0.00    +0.000 C 
ATOM     37  C31 UNL A   1      17.006  56.246  -0.544  1.00  0.00    +0.000 C 
ATOM     38  F1  UNL A   1      15.794  55.906  -1.009  1.00  0.00    +0.000 F 
ATOM     39  C32 UNL A   1      17.652  57.348  -1.098  1.00  0.00    +0.000 C 
ATOM     40  F2  UNL A   1      17.065  58.042  -2.084  1.00  0.00    +0.000 F 
ATOM     41  C33 UNL A   1      18.905  57.723  -0.639  1.00  0.00    +0.000 C 
ATOM     42  F3  UNL A   1      19.523  58.789  -1.167  1.00  0.00    +0.000 F 
ATOM     43  C34 UNL A   1      19.523  56.990   0.363  1.00  0.00    +0.000 C 
ATOM     44  F4  UNL A   1      20.729  57.357   0.815  1.00  0.00    +0.000 F 
ATOM     45  C35 UNL A   1      18.890  55.870   0.900  1.00  0.00    +0.000 C 
ATOM     46  F5  UNL A   1      19.517  55.175   1.859  1.00  0.00    +0.000 F 
ENDBRANCH   35   36
BRANCH   52   53
ATOM     53  C41 UNL A   1      16.809  48.429  -0.803  1.00  0.00    +0.000 C 
ATOM     54  C42 UNL A   1      18.022  47.752  -0.619  1.00  0.00    +0.000 C 
ATOM     55  F6  UNL A   1      18.805  48.043   0.430  1.00  0.00    +0.000 F 
ATOM     56  C43 UNL A   1      18.452  46.796  -1.535  1.00  0.00    +0.000 C 
ATOM     57  F7  UNL A   1      19.637  46.191  -1.363  1.00  0.00    +0.000 F 
ATOM     58  C44 UNL A   1      17.666  46.478  -2.633  1.00  0.00    +0.000 C 
ATOM     59  F8  UNL A   1      18.080  45.554  -3.509  1.00  0.00    +0.000 F 
ATOM     60  C45 UNL A   1      16.455  47.124  -2.824  1.00  0.00    +0.000 C 
ATOM     61  F9  UNL A   1      15.688  46.811  -3.878  1.00  0.00    +0.000 F 
ATOM     62  C46 UNL A   1      16.032  48.100  -1.924  1.00  0.00    +0.000 C 
ATOM     63  F10 UNL A   1      14.862  48.716  -2.142  1.00  0.00    +0.000 F 
ENDBRANCH   52   53
BRANCH   67   68
ATOM     68  C50 UNL A   1      12.540  48.002   4.682  1.00  0.00    +0.000 C 
ATOM     69  C51 UNL A   1      11.288  47.650   4.159  1.00  0.00    +0.000 C 
ATOM     70  F11 UNL A   1      10.781  48.331   3.122  1.00  0.00    +0.000 F 
ATOM     71  C52 UNL A   1      10.536  46.623   4.725  1.00  0.00    +0.000 C 
ATOM     72  F12 UNL A   1       9.323  46.334   4.231  1.00  0.00    +0.000 F 
ATOM     73  C53 UNL A   1      11.033  45.910   5.805  1.00  0.00    +0.000 C 
ATOM     74  F13 UNL A   1      10.311  44.920   6.346  1.00  0.00    +0.000 F 
ATOM     75  C54 UNL A   1      12.277  46.230   6.329  1.00  0.00    +0.000 C 
ATOM     76  F14 UNL A   1      12.766  45.535   7.364  1.00  0.00    +0.000 F 
ATOM     77  C55 UNL A   1      13.019  47.273   5.780  1.00  0.00    +0.000 C 
ATOM     78  F15 UNL A   1      14.214  47.568   6.312  1.00  0.00    +0.000 F 
ENDBRANCH   67   68
TORSDOF 21
ENDMDL
MODEL 9
REMARK VINA RESULT:      -6.8     44.864     48.117
ROOT
ATOM    129  H37 UNL A   1      13.703  46.902   1.934  1.00  0.00    +0.000 H 
ATOM    130  H38 UNL A   1      15.455  47.058   0.076  1.00  0.00    +0.000 H 
ATOM    131  H39 UNL A   1      17.011  56.746   2.239  1.00  0.00    +0.000 H 
ATOM    132  H40 UNL A   1      15.619  56.492   4.373  1.00  0.00    +0.000 H 
ATOM     31  C26 UNL A   1      14.389  53.934   4.642  1.00  0.00    +0.000 C 
ATOM     32  C27 UNL A   1      15.359  54.382   3.583  1.00  0.00    +0.000 C 
ATOM     33  N3  UNL A   1      15.846  53.711   2.570  1.00  0.00    +0.000 N 
ATOM     34  C28 UNL A   1      16.656  54.603   1.879  1.00  0.00    +0.000 C 
ATOM     35  C29 UNL A   1      17.422  54.376   0.785  1.00  0.00    +0.000 C 
ATOM     47  C36 UNL A   1      17.542  53.100   0.129  1.00  0.00    +0.000 C 
ATOM     48  C37 UNL A   1      18.349  52.752  -0.940  1.00  0.00    +0.000 C 
ATOM     49  C38 UNL A   1      18.100  51.413  -1.260  1.00  0.00    +0.000 C 
ATOM     50  C39 UNL A   1      17.168  50.915  -0.364  1.00  0.00    +0.000 C 
ATOM     51  N4  UNL A   1      16.832  51.962   0.481  1.00  0.00    +0.000 N 
ATOM     52  C40 UNL A   1      16.624  49.585  -0.282  1.00  0.00    +0.000 C 
ATOM     64  C47 UNL A   1      15.719  49.170   0.638  1.00  0.00    +0.000 C 
ATOM     65  N5  UNL A   1      15.134  49.890   1.671  1.00  0.00    +0.000 N 
ATOM     66  C48 UNL A   1      14.320  49.057   2.273  1.00  0.00    +0.000 C 
ATOM     67  C49 UNL A   1      13.445  49.288   3.474  1.00  0.00    +0.000 C 
ATOM     79  C56 UNL A   1      13.472  50.485   4.088  1.00  0.00    +0.000 C 
ATOM     80  C57 UNL A   1      12.689  50.850   5.265  1.00  0.00    +0.000 C 
ATOM     81  C58 UNL A   1      12.935  52.134   5.574  1.00  0.00    +0.000 C 
ATOM     82  C59 UNL A   1      13.916  52.674   4.632  1.00  0.00    +0.000 C 
ATOM     83  N6  UNL A   1      14.186  51.621   3.794  1.00  0.00    +0.000 N 
ATOM     84  C60 UNL A   1      14.279  47.717   1.671  1.00  0.00    +0.000 C 
ATOM     85  C61 UNL A   1      15.177  47.828   0.703  1.00  0.00    +0.000 C 
ATOM     86  C62 UNL A   1      16.561  55.875   2.562  1.00  0.00    +0.000 C 
ATOM     87  C63 UNL A   1      15.820  55.776   3.657  1.00  0.00    +0.000 C 
ATOM    123  H31 UNL A   1      19.021  53.373  -1.419  1.00  0.00    +0.000 H 
ATOM    124  H32 UNL A   1      18.536  50.886  -2.032  1.00  0.00    +0.000 H 
ATOM    125  H33 UNL A   1      16.185  51.905   1.221  1.00  0.00    +0.000 H 
ATOM    126  H34 UNL A   1      12.051  50.222   5.778  1.00  0.00    +0.000 H 
ATOM    127  H35 UNL A   1      12.500  52.657   6.351  1.00  0.00    +0.000 H 
ATOM    128  H36 UNL A   1      14.831  51.675   3.052  1.00  0.00    +0.000 H 
ENDROOT
BRANCH   31   30
ATOM    133  H41 UNL A   1      12.160  55.423   4.564  1.00  0.00    +0.000 H 
ATOM    134  H42 UNL A   1      11.357  57.037   6.184  1.00  0.00    +0.000 H 
ATOM     29  C24 UNL A   1      14.598  55.120   6.850  1.00  0.00    +0.000 C 
ATOM     88  C64 UNL A   1      12.688  55.583   5.436  1.00  0.00    +0.000 C 
ATOM     89  C65 UNL A   1      12.205  56.484   6.384  1.00  0.00    +0.000 C 
ATOM    122  H30 UNL A   1      15.504  54.652   7.006  1.00  0.00    +0.000 H 
ATOM     27  C22 UNL A   1      12.869  56.637   7.604  1.00  0.00    +0.000 C 
ATOM     28  C23 UNL A   1      14.081  55.977   7.826  1.00  0.00    +0.000 C 
ATOM    121  H29 UNL A   1      14.594  56.121   8.710  1.00  0.00    +0.000 H 
ATOM     30  C25 UNL A   1      13.891  54.894   5.659  1.00  0.00    +0.000 C 
BRANCH   27   25
ATOM     25  C21 UNL A   1      12.343  57.535   8.659  1.00  0.00    +0.000 C 
ATOM     26  O2  UNL A   1      12.705  58.704   8.696  1.00  0.00    +0.000 O 
BRANCH   25   24
ATOM    120  H28 UNL A   1      10.802  57.725   9.923  1.00  0.00    +0.000 H 
ATOM     24  N2  UNL A   1      11.452  57.064   9.593  1.00  0.00    +0.000 N 
BRANCH   24   23
ATOM    119  H27 UNL A   1      10.860  55.829  11.125  1.00  0.00    +0.000 H 
ATOM    118  H26 UNL A   1      12.306  55.305  10.256  1.00  0.00    +0.000 H 
ATOM     23  C20 UNL A   1      11.330  55.733  10.168  1.00  0.00    +0.000 C 
BRANCH   23   22
ATOM    116  H24 UNL A   1       9.621  54.508   9.894  1.00  0.00    +0.000 H 
ATOM    117  H25 UNL A   1      10.193  55.383   8.442  1.00  0.00    +0.000 H 
ATOM     22  C19 UNL A   1      10.463  54.814   9.308  1.00  0.00    +0.000 C 
BRANCH   22   21
ATOM    114  H22 UNL A   1      10.415  52.839   8.535  1.00  0.00    +0.000 H 
ATOM    115  H23 UNL A   1      11.766  53.874   7.966  1.00  0.00    +0.000 H 
ATOM     21  C18 UNL A   1      11.168  53.554   8.793  1.00  0.00    +0.000 C 
BRANCH   21   20
ATOM    113  H21 UNL A   1      11.679  51.961  10.061  1.00  0.00    +0.000 H 
ATOM     20  C17 UNL A   1      12.137  52.885   9.775  1.00  0.00    +0.000 C 
ATOM    112  H20 UNL A   1      12.296  53.556  10.594  1.00  0.00    +0.000 H 
BRANCH   20   19
ATOM     19  C16 UNL A   1      13.508  52.514   9.196  1.00  0.00    +0.000 C 
ATOM    110  H18 UNL A   1      13.542  51.454   9.064  1.00  0.00    +0.000 H 
ATOM    111  H19 UNL A   1      13.608  53.047   8.273  1.00  0.00    +0.000 H 
BRANCH   19   18
ATOM     18  C15 UNL A   1      14.687  52.929  10.077  1.00  0.00    +0.000 C 
ATOM    108  H16 UNL A   1      15.555  53.044   9.461  1.00  0.00    +0.000 H 
ATOM    109  H17 UNL A   1      14.433  53.849  10.561  1.00  0.00    +0.000 H 
BRANCH   18   17
ATOM     17  N1  UNL A   1      14.969  51.947  11.102  1.00  0.00    +0.000 N 
ATOM    107  H15 UNL A   1      14.265  51.855  11.783  1.00  0.00    +0.000 H 
BRANCH   17   15
ATOM     15  C14 UNL A   1      16.041  51.127  11.284  1.00  0.00    +0.000 C 
ATOM     16  O1  UNL A   1      16.931  51.544  12.036  1.00  0.00    +0.000 O 
BRANCH   15   13
ATOM     13  C12 UNL A   1      16.194  49.762  10.597  1.00  0.00    +0.000 C 
ATOM    103  H11 UNL A   1      16.426  49.071  11.380  1.00  0.00    +0.000 H 
BRANCH   13   12
ATOM    101  H9  UNL A   1      13.158  48.805   7.181  1.00  0.00    +0.000 H 
ATOM    102  H10 UNL A   1      15.328  49.481   7.984  1.00  0.00    +0.000 H 
ATOM    135  H43 UNL A   1      14.095  48.745  11.921  1.00  0.00    +0.000 H 
ATOM    136  H44 UNL A   1      11.984  47.915  11.104  1.00  0.00    +0.000 H 
ATOM      9  C8  UNL A   1      12.352  48.312   9.065  1.00  0.00    +0.000 C 
ATOM     10  C9  UNL A   1      13.352  48.774   8.194  1.00  0.00    +0.000 C 
ATOM     11  C10 UNL A   1      14.606  49.192   8.661  1.00  0.00    +0.000 C 
ATOM     12  C11 UNL A   1      14.893  49.222  10.027  1.00  0.00    +0.000 C 
ATOM     90  C66 UNL A   1      13.908  48.750  10.906  1.00  0.00    +0.000 C 
ATOM     91  C67 UNL A   1      12.674  48.286  10.432  1.00  0.00    +0.000 C 
BRANCH    9    8
ATOM     98  H6  UNL A   1       7.572  46.794   7.197  1.00  0.00    +0.000 H 
ATOM     99  H7  UNL A   1       8.778  45.376   8.749  1.00  0.00    +0.000 H 
ATOM      4  C3  UNL A   1       9.040  48.308   7.163  1.00  0.00    +0.000 C 
ATOM      5  C4  UNL A   1       8.490  47.091   7.563  1.00  0.00    +0.000 C 
ATOM      6  C5  UNL A   1       9.183  46.277   8.455  1.00  0.00    +0.000 C 
ATOM      7  C6  UNL A   1      10.426  46.681   8.954  1.00  0.00    +0.000 C 
ATOM      8  C7  UNL A   1      11.017  47.897   8.565  1.00  0.00    +0.000 C 
ATOM    137  H45 UNL A   1      10.686  49.605   7.368  1.00  0.00    +0.000 H 
ATOM    100  H8  UNL A   1      10.921  46.072   9.623  1.00  0.00    +0.000 H 
ATOM     92  C68 UNL A   1      10.289  48.701   7.666  1.00  0.00    +0.000 C 
BRANCH    4    3
ATOM      3  S1  UNL A   1       8.123  49.395   6.089  1.00  0.00    +0.000 S 
BRANCH    3    2
ATOM     97  H5  UNL A   1       8.530  51.730   5.892  1.00  0.00    +0.000 H 
ATOM      2  C2  UNL A   1       8.709  51.020   6.674  1.00  0.00    +0.000 C 
ATOM     96  H4  UNL A   1       9.751  50.945   6.907  1.00  0.00    +0.000 H 
BRANCH    2    1
ATOM      1  C1  UNL A   1       7.967  51.499   7.909  1.00  0.00    +0.000 C 
ATOM     93  H1  UNL A   1       6.923  51.288   7.802  1.00  0.00    +0.000 H 
ATOM     94  H2  UNL A   1       8.107  52.554   8.022  1.00  0.00    +0.000 H 
ATOM     95  H3  UNL A   1       8.346  50.994   8.772  1.00  0.00    +0.000 H 
ENDBRANCH    2    1
ENDBRANCH    3    2
ENDBRANCH    4    3
ENDBRANCH    9    8
ENDBRANCH   13   12
BRANCH   13   14
ATOM    105  H13 UNL A   1      17.120  49.342   8.715  1.00  0.00    +0.000 H 
ATOM    106  H14 UNL A   1      18.095  48.916  10.100  1.00  0.00    +0.000 H 
ATOM     14  C13 UNL A   1      17.425  49.644   9.695  1.00  0.00    +0.000 C 
ATOM    104  H12 UNL A   1      17.918  50.591   9.639  1.00  0.00    +0.000 H 
ENDBRANCH   13   14
ENDBRANCH   15   13
ENDBRANCH   17   15
ENDBRANCH   18   17
ENDBRANCH   19   18
ENDBRANCH   20   19
ENDBRANCH   21   20
ENDBRANCH   22   21
ENDBRANCH   23   22
ENDBRANCH   24   23
ENDBRANCH   25   24
ENDBRANCH   27   25
ENDBRANCH   31   30
BRANCH   35   36
ATOM     36  C30 UNL A   1      18.200  55.532   0.228  1.00  0.00    +0.000 C 
ATOM     37  C31 UNL A   1      19.435  55.914   0.769  1.00  0.00    +0.000 C 
ATOM     38  F1  UNL A   1      19.927  55.281   1.844  1.00  0.00    +0.000 F 
ATOM     39  C32 UNL A   1      20.158  56.975   0.227  1.00  0.00    +0.000 C 
ATOM     40  F2  UNL A   1      21.317  57.350   0.786  1.00  0.00    +0.000 F 
ATOM     41  C33 UNL A   1      19.675  57.649  -0.884  1.00  0.00    +0.000 C 
ATOM     42  F3  UNL A   1      20.374  58.664  -1.411  1.00  0.00    +0.000 F 
ATOM     43  C34 UNL A   1      18.463  57.277  -1.447  1.00  0.00    +0.000 C 
ATOM     44  F4  UNL A   1      18.001  57.921  -2.527  1.00  0.00    +0.000 F 
ATOM     45  C35 UNL A   1      17.725  56.234  -0.890  1.00  0.00    +0.000 C 
ATOM     46  F5  UNL A   1      16.552  55.904  -1.450  1.00  0.00    +0.000 F 
ENDBRANCH   35   36
BRANCH   52   53
ATOM     53  C41 UNL A   1      17.104  48.570  -1.276  1.00  0.00    +0.000 C 
ATOM     54  C42 UNL A   1      16.508  48.440  -2.538  1.00  0.00    +0.000 C 
ATOM     55  F6  UNL A   1      15.449  49.196  -2.866  1.00  0.00    +0.000 F 
ATOM     56  C43 UNL A   1      16.975  47.504  -3.457  1.00  0.00    +0.000 C 
ATOM     57  F7  UNL A   1      16.363  47.366  -4.641  1.00  0.00    +0.000 F 
ATOM     58  C44 UNL A   1      18.064  46.703  -3.143  1.00  0.00    +0.000 C 
ATOM     59  F8  UNL A   1      18.515  45.807  -4.031  1.00  0.00    +0.000 F 
ATOM     60  C45 UNL A   1      18.679  46.827  -1.907  1.00  0.00    +0.000 C 
ATOM     61  F9  UNL A   1      19.738  46.063  -1.606  1.00  0.00    +0.000 F 
ATOM     62  C46 UNL A   1      18.198  47.744  -0.976  1.00  0.00    +0.000 C 
ATOM     63  F10 UNL A   1      18.806  47.834   0.216  1.00  0.00    +0.000 F 
ENDBRANCH   52   53
BRANCH   67   68
ATOM     68  C50 UNL A   1      12.577  48.206   4.002  1.00  0.00    +0.000 C 
ATOM     69  C51 UNL A   1      13.038  47.339   5.003  1.00  0.00    +0.000 C 
ATOM     70  F11 UNL A   1      14.285  47.470   5.478  1.00  0.00    +0.000 F 
ATOM     71  C52 UNL A   1      12.233  46.312   5.491  1.00  0.00    +0.000 C 
ATOM     72  F12 UNL A   1      12.714  45.472   6.420  1.00  0.00    +0.000 F 
ATOM     73  C53 UNL A   1      10.944  46.149   5.010  1.00  0.00    +0.000 C 
ATOM     74  F13 UNL A   1      10.169  45.164   5.483  1.00  0.00    +0.000 F 
ATOM     75  C54 UNL A   1      10.460  47.005   4.031  1.00  0.00    +0.000 C 
ATOM     76  F14 UNL A   1       9.210  46.859   3.572  1.00  0.00    +0.000 F 
ATOM     77  C55 UNL A   1      11.273  48.017   3.524  1.00  0.00    +0.000 C 
ATOM     78  F15 UNL A   1      10.784  48.824   2.570  1.00  0.00    +0.000 F 
ENDBRANCH   67   68
TORSDOF 21
ENDMDL
MODEL 10
REMARK VINA RESULT:      -6.7      2.249      8.417
ROOT
ATOM    129  H37 UNL A   1      20.142  33.857  46.911  1.00  0.00    +0.000 H 
ATOM    130  H38 UNL A   1      18.265  35.269  47.927  1.00  0.00    +0.000 H 
ATOM    131  H39 UNL A   1      24.493  43.112  48.741  1.00  0.00    +0.000 H 
ATOM    132  H40 UNL A   1      26.230  41.879  47.319  1.00  0.00    +0.000 H 
ATOM     31  C26 UNL A   1      25.494  39.200  46.679  1.00  0.00    +0.000 C 
ATOM     32  C27 UNL A   1      24.668  40.236  47.390  1.00  0.00    +0.000 C 
ATOM     33  N3  UNL A   1      23.450  40.142  47.862  1.00  0.00    +0.000 N 
ATOM     34  C28 UNL A   1      23.182  41.365  48.463  1.00  0.00    +0.000 C 
ATOM     35  C29 UNL A   1      22.035  41.783  49.051  1.00  0.00    +0.000 C 
ATOM     47  C36 UNL A   1      20.836  40.993  49.146  1.00  0.00    +0.000 C 
ATOM     48  C37 UNL A   1      19.602  41.356  49.657  1.00  0.00    +0.000 C 
ATOM     49  C38 UNL A   1      18.751  40.247  49.576  1.00  0.00    +0.000 C 
ATOM     50  C39 UNL A   1      19.442  39.208  48.975  1.00  0.00    +0.000 C 
ATOM     51  N4  UNL A   1      20.722  39.678  48.720  1.00  0.00    +0.000 N 
ATOM     52  C40 UNL A   1      18.974  37.885  48.657  1.00  0.00    +0.000 C 
ATOM     64  C47 UNL A   1      19.713  36.922  48.054  1.00  0.00    +0.000 C 
ATOM     65  N5  UNL A   1      21.030  36.980  47.616  1.00  0.00    +0.000 N 
ATOM     66  C48 UNL A   1      21.294  35.798  47.115  1.00  0.00    +0.000 C 
ATOM     67  C49 UNL A   1      22.561  35.302  46.475  1.00  0.00    +0.000 C 
ATOM     79  C56 UNL A   1      23.603  36.143  46.336  1.00  0.00    +0.000 C 
ATOM     80  C57 UNL A   1      24.886  35.806  45.727  1.00  0.00    +0.000 C 
ATOM     81  C58 UNL A   1      25.699  36.873  45.802  1.00  0.00    +0.000 C 
ATOM     82  C59 UNL A   1      24.981  37.979  46.437  1.00  0.00    +0.000 C 
ATOM     83  N6  UNL A   1      23.741  37.457  46.710  1.00  0.00    +0.000 N 
ATOM     84  C60 UNL A   1      20.177  34.846  47.200  1.00  0.00    +0.000 C 
ATOM     85  C61 UNL A   1      19.228  35.593  47.745  1.00  0.00    +0.000 C 
ATOM     86  C62 UNL A   1      24.377  42.170  48.334  1.00  0.00    +0.000 C 
ATOM     87  C63 UNL A   1      25.304  41.541  47.625  1.00  0.00    +0.000 C 
ATOM    123  H31 UNL A   1      19.351  42.283  50.034  1.00  0.00    +0.000 H 
ATOM    124  H32 UNL A   1      17.774  40.211  49.907  1.00  0.00    +0.000 H 
ATOM    125  H33 UNL A   1      21.441  39.156  48.297  1.00  0.00    +0.000 H 
ATOM    126  H34 UNL A   1      25.130  34.896  45.307  1.00  0.00    +0.000 H 
ATOM    127  H35 UNL A   1      26.674  36.907  45.465  1.00  0.00    +0.000 H 
ATOM    128  H36 UNL A   1      23.020  37.976  47.133  1.00  0.00    +0.000 H 
ENDROOT
BRANCH   31   30
ATOM    133  H41 UNL A   1      26.395  40.634  44.600  1.00  0.00    +0.000 H 
ATOM    134  H42 UNL A   1      28.685  41.071  43.938  1.00  0.00    +0.000 H 
ATOM     29  C24 UNL A   1      27.971  39.002  47.074  1.00  0.00    +0.000 C 
ATOM     88  C64 UNL A   1      27.174  40.270  45.171  1.00  0.00    +0.000 C 
ATOM     89  C65 UNL A   1      28.490  40.554  44.810  1.00  0.00    +0.000 C 
ATOM    122  H30 UNL A   1      27.785  38.393  47.885  1.00  0.00    +0.000 H 
ATOM     27  C22 UNL A   1      29.544  40.140  45.628  1.00  0.00    +0.000 C 
ATOM     28  C23 UNL A   1      29.287  39.339  46.745  1.00  0.00    +0.000 C 
ATOM    121  H29 UNL A   1      30.068  38.998  47.327  1.00  0.00    +0.000 H 
ATOM     30  C25 UNL A   1      26.902  39.489  46.305  1.00  0.00    +0.000 C 
BRANCH   27   25
ATOM     25  C21 UNL A   1      30.949  40.486  45.308  1.00  0.00    +0.000 C 
ATOM     26  O2  UNL A   1      31.424  41.535  45.722  1.00  0.00    +0.000 O 
BRANCH   25   24
ATOM    120  H28 UNL A   1      32.663  39.566  44.831  1.00  0.00    +0.000 H 
ATOM     24  N2  UNL A   1      31.721  39.636  44.553  1.00  0.00    +0.000 N 
BRANCH   24   23
ATOM    119  H27 UNL A   1      32.162  38.853  42.705  1.00  0.00    +0.000 H 
ATOM    118  H26 UNL A   1      30.456  39.222  42.975  1.00  0.00    +0.000 H 
ATOM     23  C20 UNL A   1      31.352  38.824  43.404  1.00  0.00    +0.000 C 
BRANCH   23   22
ATOM    116  H24 UNL A   1      31.586  36.747  43.051  1.00  0.00    +0.000 H 
ATOM    117  H25 UNL A   1      31.515  37.242  44.768  1.00  0.00    +0.000 H 
ATOM     22  C19 UNL A   1      31.111  37.365  43.785  1.00  0.00    +0.000 C 
BRANCH   22   21
ATOM    114  H22 UNL A   1      29.393  36.820  44.904  1.00  0.00    +0.000 H 
ATOM    115  H23 UNL A   1      29.088  37.734  43.391  1.00  0.00    +0.000 H 
ATOM     21  C18 UNL A   1      29.637  36.952  43.871  1.00  0.00    +0.000 C 
BRANCH   21   20
ATOM    113  H21 UNL A   1      30.126  35.034  43.171  1.00  0.00    +0.000 H 
ATOM     20  C17 UNL A   1      29.261  35.663  43.130  1.00  0.00    +0.000 C 
ATOM    112  H20 UNL A   1      28.971  35.926  42.134  1.00  0.00    +0.000 H 
BRANCH   20   19
ATOM     19  C16 UNL A   1      28.120  34.853  43.757  1.00  0.00    +0.000 C 
ATOM    110  H18 UNL A   1      27.572  35.496  44.412  1.00  0.00    +0.000 H 
ATOM    111  H19 UNL A   1      27.524  34.483  42.950  1.00  0.00    +0.000 H 
BRANCH   19   18
ATOM     18  C15 UNL A   1      28.588  33.636  44.556  1.00  0.00    +0.000 C 
ATOM    108  H16 UNL A   1      27.805  32.906  44.563  1.00  0.00    +0.000 H 
ATOM    109  H17 UNL A   1      29.471  33.252  44.090  1.00  0.00    +0.000 H 
BRANCH   18   17
ATOM     17  N1  UNL A   1      28.918  33.980  45.923  1.00  0.00    +0.000 N 
ATOM    107  H15 UNL A   1      29.345  34.860  46.031  1.00  0.00    +0.000 H 
BRANCH   17   15
ATOM     15  C14 UNL A   1      28.736  33.295  47.086  1.00  0.00    +0.000 C 
ATOM     16  O1  UNL A   1      29.715  32.674  47.517  1.00  0.00    +0.000 O 
BRANCH   15   13
ATOM     13  C12 UNL A   1      27.401  33.246  47.844  1.00  0.00    +0.000 C 
ATOM    103  H11 UNL A   1      27.571  32.601  48.682  1.00  0.00    +0.000 H 
BRANCH   13   12
ATOM    101  H9  UNL A   1      28.261  37.511  49.539  1.00  0.00    +0.000 H 
ATOM    102  H10 UNL A   1      28.888  35.532  48.315  1.00  0.00    +0.000 H 
ATOM    135  H43 UNL A   1      25.016  34.007  48.807  1.00  0.00    +0.000 H 
ATOM    136  H44 UNL A   1      24.347  36.056  49.887  1.00  0.00    +0.000 H 
ATOM      9  C8  UNL A   1      26.248  36.969  49.850  1.00  0.00    +0.000 C 
ATOM     10  C9  UNL A   1      27.555  36.776  49.376  1.00  0.00    +0.000 C 
ATOM     11  C10 UNL A   1      27.929  35.615  48.686  1.00  0.00    +0.000 C 
ATOM     12  C11 UNL A   1      27.025  34.569  48.492  1.00  0.00    +0.000 C 
ATOM     90  C66 UNL A   1      25.713  34.755  48.948  1.00  0.00    +0.000 C 
ATOM     91  C67 UNL A   1      25.329  35.938  49.594  1.00  0.00    +0.000 C 
BRANCH    9    8
ATOM     98  H6  UNL A   1      24.916  41.345  52.629  1.00  0.00    +0.000 H 
ATOM     99  H7  UNL A   1      26.707  41.437  50.998  1.00  0.00    +0.000 H 
ATOM      4  C3  UNL A   1      24.477  39.309  52.295  1.00  0.00    +0.000 C 
ATOM      5  C4  UNL A   1      25.167  40.502  52.088  1.00  0.00    +0.000 C 
ATOM      6  C5  UNL A   1      26.195  40.555  51.150  1.00  0.00    +0.000 C 
ATOM      7  C6  UNL A   1      26.534  39.415  50.415  1.00  0.00    +0.000 C 
ATOM      8  C7  UNL A   1      25.868  38.190  50.604  1.00  0.00    +0.000 C 
ATOM    137  H45 UNL A   1      24.310  37.293  51.711  1.00  0.00    +0.000 H 
ATOM    100  H8  UNL A   1      27.290  39.473  49.716  1.00  0.00    +0.000 H 
ATOM     92  C68 UNL A   1      24.828  38.170  51.555  1.00  0.00    +0.000 C 
BRANCH    4    3
ATOM      3  S1  UNL A   1      23.105  39.254  53.430  1.00  0.00    +0.000 S 
BRANCH    3    2
ATOM     97  H5  UNL A   1      21.569  37.917  52.200  1.00  0.00    +0.000 H 
ATOM      2  C2  UNL A   1      21.722  38.974  52.273  1.00  0.00    +0.000 C 
ATOM     96  H4  UNL A   1      21.976  39.402  51.325  1.00  0.00    +0.000 H 
BRANCH    2    1
ATOM      1  C1  UNL A   1      20.423  39.595  52.755  1.00  0.00    +0.000 C 
ATOM     93  H1  UNL A   1      20.634  40.512  53.265  1.00  0.00    +0.000 H 
ATOM     94  H2  UNL A   1      19.932  38.920  53.424  1.00  0.00    +0.000 H 
ATOM     95  H3  UNL A   1      19.788  39.792  51.916  1.00  0.00    +0.000 H 
ENDBRANCH    2    1
ENDBRANCH    3    2
ENDBRANCH    4    3
ENDBRANCH    9    8
ENDBRANCH   13   12
BRANCH   13   14
ATOM    105  H13 UNL A   1      25.903  31.725  47.719  1.00  0.00    +0.000 H 
ATOM    106  H14 UNL A   1      26.662  32.106  46.192  1.00  0.00    +0.000 H 
ATOM     14  C13 UNL A   1      26.280  32.515  47.104  1.00  0.00    +0.000 C 
ATOM    104  H12 UNL A   1      25.491  33.203  46.884  1.00  0.00    +0.000 H 
ENDBRANCH   13   14
ENDBRANCH   15   13
ENDBRANCH   17   15
ENDBRANCH   18   17
ENDBRANCH   19   18
ENDBRANCH   20   19
ENDBRANCH   21   20
ENDBRANCH   22   21
ENDBRANCH   23   22
ENDBRANCH   24   23
ENDBRANCH   25   24
ENDBRANCH   27   25
ENDBRANCH   31   30
BRANCH   35   36
ATOM     36  C30 UNL A   1      22.018  43.165  49.637  1.00  0.00    +0.000 C 
ATOM     37  C31 UNL A   1      21.720  44.290  48.855  1.00  0.00    +0.000 C 
ATOM     38  F1  UNL A   1      21.496  44.158  47.539  1.00  0.00    +0.000 F 
ATOM     39  C32 UNL A   1      21.684  45.564  49.416  1.00  0.00    +0.000 C 
ATOM     40  F2  UNL A   1      21.439  46.630  48.641  1.00  0.00    +0.000 F 
ATOM     41  C33 UNL A   1      21.913  45.733  50.773  1.00  0.00    +0.000 C 
ATOM     42  F3  UNL A   1      21.870  46.958  51.315  1.00  0.00    +0.000 F 
ATOM     43  C34 UNL A   1      22.192  44.632  51.570  1.00  0.00    +0.000 C 
ATOM     44  F4  UNL A   1      22.402  44.793  52.883  1.00  0.00    +0.000 F 
ATOM     45  C35 UNL A   1      22.255  43.360  51.006  1.00  0.00    +0.000 C 
ATOM     46  F5  UNL A   1      22.538  42.317  51.799  1.00  0.00    +0.000 F 
ENDBRANCH   35   36
BRANCH   52   53
ATOM     53  C41 UNL A   1      17.554  37.543  49.000  1.00  0.00    +0.000 C 
ATOM     54  C42 UNL A   1      16.604  37.277  48.004  1.00  0.00    +0.000 C 
ATOM     55  F6  UNL A   1      16.938  37.373  46.709  1.00  0.00    +0.000 F 
ATOM     56  C43 UNL A   1      15.293  36.945  48.339  1.00  0.00    +0.000 C 
ATOM     57  F7  UNL A   1      14.389  36.737  47.371  1.00  0.00    +0.000 F 
ATOM     58  C44 UNL A   1      14.918  36.844  49.671  1.00  0.00    +0.000 C 
ATOM     59  F8  UNL A   1      13.658  36.520  49.989  1.00  0.00    +0.000 F 
ATOM     60  C45 UNL A   1      15.846  37.087  50.670  1.00  0.00    +0.000 C 
ATOM     61  F9  UNL A   1      15.489  36.979  51.957  1.00  0.00    +0.000 F 
ATOM     62  C46 UNL A   1      17.151  37.444  50.340  1.00  0.00    +0.000 C 
ATOM     63  F10 UNL A   1      18.025  37.684  51.328  1.00  0.00    +0.000 F 
ENDBRANCH   52   53
BRANCH   67   68
ATOM     68  C50 UNL A   1      22.664  33.908  45.973  1.00  0.00    +0.000 C 
ATOM     69  C51 UNL A   1      22.732  32.828  46.863  1.00  0.00    +0.000 C 
ATOM     70  F11 UNL A   1      22.726  33.049  48.185  1.00  0.00    +0.000 F 
ATOM     71  C52 UNL A   1      22.846  31.519  46.398  1.00  0.00    +0.000 C 
ATOM     72  F12 UNL A   1      22.950  30.507  47.272  1.00  0.00    +0.000 F 
ATOM     73  C53 UNL A   1      22.865  31.263  45.036  1.00  0.00    +0.000 C 
ATOM     74  F13 UNL A   1      22.970  30.005  44.590  1.00  0.00    +0.000 F 
ATOM     75  C54 UNL A   1      22.782  32.316  44.136  1.00  0.00    +0.000 C 
ATOM     76  F14 UNL A   1      22.787  32.073  42.818  1.00  0.00    +0.000 F 
ATOM     77  C55 UNL A   1      22.694  33.627  44.600  1.00  0.00    +0.000 C 
ATOM     78  F15 UNL A   1      22.626  34.627  43.708  1.00  0.00    +0.000 F 
ENDBRANCH   67   68
TORSDOF 21
ENDMDL
