MODEL 1
REMARK VINA RESULT:      -8.7      0.000      0.000
ROOT
ATOM    148  H44 UNL A   1      42.189  22.195  29.821  1.00  0.00    +0.000 H 
ATOM    149  H45 UNL A   1      43.277  23.385  31.933  1.00  0.00    +0.000 H 
ATOM    150  H46 UNL A   1      45.662  23.980  28.699  1.00  0.00    +0.000 H 
ATOM    151  H47 UNL A   1      43.905  31.638  30.070  1.00  0.00    +0.000 H 
ATOM    152  H48 UNL A   1      41.590  30.634  29.716  1.00  0.00    +0.000 H 
ATOM    153  H49 UNL A   1      44.346  27.581  29.119  1.00  0.00    +0.000 H 
ATOM    154  H50 UNL A   1      47.280  27.883  27.728  1.00  0.00    +0.000 H 
ATOM    155  H51 UNL A   1      46.740  25.468  28.453  1.00  0.00    +0.000 H 
ATOM    156  H52 UNL A   1      41.703  24.834  25.228  1.00  0.00    +0.000 H 
ATOM    157  H53 UNL A   1      41.218  27.313  25.715  1.00  0.00    +0.000 H 
ATOM     37  C32 UNL A   1      41.672  28.029  28.457  1.00  0.00    +0.000 C 
ATOM     38  C33 UNL A   1      41.958  26.730  27.781  1.00  0.00    +0.000 C 
ATOM     39  N3  UNL A   1      42.372  25.627  28.318  1.00  0.00    +0.000 N 
ATOM     40  C34 UNL A   1      42.515  24.723  27.266  1.00  0.00    +0.000 C 
ATOM     41  C35 UNL A   1      43.340  23.646  27.361  1.00  0.00    +0.000 C 
ATOM     53  C42 UNL A   1      43.661  23.344  28.728  1.00  0.00    +0.000 C 
ATOM     54  C43 UNL A   1      42.972  22.866  29.821  1.00  0.00    +0.000 C 
ATOM     55  C44 UNL A   1      43.573  23.496  30.951  1.00  0.00    +0.000 C 
ATOM     56  C45 UNL A   1      44.630  24.288  30.499  1.00  0.00    +0.000 C 
ATOM     57  N4  UNL A   1      44.823  23.889  29.205  1.00  0.00    +0.000 N 
ATOM     58  C46 UNL A   1      45.332  25.406  31.090  1.00  0.00    +0.000 C 
ATOM     70  C53 UNL A   1      46.129  26.281  30.411  1.00  0.00    +0.000 C 
ATOM     71  N5  UNL A   1      46.320  27.567  30.890  1.00  0.00    +0.000 N 
ATOM     72  C54 UNL A   1      46.527  28.286  29.822  1.00  0.00    +0.000 C 
ATOM     73  C55 UNL A   1      46.046  29.679  29.665  1.00  0.00    +0.000 C 
ATOM     85  C62 UNL A   1      44.693  29.621  29.614  1.00  0.00    +0.000 C 
ATOM     86  C63 UNL A   1      43.706  30.661  29.801  1.00  0.00    +0.000 C 
ATOM     87  C64 UNL A   1      42.485  30.142  29.565  1.00  0.00    +0.000 C 
ATOM     88  C65 UNL A   1      42.621  28.773  29.062  1.00  0.00    +0.000 C 
ATOM     89  N6  UNL A   1      43.957  28.478  29.239  1.00  0.00    +0.000 N 
ATOM     90  C66 UNL A   1      46.903  27.548  28.630  1.00  0.00    +0.000 C 
ATOM     91  C67 UNL A   1      46.622  26.310  29.039  1.00  0.00    +0.000 C 
ATOM     92  C68 UNL A   1      41.893  25.323  26.116  1.00  0.00    +0.000 C 
ATOM     93  C69 UNL A   1      41.598  26.601  26.358  1.00  0.00    +0.000 C 
ENDROOT
BRANCH   37   36
ATOM     33  C28 UNL A   1      37.699  29.451  27.973  1.00  0.00    +0.000 C 
ATOM     34  C29 UNL A   1      38.678  29.712  27.013  1.00  0.00    +0.000 C 
ATOM     35  C30 UNL A   1      39.965  29.217  27.167  1.00  0.00    +0.000 C 
ATOM     36  C31 UNL A   1      40.295  28.486  28.309  1.00  0.00    +0.000 C 
ATOM    146  H42 UNL A   1      38.443  30.279  26.182  1.00  0.00    +0.000 H 
ATOM    147  H43 UNL A   1      40.676  29.388  26.439  1.00  0.00    +0.000 H 
ATOM    158  H54 UNL A   1      39.634  27.842  30.206  1.00  0.00    +0.000 H 
ATOM    159  H55 UNL A   1      37.371  28.627  29.892  1.00  0.00    +0.000 H 
ATOM     94  C70 UNL A   1      39.365  28.312  29.328  1.00  0.00    +0.000 C 
ATOM     95  C71 UNL A   1      38.072  28.778  29.149  1.00  0.00    +0.000 C 
BRANCH   33   31
ATOM     31  C27 UNL A   1      36.259  29.794  27.865  1.00  0.00    +0.000 C 
ATOM     32  O2  UNL A   1      35.436  28.882  27.756  1.00  0.00    +0.000 O 
BRANCH   31   30
ATOM    145  H41 UNL A   1      35.553  31.361  26.915  1.00  0.00    +0.000 H 
ATOM     30  N2  UNL A   1      35.760  31.061  27.829  1.00  0.00    +0.000 N 
BRANCH   30   29
ATOM     29  C26 UNL A   1      35.463  32.063  28.827  1.00  0.00    +0.000 C 
ATOM    143  H39 UNL A   1      34.831  32.807  28.388  1.00  0.00    +0.000 H 
ATOM    144  H40 UNL A   1      34.985  31.569  29.648  1.00  0.00    +0.000 H 
BRANCH   29   28
ATOM     28  C25 UNL A   1      36.717  32.748  29.371  1.00  0.00    +0.000 C 
ATOM    141  H37 UNL A   1      37.465  32.743  28.606  1.00  0.00    +0.000 H 
ATOM    142  H38 UNL A   1      36.438  33.741  29.655  1.00  0.00    +0.000 H 
BRANCH   28   27
ATOM     27  C24 UNL A   1      37.291  32.062  30.619  1.00  0.00    +0.000 C 
ATOM    140  H36 UNL A   1      37.617  32.845  31.272  1.00  0.00    +0.000 H 
ATOM    139  H35 UNL A   1      38.084  31.415  30.309  1.00  0.00    +0.000 H 
BRANCH   27   26
ATOM    137  H33 UNL A   1      35.362  31.780  31.481  1.00  0.00    +0.000 H 
ATOM     26  C23 UNL A   1      36.276  31.228  31.415  1.00  0.00    +0.000 C 
ATOM    138  H34 UNL A   1      36.153  30.302  30.893  1.00  0.00    +0.000 H 
BRANCH   26   25
ATOM     25  C22 UNL A   1      36.738  30.891  32.822  1.00  0.00    +0.000 C 
ATOM    135  H31 UNL A   1      37.344  31.691  33.194  1.00  0.00    +0.000 H 
ATOM    136  H32 UNL A   1      35.879  30.758  33.447  1.00  0.00    +0.000 H 
BRANCH   25   24
ATOM    133  H29 UNL A   1      36.960  28.838  33.269  1.00  0.00    +0.000 H 
ATOM    134  H30 UNL A   1      37.792  29.375  31.813  1.00  0.00    +0.000 H 
ATOM     24  C21 UNL A   1      37.543  29.617  32.823  1.00  0.00    +0.000 C 
BRANCH   24   23
ATOM    132  H28 UNL A   1      38.781  29.395  34.484  1.00  0.00    +0.000 H 
ATOM     23  N1  UNL A   1      38.778  29.770  33.574  1.00  0.00    +0.000 N 
BRANCH   23   21
ATOM     21  C20 UNL A   1      39.943  30.379  33.162  1.00  0.00    +0.000 C 
ATOM     22  O1  UNL A   1      40.128  30.469  31.965  1.00  0.00    +0.000 O 
BRANCH   21   18
ATOM     18  C17 UNL A   1      41.014  30.646  34.228  1.00  0.00    +0.000 C 
BRANCH   18   17
ATOM     17  C16 UNL A   1      41.111  32.049  34.895  1.00  0.00    +0.000 C 
ATOM    124  H20 UNL A   1      41.245  31.899  35.946  1.00  0.00    +0.000 H 
ATOM    125  H21 UNL A   1      41.927  32.538  34.405  1.00  0.00    +0.000 H 
BRANCH   17   16
ATOM      4  C4  UNL A   1      35.986  34.793  33.275  1.00  0.00    +0.000 C 
ATOM      5  C5  UNL A   1      35.587  34.316  34.526  1.00  0.00    +0.000 C 
ATOM      6  C6  UNL A   1      36.492  33.709  35.405  1.00  0.00    +0.000 C 
ATOM      7  C7  UNL A   1      37.831  33.568  35.002  1.00  0.00    +0.000 C 
ATOM      8  C8  UNL A   1      38.296  34.099  33.787  1.00  0.00    +0.000 C 
ATOM      9  C9  UNL A   1      37.349  34.724  32.931  1.00  0.00    +0.000 C 
ATOM     10  C10 UNL A   1      39.710  33.820  33.678  1.00  0.00    +0.000 C 
ATOM    112  H8  UNL A   1      34.599  34.413  34.809  1.00  0.00    +0.000 H 
ATOM    113  H9  UNL A   1      36.182  33.372  36.331  1.00  0.00    +0.000 H 
ATOM    114  H10 UNL A   1      37.668  35.135  32.039  1.00  0.00    +0.000 H 
ATOM     16  C15 UNL A   1      39.966  32.940  34.719  1.00  0.00    +0.000 C 
ATOM     96  N7  UNL A   1      38.905  32.943  35.620  1.00  0.00    +0.000 N 
BRANCH    4    2
ATOM      2  C2  UNL A   1      34.940  35.368  32.333  1.00  0.00    +0.000 C 
ATOM    108  H4  UNL A   1      35.478  35.894  31.572  1.00  0.00    +0.000 H 
BRANCH    2    1
ATOM      1  C1  UNL A   1      34.122  34.253  31.684  1.00  0.00    +0.000 C 
ATOM    106  H2  UNL A   1      34.005  33.446  32.376  1.00  0.00    +0.000 H 
ATOM    107  H3  UNL A   1      34.629  33.902  30.809  1.00  0.00    +0.000 H 
ATOM    105  H1  UNL A   1      33.158  34.630  31.411  1.00  0.00    +0.000 H 
ENDBRANCH    2    1
BRANCH    2    3
ATOM      3  C3  UNL A   1      34.022  36.399  33.001  1.00  0.00    +0.000 C 
ATOM    109  H5  UNL A   1      34.560  36.906  33.776  1.00  0.00    +0.000 H 
ATOM    110  H6  UNL A   1      33.174  35.902  33.422  1.00  0.00    +0.000 H 
ATOM    111  H7  UNL A   1      33.694  37.110  32.271  1.00  0.00    +0.000 H 
ENDBRANCH    2    3
ENDBRANCH    4    2
BRANCH   10   11
ATOM     11  S1  UNL A   1      40.657  34.347  32.255  1.00  0.00    +0.000 S 
ATOM     12  C11 UNL A   1      42.493  34.726  32.414  1.00  0.00    +0.000 C 
ATOM     13  C12 UNL A   1      42.701  35.968  33.289  1.00  0.00    +0.000 C 
ATOM     14  C13 UNL A   1      43.579  33.689  32.795  1.00  0.00    +0.000 C 
ATOM     15  C14 UNL A   1      42.897  35.042  30.946  1.00  0.00    +0.000 C 
ATOM    115  H11 UNL A   1      42.421  35.744  34.297  1.00  0.00    +0.000 H 
ATOM    116  H12 UNL A   1      42.095  36.769  32.920  1.00  0.00    +0.000 H 
ATOM    117  H13 UNL A   1      43.730  36.257  33.259  1.00  0.00    +0.000 H 
ATOM    118  H14 UNL A   1      43.429  33.370  33.805  1.00  0.00    +0.000 H 
ATOM    119  H15 UNL A   1      44.548  34.136  32.702  1.00  0.00    +0.000 H 
ATOM    120  H16 UNL A   1      43.512  32.846  32.140  1.00  0.00    +0.000 H 
ATOM    121  H17 UNL A   1      42.221  35.764  30.538  1.00  0.00    +0.000 H 
ATOM    122  H18 UNL A   1      42.857  34.146  30.364  1.00  0.00    +0.000 H 
ATOM    123  H19 UNL A   1      43.893  35.436  30.927  1.00  0.00    +0.000 H 
ENDBRANCH   10   11
BRANCH   96   97
ATOM     97  C72 UNL A   1      38.940  32.552  37.060  1.00  0.00    +0.000 C 
ATOM    161  H57 UNL A   1      37.910  32.416  37.316  1.00  0.00    +0.000 H 
ATOM    160  H56 UNL A   1      39.567  31.689  37.137  1.00  0.00    +0.000 H 
BRANCH   97   98
ATOM     98  C73 UNL A   1      39.442  33.562  38.087  1.00  0.00    +0.000 C 
ATOM     99  C74 UNL A   1      40.193  33.158  39.211  1.00  0.00    +0.000 C 
ATOM    100  C75 UNL A   1      40.442  34.031  40.277  1.00  0.00    +0.000 C 
ATOM    162  H58 UNL A   1      40.568  32.198  39.248  1.00  0.00    +0.000 H 
ATOM    165  H61 UNL A   1      38.715  35.286  37.103  1.00  0.00    +0.000 H 
ATOM    103  C77 UNL A   1      39.468  35.828  39.004  1.00  0.00    +0.000 C 
ATOM    104  C78 UNL A   1      39.158  34.932  37.965  1.00  0.00    +0.000 C 
ATOM    163  H59 UNL A   1      40.914  33.690  41.128  1.00  0.00    +0.000 H 
ATOM    164  H60 UNL A   1      39.264  36.834  38.894  1.00  0.00    +0.000 H 
ATOM    101  C76 UNL A   1      40.049  35.360  40.179  1.00  0.00    +0.000 C 
ATOM    102 Cl1  UNL A   1      40.251  36.408  41.530  1.00  0.00    +0.000 Cl
ENDBRANCH   97   98
ENDBRANCH   96   97
ENDBRANCH   17   16
ENDBRANCH   18   17
BRANCH   18   19
ATOM     19  C18 UNL A   1      42.237  30.387  33.300  1.00  0.00    +0.000 C 
ATOM    126  H22 UNL A   1      42.054  29.517  32.704  1.00  0.00    +0.000 H 
ATOM    127  H23 UNL A   1      43.112  30.233  33.897  1.00  0.00    +0.000 H 
ATOM    128  H24 UNL A   1      42.385  31.232  32.661  1.00  0.00    +0.000 H 
ENDBRANCH   18   19
BRANCH   18   20
ATOM    129  H25 UNL A   1      39.758  30.060  35.894  1.00  0.00    +0.000 H 
ATOM    130  H26 UNL A   1      41.467  29.856  36.195  1.00  0.00    +0.000 H 
ATOM    131  H27 UNL A   1      40.622  28.730  35.161  1.00  0.00    +0.000 H 
ATOM     20  C19 UNL A   1      40.690  29.752  35.467  1.00  0.00    +0.000 C 
ENDBRANCH   18   20
ENDBRANCH   21   18
ENDBRANCH   23   21
ENDBRANCH   24   23
ENDBRANCH   25   24
ENDBRANCH   26   25
ENDBRANCH   27   26
ENDBRANCH   28   27
ENDBRANCH   29   28
ENDBRANCH   30   29
ENDBRANCH   31   30
ENDBRANCH   33   31
ENDBRANCH   37   36
BRANCH   41   42
ATOM     42  C36 UNL A   1      44.178  23.135  26.214  1.00  0.00    +0.000 C 
ATOM     43  C37 UNL A   1      44.153  21.767  25.881  1.00  0.00    +0.000 C 
ATOM     44  F1  UNL A   1      43.230  20.952  26.415  1.00  0.00    +0.000 F 
ATOM     45  C38 UNL A   1      45.127  21.192  25.058  1.00  0.00    +0.000 C 
ATOM     46  F2  UNL A   1      45.126  19.868  24.851  1.00  0.00    +0.000 F 
ATOM     47  C39 UNL A   1      46.129  21.968  24.505  1.00  0.00    +0.000 C 
ATOM     48  F3  UNL A   1      47.089  21.411  23.756  1.00  0.00    +0.000 F 
ATOM     49  C40 UNL A   1      46.164  23.319  24.776  1.00  0.00    +0.000 C 
ATOM     50  F4  UNL A   1      47.145  24.083  24.277  1.00  0.00    +0.000 F 
ATOM     51  C41 UNL A   1      45.225  23.886  25.636  1.00  0.00    +0.000 C 
ATOM     52  F5  UNL A   1      45.449  25.163  25.971  1.00  0.00    +0.000 F 
ENDBRANCH   41   42
BRANCH   58   59
ATOM     65  F8  UNL A   1      44.034  26.269  36.526  1.00  0.00    +0.000 F 
ATOM     66  C51 UNL A   1      45.438  25.337  34.873  1.00  0.00    +0.000 C 
ATOM     67  F9  UNL A   1      46.164  24.721  35.816  1.00  0.00    +0.000 F 
ATOM     68  C52 UNL A   1      45.764  25.167  33.531  1.00  0.00    +0.000 C 
ATOM     69  F10 UNL A   1      46.812  24.392  33.217  1.00  0.00    +0.000 F 
ATOM     59  C47 UNL A   1      44.989  25.745  32.514  1.00  0.00    +0.000 C 
ATOM     60  C48 UNL A   1      43.873  26.507  32.902  1.00  0.00    +0.000 C 
ATOM     61  F6  UNL A   1      43.037  27.016  31.986  1.00  0.00    +0.000 F 
ATOM     62  C49 UNL A   1      43.573  26.709  34.250  1.00  0.00    +0.000 C 
ATOM     63  F7  UNL A   1      42.510  27.448  34.598  1.00  0.00    +0.000 F 
ATOM     64  C50 UNL A   1      44.350  26.114  35.233  1.00  0.00    +0.000 C 
ENDBRANCH   58   59
BRANCH   73   74
ATOM     74  C56 UNL A   1      46.944  30.775  29.230  1.00  0.00    +0.000 C 
ATOM     75  C57 UNL A   1      46.935  31.224  27.897  1.00  0.00    +0.000 C 
ATOM     76  F11 UNL A   1      46.309  30.509  26.950  1.00  0.00    +0.000 F 
ATOM     77  C58 UNL A   1      47.494  32.453  27.532  1.00  0.00    +0.000 C 
ATOM     78  F12 UNL A   1      47.398  32.882  26.266  1.00  0.00    +0.000 F 
ATOM     79  C59 UNL A   1      48.088  33.262  28.486  1.00  0.00    +0.000 C 
ATOM     80  F13 UNL A   1      48.558  34.471  28.153  1.00  0.00    +0.000 F 
ATOM     81  C60 UNL A   1      48.150  32.831  29.799  1.00  0.00    +0.000 C 
ATOM     82  F14 UNL A   1      48.690  33.620  30.738  1.00  0.00    +0.000 F 
ATOM     83  C61 UNL A   1      47.587  31.607  30.165  1.00  0.00    +0.000 C 
ATOM     84  F15 UNL A   1      47.595  31.299  31.470  1.00  0.00    +0.000 F 
ENDBRANCH   73   74
TORSDOF 25
ENDMDL
MODEL 2
REMARK VINA RESULT:      -8.7     38.642     44.453
ROOT
ATOM    148  H44 UNL A   1      12.763  55.380   9.593  1.00  0.00    +0.000 H 
ATOM    149  H45 UNL A   1      14.504  53.437  10.099  1.00  0.00    +0.000 H 
ATOM    150  H46 UNL A   1      12.579  54.425  13.538  1.00  0.00    +0.000 H 
ATOM    151  H47 UNL A   1      10.068  46.865  13.117  1.00  0.00    +0.000 H 
ATOM    152  H48 UNL A   1       9.208  47.817  10.916  1.00  0.00    +0.000 H 
ATOM    153  H49 UNL A   1      11.011  50.945  12.974  1.00  0.00    +0.000 H 
ATOM    154  H50 UNL A   1      10.950  51.415  16.200  1.00  0.00    +0.000 H 
ATOM    155  H51 UNL A   1      12.249  53.243  14.929  1.00  0.00    +0.000 H 
ATOM    156  H52 UNL A   1       7.752  54.993  11.339  1.00  0.00    +0.000 H 
ATOM    157  H53 UNL A   1       7.010  52.531  11.264  1.00  0.00    +0.000 H 
ATOM     37  C32 UNL A   1       9.193  50.711  10.869  1.00  0.00    +0.000 C 
ATOM     38  C33 UNL A   1       9.247  52.186  11.085  1.00  0.00    +0.000 C 
ATOM     39  N3  UNL A   1      10.283  52.962  11.033  1.00  0.00    +0.000 N 
ATOM     40  C34 UNL A   1       9.816  54.239  11.337  1.00  0.00    +0.000 C 
ATOM     41  C35 UNL A   1      10.645  55.203  11.821  1.00  0.00    +0.000 C 
ATOM     53  C42 UNL A   1      12.023  54.892  11.568  1.00  0.00    +0.000 C 
ATOM     54  C43 UNL A   1      12.828  54.813  10.452  1.00  0.00    +0.000 C 
ATOM     55  C44 UNL A   1      13.770  53.781  10.738  1.00  0.00    +0.000 C 
ATOM     56  C45 UNL A   1      13.528  53.314  12.031  1.00  0.00    +0.000 C 
ATOM     57  N4  UNL A   1      12.688  54.247  12.576  1.00  0.00    +0.000 N 
ATOM     58  C46 UNL A   1      13.879  52.084  12.705  1.00  0.00    +0.000 C 
ATOM     70  C53 UNL A   1      13.309  51.630  13.860  1.00  0.00    +0.000 C 
ATOM     71  N5  UNL A   1      13.294  50.275  14.145  1.00  0.00    +0.000 N 
ATOM     72  C54 UNL A   1      12.220  50.104  14.864  1.00  0.00    +0.000 C 
ATOM     73  C55 UNL A   1      11.361  48.900  14.785  1.00  0.00    +0.000 C 
ATOM     85  C62 UNL A   1      10.785  48.912  13.558  1.00  0.00    +0.000 C 
ATOM     86  C63 UNL A   1      10.137  47.851  12.819  1.00  0.00    +0.000 C 
ATOM     87  C64 UNL A   1       9.638  48.365  11.677  1.00  0.00    +0.000 C 
ATOM     88  C65 UNL A   1       9.800  49.821  11.681  1.00  0.00    +0.000 C 
ATOM     89  N6  UNL A   1      10.608  50.070  12.771  1.00  0.00    +0.000 N 
ATOM     90  C66 UNL A   1      11.669  51.305  15.467  1.00  0.00    +0.000 C 
ATOM     91  C67 UNL A   1      12.365  52.226  14.798  1.00  0.00    +0.000 C 
ATOM     92  C68 UNL A   1       8.379  54.174  11.306  1.00  0.00    +0.000 C 
ATOM     93  C69 UNL A   1       7.970  52.908  11.230  1.00  0.00    +0.000 C 
ENDROOT
BRANCH   37   36
ATOM     33  C28 UNL A   1       6.740  49.588   7.588  1.00  0.00    +0.000 C 
ATOM     34  C29 UNL A   1       8.091  49.883   7.407  1.00  0.00    +0.000 C 
ATOM     35  C30 UNL A   1       8.891  50.219   8.491  1.00  0.00    +0.000 C 
ATOM     36  C31 UNL A   1       8.330  50.303   9.766  1.00  0.00    +0.000 C 
ATOM    146  H42 UNL A   1       8.501  49.851   6.459  1.00  0.00    +0.000 H 
ATOM    147  H43 UNL A   1       9.896  50.406   8.354  1.00  0.00    +0.000 H 
ATOM    158  H54 UNL A   1       6.538  50.266  10.878  1.00  0.00    +0.000 H 
ATOM    159  H55 UNL A   1       5.170  49.591   9.004  1.00  0.00    +0.000 H 
ATOM     94  C70 UNL A   1       6.964  50.124   9.948  1.00  0.00    +0.000 C 
ATOM     95  C71 UNL A   1       6.180  49.751   8.867  1.00  0.00    +0.000 C 
BRANCH   33   31
ATOM     31  C27 UNL A   1       5.812  49.078   6.548  1.00  0.00    +0.000 C 
ATOM     32  O2  UNL A   1       5.296  49.879   5.765  1.00  0.00    +0.000 O 
BRANCH   31   30
ATOM    145  H41 UNL A   1       5.632  47.419   5.512  1.00  0.00    +0.000 H 
ATOM     30  N2  UNL A   1       5.437  47.776   6.408  1.00  0.00    +0.000 N 
BRANCH   30   29
ATOM     29  C26 UNL A   1       4.820  46.799   7.275  1.00  0.00    +0.000 C 
ATOM    143  H39 UNL A   1       4.469  47.295   8.156  1.00  0.00    +0.000 H 
ATOM    144  H40 UNL A   1       4.020  46.344   6.730  1.00  0.00    +0.000 H 
BRANCH   29   28
ATOM     28  C25 UNL A   1       5.782  45.685   7.694  1.00  0.00    +0.000 C 
ATOM    141  H37 UNL A   1       5.206  44.831   7.983  1.00  0.00    +0.000 H 
ATOM    142  H38 UNL A   1       6.414  45.481   6.856  1.00  0.00    +0.000 H 
BRANCH   28   27
ATOM     27  C24 UNL A   1       6.692  46.079   8.866  1.00  0.00    +0.000 C 
ATOM    140  H36 UNL A   1       6.678  45.257   9.551  1.00  0.00    +0.000 H 
ATOM    139  H35 UNL A   1       6.316  46.986   9.291  1.00  0.00    +0.000 H 
BRANCH   27   26
ATOM    137  H33 UNL A   1       8.453  47.279   8.814  1.00  0.00    +0.000 H 
ATOM     26  C23 UNL A   1       8.164  46.303   8.486  1.00  0.00    +0.000 C 
ATOM    138  H34 UNL A   1       8.732  45.531   8.960  1.00  0.00    +0.000 H 
BRANCH   26   25
ATOM     25  C22 UNL A   1       8.426  46.199   6.993  1.00  0.00    +0.000 C 
ATOM    135  H31 UNL A   1       7.522  45.914   6.496  1.00  0.00    +0.000 H 
ATOM    136  H32 UNL A   1       8.760  47.150   6.633  1.00  0.00    +0.000 H 
BRANCH   25   24
ATOM    133  H29 UNL A   1       9.219  44.250   7.187  1.00  0.00    +0.000 H 
ATOM    134  H30 UNL A   1       9.570  45.045   5.655  1.00  0.00    +0.000 H 
ATOM     24  C21 UNL A   1       9.492  45.171   6.714  1.00  0.00    +0.000 C 
BRANCH   24   23
ATOM    132  H28 UNL A   1      10.903  45.555   8.197  1.00  0.00    +0.000 H 
ATOM     23  N1  UNL A   1      10.785  45.597   7.221  1.00  0.00    +0.000 N 
BRANCH   23   21
ATOM     21  C20 UNL A   1      11.864  46.051   6.496  1.00  0.00    +0.000 C 
ATOM     22  O1  UNL A   1      12.430  45.248   5.780  1.00  0.00    +0.000 O 
BRANCH   21   18
ATOM     18  C17 UNL A   1      12.419  47.438   6.849  1.00  0.00    +0.000 C 
BRANCH   18   17
ATOM     17  C16 UNL A   1      12.025  48.673   5.988  1.00  0.00    +0.000 C 
ATOM    124  H20 UNL A   1      11.020  48.526   5.652  1.00  0.00    +0.000 H 
ATOM    125  H21 UNL A   1      12.164  49.518   6.629  1.00  0.00    +0.000 H 
BRANCH   17   16
ATOM      4  C4  UNL A   1      16.337  49.021   1.780  1.00  0.00    +0.000 C 
ATOM      5  C5  UNL A   1      15.480  48.125   1.135  1.00  0.00    +0.000 C 
ATOM      6  C6  UNL A   1      14.217  47.815   1.650  1.00  0.00    +0.000 C 
ATOM      7  C7  UNL A   1      13.814  48.416   2.856  1.00  0.00    +0.000 C 
ATOM      8  C8  UNL A   1      14.608  49.380   3.501  1.00  0.00    +0.000 C 
ATOM      9  C9  UNL A   1      15.877  49.680   2.936  1.00  0.00    +0.000 C 
ATOM     10  C10 UNL A   1      13.911  49.826   4.686  1.00  0.00    +0.000 C 
ATOM    112  H8  UNL A   1      15.789  47.679   0.257  1.00  0.00    +0.000 H 
ATOM    113  H9  UNL A   1      13.592  47.159   1.155  1.00  0.00    +0.000 H 
ATOM    114  H10 UNL A   1      16.473  50.395   3.382  1.00  0.00    +0.000 H 
ATOM     16  C15 UNL A   1      12.850  48.943   4.812  1.00  0.00    +0.000 C 
ATOM     96  N7  UNL A   1      12.676  48.232   3.627  1.00  0.00    +0.000 N 
BRANCH    4    2
ATOM      2  C2  UNL A   1      17.729  49.254   1.214  1.00  0.00    +0.000 C 
ATOM    108  H4  UNL A   1      18.417  48.913   1.959  1.00  0.00    +0.000 H 
BRANCH    2    1
ATOM      1  C1  UNL A   1      17.938  48.443  -0.064  1.00  0.00    +0.000 C 
ATOM    106  H2  UNL A   1      17.019  48.393  -0.609  1.00  0.00    +0.000 H 
ATOM    107  H3  UNL A   1      18.257  47.454   0.190  1.00  0.00    +0.000 H 
ATOM    105  H1  UNL A   1      18.685  48.915  -0.668  1.00  0.00    +0.000 H 
ENDBRANCH    2    1
BRANCH    2    3
ATOM      3  C3  UNL A   1      18.050  50.735   0.979  1.00  0.00    +0.000 C 
ATOM    109  H5  UNL A   1      18.484  51.150   1.865  1.00  0.00    +0.000 H 
ATOM    110  H6  UNL A   1      17.150  51.261   0.741  1.00  0.00    +0.000 H 
ATOM    111  H7  UNL A   1      18.741  50.825   0.167  1.00  0.00    +0.000 H 
ENDBRANCH    2    3
ENDBRANCH    4    2
BRANCH   10   11
ATOM     11  S1  UNL A   1      14.615  51.061   5.772  1.00  0.00    +0.000 S 
ATOM     12  C11 UNL A   1      13.503  52.172   6.806  1.00  0.00    +0.000 C 
ATOM     13  C12 UNL A   1      12.701  53.109   5.896  1.00  0.00    +0.000 C 
ATOM     14  C13 UNL A   1      12.558  51.675   7.929  1.00  0.00    +0.000 C 
ATOM     15  C14 UNL A   1      14.530  52.993   7.635  1.00  0.00    +0.000 C 
ATOM    115  H11 UNL A   1      11.996  52.538   5.328  1.00  0.00    +0.000 H 
ATOM    116  H12 UNL A   1      13.368  53.617   5.231  1.00  0.00    +0.000 H 
ATOM    117  H13 UNL A   1      12.180  53.827   6.494  1.00  0.00    +0.000 H 
ATOM    118  H14 UNL A   1      11.778  51.080   7.502  1.00  0.00    +0.000 H 
ATOM    119  H15 UNL A   1      12.129  52.517   8.433  1.00  0.00    +0.000 H 
ATOM    120  H16 UNL A   1      13.114  51.087   8.628  1.00  0.00    +0.000 H 
ATOM    121  H17 UNL A   1      15.265  53.411   6.980  1.00  0.00    +0.000 H 
ATOM    122  H18 UNL A   1      15.009  52.353   8.347  1.00  0.00    +0.000 H 
ATOM    123  H19 UNL A   1      14.023  53.783   8.151  1.00  0.00    +0.000 H 
ENDBRANCH   10   11
BRANCH   96   97
ATOM     97  C72 UNL A   1      11.429  47.564   3.147  1.00  0.00    +0.000 C 
ATOM    161  H57 UNL A   1      11.633  47.345   2.120  1.00  0.00    +0.000 H 
ATOM    160  H56 UNL A   1      11.255  46.726   3.788  1.00  0.00    +0.000 H 
BRANCH   97   98
ATOM     98  C73 UNL A   1      10.134  48.367   3.099  1.00  0.00    +0.000 C 
ATOM     99  C74 UNL A   1       8.954  47.900   3.716  1.00  0.00    +0.000 C 
ATOM    100  C75 UNL A   1       7.713  48.499   3.469  1.00  0.00    +0.000 C 
ATOM    162  H58 UNL A   1       9.008  47.100   4.364  1.00  0.00    +0.000 H 
ATOM    165  H61 UNL A   1      10.920  50.030   2.056  1.00  0.00    +0.000 H 
ATOM    103  C77 UNL A   1       8.822  50.238   2.227  1.00  0.00    +0.000 C 
ATOM    104  C78 UNL A   1      10.058  49.595   2.419  1.00  0.00    +0.000 C 
ATOM    163  H59 UNL A   1       6.851  48.087   3.858  1.00  0.00    +0.000 H 
ATOM    164  H60 UNL A   1       8.785  51.145   1.736  1.00  0.00    +0.000 H 
ATOM    101  C76 UNL A   1       7.650  49.652   2.698  1.00  0.00    +0.000 C 
ATOM    102 Cl1  UNL A   1       6.117  50.326   2.298  1.00  0.00    +0.000 Cl
ENDBRANCH   97   98
ENDBRANCH   96   97
ENDBRANCH   17   16
ENDBRANCH   18   17
BRANCH   18   19
ATOM     19  C18 UNL A   1      13.918  47.072   6.644  1.00  0.00    +0.000 C 
ATOM    126  H22 UNL A   1      13.995  46.252   5.961  1.00  0.00    +0.000 H 
ATOM    127  H23 UNL A   1      14.349  46.794   7.584  1.00  0.00    +0.000 H 
ATOM    128  H24 UNL A   1      14.441  47.917   6.249  1.00  0.00    +0.000 H 
ENDBRANCH   18   19
BRANCH   18   20
ATOM    129  H25 UNL A   1      11.241  48.734   8.126  1.00  0.00    +0.000 H 
ATOM    130  H26 UNL A   1      12.632  48.037   8.922  1.00  0.00    +0.000 H 
ATOM    131  H27 UNL A   1      11.219  47.057   8.614  1.00  0.00    +0.000 H 
ATOM     20  C19 UNL A   1      11.832  47.848   8.238  1.00  0.00    +0.000 C 
ENDBRANCH   18   20
ENDBRANCH   21   18
ENDBRANCH   23   21
ENDBRANCH   24   23
ENDBRANCH   25   24
ENDBRANCH   26   25
ENDBRANCH   27   26
ENDBRANCH   28   27
ENDBRANCH   29   28
ENDBRANCH   30   29
ENDBRANCH   31   30
ENDBRANCH   33   31
ENDBRANCH   37   36
BRANCH   41   42
ATOM     42  C36 UNL A   1      10.234  56.201  12.877  1.00  0.00    +0.000 C 
ATOM     43  C37 UNL A   1      10.502  57.571  12.690  1.00  0.00    +0.000 C 
ATOM     44  F1  UNL A   1      10.909  58.030  11.496  1.00  0.00    +0.000 F 
ATOM     45  C38 UNL A   1      10.439  58.484  13.747  1.00  0.00    +0.000 C 
ATOM     46  F2  UNL A   1      10.803  59.759  13.549  1.00  0.00    +0.000 F 
ATOM     47  C39 UNL A   1      10.063  58.071  15.013  1.00  0.00    +0.000 C 
ATOM     48  F3  UNL A   1      10.048  58.935  16.036  1.00  0.00    +0.000 F 
ATOM     49  C40 UNL A   1       9.755  56.745  15.226  1.00  0.00    +0.000 C 
ATOM     50  F4  UNL A   1       9.421  56.318  16.452  1.00  0.00    +0.000 F 
ATOM     51  C41 UNL A   1       9.866  55.823  14.187  1.00  0.00    +0.000 C 
ATOM     52  F5  UNL A   1       9.715  54.540  14.537  1.00  0.00    +0.000 F 
ENDBRANCH   41   42
BRANCH   58   59
ATOM     65  F8  UNL A   1      17.495  48.876   9.771  1.00  0.00    +0.000 F 
ATOM     66  C51 UNL A   1      17.076  50.563  11.368  1.00  0.00    +0.000 C 
ATOM     67  F9  UNL A   1      18.390  50.799  11.486  1.00  0.00    +0.000 F 
ATOM     68  C52 UNL A   1      16.171  51.316  12.110  1.00  0.00    +0.000 C 
ATOM     69  F10 UNL A   1      16.646  52.259  12.937  1.00  0.00    +0.000 F 
ATOM     59  C47 UNL A   1      14.787  51.141  11.966  1.00  0.00    +0.000 C 
ATOM     60  C48 UNL A   1      14.348  50.172  11.048  1.00  0.00    +0.000 C 
ATOM     61  F6  UNL A   1      13.042  50.010  10.792  1.00  0.00    +0.000 F 
ATOM     62  C49 UNL A   1      15.258  49.390  10.336  1.00  0.00    +0.000 C 
ATOM     63  F7  UNL A   1      14.818  48.463   9.473  1.00  0.00    +0.000 F 
ATOM     64  C50 UNL A   1      16.621  49.594  10.490  1.00  0.00    +0.000 C 
ENDBRANCH   58   59
BRANCH   73   74
ATOM     74  C56 UNL A   1      10.951  48.146  15.993  1.00  0.00    +0.000 C 
ATOM     75  C57 UNL A   1       9.736  48.434  16.642  1.00  0.00    +0.000 C 
ATOM     76  F11 UNL A   1       9.058  49.551  16.336  1.00  0.00    +0.000 F 
ATOM     77  C58 UNL A   1       9.159  47.542  17.550  1.00  0.00    +0.000 C 
ATOM     78  F12 UNL A   1       7.963  47.816  18.090  1.00  0.00    +0.000 F 
ATOM     79  C59 UNL A   1       9.784  46.341  17.845  1.00  0.00    +0.000 C 
ATOM     80  F13 UNL A   1       9.198  45.453  18.658  1.00  0.00    +0.000 F 
ATOM     81  C60 UNL A   1      11.000  46.046  17.256  1.00  0.00    +0.000 C 
ATOM     82  F14 UNL A   1      11.597  44.872  17.505  1.00  0.00    +0.000 F 
ATOM     83  C61 UNL A   1      11.574  46.934  16.344  1.00  0.00    +0.000 C 
ATOM     84  F15 UNL A   1      12.702  46.538  15.736  1.00  0.00    +0.000 F 
ENDBRANCH   73   74
TORSDOF 25
ENDMDL
MODEL 3
REMARK VINA RESULT:      -8.6     30.543     35.775
ROOT
ATOM    148  H44 UNL A   1      18.974  14.268   7.597  1.00  0.00    +0.000 H 
ATOM    149  H45 UNL A   1      20.469  15.195   9.590  1.00  0.00    +0.000 H 
ATOM    150  H46 UNL A   1      22.869  13.372   6.866  1.00  0.00    +0.000 H 
ATOM    151  H47 UNL A   1      25.976  20.689   6.202  1.00  0.00    +0.000 H 
ATOM    152  H48 UNL A   1      23.537  21.108   5.598  1.00  0.00    +0.000 H 
ATOM    153  H49 UNL A   1      23.948  17.022   6.238  1.00  0.00    +0.000 H 
ATOM    154  H50 UNL A   1      26.536  15.202   5.452  1.00  0.00    +0.000 H 
ATOM    155  H51 UNL A   1      24.632  13.847   6.541  1.00  0.00    +0.000 H 
ATOM    156  H52 UNL A   1      20.352  15.244   2.553  1.00  0.00    +0.000 H 
ATOM    157  H53 UNL A   1      21.423  17.578   2.396  1.00  0.00    +0.000 H 
ATOM     37  C32 UNL A   1      22.100  18.677   4.959  1.00  0.00    +0.000 C 
ATOM     38  C33 UNL A   1      21.582  17.313   4.646  1.00  0.00    +0.000 C 
ATOM     39  N3  UNL A   1      21.232  16.384   5.476  1.00  0.00    +0.000 N 
ATOM     40  C34 UNL A   1      20.851  15.298   4.691  1.00  0.00    +0.000 C 
ATOM     41  C35 UNL A   1      20.865  14.027   5.179  1.00  0.00    +0.000 C 
ATOM     53  C42 UNL A   1      20.886  14.012   6.615  1.00  0.00    +0.000 C 
ATOM     54  C43 UNL A   1      20.002  14.348   7.617  1.00  0.00    +0.000 C 
ATOM     55  C44 UNL A   1      20.813  14.828   8.689  1.00  0.00    +0.000 C 
ATOM     56  C45 UNL A   1      22.151  14.716   8.309  1.00  0.00    +0.000 C 
ATOM     57  N4  UNL A   1      22.122  13.921   7.196  1.00  0.00    +0.000 N 
ATOM     58  C46 UNL A   1      23.356  15.360   8.783  1.00  0.00    +0.000 C 
ATOM     70  C53 UNL A   1      24.546  15.392   8.115  1.00  0.00    +0.000 C 
ATOM     71  N5  UNL A   1      25.447  16.419   8.341  1.00  0.00    +0.000 N 
ATOM     72  C54 UNL A   1      26.086  16.548   7.212  1.00  0.00    +0.000 C 
ATOM     73  C55 UNL A   1      26.539  17.851   6.670  1.00  0.00    +0.000 C 
ATOM     85  C62 UNL A   1      25.422  18.551   6.354  1.00  0.00    +0.000 C 
ATOM     86  C63 UNL A   1      25.245  19.965   6.110  1.00  0.00    +0.000 C 
ATOM     87  C64 UNL A   1      23.966  20.180   5.742  1.00  0.00    +0.000 C 
ATOM     88  C65 UNL A   1      23.279  18.897   5.577  1.00  0.00    +0.000 C 
ATOM     89  N6  UNL A   1      24.166  17.970   6.084  1.00  0.00    +0.000 N 
ATOM     90  C66 UNL A   1      25.997  15.417   6.306  1.00  0.00    +0.000 C 
ATOM     91  C67 UNL A   1      25.015  14.736   6.899  1.00  0.00    +0.000 C 
ATOM     92  C68 UNL A   1      20.759  15.775   3.338  1.00  0.00    +0.000 C 
ATOM     93  C69 UNL A   1      21.276  17.000   3.239  1.00  0.00    +0.000 C 
ENDROOT
BRANCH   37   36
ATOM     33  C28 UNL A   1      19.608  21.768   3.448  1.00  0.00    +0.000 C 
ATOM     34  C29 UNL A   1      19.133  20.859   4.394  1.00  0.00    +0.000 C 
ATOM     35  C30 UNL A   1      19.965  19.872   4.903  1.00  0.00    +0.000 C 
ATOM     36  C31 UNL A   1      21.275  19.761   4.437  1.00  0.00    +0.000 C 
ATOM    146  H42 UNL A   1      18.154  20.921   4.718  1.00  0.00    +0.000 H 
ATOM    147  H43 UNL A   1      19.615  19.222   5.625  1.00  0.00    +0.000 H 
ATOM    158  H54 UNL A   1      22.673  20.448   3.014  1.00  0.00    +0.000 H 
ATOM    159  H55 UNL A   1      21.251  22.223   2.197  1.00  0.00    +0.000 H 
ATOM     94  C70 UNL A   1      21.731  20.585   3.414  1.00  0.00    +0.000 C 
ATOM     95  C71 UNL A   1      20.906  21.592   2.938  1.00  0.00    +0.000 C 
BRANCH   33   31
ATOM     31  C27 UNL A   1      18.877  22.951   2.932  1.00  0.00    +0.000 C 
ATOM     32  O2  UNL A   1      19.516  23.961   2.628  1.00  0.00    +0.000 O 
BRANCH   31   30
ATOM    145  H41 UNL A   1      17.091  23.431   3.593  1.00  0.00    +0.000 H 
ATOM     30  N2  UNL A   1      17.523  23.036   2.802  1.00  0.00    +0.000 N 
BRANCH   30   29
ATOM     29  C26 UNL A   1      16.579  22.680   1.768  1.00  0.00    +0.000 C 
ATOM    143  H39 UNL A   1      15.663  22.375   2.232  1.00  0.00    +0.000 H 
ATOM    144  H40 UNL A   1      16.442  23.540   1.147  1.00  0.00    +0.000 H 
BRANCH   29   28
ATOM     28  C25 UNL A   1      17.076  21.542   0.875  1.00  0.00    +0.000 C 
ATOM    141  H37 UNL A   1      18.065  21.779   0.543  1.00  0.00    +0.000 H 
ATOM    142  H38 UNL A   1      17.051  20.647   1.460  1.00  0.00    +0.000 H 
BRANCH   28   27
ATOM     27  C24 UNL A   1      16.190  21.307  -0.357  1.00  0.00    +0.000 C 
ATOM    140  H36 UNL A   1      16.763  21.618  -1.206  1.00  0.00    +0.000 H 
ATOM    139  H35 UNL A   1      15.288  21.866  -0.230  1.00  0.00    +0.000 H 
BRANCH   27   26
ATOM    137  H33 UNL A   1      14.782  19.708  -0.352  1.00  0.00    +0.000 H 
ATOM     26  C23 UNL A   1      15.813  19.838  -0.602  1.00  0.00    +0.000 C 
ATOM    138  H34 UNL A   1      16.011  19.631  -1.632  1.00  0.00    +0.000 H 
BRANCH   26   25
ATOM     25  C22 UNL A   1      16.635  18.857   0.217  1.00  0.00    +0.000 C 
ATOM    135  H31 UNL A   1      17.597  18.740  -0.235  1.00  0.00    +0.000 H 
ATOM    136  H32 UNL A   1      16.739  19.238   1.212  1.00  0.00    +0.000 H 
BRANCH   25   24
ATOM    133  H29 UNL A   1      15.712  17.200  -0.716  1.00  0.00    +0.000 H 
ATOM    134  H30 UNL A   1      16.611  16.821   0.750  1.00  0.00    +0.000 H 
ATOM     24  C21 UNL A   1      15.950  17.516   0.279  1.00  0.00    +0.000 C 
BRANCH   24   23
ATOM    132  H28 UNL A   1      13.935  17.941   0.593  1.00  0.00    +0.000 H 
ATOM     23  N1  UNL A   1      14.725  17.582   1.057  1.00  0.00    +0.000 N 
BRANCH   23   21
ATOM     21  C20 UNL A   1      14.539  17.200   2.367  1.00  0.00    +0.000 C 
ATOM     22  O1  UNL A   1      14.072  16.095   2.562  1.00  0.00    +0.000 O 
BRANCH   21   18
ATOM     18  C17 UNL A   1      14.682  18.283   3.445  1.00  0.00    +0.000 C 
BRANCH   18   17
ATOM     17  C16 UNL A   1      16.095  18.683   3.960  1.00  0.00    +0.000 C 
ATOM    124  H20 UNL A   1      16.787  17.944   3.613  1.00  0.00    +0.000 H 
ATOM    125  H21 UNL A   1      16.265  19.668   3.578  1.00  0.00    +0.000 H 
BRANCH   17   16
ATOM      4  C4  UNL A   1      15.456  18.847   9.958  1.00  0.00    +0.000 C 
ATOM      5  C5  UNL A   1      16.128  17.626   9.847  1.00  0.00    +0.000 C 
ATOM      6  C6  UNL A   1      16.649  17.181   8.628  1.00  0.00    +0.000 C 
ATOM      7  C7  UNL A   1      16.476  17.985   7.487  1.00  0.00    +0.000 C 
ATOM      8  C8  UNL A   1      15.875  19.253   7.563  1.00  0.00    +0.000 C 
ATOM      9  C9  UNL A   1      15.374  19.676   8.823  1.00  0.00    +0.000 C 
ATOM     10  C10 UNL A   1      15.873  19.836   6.240  1.00  0.00    +0.000 C 
ATOM    112  H8  UNL A   1      16.240  17.037  10.687  1.00  0.00    +0.000 H 
ATOM    113  H9  UNL A   1      17.152  16.282   8.566  1.00  0.00    +0.000 H 
ATOM    114  H10 UNL A   1      14.942  20.610   8.909  1.00  0.00    +0.000 H 
ATOM     16  C15 UNL A   1      16.260  18.798   5.407  1.00  0.00    +0.000 C 
ATOM     96  N7  UNL A   1      16.805  17.760   6.158  1.00  0.00    +0.000 N 
BRANCH    4    2
ATOM      2  C2  UNL A   1      14.841  19.236  11.293  1.00  0.00    +0.000 C 
ATOM    108  H4  UNL A   1      15.395  20.081  11.644  1.00  0.00    +0.000 H 
BRANCH    2    1
ATOM      1  C1  UNL A   1      13.377  19.638  11.121  1.00  0.00    +0.000 C 
ATOM    106  H2  UNL A   1      12.993  19.209  10.219  1.00  0.00    +0.000 H 
ATOM    107  H3  UNL A   1      13.304  20.704  11.069  1.00  0.00    +0.000 H 
ATOM    105  H1  UNL A   1      12.808  19.281  11.954  1.00  0.00    +0.000 H 
ENDBRANCH    2    1
BRANCH    2    3
ATOM      3  C3  UNL A   1      14.986  18.151  12.368  1.00  0.00    +0.000 C 
ATOM    109  H5  UNL A   1      15.713  18.460  13.090  1.00  0.00    +0.000 H 
ATOM    110  H6  UNL A   1      15.301  17.237  11.911  1.00  0.00    +0.000 H 
ATOM    111  H7  UNL A   1      14.043  18.002  12.853  1.00  0.00    +0.000 H 
ENDBRANCH    2    3
ENDBRANCH    4    2
BRANCH   10   11
ATOM     11  S1  UNL A   1      15.186  21.461   5.939  1.00  0.00    +0.000 S 
ATOM     12  C11 UNL A   1      14.088  22.289   7.222  1.00  0.00    +0.000 C 
ATOM     13  C12 UNL A   1      12.772  21.517   7.367  1.00  0.00    +0.000 C 
ATOM     14  C13 UNL A   1      14.550  22.712   8.639  1.00  0.00    +0.000 C 
ATOM     15  C14 UNL A   1      13.815  23.679   6.580  1.00  0.00    +0.000 C 
ATOM    115  H11 UNL A   1      12.967  20.562   7.809  1.00  0.00    +0.000 H 
ATOM    116  H12 UNL A   1      12.330  21.380   6.402  1.00  0.00    +0.000 H 
ATOM    117  H13 UNL A   1      12.101  22.069   7.991  1.00  0.00    +0.000 H 
ATOM    118  H14 UNL A   1      14.780  21.839   9.214  1.00  0.00    +0.000 H 
ATOM    119  H15 UNL A   1      13.768  23.262   9.120  1.00  0.00    +0.000 H 
ATOM    120  H16 UNL A   1      15.422  23.327   8.560  1.00  0.00    +0.000 H 
ATOM    121  H17 UNL A   1      13.479  23.547   5.573  1.00  0.00    +0.000 H 
ATOM    122  H18 UNL A   1      14.716  24.257   6.583  1.00  0.00    +0.000 H 
ATOM    123  H19 UNL A   1      13.062  24.191   7.143  1.00  0.00    +0.000 H 
ENDBRANCH   10   11
BRANCH   96   97
ATOM     97  C72 UNL A   1      17.752  16.705   5.690  1.00  0.00    +0.000 C 
ATOM    161  H57 UNL A   1      18.176  17.115   4.798  1.00  0.00    +0.000 H 
ATOM    160  H56 UNL A   1      18.430  16.512   6.495  1.00  0.00    +0.000 H 
BRANCH   97   98
ATOM     98  C73 UNL A   1      17.194  15.357   5.244  1.00  0.00    +0.000 C 
ATOM     99  C74 UNL A   1      17.228  14.957   3.891  1.00  0.00    +0.000 C 
ATOM    100  C75 UNL A   1      16.504  13.848   3.438  1.00  0.00    +0.000 C 
ATOM    162  H58 UNL A   1      17.801  15.494   3.222  1.00  0.00    +0.000 H 
ATOM    165  H61 UNL A   1      16.662  14.668   7.171  1.00  0.00    +0.000 H 
ATOM    103  C77 UNL A   1      15.933  13.317   5.716  1.00  0.00    +0.000 C 
ATOM    104  C78 UNL A   1      16.603  14.470   6.159  1.00  0.00    +0.000 C 
ATOM    163  H59 UNL A   1      16.470  13.626   2.431  1.00  0.00    +0.000 H 
ATOM    164  H60 UNL A   1      15.514  12.669   6.401  1.00  0.00    +0.000 H 
ATOM    101  C76 UNL A   1      15.832  13.048   4.353  1.00  0.00    +0.000 C 
ATOM    102 Cl1  UNL A   1      14.849  11.752   3.790  1.00  0.00    +0.000 Cl
ENDBRANCH   97   98
ENDBRANCH   96   97
ENDBRANCH   17   16
ENDBRANCH   18   17
BRANCH   18   19
ATOM     19  C18 UNL A   1      13.884  17.525   4.546  1.00  0.00    +0.000 C 
ATOM    126  H22 UNL A   1      12.841  17.540   4.304  1.00  0.00    +0.000 H 
ATOM    127  H23 UNL A   1      14.037  18.005   5.491  1.00  0.00    +0.000 H 
ATOM    128  H24 UNL A   1      14.224  16.513   4.600  1.00  0.00    +0.000 H 
ENDBRANCH   18   19
BRANCH   18   20
ATOM    129  H25 UNL A   1      13.374  20.011   3.402  1.00  0.00    +0.000 H 
ATOM    130  H26 UNL A   1      13.889  19.478   1.820  1.00  0.00    +0.000 H 
ATOM    131  H27 UNL A   1      14.999  20.344   2.854  1.00  0.00    +0.000 H 
ATOM     20  C19 UNL A   1      14.198  19.636   2.832  1.00  0.00    +0.000 C 
ENDBRANCH   18   20
ENDBRANCH   21   18
ENDBRANCH   23   21
ENDBRANCH   24   23
ENDBRANCH   25   24
ENDBRANCH   26   25
ENDBRANCH   27   26
ENDBRANCH   28   27
ENDBRANCH   29   28
ENDBRANCH   30   29
ENDBRANCH   31   30
ENDBRANCH   33   31
ENDBRANCH   37   36
BRANCH   41   42
ATOM     42  C36 UNL A   1      21.280  12.827   4.364  1.00  0.00    +0.000 C 
ATOM     43  C37 UNL A   1      20.398  11.738   4.219  1.00  0.00    +0.000 C 
ATOM     44  F1  UNL A   1      19.116  11.843   4.602  1.00  0.00    +0.000 F 
ATOM     45  C38 UNL A   1      20.836  10.492   3.758  1.00  0.00    +0.000 C 
ATOM     46  F2  UNL A   1      19.988   9.455   3.734  1.00  0.00    +0.000 F 
ATOM     47  C39 UNL A   1      22.154  10.304   3.382  1.00  0.00    +0.000 C 
ATOM     48  F3  UNL A   1      22.585   9.100   2.985  1.00  0.00    +0.000 F 
ATOM     49  C40 UNL A   1      23.038  11.358   3.472  1.00  0.00    +0.000 C 
ATOM     50  F4  UNL A   1      24.327  11.188   3.144  1.00  0.00    +0.000 F 
ATOM     51  C41 UNL A   1      22.617  12.585   3.979  1.00  0.00    +0.000 C 
ATOM     52  F5  UNL A   1      23.587  13.485   4.188  1.00  0.00    +0.000 F 
ENDBRANCH   41   42
BRANCH   58   59
ATOM     65  F8  UNL A   1      22.624  18.333  13.537  1.00  0.00    +0.000 F 
ATOM     66  C51 UNL A   1      23.314  16.365  12.432  1.00  0.00    +0.000 C 
ATOM     67  F9  UNL A   1      23.554  15.770  13.609  1.00  0.00    +0.000 F 
ATOM     68  C52 UNL A   1      23.524  15.663  11.249  1.00  0.00    +0.000 C 
ATOM     69  F10 UNL A   1      23.974  14.401  11.321  1.00  0.00    +0.000 F 
ATOM     59  C47 UNL A   1      23.225  16.231  10.002  1.00  0.00    +0.000 C 
ATOM     60  C48 UNL A   1      22.710  17.538   9.991  1.00  0.00    +0.000 C 
ATOM     61  F6  UNL A   1      22.319  18.113   8.845  1.00  0.00    +0.000 F 
ATOM     62  C49 UNL A   1      22.539  18.254  11.176  1.00  0.00    +0.000 C 
ATOM     63  F7  UNL A   1      22.057  19.505  11.142  1.00  0.00    +0.000 F 
ATOM     64  C50 UNL A   1      22.832  17.663  12.396  1.00  0.00    +0.000 C 
ENDBRANCH   58   59
BRANCH   73   74
ATOM     74  C56 UNL A   1      27.931  18.068   6.208  1.00  0.00    +0.000 C 
ATOM     75  C57 UNL A   1      28.983  18.190   7.134  1.00  0.00    +0.000 C 
ATOM     76  F11 UNL A   1      28.717  18.365   8.437  1.00  0.00    +0.000 F 
ATOM     77  C58 UNL A   1      30.320  18.049   6.748  1.00  0.00    +0.000 C 
ATOM     78  F12 UNL A   1      31.291  18.095   7.670  1.00  0.00    +0.000 F 
ATOM     79  C59 UNL A   1      30.643  17.794   5.425  1.00  0.00    +0.000 C 
ATOM     80  F13 UNL A   1      31.917  17.587   5.066  1.00  0.00    +0.000 F 
ATOM     81  C60 UNL A   1      29.634  17.711   4.483  1.00  0.00    +0.000 C 
ATOM     82  F14 UNL A   1      29.931  17.430   3.207  1.00  0.00    +0.000 F 
ATOM     83  C61 UNL A   1      28.299  17.845   4.868  1.00  0.00    +0.000 C 
ATOM     84  F15 UNL A   1      27.369  17.652   3.922  1.00  0.00    +0.000 F 
ENDBRANCH   73   74
TORSDOF 25
ENDMDL
MODEL 4
REMARK VINA RESULT:      -8.4     30.394     36.184
ROOT
ATOM    148  H44 UNL A   1      25.026  20.608   9.457  1.00  0.00    +0.000 H 
ATOM    149  H45 UNL A   1      26.628  19.594   7.595  1.00  0.00    +0.000 H 
ATOM    150  H46 UNL A   1      25.044  16.558   9.780  1.00  0.00    +0.000 H 
ATOM    151  H47 UNL A   1      21.880  14.494   2.755  1.00  0.00    +0.000 H 
ATOM    152  H48 UNL A   1      20.949  16.844   3.069  1.00  0.00    +0.000 H 
ATOM    153  H49 UNL A   1      23.152  15.942   6.475  1.00  0.00    +0.000 H 
ATOM    154  H50 UNL A   1      23.362  13.024   7.915  1.00  0.00    +0.000 H 
ATOM    155  H51 UNL A   1      24.717  14.855   9.123  1.00  0.00    +0.000 H 
ATOM    156  H52 UNL A   1      20.139  18.621  10.139  1.00  0.00    +0.000 H 
ATOM    157  H53 UNL A   1      19.187  17.893   7.863  1.00  0.00    +0.000 H 
ATOM     37  C32 UNL A   1      21.175  17.791   5.795  1.00  0.00    +0.000 C 
ATOM     38  C33 UNL A   1      21.369  18.049   7.252  1.00  0.00    +0.000 C 
ATOM     39  N3  UNL A   1      22.460  18.383   7.863  1.00  0.00    +0.000 N 
ATOM     40  C34 UNL A   1      22.125  18.473   9.213  1.00  0.00    +0.000 C 
ATOM     41  C35 UNL A   1      23.065  18.349  10.189  1.00  0.00    +0.000 C 
ATOM     53  C42 UNL A   1      24.391  18.550   9.676  1.00  0.00    +0.000 C 
ATOM     54  C43 UNL A   1      25.104  19.619   9.176  1.00  0.00    +0.000 C 
ATOM     55  C44 UNL A   1      25.974  19.064   8.191  1.00  0.00    +0.000 C 
ATOM     56  C45 UNL A   1      25.786  17.681   8.170  1.00  0.00    +0.000 C 
ATOM     57  N4  UNL A   1      25.069  17.420   9.306  1.00  0.00    +0.000 N 
ATOM     58  C46 UNL A   1      26.079  16.672   7.176  1.00  0.00    +0.000 C 
ATOM     70  C53 UNL A   1      25.558  15.411   7.159  1.00  0.00    +0.000 C 
ATOM     71  N5  UNL A   1      25.448  14.717   5.966  1.00  0.00    +0.000 N 
ATOM     72  C54 UNL A   1      24.417  13.936   6.135  1.00  0.00    +0.000 C 
ATOM     73  C55 UNL A   1      23.456  13.600   5.059  1.00  0.00    +0.000 C 
ATOM     85  C62 UNL A   1      22.797  14.744   4.753  1.00  0.00    +0.000 C 
ATOM     86  C63 UNL A   1      22.011  15.087   3.590  1.00  0.00    +0.000 C 
ATOM     87  C64 UNL A   1      21.477  16.310   3.777  1.00  0.00    +0.000 C 
ATOM     88  C65 UNL A   1      21.761  16.768   5.140  1.00  0.00    +0.000 C 
ATOM     89  N6  UNL A   1      22.663  15.845   5.626  1.00  0.00    +0.000 N 
ATOM     90  C66 UNL A   1      24.015  13.716   7.513  1.00  0.00    +0.000 C 
ATOM     91  C67 UNL A   1      24.737  14.667   8.108  1.00  0.00    +0.000 C 
ATOM     92  C68 UNL A   1      20.690  18.423   9.290  1.00  0.00    +0.000 C 
ATOM     93  C69 UNL A   1      20.171  18.083   8.110  1.00  0.00    +0.000 C 
ENDROOT
BRANCH   37   36
ATOM     33  C28 UNL A   1      18.408  20.452   3.977  1.00  0.00    +0.000 C 
ATOM     34  C29 UNL A   1      19.768  20.761   4.038  1.00  0.00    +0.000 C 
ATOM     35  C30 UNL A   1      20.667  19.870   4.608  1.00  0.00    +0.000 C 
ATOM     36  C31 UNL A   1      20.204  18.675   5.159  1.00  0.00    +0.000 C 
ATOM    146  H42 UNL A   1      20.108  21.659   3.658  1.00  0.00    +0.000 H 
ATOM    147  H43 UNL A   1      21.675  20.091   4.623  1.00  0.00    +0.000 H 
ATOM    158  H54 UNL A   1      18.495  17.557   5.688  1.00  0.00    +0.000 H 
ATOM    159  H55 UNL A   1      16.944  19.067   4.614  1.00  0.00    +0.000 H 
ATOM     94  C70 UNL A   1      18.842  18.402   5.208  1.00  0.00    +0.000 C 
ATOM     95  C71 UNL A   1      17.954  19.279   4.604  1.00  0.00    +0.000 C 
BRANCH   33   31
ATOM     31  C27 UNL A   1      17.367  21.241   3.272  1.00  0.00    +0.000 C 
ATOM     32  O2  UNL A   1      17.404  22.472   3.341  1.00  0.00    +0.000 O 
BRANCH   31   30
ATOM    145  H41 UNL A   1      15.481  21.197   2.726  1.00  0.00    +0.000 H 
ATOM     30  N2  UNL A   1      16.324  20.710   2.576  1.00  0.00    +0.000 N 
BRANCH   30   29
ATOM     29  C26 UNL A   1      16.171  19.596   1.669  1.00  0.00    +0.000 C 
ATOM    143  H39 UNL A   1      17.141  19.202   1.445  1.00  0.00    +0.000 H 
ATOM    144  H40 UNL A   1      15.550  18.870   2.151  1.00  0.00    +0.000 H 
BRANCH   29   28
ATOM     28  C25 UNL A   1      15.489  19.987   0.358  1.00  0.00    +0.000 C 
ATOM    141  H37 UNL A   1      16.204  19.908  -0.434  1.00  0.00    +0.000 H 
ATOM    142  H38 UNL A   1      14.661  19.323   0.221  1.00  0.00    +0.000 H 
BRANCH   28   27
ATOM     27  C24 UNL A   1      14.928  21.417   0.368  1.00  0.00    +0.000 C 
ATOM    140  H36 UNL A   1      15.519  21.968   1.070  1.00  0.00    +0.000 H 
ATOM    139  H35 UNL A   1      13.894  21.367   0.637  1.00  0.00    +0.000 H 
BRANCH   27   26
ATOM    137  H33 UNL A   1      16.056  22.107  -1.303  1.00  0.00    +0.000 H 
ATOM     26  C23 UNL A   1      15.040  22.158  -0.972  1.00  0.00    +0.000 C 
ATOM    138  H34 UNL A   1      14.368  21.680  -1.653  1.00  0.00    +0.000 H 
BRANCH   26   25
ATOM     25  C22 UNL A   1      14.632  23.620  -0.892  1.00  0.00    +0.000 C 
ATOM    135  H31 UNL A   1      13.779  23.781  -1.518  1.00  0.00    +0.000 H 
ATOM    136  H32 UNL A   1      14.395  23.858   0.124  1.00  0.00    +0.000 H 
BRANCH   25   24
ATOM    133  H29 UNL A   1      15.795  24.502  -2.420  1.00  0.00    +0.000 H 
ATOM    134  H30 UNL A   1      15.580  25.496  -0.983  1.00  0.00    +0.000 H 
ATOM     24  C21 UNL A   1      15.759  24.509  -1.351  1.00  0.00    +0.000 C 
BRANCH   24   23
ATOM    132  H28 UNL A   1      17.036  23.716   0.091  1.00  0.00    +0.000 H 
ATOM     23  N1  UNL A   1      17.038  24.053  -0.833  1.00  0.00    +0.000 N 
BRANCH   23   21
ATOM     21  C20 UNL A   1      18.252  24.037  -1.484  1.00  0.00    +0.000 C 
ATOM     22  O1  UNL A   1      18.505  24.979  -2.208  1.00  0.00    +0.000 O 
BRANCH   21   18
ATOM     18  C17 UNL A   1      19.053  22.729  -1.451  1.00  0.00    +0.000 C 
BRANCH   18   17
ATOM     17  C16 UNL A   1      20.599  22.771  -1.267  1.00  0.00    +0.000 C 
ATOM    124  H20 UNL A   1      20.850  22.088  -0.482  1.00  0.00    +0.000 H 
ATOM    125  H21 UNL A   1      21.002  22.520  -2.225  1.00  0.00    +0.000 H 
BRANCH   17   16
ATOM      4  C4  UNL A   1      21.823  28.599  -0.291  1.00  0.00    +0.000 C 
ATOM      5  C5  UNL A   1      21.629  28.196   1.033  1.00  0.00    +0.000 C 
ATOM      6  C6  UNL A   1      21.454  26.850   1.375  1.00  0.00    +0.000 C 
ATOM      7  C7  UNL A   1      21.461  25.888   0.350  1.00  0.00    +0.000 C 
ATOM      8  C8  UNL A   1      21.727  26.235  -0.986  1.00  0.00    +0.000 C 
ATOM      9  C9  UNL A   1      21.918  27.610  -1.289  1.00  0.00    +0.000 C 
ATOM     10  C10 UNL A   1      21.695  25.032  -1.785  1.00  0.00    +0.000 C 
ATOM    112  H8  UNL A   1      21.614  28.910   1.779  1.00  0.00    +0.000 H 
ATOM    113  H9  UNL A   1      21.323  26.569   2.360  1.00  0.00    +0.000 H 
ATOM    114  H10 UNL A   1      22.130  27.890  -2.260  1.00  0.00    +0.000 H 
ATOM     16  C15 UNL A   1      21.185  24.066  -0.930  1.00  0.00    +0.000 C 
ATOM     96  N7  UNL A   1      21.230  24.520   0.385  1.00  0.00    +0.000 N 
BRANCH    4    2
ATOM      2  C2  UNL A   1      21.925  30.083  -0.606  1.00  0.00    +0.000 C 
ATOM    108  H4  UNL A   1      22.155  30.571   0.318  1.00  0.00    +0.000 H 
BRANCH    2    1
ATOM      1  C1  UNL A   1      23.051  30.350  -1.603  1.00  0.00    +0.000 C 
ATOM    106  H2  UNL A   1      23.806  30.949  -1.138  1.00  0.00    +0.000 H 
ATOM    107  H3  UNL A   1      22.660  30.868  -2.454  1.00  0.00    +0.000 H 
ATOM    105  H1  UNL A   1      23.478  29.420  -1.917  1.00  0.00    +0.000 H 
ENDBRANCH    2    1
BRANCH    2    3
ATOM      3  C3  UNL A   1      20.606  30.692  -1.097  1.00  0.00    +0.000 C 
ATOM    109  H5  UNL A   1      20.499  30.511  -2.147  1.00  0.00    +0.000 H 
ATOM    110  H6  UNL A   1      20.611  31.746  -0.915  1.00  0.00    +0.000 H 
ATOM    111  H7  UNL A   1      19.789  30.242  -0.572  1.00  0.00    +0.000 H 
ENDBRANCH    2    3
ENDBRANCH    4    2
BRANCH   10   11
ATOM     11  S1  UNL A   1      21.992  25.075  -3.549  1.00  0.00    +0.000 S 
ATOM     12  C11 UNL A   1      22.597  23.542  -4.456  1.00  0.00    +0.000 C 
ATOM     13  C12 UNL A   1      24.018  23.189  -4.002  1.00  0.00    +0.000 C 
ATOM     14  C13 UNL A   1      21.798  22.222  -4.589  1.00  0.00    +0.000 C 
ATOM     15  C14 UNL A   1      22.620  24.018  -5.936  1.00  0.00    +0.000 C 
ATOM    115  H11 UNL A   1      23.996  22.863  -2.983  1.00  0.00    +0.000 H 
ATOM    116  H12 UNL A   1      24.645  24.052  -4.087  1.00  0.00    +0.000 H 
ATOM    117  H13 UNL A   1      24.406  22.406  -4.620  1.00  0.00    +0.000 H 
ATOM    118  H14 UNL A   1      21.698  21.766  -3.626  1.00  0.00    +0.000 H 
ATOM    119  H15 UNL A   1      22.317  21.555  -5.247  1.00  0.00    +0.000 H 
ATOM    120  H16 UNL A   1      20.828  22.432  -4.988  1.00  0.00    +0.000 H 
ATOM    121  H17 UNL A   1      23.152  24.943  -6.006  1.00  0.00    +0.000 H 
ATOM    122  H18 UNL A   1      21.616  24.156  -6.282  1.00  0.00    +0.000 H 
ATOM    123  H19 UNL A   1      23.106  23.280  -6.541  1.00  0.00    +0.000 H 
ENDBRANCH   10   11
BRANCH   96   97
ATOM     97  C72 UNL A   1      21.248  23.693   1.628  1.00  0.00    +0.000 C 
ATOM    161  H57 UNL A   1      20.984  24.384   2.402  1.00  0.00    +0.000 H 
ATOM    160  H56 UNL A   1      20.577  22.875   1.471  1.00  0.00    +0.000 H 
BRANCH   97   98
ATOM     98  C73 UNL A   1      22.571  23.101   2.102  1.00  0.00    +0.000 C 
ATOM     99  C74 UNL A   1      22.820  21.714   2.043  1.00  0.00    +0.000 C 
ATOM    100  C75 UNL A   1      23.917  21.139   2.698  1.00  0.00    +0.000 C 
ATOM    162  H58 UNL A   1      22.180  21.109   1.506  1.00  0.00    +0.000 H 
ATOM    165  H61 UNL A   1      23.496  24.939   2.588  1.00  0.00    +0.000 H 
ATOM    103  C77 UNL A   1      24.725  23.343   3.232  1.00  0.00    +0.000 C 
ATOM    104  C78 UNL A   1      23.587  23.912   2.635  1.00  0.00    +0.000 C 
ATOM    163  H59 UNL A   1      24.030  20.113   2.719  1.00  0.00    +0.000 H 
ATOM    164  H60 UNL A   1      25.468  23.952   3.609  1.00  0.00    +0.000 H 
ATOM    101  C76 UNL A   1      24.851  21.958   3.317  1.00  0.00    +0.000 C 
ATOM    102 Cl1  UNL A   1      26.137  21.253   4.218  1.00  0.00    +0.000 Cl
ENDBRANCH   97   98
ENDBRANCH   96   97
ENDBRANCH   17   16
ENDBRANCH   18   17
BRANCH   18   19
ATOM     19  C18 UNL A   1      18.678  22.270  -2.890  1.00  0.00    +0.000 C 
ATOM    126  H22 UNL A   1      18.870  21.222  -2.991  1.00  0.00    +0.000 H 
ATOM    127  H23 UNL A   1      19.267  22.810  -3.602  1.00  0.00    +0.000 H 
ATOM    128  H24 UNL A   1      17.641  22.461  -3.066  1.00  0.00    +0.000 H 
ENDBRANCH   18   19
BRANCH   18   20
ATOM    129  H25 UNL A   1      17.808  21.291  -0.412  1.00  0.00    +0.000 H 
ATOM    130  H26 UNL A   1      18.326  22.626   0.588  1.00  0.00    +0.000 H 
ATOM    131  H27 UNL A   1      19.451  21.355   0.178  1.00  0.00    +0.000 H 
ATOM     20  C19 UNL A   1      18.626  21.938  -0.173  1.00  0.00    +0.000 C 
ENDBRANCH   18   20
ENDBRANCH   21   18
ENDBRANCH   23   21
ENDBRANCH   24   23
ENDBRANCH   25   24
ENDBRANCH   26   25
ENDBRANCH   27   26
ENDBRANCH   28   27
ENDBRANCH   29   28
ENDBRANCH   30   29
ENDBRANCH   31   30
ENDBRANCH   33   31
ENDBRANCH   37   36
BRANCH   41   42
ATOM     42  C36 UNL A   1      22.817  17.641  11.499  1.00  0.00    +0.000 C 
ATOM     43  C37 UNL A   1      22.463  18.383  12.642  1.00  0.00    +0.000 C 
ATOM     44  F1  UNL A   1      22.122  19.677  12.537  1.00  0.00    +0.000 F 
ATOM     45  C38 UNL A   1      22.534  17.836  13.927  1.00  0.00    +0.000 C 
ATOM     46  F2  UNL A   1      22.288  18.607  14.995  1.00  0.00    +0.000 F 
ATOM     47  C39 UNL A   1      22.915  16.518  14.111  1.00  0.00    +0.000 C 
ATOM     48  F3  UNL A   1      23.029  16.007  15.343  1.00  0.00    +0.000 F 
ATOM     49  C40 UNL A   1      23.232  15.748  13.012  1.00  0.00    +0.000 C 
ATOM     50  F4  UNL A   1      23.635  14.480  13.171  1.00  0.00    +0.000 F 
ATOM     51  C41 UNL A   1      23.212  16.306  11.735  1.00  0.00    +0.000 C 
ATOM     52  F5  UNL A   1      23.701  15.529  10.761  1.00  0.00    +0.000 F 
ENDBRANCH   41   42
BRANCH   58   59
ATOM     65  F8  UNL A   1      28.712  18.115   2.385  1.00  0.00    +0.000 F 
ATOM     66  C51 UNL A   1      26.752  17.994   3.695  1.00  0.00    +0.000 C 
ATOM     67  F9  UNL A   1      26.023  18.463   2.673  1.00  0.00    +0.000 F 
ATOM     68  C52 UNL A   1      26.129  17.669   4.895  1.00  0.00    +0.000 C 
ATOM     69  F10 UNL A   1      24.803  17.844   4.999  1.00  0.00    +0.000 F 
ATOM     59  C47 UNL A   1      26.850  17.117   5.964  1.00  0.00    +0.000 C 
ATOM     60  C48 UNL A   1      28.227  16.910   5.780  1.00  0.00    +0.000 C 
ATOM     61  F6  UNL A   1      28.964  16.306   6.723  1.00  0.00    +0.000 F 
ATOM     62  C49 UNL A   1      28.857  17.275   4.590  1.00  0.00    +0.000 C 
ATOM     63  F7  UNL A   1      30.175  17.080   4.439  1.00  0.00    +0.000 F 
ATOM     64  C50 UNL A   1      28.116  17.807   3.545  1.00  0.00    +0.000 C 
ENDBRANCH   58   59
BRANCH   73   74
ATOM     74  C56 UNL A   1      23.071  12.201   4.758  1.00  0.00    +0.000 C 
ATOM     75  C57 UNL A   1      23.739  11.472   3.757  1.00  0.00    +0.000 C 
ATOM     76  F11 UNL A   1      24.552  12.101   2.895  1.00  0.00    +0.000 F 
ATOM     77  C58 UNL A   1      23.649  10.078   3.680  1.00  0.00    +0.000 C 
ATOM     78  F12 UNL A   1      24.360   9.411   2.760  1.00  0.00    +0.000 F 
ATOM     79  C59 UNL A   1      22.880   9.375   4.593  1.00  0.00    +0.000 C 
ATOM     80  F13 UNL A   1      22.851   8.036   4.566  1.00  0.00    +0.000 F 
ATOM     81  C60 UNL A   1      22.178  10.066   5.564  1.00  0.00    +0.000 C 
ATOM     82  F14 UNL A   1      21.459   9.395   6.474  1.00  0.00    +0.000 F 
ATOM     83  C61 UNL A   1      22.272  11.456   5.645  1.00  0.00    +0.000 C 
ATOM     84  F15 UNL A   1      21.646  12.050   6.671  1.00  0.00    +0.000 F 
ENDBRANCH   73   74
TORSDOF 25
ENDMDL
MODEL 5
REMARK VINA RESULT:      -8.4      3.354      8.823
ROOT
ATOM    148  H44 UNL A   1      46.039  30.941  29.073  1.00  0.00    +0.000 H 
ATOM    149  H45 UNL A   1      43.537  30.429  28.337  1.00  0.00    +0.000 H 
ATOM    150  H46 UNL A   1      46.072  28.259  26.021  1.00  0.00    +0.000 H 
ATOM    151  H47 UNL A   1      42.295  22.106  29.411  1.00  0.00    +0.000 H 
ATOM    152  H48 UNL A   1      43.231  23.320  31.445  1.00  0.00    +0.000 H 
ATOM    153  H49 UNL A   1      44.558  25.373  28.085  1.00  0.00    +0.000 H 
ATOM    154  H50 UNL A   1      45.423  24.045  25.235  1.00  0.00    +0.000 H 
ATOM    155  H51 UNL A   1      45.659  26.612  25.275  1.00  0.00    +0.000 H 
ATOM    156  H52 UNL A   1      49.433  26.939  29.947  1.00  0.00    +0.000 H 
ATOM    157  H53 UNL A   1      48.161  24.947  30.964  1.00  0.00    +0.000 H 
ATOM     37  C32 UNL A   1      45.310  25.217  30.768  1.00  0.00    +0.000 C 
ATOM     38  C33 UNL A   1      46.364  26.100  30.189  1.00  0.00    +0.000 C 
ATOM     39  N3  UNL A   1      46.208  27.226  29.570  1.00  0.00    +0.000 N 
ATOM     40  C34 UNL A   1      47.488  27.637  29.202  1.00  0.00    +0.000 C 
ATOM     41  C35 UNL A   1      47.688  28.502  28.171  1.00  0.00    +0.000 C 
ATOM     53  C42 UNL A   1      46.489  29.219  27.841  1.00  0.00    +0.000 C 
ATOM     54  C43 UNL A   1      45.717  30.184  28.451  1.00  0.00    +0.000 C 
ATOM     55  C44 UNL A   1      44.379  29.913  28.037  1.00  0.00    +0.000 C 
ATOM     56  C45 UNL A   1      44.403  28.830  27.157  1.00  0.00    +0.000 C 
ATOM     57  N4  UNL A   1      45.726  28.683  26.839  1.00  0.00    +0.000 N 
ATOM     58  C46 UNL A   1      43.384  27.898  26.730  1.00  0.00    +0.000 C 
ATOM     70  C53 UNL A   1      43.619  26.703  26.114  1.00  0.00    +0.000 C 
ATOM     71  N5  UNL A   1      42.701  25.672  26.216  1.00  0.00    +0.000 N 
ATOM     72  C54 UNL A   1      43.418  24.586  26.130  1.00  0.00    +0.000 C 
ATOM     73  C55 UNL A   1      43.126  23.347  26.889  1.00  0.00    +0.000 C 
ATOM     85  C62 UNL A   1      43.342  23.631  28.197  1.00  0.00    +0.000 C 
ATOM     86  C63 UNL A   1      42.911  22.934  29.388  1.00  0.00    +0.000 C 
ATOM     87  C64 UNL A   1      43.447  23.547  30.462  1.00  0.00    +0.000 C 
ATOM     88  C65 UNL A   1      44.382  24.585  30.021  1.00  0.00    +0.000 C 
ATOM     89  N6  UNL A   1      44.174  24.672  28.660  1.00  0.00    +0.000 N 
ATOM     90  C66 UNL A   1      44.744  24.751  25.564  1.00  0.00    +0.000 C 
ATOM     91  C67 UNL A   1      44.831  26.082  25.590  1.00  0.00    +0.000 C 
ATOM     92  C68 UNL A   1      48.414  26.783  29.896  1.00  0.00    +0.000 C 
ATOM     93  C69 UNL A   1      47.772  25.762  30.464  1.00  0.00    +0.000 C 
ENDROOT
BRANCH   37   36
ATOM     33  C28 UNL A   1      45.624  24.493  34.942  1.00  0.00    +0.000 C 
ATOM     34  C29 UNL A   1      45.587  23.437  34.030  1.00  0.00    +0.000 C 
ATOM     35  C30 UNL A   1      45.516  23.686  32.667  1.00  0.00    +0.000 C 
ATOM     36  C31 UNL A   1      45.439  25.001  32.205  1.00  0.00    +0.000 C 
ATOM    146  H42 UNL A   1      45.613  22.463  34.372  1.00  0.00    +0.000 H 
ATOM    147  H43 UNL A   1      45.519  22.902  31.996  1.00  0.00    +0.000 H 
ATOM    158  H54 UNL A   1      45.220  27.024  32.762  1.00  0.00    +0.000 H 
ATOM    159  H55 UNL A   1      45.438  26.590  35.129  1.00  0.00    +0.000 H 
ATOM     94  C70 UNL A   1      45.359  26.060  33.103  1.00  0.00    +0.000 C 
ATOM     95  C71 UNL A   1      45.470  25.804  34.461  1.00  0.00    +0.000 C 
BRANCH   33   31
ATOM     31  C27 UNL A   1      45.844  24.374  36.405  1.00  0.00    +0.000 C 
ATOM     32  O2  UNL A   1      46.267  23.307  36.859  1.00  0.00    +0.000 O 
BRANCH   31   30
ATOM    145  H41 UNL A   1      46.359  25.896  37.534  1.00  0.00    +0.000 H 
ATOM     30  N2  UNL A   1      45.571  25.348  37.317  1.00  0.00    +0.000 N 
BRANCH   30   29
ATOM     29  C26 UNL A   1      44.388  25.761  38.037  1.00  0.00    +0.000 C 
ATOM    143  H39 UNL A   1      44.398  25.302  39.004  1.00  0.00    +0.000 H 
ATOM    144  H40 UNL A   1      44.409  26.829  38.104  1.00  0.00    +0.000 H 
BRANCH   29   28
ATOM     28  C25 UNL A   1      43.092  25.371  37.324  1.00  0.00    +0.000 C 
ATOM    141  H37 UNL A   1      43.337  24.731  36.502  1.00  0.00    +0.000 H 
ATOM    142  H38 UNL A   1      42.470  24.882  38.044  1.00  0.00    +0.000 H 
BRANCH   28   27
ATOM     27  C24 UNL A   1      42.308  26.577  36.788  1.00  0.00    +0.000 C 
ATOM    140  H36 UNL A   1      42.967  27.418  36.849  1.00  0.00    +0.000 H 
ATOM    139  H35 UNL A   1      41.425  26.690  37.381  1.00  0.00    +0.000 H 
BRANCH   27   26
ATOM    137  H33 UNL A   1      42.702  26.051  34.760  1.00  0.00    +0.000 H 
ATOM     26  C23 UNL A   1      41.885  26.462  35.315  1.00  0.00    +0.000 C 
ATOM    138  H34 UNL A   1      41.018  25.837  35.286  1.00  0.00    +0.000 H 
BRANCH   26   25
ATOM     25  C22 UNL A   1      41.499  27.792  34.691  1.00  0.00    +0.000 C 
ATOM    135  H31 UNL A   1      42.059  27.934  33.790  1.00  0.00    +0.000 H 
ATOM    136  H32 UNL A   1      40.451  27.783  34.476  1.00  0.00    +0.000 H 
BRANCH   25   24
ATOM    133  H29 UNL A   1      41.991  28.524  36.611  1.00  0.00    +0.000 H 
ATOM    134  H30 UNL A   1      42.636  29.466  35.270  1.00  0.00    +0.000 H 
ATOM     24  C21 UNL A   1      41.791  28.926  35.640  1.00  0.00    +0.000 C 
BRANCH   24   23
ATOM    132  H28 UNL A   1      39.773  29.433  35.734  1.00  0.00    +0.000 H 
ATOM     23  N1  UNL A   1      40.667  29.843  35.732  1.00  0.00    +0.000 N 
BRANCH   23   21
ATOM     21  C20 UNL A   1      40.707  31.217  35.816  1.00  0.00    +0.000 C 
ATOM     22  O1  UNL A   1      41.491  31.701  36.609  1.00  0.00    +0.000 O 
BRANCH   21   18
ATOM     18  C17 UNL A   1      39.592  32.001  35.110  1.00  0.00    +0.000 C 
BRANCH   18   17
ATOM     17  C16 UNL A   1      39.772  32.439  33.627  1.00  0.00    +0.000 C 
ATOM    124  H20 UNL A   1      38.901  32.127  33.090  1.00  0.00    +0.000 H 
ATOM    125  H21 UNL A   1      39.920  33.498  33.664  1.00  0.00    +0.000 H 
BRANCH   17   16
ATOM      4  C4  UNL A   1      45.048  30.022  31.971  1.00  0.00    +0.000 C 
ATOM      5  C5  UNL A   1      44.212  28.945  31.663  1.00  0.00    +0.000 C 
ATOM      6  C6  UNL A   1      42.819  29.051  31.733  1.00  0.00    +0.000 C 
ATOM      7  C7  UNL A   1      42.255  30.273  32.137  1.00  0.00    +0.000 C 
ATOM      8  C8  UNL A   1      43.050  31.406  32.384  1.00  0.00    +0.000 C 
ATOM      9  C9  UNL A   1      44.460  31.262  32.285  1.00  0.00    +0.000 C 
ATOM     10  C10 UNL A   1      42.181  32.503  32.747  1.00  0.00    +0.000 C 
ATOM    112  H8  UNL A   1      44.634  28.047  31.378  1.00  0.00    +0.000 H 
ATOM    113  H9  UNL A   1      42.216  28.248  31.491  1.00  0.00    +0.000 H 
ATOM    114  H10 UNL A   1      45.065  32.083  32.447  1.00  0.00    +0.000 H 
ATOM     16  C15 UNL A   1      40.939  31.912  32.923  1.00  0.00    +0.000 C 
ATOM     96  N7  UNL A   1      40.936  30.632  32.374  1.00  0.00    +0.000 N 
BRANCH    4    2
ATOM      2  C2  UNL A   1      46.555  29.819  31.956  1.00  0.00    +0.000 C 
ATOM    108  H4  UNL A   1      46.757  29.134  31.159  1.00  0.00    +0.000 H 
BRANCH    2    1
ATOM      1  C1  UNL A   1      47.277  31.135  31.675  1.00  0.00    +0.000 C 
ATOM    106  H2  UNL A   1      46.586  31.842  31.264  1.00  0.00    +0.000 H 
ATOM    107  H3  UNL A   1      48.070  30.965  30.977  1.00  0.00    +0.000 H 
ATOM    105  H1  UNL A   1      47.681  31.523  32.587  1.00  0.00    +0.000 H 
ENDBRANCH    2    1
BRANCH    2    3
ATOM      3  C3  UNL A   1      47.093  29.163  33.233  1.00  0.00    +0.000 C 
ATOM    109  H5  UNL A   1      47.907  28.514  32.985  1.00  0.00    +0.000 H 
ATOM    110  H6  UNL A   1      46.314  28.597  33.698  1.00  0.00    +0.000 H 
ATOM    111  H7  UNL A   1      47.434  29.922  33.907  1.00  0.00    +0.000 H 
ENDBRANCH    2    3
ENDBRANCH    4    2
BRANCH   10   11
ATOM     11  S1  UNL A   1      42.835  34.122  33.135  1.00  0.00    +0.000 S 
ATOM     12  C11 UNL A   1      43.696  35.149  31.814  1.00  0.00    +0.000 C 
ATOM     13  C12 UNL A   1      45.008  34.475  31.396  1.00  0.00    +0.000 C 
ATOM     14  C13 UNL A   1      43.013  35.694  30.535  1.00  0.00    +0.000 C 
ATOM     15  C14 UNL A   1      44.001  36.474  32.567  1.00  0.00    +0.000 C 
ATOM    115  H11 UNL A   1      44.792  33.564  30.878  1.00  0.00    +0.000 H 
ATOM    116  H12 UNL A   1      45.592  34.261  32.266  1.00  0.00    +0.000 H 
ATOM    117  H13 UNL A   1      45.556  35.130  30.752  1.00  0.00    +0.000 H 
ATOM    118  H14 UNL A   1      42.739  34.877  29.900  1.00  0.00    +0.000 H 
ATOM    119  H15 UNL A   1      43.691  36.338  30.015  1.00  0.00    +0.000 H 
ATOM    120  H16 UNL A   1      42.137  36.245  30.807  1.00  0.00    +0.000 H 
ATOM    121  H17 UNL A   1      44.487  36.254  33.494  1.00  0.00    +0.000 H 
ATOM    122  H18 UNL A   1      43.086  36.995  32.758  1.00  0.00    +0.000 H 
ATOM    123  H19 UNL A   1      44.640  37.087  31.966  1.00  0.00    +0.000 H 
ENDBRANCH   10   11
BRANCH   96   97
ATOM     97  C72 UNL A   1      39.752  29.848  31.913  1.00  0.00    +0.000 C 
ATOM    161  H57 UNL A   1      40.171  29.103  31.269  1.00  0.00    +0.000 H 
ATOM    160  H56 UNL A   1      39.249  29.494  32.788  1.00  0.00    +0.000 H 
BRANCH   97   98
ATOM     98  C73 UNL A   1      38.705  30.536  31.043  1.00  0.00    +0.000 C 
ATOM     99  C74 UNL A   1      37.325  30.311  31.234  1.00  0.00    +0.000 C 
ATOM    100  C75 UNL A   1      36.378  30.736  30.294  1.00  0.00    +0.000 C 
ATOM    162  H58 UNL A   1      37.008  29.823  32.085  1.00  0.00    +0.000 H 
ATOM    165  H61 UNL A   1      40.061  31.691  29.903  1.00  0.00    +0.000 H 
ATOM    103  C77 UNL A   1      38.116  31.893  29.096  1.00  0.00    +0.000 C 
ATOM    104  C78 UNL A   1      39.074  31.406  30.003  1.00  0.00    +0.000 C 
ATOM    163  H59 UNL A   1      35.384  30.482  30.407  1.00  0.00    +0.000 H 
ATOM    164  H60 UNL A   1      38.401  32.540  28.344  1.00  0.00    +0.000 H 
ATOM    101  C76 UNL A   1      36.785  31.502  29.210  1.00  0.00    +0.000 C 
ATOM    102 Cl1  UNL A   1      35.643  31.929  27.994  1.00  0.00    +0.000 Cl
ENDBRANCH   97   98
ENDBRANCH   96   97
ENDBRANCH   17   16
ENDBRANCH   18   17
BRANCH   18   19
ATOM     19  C18 UNL A   1      39.629  33.232  36.062  1.00  0.00    +0.000 C 
ATOM    126  H22 UNL A   1      39.405  34.119  35.506  1.00  0.00    +0.000 H 
ATOM    127  H23 UNL A   1      40.604  33.319  36.494  1.00  0.00    +0.000 H 
ATOM    128  H24 UNL A   1      38.905  33.104  36.838  1.00  0.00    +0.000 H 
ENDBRANCH   18   19
BRANCH   18   20
ATOM    129  H25 UNL A   1      37.596  31.542  34.402  1.00  0.00    +0.000 H 
ATOM    130  H26 UNL A   1      37.963  30.856  35.967  1.00  0.00    +0.000 H 
ATOM    131  H27 UNL A   1      38.638  30.145  34.521  1.00  0.00    +0.000 H 
ATOM     20  C19 UNL A   1      38.350  31.061  34.991  1.00  0.00    +0.000 C 
ENDBRANCH   18   20
ENDBRANCH   21   18
ENDBRANCH   23   21
ENDBRANCH   24   23
ENDBRANCH   25   24
ENDBRANCH   26   25
ENDBRANCH   27   26
ENDBRANCH   28   27
ENDBRANCH   29   28
ENDBRANCH   30   29
ENDBRANCH   31   30
ENDBRANCH   33   31
ENDBRANCH   37   36
BRANCH   41   42
ATOM     42  C36 UNL A   1      48.842  28.391  27.204  1.00  0.00    +0.000 C 
ATOM     43  C37 UNL A   1      49.008  27.220  26.439  1.00  0.00    +0.000 C 
ATOM     44  F1  UNL A   1      48.036  26.296  26.388  1.00  0.00    +0.000 F 
ATOM     45  C38 UNL A   1      50.208  26.934  25.781  1.00  0.00    +0.000 C 
ATOM     46  F2  UNL A   1      50.360  25.761  25.151  1.00  0.00    +0.000 F 
ATOM     47  C39 UNL A   1      51.265  27.826  25.825  1.00  0.00    +0.000 C 
ATOM     48  F3  UNL A   1      52.430  27.533  25.234  1.00  0.00    +0.000 F 
ATOM     49  C40 UNL A   1      51.126  29.002  26.530  1.00  0.00    +0.000 C 
ATOM     50  F4  UNL A   1      52.149  29.865  26.612  1.00  0.00    +0.000 F 
ATOM     51  C41 UNL A   1      49.950  29.266  27.230  1.00  0.00    +0.000 C 
ATOM     52  F5  UNL A   1      49.981  30.346  28.020  1.00  0.00    +0.000 F 
ENDBRANCH   41   42
BRANCH   58   59
ATOM     65  F8  UNL A   1      38.048  28.521  28.497  1.00  0.00    +0.000 F 
ATOM     66  C51 UNL A   1      40.245  27.727  28.838  1.00  0.00    +0.000 C 
ATOM     67  F9  UNL A   1      39.869  27.132  29.978  1.00  0.00    +0.000 F 
ATOM     68  C52 UNL A   1      41.563  27.618  28.405  1.00  0.00    +0.000 C 
ATOM     69  F10 UNL A   1      42.430  26.920  29.154  1.00  0.00    +0.000 F 
ATOM     59  C47 UNL A   1      41.978  28.174  27.186  1.00  0.00    +0.000 C 
ATOM     60  C48 UNL A   1      41.014  28.851  26.420  1.00  0.00    +0.000 C 
ATOM     61  F6  UNL A   1      41.314  29.332  25.205  1.00  0.00    +0.000 F 
ATOM     62  C49 UNL A   1      39.703  28.995  26.876  1.00  0.00    +0.000 C 
ATOM     63  F7  UNL A   1      38.801  29.655  26.135  1.00  0.00    +0.000 F 
ATOM     64  C50 UNL A   1      39.318  28.424  28.080  1.00  0.00    +0.000 C 
ENDBRANCH   58   59
BRANCH   73   74
ATOM     74  C56 UNL A   1      43.046  22.022  26.230  1.00  0.00    +0.000 C 
ATOM     75  C57 UNL A   1      44.215  21.319  25.889  1.00  0.00    +0.000 C 
ATOM     76  F11 UNL A   1      45.405  21.936  25.919  1.00  0.00    +0.000 F 
ATOM     77  C58 UNL A   1      44.190  19.952  25.593  1.00  0.00    +0.000 C 
ATOM     78  F12 UNL A   1      45.334  19.299  25.348  1.00  0.00    +0.000 F 
ATOM     79  C59 UNL A   1      42.994  19.252  25.620  1.00  0.00    +0.000 C 
ATOM     80  F13 UNL A   1      42.978  17.930  25.410  1.00  0.00    +0.000 F 
ATOM     81  C60 UNL A   1      41.821  19.924  25.912  1.00  0.00    +0.000 C 
ATOM     82  F14 UNL A   1      40.663  19.251  25.975  1.00  0.00    +0.000 F 
ATOM     83  C61 UNL A   1      41.846  21.287  26.212  1.00  0.00    +0.000 C 
ATOM     84  F15 UNL A   1      40.688  21.850  26.583  1.00  0.00    +0.000 F 
ENDBRANCH   73   74
TORSDOF 25
ENDMDL
MODEL 6
REMARK VINA RESULT:      -8.4     40.143     46.031
ROOT
ATOM    148  H44 UNL A   1       6.146  29.863  -5.340  1.00  0.00    +0.000 H 
ATOM    149  H45 UNL A   1       8.487  28.638  -5.623  1.00  0.00    +0.000 H 
ATOM    150  H46 UNL A   1       9.133  32.571  -4.837  1.00  0.00    +0.000 H 
ATOM    151  H47 UNL A   1      12.705  29.648   1.668  1.00  0.00    +0.000 H 
ATOM    152  H48 UNL A   1      10.345  28.722   1.916  1.00  0.00    +0.000 H 
ATOM    153  H49 UNL A   1      10.368  31.100  -1.491  1.00  0.00    +0.000 H 
ATOM    154  H50 UNL A   1      12.033  33.875  -1.891  1.00  0.00    +0.000 H 
ATOM    155  H51 UNL A   1      10.622  33.230  -3.949  1.00  0.00    +0.000 H 
ATOM    156  H52 UNL A   1       5.292  33.051  -1.168  1.00  0.00    +0.000 H 
ATOM    157  H53 UNL A   1       6.526  32.118   0.887  1.00  0.00    +0.000 H 
ATOM     37  C32 UNL A   1       8.422  30.068   0.223  1.00  0.00    +0.000 C 
ATOM     38  C33 UNL A   1       7.618  30.918  -0.703  1.00  0.00    +0.000 C 
ATOM     39  N3  UNL A   1       7.532  30.832  -1.992  1.00  0.00    +0.000 N 
ATOM     40  C34 UNL A   1       6.684  31.865  -2.385  1.00  0.00    +0.000 C 
ATOM     41  C35 UNL A   1       6.717  32.371  -3.648  1.00  0.00    +0.000 C 
ATOM     53  C42 UNL A   1       7.365  31.473  -4.561  1.00  0.00    +0.000 C 
ATOM     54  C43 UNL A   1       7.077  30.239  -5.103  1.00  0.00    +0.000 C 
ATOM     55  C44 UNL A   1       8.339  29.596  -5.269  1.00  0.00    +0.000 C 
ATOM     56  C45 UNL A   1       9.339  30.483  -4.867  1.00  0.00    +0.000 C 
ATOM     57  N4  UNL A   1       8.701  31.689  -4.769  1.00  0.00    +0.000 N 
ATOM     58  C46 UNL A   1      10.712  30.284  -4.459  1.00  0.00    +0.000 C 
ATOM     70  C53 UNL A   1      11.474  31.200  -3.794  1.00  0.00    +0.000 C 
ATOM     71  N5  UNL A   1      12.528  30.785  -2.997  1.00  0.00    +0.000 N 
ATOM     72  C54 UNL A   1      12.616  31.697  -2.069  1.00  0.00    +0.000 C 
ATOM     73  C55 UNL A   1      12.976  31.405  -0.662  1.00  0.00    +0.000 C 
ATOM     85  C62 UNL A   1      11.957  30.680  -0.140  1.00  0.00    +0.000 C 
ATOM     86  C63 UNL A   1      11.908  29.857   1.047  1.00  0.00    +0.000 C 
ATOM     87  C64 UNL A   1      10.647  29.406   1.206  1.00  0.00    +0.000 C 
ATOM     88  C65 UNL A   1       9.771  30.038   0.216  1.00  0.00    +0.000 C 
ATOM     89  N6  UNL A   1      10.637  30.686  -0.640  1.00  0.00    +0.000 N 
ATOM     90  C66 UNL A   1      11.965  32.961  -2.366  1.00  0.00    +0.000 C 
ATOM     91  C67 UNL A   1      11.254  32.597  -3.435  1.00  0.00    +0.000 C 
ATOM     92  C68 UNL A   1       6.079  32.385  -1.188  1.00  0.00    +0.000 C 
ATOM     93  C69 UNL A   1       6.679  31.886  -0.107  1.00  0.00    +0.000 C 
ENDROOT
BRANCH   37   36
ATOM     33  C28 UNL A   1       6.030  27.977   3.042  1.00  0.00    +0.000 C 
ATOM     34  C29 UNL A   1       6.007  27.638   1.688  1.00  0.00    +0.000 C 
ATOM     35  C30 UNL A   1       6.815  28.309   0.781  1.00  0.00    +0.000 C 
ATOM     36  C31 UNL A   1       7.628  29.355   1.218  1.00  0.00    +0.000 C 
ATOM    146  H42 UNL A   1       5.383  26.884   1.359  1.00  0.00    +0.000 H 
ATOM    147  H43 UNL A   1       6.815  28.033  -0.214  1.00  0.00    +0.000 H 
ATOM    158  H54 UNL A   1       8.120  30.606   2.843  1.00  0.00    +0.000 H 
ATOM    159  H55 UNL A   1       6.781  29.377   4.436  1.00  0.00    +0.000 H 
ATOM     94  C70 UNL A   1       7.580  29.781   2.540  1.00  0.00    +0.000 C 
ATOM     95  C71 UNL A   1       6.798  29.082   3.447  1.00  0.00    +0.000 C 
BRANCH   33   31
ATOM     31  C27 UNL A   1       5.331  27.253   4.133  1.00  0.00    +0.000 C 
ATOM     32  O2  UNL A   1       4.929  27.891   5.109  1.00  0.00    +0.000 O 
BRANCH   31   30
ATOM    145  H41 UNL A   1       4.175  25.666   4.182  1.00  0.00    +0.000 H 
ATOM     30  N2  UNL A   1       5.130  25.906   4.172  1.00  0.00    +0.000 N 
BRANCH   30   29
ATOM     29  C26 UNL A   1       5.997  24.751   4.200  1.00  0.00    +0.000 C 
ATOM    143  H39 UNL A   1       6.934  25.036   4.632  1.00  0.00    +0.000 H 
ATOM    144  H40 UNL A   1       5.508  23.994   4.776  1.00  0.00    +0.000 H 
BRANCH   29   28
ATOM     28  C25 UNL A   1       6.259  24.171   2.809  1.00  0.00    +0.000 C 
ATOM    141  H37 UNL A   1       5.397  24.348   2.200  1.00  0.00    +0.000 H 
ATOM    142  H38 UNL A   1       7.131  24.655   2.422  1.00  0.00    +0.000 H 
BRANCH   28   27
ATOM     27  C24 UNL A   1       6.544  22.662   2.824  1.00  0.00    +0.000 C 
ATOM    140  H36 UNL A   1       5.904  22.226   2.086  1.00  0.00    +0.000 H 
ATOM    139  H35 UNL A   1       6.356  22.298   3.812  1.00  0.00    +0.000 H 
BRANCH   27   26
ATOM    137  H33 UNL A   1       8.049  21.212   2.409  1.00  0.00    +0.000 H 
ATOM     26  C23 UNL A   1       7.980  22.278   2.437  1.00  0.00    +0.000 C 
ATOM    138  H34 UNL A   1       8.177  22.723   1.484  1.00  0.00    +0.000 H 
BRANCH   26   25
ATOM     25  C22 UNL A   1       9.029  22.804   3.402  1.00  0.00    +0.000 C 
ATOM    135  H31 UNL A   1       9.756  23.370   2.858  1.00  0.00    +0.000 H 
ATOM    136  H32 UNL A   1       8.549  23.425   4.131  1.00  0.00    +0.000 H 
BRANCH   25   24
ATOM    133  H29 UNL A   1       9.525  21.741   5.160  1.00  0.00    +0.000 H 
ATOM    134  H30 UNL A   1       9.330  20.746   3.720  1.00  0.00    +0.000 H 
ATOM     24  C21 UNL A   1       9.715  21.664   4.110  1.00  0.00    +0.000 C 
BRANCH   24   23
ATOM    132  H28 UNL A   1      11.707  21.895   4.672  1.00  0.00    +0.000 H 
ATOM     23  N1  UNL A   1      11.150  21.689   3.887  1.00  0.00    +0.000 N 
BRANCH   23   21
ATOM     21  C20 UNL A   1      11.823  21.457   2.708  1.00  0.00    +0.000 C 
ATOM     22  O1  UNL A   1      11.378  20.595   1.976  1.00  0.00    +0.000 O 
BRANCH   21   18
ATOM     18  C17 UNL A   1      13.203  22.107   2.543  1.00  0.00    +0.000 C 
BRANCH   18   17
ATOM     17  C16 UNL A   1      13.351  23.411   1.706  1.00  0.00    +0.000 C 
ATOM    124  H20 UNL A   1      13.531  24.216   2.389  1.00  0.00    +0.000 H 
ATOM    125  H21 UNL A   1      14.152  23.217   1.023  1.00  0.00    +0.000 H 
BRANCH   17   16
ATOM      4  C4  UNL A   1       8.079  23.873  -1.192  1.00  0.00    +0.000 C 
ATOM      5  C5  UNL A   1       7.905  24.905  -0.266  1.00  0.00    +0.000 C 
ATOM      6  C6  UNL A   1       8.941  25.317   0.579  1.00  0.00    +0.000 C 
ATOM      7  C7  UNL A   1      10.181  24.660   0.495  1.00  0.00    +0.000 C 
ATOM      8  C8  UNL A   1      10.427  23.669  -0.470  1.00  0.00    +0.000 C 
ATOM      9  C9  UNL A   1       9.354  23.292  -1.322  1.00  0.00    +0.000 C 
ATOM     10  C10 UNL A   1      11.791  23.214  -0.320  1.00  0.00    +0.000 C 
ATOM    112  H8  UNL A   1       6.988  25.375  -0.203  1.00  0.00    +0.000 H 
ATOM    113  H9  UNL A   1       8.799  26.089   1.250  1.00  0.00    +0.000 H 
ATOM    114  H10 UNL A   1       9.513  22.577  -2.050  1.00  0.00    +0.000 H 
ATOM     16  C15 UNL A   1      12.214  23.787   0.870  1.00  0.00    +0.000 C 
ATOM     96  N7  UNL A   1      11.336  24.797   1.253  1.00  0.00    +0.000 N 
BRANCH    4    2
ATOM      2  C2  UNL A   1       6.890  23.417  -2.025  1.00  0.00    +0.000 C 
ATOM    108  H4  UNL A   1       7.164  22.471  -2.445  1.00  0.00    +0.000 H 
BRANCH    2    1
ATOM      1  C1  UNL A   1       5.653  23.233  -1.149  1.00  0.00    +0.000 C 
ATOM    106  H2  UNL A   1       4.947  22.606  -1.654  1.00  0.00    +0.000 H 
ATOM    107  H3  UNL A   1       5.208  24.186  -0.955  1.00  0.00    +0.000 H 
ATOM    105  H1  UNL A   1       5.935  22.775  -0.223  1.00  0.00    +0.000 H 
ENDBRANCH    2    1
BRANCH    2    3
ATOM      3  C3  UNL A   1       6.588  24.342  -3.210  1.00  0.00    +0.000 C 
ATOM    109  H5  UNL A   1       6.747  25.359  -2.917  1.00  0.00    +0.000 H 
ATOM    110  H6  UNL A   1       5.570  24.212  -3.512  1.00  0.00    +0.000 H 
ATOM    111  H7  UNL A   1       7.237  24.100  -4.025  1.00  0.00    +0.000 H 
ENDBRANCH    2    3
ENDBRANCH    4    2
BRANCH   10   11
ATOM     11  S1  UNL A   1      12.473  21.947  -1.383  1.00  0.00    +0.000 S 
ATOM     12  C11 UNL A   1      14.205  22.127  -2.097  1.00  0.00    +0.000 C 
ATOM     13  C12 UNL A   1      14.245  23.293  -3.091  1.00  0.00    +0.000 C 
ATOM     14  C13 UNL A   1      15.506  22.171  -1.258  1.00  0.00    +0.000 C 
ATOM     15  C14 UNL A   1      14.394  20.782  -2.855  1.00  0.00    +0.000 C 
ATOM    115  H11 UNL A   1      14.114  24.215  -2.564  1.00  0.00    +0.000 H 
ATOM    116  H12 UNL A   1      13.461  23.178  -3.809  1.00  0.00    +0.000 H 
ATOM    117  H13 UNL A   1      15.190  23.300  -3.594  1.00  0.00    +0.000 H 
ATOM    118  H14 UNL A   1      15.520  23.064  -0.668  1.00  0.00    +0.000 H 
ATOM    119  H15 UNL A   1      16.353  22.162  -1.912  1.00  0.00    +0.000 H 
ATOM    120  H16 UNL A   1      15.543  21.317  -0.614  1.00  0.00    +0.000 H 
ATOM    121  H17 UNL A   1      13.552  20.610  -3.492  1.00  0.00    +0.000 H 
ATOM    122  H18 UNL A   1      14.476  19.983  -2.148  1.00  0.00    +0.000 H 
ATOM    123  H19 UNL A   1      15.285  20.828  -3.446  1.00  0.00    +0.000 H 
ENDBRANCH   10   11
BRANCH   96   97
ATOM     97  C72 UNL A   1      11.625  25.957   2.149  1.00  0.00    +0.000 C 
ATOM    161  H57 UNL A   1      12.659  25.841   2.395  1.00  0.00    +0.000 H 
ATOM    160  H56 UNL A   1      11.359  26.843   1.611  1.00  0.00    +0.000 H 
BRANCH   97   98
ATOM     98  C73 UNL A   1      10.931  26.032   3.505  1.00  0.00    +0.000 C 
ATOM     99  C74 UNL A   1      11.350  25.236   4.591  1.00  0.00    +0.000 C 
ATOM    100  C75 UNL A   1      10.574  25.114   5.751  1.00  0.00    +0.000 C 
ATOM    162  H58 UNL A   1      12.248  24.733   4.531  1.00  0.00    +0.000 H 
ATOM    165  H61 UNL A   1       9.568  27.565   2.992  1.00  0.00    +0.000 H 
ATOM    103  C77 UNL A   1       9.090  26.814   4.911  1.00  0.00    +0.000 C 
ATOM    104  C78 UNL A   1       9.833  26.882   3.719  1.00  0.00    +0.000 C 
ATOM    163  H59 UNL A   1      10.853  24.457   6.496  1.00  0.00    +0.000 H 
ATOM    164  H60 UNL A   1       8.293  27.453   5.058  1.00  0.00    +0.000 H 
ATOM    101  C76 UNL A   1       9.427  25.884   5.892  1.00  0.00    +0.000 C 
ATOM    102 Cl1  UNL A   1       8.411  25.656   7.262  1.00  0.00    +0.000 Cl
ENDBRANCH   97   98
ENDBRANCH   96   97
ENDBRANCH   17   16
ENDBRANCH   18   17
BRANCH   18   19
ATOM     19  C18 UNL A   1      13.867  20.902   1.815  1.00  0.00    +0.000 C 
ATOM    126  H22 UNL A   1      13.366  19.998   2.095  1.00  0.00    +0.000 H 
ATOM    127  H23 UNL A   1      14.898  20.839   2.096  1.00  0.00    +0.000 H 
ATOM    128  H24 UNL A   1      13.792  21.039   0.757  1.00  0.00    +0.000 H 
ENDBRANCH   18   19
BRANCH   18   20
ATOM    129  H25 UNL A   1      12.902  22.407   4.669  1.00  0.00    +0.000 H 
ATOM    130  H26 UNL A   1      13.857  23.657   3.910  1.00  0.00    +0.000 H 
ATOM    131  H27 UNL A   1      14.563  22.093   4.231  1.00  0.00    +0.000 H 
ATOM     20  C19 UNL A   1      13.668  22.605   3.949  1.00  0.00    +0.000 C 
ENDBRANCH   18   20
ENDBRANCH   21   18
ENDBRANCH   23   21
ENDBRANCH   24   23
ENDBRANCH   25   24
ENDBRANCH   26   25
ENDBRANCH   27   26
ENDBRANCH   28   27
ENDBRANCH   29   28
ENDBRANCH   30   29
ENDBRANCH   31   30
ENDBRANCH   33   31
ENDBRANCH   37   36
BRANCH   41   42
ATOM     42  C36 UNL A   1       6.541  33.837  -3.962  1.00  0.00    +0.000 C 
ATOM     43  C37 UNL A   1       5.475  34.257  -4.780  1.00  0.00    +0.000 C 
ATOM     44  F1  UNL A   1       4.485  33.409  -5.099  1.00  0.00    +0.000 F 
ATOM     45  C38 UNL A   1       5.447  35.531  -5.357  1.00  0.00    +0.000 C 
ATOM     46  F2  UNL A   1       4.467  35.853  -6.213  1.00  0.00    +0.000 F 
ATOM     47  C39 UNL A   1       6.455  36.442  -5.101  1.00  0.00    +0.000 C 
ATOM     48  F3  UNL A   1       6.454  37.645  -5.690  1.00  0.00    +0.000 F 
ATOM     49  C40 UNL A   1       7.496  36.082  -4.273  1.00  0.00    +0.000 C 
ATOM     50  F4  UNL A   1       8.500  36.938  -4.038  1.00  0.00    +0.000 F 
ATOM     51  C41 UNL A   1       7.554  34.796  -3.737  1.00  0.00    +0.000 C 
ATOM     52  F5  UNL A   1       8.686  34.492  -3.092  1.00  0.00    +0.000 F 
ENDBRANCH   41   42
BRANCH   58   59
ATOM     65  F8  UNL A   1      12.587  25.023  -5.339  1.00  0.00    +0.000 F 
ATOM     66  C51 UNL A   1      12.351  27.263  -6.043  1.00  0.00    +0.000 C 
ATOM     67  F9  UNL A   1      12.916  26.968  -7.222  1.00  0.00    +0.000 F 
ATOM     68  C52 UNL A   1      11.917  28.561  -5.792  1.00  0.00    +0.000 C 
ATOM     69  F10 UNL A   1      12.087  29.491  -6.744  1.00  0.00    +0.000 F 
ATOM     59  C47 UNL A   1      11.266  28.893  -4.596  1.00  0.00    +0.000 C 
ATOM     60  C48 UNL A   1      11.071  27.867  -3.656  1.00  0.00    +0.000 C 
ATOM     61  F6  UNL A   1      10.379  28.087  -2.529  1.00  0.00    +0.000 F 
ATOM     62  C49 UNL A   1      11.544  26.575  -3.893  1.00  0.00    +0.000 C 
ATOM     63  F7  UNL A   1      11.359  25.613  -2.978  1.00  0.00    +0.000 F 
ATOM     64  C50 UNL A   1      12.174  26.273  -5.091  1.00  0.00    +0.000 C 
ENDBRANCH   58   59
BRANCH   73   74
ATOM     74  C56 UNL A   1      14.038  32.156   0.049  1.00  0.00    +0.000 C 
ATOM     75  C57 UNL A   1      13.710  33.214   0.917  1.00  0.00    +0.000 C 
ATOM     76  F11 UNL A   1      12.469  33.722   0.920  1.00  0.00    +0.000 F 
ATOM     77  C58 UNL A   1      14.626  33.708   1.851  1.00  0.00    +0.000 C 
ATOM     78  F12 UNL A   1      14.253  34.664   2.713  1.00  0.00    +0.000 F 
ATOM     79  C59 UNL A   1      15.899  33.167   1.937  1.00  0.00    +0.000 C 
ATOM     80  F13 UNL A   1      16.753  33.588   2.878  1.00  0.00    +0.000 F 
ATOM     81  C60 UNL A   1      16.266  32.154   1.069  1.00  0.00    +0.000 C 
ATOM     82  F14 UNL A   1      17.482  31.598   1.166  1.00  0.00    +0.000 F 
ATOM     83  C61 UNL A   1      15.350  31.656   0.141  1.00  0.00    +0.000 C 
ATOM     84  F15 UNL A   1      15.741  30.608  -0.599  1.00  0.00    +0.000 F 
ENDBRANCH   73   74
TORSDOF 25
ENDMDL
MODEL 7
REMARK VINA RESULT:      -8.2     37.076     43.207
ROOT
ATOM    148  H44 UNL A   1      23.497  27.842   1.372  1.00  0.00    +0.000 H 
ATOM    149  H45 UNL A   1      23.182  25.402   2.376  1.00  0.00    +0.000 H 
ATOM    150  H46 UNL A   1      19.569  26.820   1.174  1.00  0.00    +0.000 H 
ATOM    151  H47 UNL A   1      19.907  20.593  -3.799  1.00  0.00    +0.000 H 
ATOM    152  H48 UNL A   1      22.005  21.884  -4.446  1.00  0.00    +0.000 H 
ATOM    153  H49 UNL A   1      20.057  24.111  -1.529  1.00  0.00    +0.000 H 
ATOM    154  H50 UNL A   1      16.830  24.421  -1.178  1.00  0.00    +0.000 H 
ATOM    155  H51 UNL A   1      18.177  25.756   0.568  1.00  0.00    +0.000 H 
ATOM    156  H52 UNL A   1      21.323  29.099  -3.318  1.00  0.00    +0.000 H 
ATOM    157  H53 UNL A   1      21.378  27.042  -4.863  1.00  0.00    +0.000 H 
ATOM     37  C32 UNL A   1      21.998  24.610  -3.472  1.00  0.00    +0.000 C 
ATOM     38  C33 UNL A   1      21.760  25.966  -2.900  1.00  0.00    +0.000 C 
ATOM     39  N3  UNL A   1      21.889  26.345  -1.668  1.00  0.00    +0.000 N 
ATOM     40  C34 UNL A   1      21.521  27.689  -1.645  1.00  0.00    +0.000 C 
ATOM     41  C35 UNL A   1      21.094  28.290  -0.501  1.00  0.00    +0.000 C 
ATOM     53  C42 UNL A   1      21.474  27.541   0.664  1.00  0.00    +0.000 C 
ATOM     54  C43 UNL A   1      22.658  27.247   1.304  1.00  0.00    +0.000 C 
ATOM     55  C44 UNL A   1      22.474  25.943   1.855  1.00  0.00    +0.000 C 
ATOM     56  C45 UNL A   1      21.174  25.526   1.567  1.00  0.00    +0.000 C 
ATOM     57  N4  UNL A   1      20.540  26.662   1.142  1.00  0.00    +0.000 N 
ATOM     58  C46 UNL A   1      20.556  24.219   1.526  1.00  0.00    +0.000 C 
ATOM     70  C53 UNL A   1      19.365  23.931   0.926  1.00  0.00    +0.000 C 
ATOM     71  N5  UNL A   1      19.104  22.650   0.468  1.00  0.00    +0.000 N 
ATOM     72  C54 UNL A   1      18.296  22.821  -0.541  1.00  0.00    +0.000 C 
ATOM     73  C55 UNL A   1      18.322  21.985  -1.764  1.00  0.00    +0.000 C 
ATOM     85  C62 UNL A   1      19.493  22.251  -2.393  1.00  0.00    +0.000 C 
ATOM     86  C63 UNL A   1      20.191  21.510  -3.420  1.00  0.00    +0.000 C 
ATOM     87  C64 UNL A   1      21.275  22.216  -3.798  1.00  0.00    +0.000 C 
ATOM     88  C65 UNL A   1      21.259  23.529  -3.147  1.00  0.00    +0.000 C 
ATOM     89  N6  UNL A   1      20.240  23.436  -2.222  1.00  0.00    +0.000 N 
ATOM     90  C66 UNL A   1      17.626  24.107  -0.599  1.00  0.00    +0.000 C 
ATOM     91  C67 UNL A   1      18.336  24.768   0.317  1.00  0.00    +0.000 C 
ATOM     92  C68 UNL A   1      21.427  28.118  -3.014  1.00  0.00    +0.000 C 
ATOM     93  C69 UNL A   1      21.490  27.071  -3.837  1.00  0.00    +0.000 C 
ENDROOT
BRANCH   37   36
ATOM     33  C28 UNL A   1      25.072  24.537  -6.403  1.00  0.00    +0.000 C 
ATOM     34  C29 UNL A   1      25.351  24.273  -5.062  1.00  0.00    +0.000 C 
ATOM     35  C30 UNL A   1      24.334  24.270  -4.118  1.00  0.00    +0.000 C 
ATOM     36  C31 UNL A   1      23.028  24.572  -4.505  1.00  0.00    +0.000 C 
ATOM    146  H42 UNL A   1      26.322  24.079  -4.769  1.00  0.00    +0.000 H 
ATOM    147  H43 UNL A   1      24.543  24.044  -3.132  1.00  0.00    +0.000 H 
ATOM    158  H54 UNL A   1      21.799  25.249  -6.080  1.00  0.00    +0.000 H 
ATOM    159  H55 UNL A   1      23.556  25.164  -7.737  1.00  0.00    +0.000 H 
ATOM     94  C70 UNL A   1      22.750  24.948  -5.814  1.00  0.00    +0.000 C 
ATOM     95  C71 UNL A   1      23.764  24.911  -6.758  1.00  0.00    +0.000 C 
BRANCH   33   31
ATOM     31  C27 UNL A   1      26.031  24.431  -7.530  1.00  0.00    +0.000 C 
ATOM     32  O2  UNL A   1      25.599  24.458  -8.685  1.00  0.00    +0.000 O 
BRANCH   31   30
ATOM    145  H41 UNL A   1      27.895  24.983  -7.814  1.00  0.00    +0.000 H 
ATOM     30  N2  UNL A   1      27.376  24.258  -7.396  1.00  0.00    +0.000 N 
BRANCH   30   29
ATOM     29  C26 UNL A   1      28.213  23.255  -6.780  1.00  0.00    +0.000 C 
ATOM    143  H39 UNL A   1      27.596  22.439  -6.467  1.00  0.00    +0.000 H 
ATOM    144  H40 UNL A   1      28.937  22.949  -7.507  1.00  0.00    +0.000 H 
BRANCH   29   28
ATOM     28  C25 UNL A   1      28.978  23.783  -5.566  1.00  0.00    +0.000 C 
ATOM    141  H37 UNL A   1      28.719  24.811  -5.423  1.00  0.00    +0.000 H 
ATOM    142  H38 UNL A   1      28.699  23.178  -4.728  1.00  0.00    +0.000 H 
BRANCH   28   27
ATOM     27  C24 UNL A   1      30.502  23.680  -5.716  1.00  0.00    +0.000 C 
ATOM    140  H36 UNL A   1      30.818  22.889  -5.067  1.00  0.00    +0.000 H 
ATOM    139  H35 UNL A   1      30.927  24.628  -5.460  1.00  0.00    +0.000 H 
BRANCH   27   26
ATOM    137  H33 UNL A   1      31.723  22.538  -7.038  1.00  0.00    +0.000 H 
ATOM     26  C23 UNL A   1      30.982  23.304  -7.126  1.00  0.00    +0.000 C 
ATOM    138  H34 UNL A   1      30.123  22.978  -7.673  1.00  0.00    +0.000 H 
BRANCH   26   25
ATOM     25  C22 UNL A   1      31.584  24.471  -7.892  1.00  0.00    +0.000 C 
ATOM    135  H31 UNL A   1      30.963  25.332  -7.766  1.00  0.00    +0.000 H 
ATOM    136  H32 UNL A   1      32.566  24.665  -7.512  1.00  0.00    +0.000 H 
BRANCH   25   24
ATOM    133  H29 UNL A   1      32.045  25.004  -9.884  1.00  0.00    +0.000 H 
ATOM    134  H30 UNL A   1      32.359  23.320  -9.474  1.00  0.00    +0.000 H 
ATOM     24  C21 UNL A   1      31.686  24.143  -9.359  1.00  0.00    +0.000 C 
BRANCH   24   23
ATOM    132  H28 UNL A   1      29.610  24.206  -9.519  1.00  0.00    +0.000 H 
ATOM     23  N1  UNL A   1      30.397  23.760  -9.907  1.00  0.00    +0.000 N 
BRANCH   23   21
ATOM     21  C20 UNL A   1      30.145  22.846 -10.907  1.00  0.00    +0.000 C 
ATOM     22  O1  UNL A   1      31.103  22.274 -11.389  1.00  0.00    +0.000 O 
BRANCH   21   18
ATOM     18  C17 UNL A   1      28.731  22.823 -11.503  1.00  0.00    +0.000 C 
BRANCH   18   17
ATOM     17  C16 UNL A   1      27.509  22.522 -10.588  1.00  0.00    +0.000 C 
ATOM    124  H20 UNL A   1      27.885  22.250  -9.624  1.00  0.00    +0.000 H 
ATOM    125  H21 UNL A   1      26.920  23.416 -10.602  1.00  0.00    +0.000 H 
BRANCH   17   16
ATOM      4  C4  UNL A   1      24.508  18.196 -13.538  1.00  0.00    +0.000 C 
ATOM      5  C5  UNL A   1      25.243  17.390 -12.664  1.00  0.00    +0.000 C 
ATOM      6  C6  UNL A   1      26.018  17.936 -11.635  1.00  0.00    +0.000 C 
ATOM      7  C7  UNL A   1      26.063  19.334 -11.494  1.00  0.00    +0.000 C 
ATOM      8  C8  UNL A   1      25.284  20.182 -12.299  1.00  0.00    +0.000 C 
ATOM      9  C9  UNL A   1      24.495  19.587 -13.321  1.00  0.00    +0.000 C 
ATOM     10  C10 UNL A   1      25.526  21.547 -11.892  1.00  0.00    +0.000 C 
ATOM    112  H8  UNL A   1      25.214  16.365 -12.782  1.00  0.00    +0.000 H 
ATOM    113  H9  UNL A   1      26.546  17.325 -10.992  1.00  0.00    +0.000 H 
ATOM    114  H10 UNL A   1      23.902  20.187 -13.916  1.00  0.00    +0.000 H 
ATOM     16  C15 UNL A   1      26.606  21.460 -11.026  1.00  0.00    +0.000 C 
ATOM     96  N7  UNL A   1      26.801  20.138 -10.636  1.00  0.00    +0.000 N 
BRANCH    4    2
ATOM      2  C2  UNL A   1      23.751  17.547 -14.686  1.00  0.00    +0.000 C 
ATOM    108  H4  UNL A   1      24.056  16.522 -14.704  1.00  0.00    +0.000 H 
BRANCH    2    1
ATOM      1  C1  UNL A   1      22.244  17.614 -14.449  1.00  0.00    +0.000 C 
ATOM    106  H2  UNL A   1      21.980  18.590 -14.097  1.00  0.00    +0.000 H 
ATOM    107  H3  UNL A   1      21.964  16.884 -13.718  1.00  0.00    +0.000 H 
ATOM    105  H1  UNL A   1      21.729  17.416 -15.366  1.00  0.00    +0.000 H 
ENDBRANCH    2    1
BRANCH    2    3
ATOM      3  C3  UNL A   1      24.114  18.127 -16.058  1.00  0.00    +0.000 C 
ATOM    109  H5  UNL A   1      24.430  17.336 -16.707  1.00  0.00    +0.000 H 
ATOM    110  H6  UNL A   1      24.907  18.836 -15.947  1.00  0.00    +0.000 H 
ATOM    111  H7  UNL A   1      23.257  18.612 -16.478  1.00  0.00    +0.000 H 
ENDBRANCH    2    3
ENDBRANCH    4    2
BRANCH   10   11
ATOM     11  S1  UNL A   1      24.703  22.919 -12.692  1.00  0.00    +0.000 S 
ATOM     12  C11 UNL A   1      23.068  23.574 -12.031  1.00  0.00    +0.000 C 
ATOM     13  C12 UNL A   1      21.968  22.522 -12.211  1.00  0.00    +0.000 C 
ATOM     14  C13 UNL A   1      22.877  24.229 -10.639  1.00  0.00    +0.000 C 
ATOM     15  C14 UNL A   1      22.794  24.788 -12.962  1.00  0.00    +0.000 C 
ATOM    115  H11 UNL A   1      22.163  21.689 -11.568  1.00  0.00    +0.000 H 
ATOM    116  H12 UNL A   1      21.954  22.191 -13.228  1.00  0.00    +0.000 H 
ATOM    117  H13 UNL A   1      21.020  22.951 -11.963  1.00  0.00    +0.000 H 
ATOM    118  H14 UNL A   1      23.038  23.497  -9.876  1.00  0.00    +0.000 H 
ATOM    119  H15 UNL A   1      21.882  24.615 -10.560  1.00  0.00    +0.000 H 
ATOM    120  H16 UNL A   1      23.580  25.027 -10.522  1.00  0.00    +0.000 H 
ATOM    121  H17 UNL A   1      22.890  24.484 -13.983  1.00  0.00    +0.000 H 
ATOM    122  H18 UNL A   1      23.499  25.566 -12.753  1.00  0.00    +0.000 H 
ATOM    123  H19 UNL A   1      21.802  25.153 -12.791  1.00  0.00    +0.000 H 
ENDBRANCH   10   11
BRANCH   96   97
ATOM     97  C72 UNL A   1      27.490  19.649  -9.405  1.00  0.00    +0.000 C 
ATOM    161  H57 UNL A   1      27.383  20.457  -8.712  1.00  0.00    +0.000 H 
ATOM    160  H56 UNL A   1      27.028  18.723  -9.133  1.00  0.00    +0.000 H 
BRANCH   97   98
ATOM     98  C73 UNL A   1      28.994  19.401  -9.451  1.00  0.00    +0.000 C 
ATOM     99  C74 UNL A   1      29.864  19.977  -8.502  1.00  0.00    +0.000 C 
ATOM    100  C75 UNL A   1      31.254  19.961  -8.679  1.00  0.00    +0.000 C 
ATOM    162  H58 UNL A   1      29.469  20.420  -7.659  1.00  0.00    +0.000 H 
ATOM    165  H61 UNL A   1      28.968  18.071 -11.094  1.00  0.00    +0.000 H 
ATOM    103  C77 UNL A   1      30.971  18.529 -10.594  1.00  0.00    +0.000 C 
ATOM    104  C78 UNL A   1      29.574  18.605 -10.453  1.00  0.00    +0.000 C 
ATOM    163  H59 UNL A   1      31.867  20.466  -8.021  1.00  0.00    +0.000 H 
ATOM    164  H60 UNL A   1      31.383  17.931 -11.327  1.00  0.00    +0.000 H 
ATOM    101  C76 UNL A   1      31.800  19.259  -9.745  1.00  0.00    +0.000 C 
ATOM    102 Cl1  UNL A   1      33.496  19.330 -10.032  1.00  0.00    +0.000 Cl
ENDBRANCH   97   98
ENDBRANCH   96   97
ENDBRANCH   17   16
ENDBRANCH   18   17
BRANCH   18   19
ATOM     19  C18 UNL A   1      28.988  21.649 -12.491  1.00  0.00    +0.000 C 
ATOM    126  H22 UNL A   1      29.930  21.792 -12.978  1.00  0.00    +0.000 H 
ATOM    127  H23 UNL A   1      28.209  21.622 -13.224  1.00  0.00    +0.000 H 
ATOM    128  H24 UNL A   1      29.003  20.725 -11.952  1.00  0.00    +0.000 H 
ENDBRANCH   18   19
BRANCH   18   20
ATOM    129  H25 UNL A   1      29.169  24.939 -11.678  1.00  0.00    +0.000 H 
ATOM    130  H26 UNL A   1      27.464  24.582 -11.548  1.00  0.00    +0.000 H 
ATOM    131  H27 UNL A   1      28.306  24.283 -13.048  1.00  0.00    +0.000 H 
ATOM     20  C19 UNL A   1      28.390  24.271 -11.982  1.00  0.00    +0.000 C 
ENDBRANCH   18   20
ENDBRANCH   21   18
ENDBRANCH   23   21
ENDBRANCH   24   23
ENDBRANCH   25   24
ENDBRANCH   26   25
ENDBRANCH   27   26
ENDBRANCH   28   27
ENDBRANCH   29   28
ENDBRANCH   30   29
ENDBRANCH   31   30
ENDBRANCH   33   31
ENDBRANCH   37   36
BRANCH   41   42
ATOM     42  C36 UNL A   1      19.988  29.316  -0.463  1.00  0.00    +0.000 C 
ATOM     43  C37 UNL A   1      20.089  30.426   0.399  1.00  0.00    +0.000 C 
ATOM     44  F1  UNL A   1      21.246  30.705   1.018  1.00  0.00    +0.000 F 
ATOM     45  C38 UNL A   1      18.981  31.220   0.710  1.00  0.00    +0.000 C 
ATOM     46  F2  UNL A   1      19.097  32.201   1.615  1.00  0.00    +0.000 F 
ATOM     47  C39 UNL A   1      17.748  30.964   0.137  1.00  0.00    +0.000 C 
ATOM     48  F3  UNL A   1      16.676  31.694   0.469  1.00  0.00    +0.000 F 
ATOM     49  C40 UNL A   1      17.619  29.911  -0.743  1.00  0.00    +0.000 C 
ATOM     50  F4  UNL A   1      16.426  29.625  -1.284  1.00  0.00    +0.000 F 
ATOM     51  C41 UNL A   1      18.709  29.086  -1.015  1.00  0.00    +0.000 C 
ATOM     52  F5  UNL A   1      18.437  27.995  -1.741  1.00  0.00    +0.000 F 
ENDBRANCH   41   42
BRANCH   58   59
ATOM     65  F8  UNL A   1      23.524  19.631   2.984  1.00  0.00    +0.000 F 
ATOM     66  C51 UNL A   1      22.896  21.247   1.381  1.00  0.00    +0.000 C 
ATOM     67  F9  UNL A   1      23.601  20.608   0.439  1.00  0.00    +0.000 F 
ATOM     68  C52 UNL A   1      22.189  22.399   1.052  1.00  0.00    +0.000 C 
ATOM     69  F10 UNL A   1      22.242  22.847  -0.212  1.00  0.00    +0.000 F 
ATOM     59  C47 UNL A   1      21.390  23.060   1.997  1.00  0.00    +0.000 C 
ATOM     60  C48 UNL A   1      21.333  22.517   3.292  1.00  0.00    +0.000 C 
ATOM     61  F6  UNL A   1      20.523  23.040   4.222  1.00  0.00    +0.000 F 
ATOM     62  C49 UNL A   1      22.076  21.384   3.630  1.00  0.00    +0.000 C 
ATOM     63  F7  UNL A   1      22.017  20.889   4.875  1.00  0.00    +0.000 F 
ATOM     64  C50 UNL A   1      22.848  20.746   2.672  1.00  0.00    +0.000 C 
ENDBRANCH   58   59
BRANCH   73   74
ATOM     74  C56 UNL A   1      17.097  21.359  -2.314  1.00  0.00    +0.000 C 
ATOM     75  C57 UNL A   1      16.416  20.360  -1.595  1.00  0.00    +0.000 C 
ATOM     76  F11 UNL A   1      16.996  19.782  -0.532  1.00  0.00    +0.000 F 
ATOM     77  C58 UNL A   1      15.101  20.000  -1.904  1.00  0.00    +0.000 C 
ATOM     78  F12 UNL A   1      14.458  19.099  -1.148  1.00  0.00    +0.000 F 
ATOM     79  C59 UNL A   1      14.432  20.620  -2.947  1.00  0.00    +0.000 C 
ATOM     80  F13 UNL A   1      13.149  20.329  -3.198  1.00  0.00    +0.000 F 
ATOM     81  C60 UNL A   1      15.088  21.577  -3.701  1.00  0.00    +0.000 C 
ATOM     82  F14 UNL A   1      14.441  22.208  -4.690  1.00  0.00    +0.000 F 
ATOM     83  C61 UNL A   1      16.399  21.941  -3.389  1.00  0.00    +0.000 C 
ATOM     84  F15 UNL A   1      16.937  22.945  -4.096  1.00  0.00    +0.000 F 
ENDBRANCH   73   74
TORSDOF 25
ENDMDL
MODEL 8
REMARK VINA RESULT:      -8.1     35.808     40.877
ROOT
ATOM    148  H44 UNL A   1       7.637  11.030  29.760  1.00  0.00    +0.000 H 
ATOM    149  H45 UNL A   1       8.379  13.508  29.152  1.00  0.00    +0.000 H 
ATOM    150  H46 UNL A   1      11.381  10.949  28.183  1.00  0.00    +0.000 H 
ATOM    151  H47 UNL A   1       9.947  13.647  20.816  1.00  0.00    +0.000 H 
ATOM    152  H48 UNL A   1       7.679  12.685  21.463  1.00  0.00    +0.000 H 
ATOM    153  H49 UNL A   1      10.272  11.918  24.618  1.00  0.00    +0.000 H 
ATOM    154  H50 UNL A   1      13.433  11.158  24.370  1.00  0.00    +0.000 H 
ATOM    155  H51 UNL A   1      12.591  11.228  26.806  1.00  0.00    +0.000 H 
ATOM    156  H52 UNL A   1       8.240   7.118  26.206  1.00  0.00    +0.000 H 
ATOM    157  H53 UNL A   1       7.850   8.048  23.838  1.00  0.00    +0.000 H 
ATOM     37  C32 UNL A   1       7.815  10.916  23.750  1.00  0.00    +0.000 C 
ATOM     38  C33 UNL A   1       8.133  10.031  24.908  1.00  0.00    +0.000 C 
ATOM     39  N3  UNL A   1       8.354  10.375  26.137  1.00  0.00    +0.000 N 
ATOM     40  C34 UNL A   1       8.632   9.191  26.818  1.00  0.00    +0.000 C 
ATOM     41  C35 UNL A   1       9.344   9.188  27.977  1.00  0.00    +0.000 C 
ATOM     53  C42 UNL A   1       9.372  10.489  28.584  1.00  0.00    +0.000 C 
ATOM     54  C43 UNL A   1       8.452  11.314  29.194  1.00  0.00    +0.000 C 
ATOM     55  C44 UNL A   1       8.867  12.641  28.879  1.00  0.00    +0.000 C 
ATOM     56  C45 UNL A   1      10.045  12.566  28.134  1.00  0.00    +0.000 C 
ATOM     57  N4  UNL A   1      10.456  11.269  28.281  1.00  0.00    +0.000 N 
ATOM     58  C46 UNL A   1      10.698  13.501  27.245  1.00  0.00    +0.000 C 
ATOM     70  C53 UNL A   1      11.672  13.181  26.345  1.00  0.00    +0.000 C 
ATOM     71  N5  UNL A   1      11.859  13.957  25.213  1.00  0.00    +0.000 N 
ATOM     72  C54 UNL A   1      12.320  13.126  24.319  1.00  0.00    +0.000 C 
ATOM     73  C55 UNL A   1      11.980  13.199  22.879  1.00  0.00    +0.000 C 
ATOM     85  C62 UNL A   1      10.662  12.903  22.773  1.00  0.00    +0.000 C 
ATOM     86  C63 UNL A   1       9.735  13.140  21.689  1.00  0.00    +0.000 C 
ATOM     87  C64 UNL A   1       8.548  12.587  22.010  1.00  0.00    +0.000 C 
ATOM     88  C65 UNL A   1       8.680  11.826  23.255  1.00  0.00    +0.000 C 
ATOM     89  N6  UNL A   1       9.932  12.163  23.727  1.00  0.00    +0.000 N 
ATOM     90  C66 UNL A   1      12.866  11.884  24.837  1.00  0.00    +0.000 C 
ATOM     91  C67 UNL A   1      12.422  11.955  26.093  1.00  0.00    +0.000 C 
ATOM     92  C68 UNL A   1       8.290   8.112  25.931  1.00  0.00    +0.000 C 
ATOM     93  C69 UNL A   1       8.047   8.574  24.704  1.00  0.00    +0.000 C 
ENDROOT
BRANCH   37   36
ATOM     33  C28 UNL A   1       4.123  10.085  21.822  1.00  0.00    +0.000 C 
ATOM     34  C29 UNL A   1       5.304   9.468  21.408  1.00  0.00    +0.000 C 
ATOM     35  C30 UNL A   1       6.500   9.724  22.065  1.00  0.00    +0.000 C 
ATOM     36  C31 UNL A   1       6.529  10.636  23.121  1.00  0.00    +0.000 C 
ATOM    146  H42 UNL A   1       5.290   8.817  20.607  1.00  0.00    +0.000 H 
ATOM    147  H43 UNL A   1       7.364   9.242  21.774  1.00  0.00    +0.000 H 
ATOM    158  H54 UNL A   1       5.428  12.076  24.200  1.00  0.00    +0.000 H 
ATOM    159  H55 UNL A   1       3.332  11.559  23.114  1.00  0.00    +0.000 H 
ATOM     94  C70 UNL A   1       5.386  11.344  23.474  1.00  0.00    +0.000 C 
ATOM     95  C71 UNL A   1       4.189  11.054  22.837  1.00  0.00    +0.000 C 
BRANCH   33   31
ATOM     31  C27 UNL A   1       2.762   9.795  21.307  1.00  0.00    +0.000 C 
ATOM     32  O2  UNL A   1       2.250  10.577  20.501  1.00  0.00    +0.000 O 
BRANCH   31   30
ATOM    145  H41 UNL A   1       1.631   8.235  20.923  1.00  0.00    +0.000 H 
ATOM     30  N2  UNL A   1       1.993   8.738  21.689  1.00  0.00    +0.000 N 
BRANCH   30   29
ATOM     29  C26 UNL A   1       1.587   8.185  22.960  1.00  0.00    +0.000 C 
ATOM    143  H39 UNL A   1       1.195   8.974  23.568  1.00  0.00    +0.000 H 
ATOM    144  H40 UNL A   1       0.853   7.431  22.765  1.00  0.00    +0.000 H 
BRANCH   29   28
ATOM     28  C25 UNL A   1       2.740   7.518  23.713  1.00  0.00    +0.000 C 
ATOM    141  H37 UNL A   1       2.440   6.529  23.986  1.00  0.00    +0.000 H 
ATOM    142  H38 UNL A   1       3.586   7.516  23.058  1.00  0.00    +0.000 H 
BRANCH   28   27
ATOM     27  C24 UNL A   1       3.151   8.273  24.985  1.00  0.00    +0.000 C 
ATOM    140  H36 UNL A   1       2.480   7.956  25.756  1.00  0.00    +0.000 H 
ATOM    139  H35 UNL A   1       3.094   9.322  24.783  1.00  0.00    +0.000 H 
BRANCH   27   26
ATOM    137  H33 UNL A   1       4.987   7.198  24.862  1.00  0.00    +0.000 H 
ATOM     26  C23 UNL A   1       4.569   7.958  25.487  1.00  0.00    +0.000 C 
ATOM    138  H34 UNL A   1       5.126   8.870  25.446  1.00  0.00    +0.000 H 
BRANCH   26   25
ATOM     25  C22 UNL A   1       4.608   7.473  26.926  1.00  0.00    +0.000 C 
ATOM    135  H31 UNL A   1       4.876   8.289  27.565  1.00  0.00    +0.000 H 
ATOM    136  H32 UNL A   1       3.641   7.099  27.192  1.00  0.00    +0.000 H 
BRANCH   25   24
ATOM    133  H29 UNL A   1       6.601   6.791  27.091  1.00  0.00    +0.000 H 
ATOM    134  H30 UNL A   1       5.419   5.856  28.001  1.00  0.00    +0.000 H 
ATOM     24  C21 UNL A   1       5.619   6.366  27.084  1.00  0.00    +0.000 C 
BRANCH   24   23
ATOM    132  H28 UNL A   1       5.271   5.769  25.119  1.00  0.00    +0.000 H 
ATOM     23  N1  UNL A   1       5.527   5.406  25.997  1.00  0.00    +0.000 N 
BRANCH   23   21
ATOM     21  C20 UNL A   1       5.758   4.050  26.051  1.00  0.00    +0.000 C 
ATOM     22  O1  UNL A   1       6.771   3.681  26.612  1.00  0.00    +0.000 O 
BRANCH   21   18
ATOM     18  C17 UNL A   1       4.871   3.147  25.183  1.00  0.00    +0.000 C 
BRANCH   18   17
ATOM     17  C16 UNL A   1       5.354   2.717  23.767  1.00  0.00    +0.000 C 
ATOM    124  H20 UNL A   1       5.142   1.674  23.656  1.00  0.00    +0.000 H 
ATOM    125  H21 UNL A   1       4.831   3.355  23.086  1.00  0.00    +0.000 H 
BRANCH   17   16
ATOM      4  C4  UNL A   1      10.960   2.650  21.536  1.00  0.00    +0.000 C 
ATOM      5  C5  UNL A   1      10.550   3.893  21.047  1.00  0.00    +0.000 C 
ATOM      6  C6  UNL A   1       9.327   4.462  21.418  1.00  0.00    +0.000 C 
ATOM      7  C7  UNL A   1       8.491   3.751  22.296  1.00  0.00    +0.000 C 
ATOM      8  C8  UNL A   1       8.893   2.535  22.874  1.00  0.00    +0.000 C 
ATOM      9  C9  UNL A   1      10.150   1.999  22.485  1.00  0.00    +0.000 C 
ATOM     10  C10 UNL A   1       7.837   2.073  23.747  1.00  0.00    +0.000 C 
ATOM    112  H8  UNL A   1      11.164   4.403  20.393  1.00  0.00    +0.000 H 
ATOM    113  H9  UNL A   1       9.044   5.387  21.055  1.00  0.00    +0.000 H 
ATOM    114  H10 UNL A   1      10.475   1.114  22.906  1.00  0.00    +0.000 H 
ATOM     16  C15 UNL A   1       6.770   2.914  23.468  1.00  0.00    +0.000 C 
ATOM     96  N7  UNL A   1       7.212   4.027  22.758  1.00  0.00    +0.000 N 
BRANCH    4    2
ATOM      2  C2  UNL A   1      12.263   2.048  21.031  1.00  0.00    +0.000 C 
ATOM    108  H4  UNL A   1      12.914   2.872  20.825  1.00  0.00    +0.000 H 
BRANCH    2    1
ATOM      1  C1  UNL A   1      12.902   1.163  22.099  1.00  0.00    +0.000 C 
ATOM    106  H2  UNL A   1      13.951   1.369  22.153  1.00  0.00    +0.000 H 
ATOM    107  H3  UNL A   1      12.753   0.134  21.846  1.00  0.00    +0.000 H 
ATOM    105  H1  UNL A   1      12.451   1.366  23.048  1.00  0.00    +0.000 H 
ENDBRANCH    2    1
BRANCH    2    3
ATOM      3  C3  UNL A   1      12.107   1.284  19.711  1.00  0.00    +0.000 C 
ATOM    109  H5  UNL A   1      11.290   1.696  19.155  1.00  0.00    +0.000 H 
ATOM    110  H6  UNL A   1      11.914   0.252  19.917  1.00  0.00    +0.000 H 
ATOM    111  H7  UNL A   1      13.007   1.372  19.140  1.00  0.00    +0.000 H 
ENDBRANCH    2    3
ENDBRANCH    4    2
BRANCH   10   11
ATOM     11  S1  UNL A   1       7.988   0.546  24.666  1.00  0.00    +0.000 S 
ATOM     12  C11 UNL A   1       9.239   0.387  26.062  1.00  0.00    +0.000 C 
ATOM     13  C12 UNL A   1      10.664   0.448  25.501  1.00  0.00    +0.000 C 
ATOM     14  C13 UNL A   1       9.208   1.211  27.373  1.00  0.00    +0.000 C 
ATOM     15  C14 UNL A   1       8.949  -1.039  26.609  1.00  0.00    +0.000 C 
ATOM    115  H11 UNL A   1      10.858   1.432  25.125  1.00  0.00    +0.000 H 
ATOM    116  H12 UNL A   1      10.766  -0.263  24.708  1.00  0.00    +0.000 H 
ATOM    117  H13 UNL A   1      11.363   0.218  26.277  1.00  0.00    +0.000 H 
ATOM    118  H14 UNL A   1       9.396   2.241  27.152  1.00  0.00    +0.000 H 
ATOM    119  H15 UNL A   1       9.960   0.846  28.042  1.00  0.00    +0.000 H 
ATOM    120  H16 UNL A   1       8.246   1.115  27.831  1.00  0.00    +0.000 H 
ATOM    121  H17 UNL A   1       8.940  -1.737  25.799  1.00  0.00    +0.000 H 
ATOM    122  H18 UNL A   1       7.997  -1.047  27.099  1.00  0.00    +0.000 H 
ATOM    123  H19 UNL A   1       9.711  -1.315  27.308  1.00  0.00    +0.000 H 
ENDBRANCH   10   11
BRANCH   96   97
ATOM     97  C72 UNL A   1       6.553   5.364  22.669  1.00  0.00    +0.000 C 
ATOM    161  H57 UNL A   1       5.830   5.349  23.458  1.00  0.00    +0.000 H 
ATOM    160  H56 UNL A   1       7.325   6.101  22.743  1.00  0.00    +0.000 H 
BRANCH   97   98
ATOM     98  C73 UNL A   1       5.733   5.701  21.428  1.00  0.00    +0.000 C 
ATOM     99  C74 UNL A   1       4.330   5.558  21.411  1.00  0.00    +0.000 C 
ATOM    100  C75 UNL A   1       3.602   5.623  20.216  1.00  0.00    +0.000 C 
ATOM    162  H58 UNL A   1       3.828   5.401  22.298  1.00  0.00    +0.000 H 
ATOM    165  H61 UNL A   1       7.351   6.380  20.248  1.00  0.00    +0.000 H 
ATOM    103  C77 UNL A   1       5.606   6.283  19.056  1.00  0.00    +0.000 C 
ATOM    104  C78 UNL A   1       6.346   6.148  20.245  1.00  0.00    +0.000 C 
ATOM    163  H59 UNL A   1       2.589   5.426  20.213  1.00  0.00    +0.000 H 
ATOM    164  H60 UNL A   1       6.068   6.624  18.198  1.00  0.00    +0.000 H 
ATOM    101  C76 UNL A   1       4.253   5.958  19.035  1.00  0.00    +0.000 C 
ATOM    102 Cl1  UNL A   1       3.386   5.929  17.548  1.00  0.00    +0.000 Cl
ENDBRANCH   97   98
ENDBRANCH   96   97
ENDBRANCH   17   16
ENDBRANCH   18   17
BRANCH   18   19
ATOM     19  C18 UNL A   1       3.675   4.139  25.084  1.00  0.00    +0.000 C 
ATOM    126  H22 UNL A   1       3.077   3.892  24.231  1.00  0.00    +0.000 H 
ATOM    127  H23 UNL A   1       4.047   5.137  24.981  1.00  0.00    +0.000 H 
ATOM    128  H24 UNL A   1       3.080   4.070  25.970  1.00  0.00    +0.000 H 
ENDBRANCH   18   19
BRANCH   18   20
ATOM    129  H25 UNL A   1       5.470   1.711  26.692  1.00  0.00    +0.000 H 
ATOM    130  H26 UNL A   1       4.966   0.982  25.186  1.00  0.00    +0.000 H 
ATOM    131  H27 UNL A   1       3.774   1.635  26.282  1.00  0.00    +0.000 H 
ATOM     20  C19 UNL A   1       4.761   1.760  25.891  1.00  0.00    +0.000 C 
ENDBRANCH   18   20
ENDBRANCH   21   18
ENDBRANCH   23   21
ENDBRANCH   24   23
ENDBRANCH   25   24
ENDBRANCH   26   25
ENDBRANCH   27   26
ENDBRANCH   28   27
ENDBRANCH   29   28
ENDBRANCH   30   29
ENDBRANCH   31   30
ENDBRANCH   33   31
ENDBRANCH   37   36
BRANCH   41   42
ATOM     42  C36 UNL A   1      10.349   8.121  28.334  1.00  0.00    +0.000 C 
ATOM     43  C37 UNL A   1       9.915   6.916  28.922  1.00  0.00    +0.000 C 
ATOM     44  F1  UNL A   1       8.610   6.608  28.962  1.00  0.00    +0.000 F 
ATOM     45  C38 UNL A   1      10.806   6.044  29.556  1.00  0.00    +0.000 C 
ATOM     46  F2  UNL A   1      10.338   4.961  30.193  1.00  0.00    +0.000 F 
ATOM     47  C39 UNL A   1      12.161   6.319  29.585  1.00  0.00    +0.000 C 
ATOM     48  F3  UNL A   1      13.008   5.509  30.232  1.00  0.00    +0.000 F 
ATOM     49  C40 UNL A   1      12.629   7.469  28.986  1.00  0.00    +0.000 C 
ATOM     50  F4  UNL A   1      13.934   7.771  29.032  1.00  0.00    +0.000 F 
ATOM     51  C41 UNL A   1      11.738   8.366  28.399  1.00  0.00    +0.000 C 
ATOM     52  F5  UNL A   1      12.271   9.528  28.002  1.00  0.00    +0.000 F 
ENDBRANCH   41   42
BRANCH   58   59
ATOM     65  F8  UNL A   1       8.409  18.671  27.359  1.00  0.00    +0.000 F 
ATOM     66  C51 UNL A   1       9.989  17.106  28.153  1.00  0.00    +0.000 C 
ATOM     67  F9  UNL A   1      10.406  17.977  29.082  1.00  0.00    +0.000 F 
ATOM     68  C52 UNL A   1      10.565  15.842  28.084  1.00  0.00    +0.000 C 
ATOM     69  F10 UNL A   1      11.539  15.531  28.953  1.00  0.00    +0.000 F 
ATOM     59  C47 UNL A   1      10.112  14.884  27.166  1.00  0.00    +0.000 C 
ATOM     60  C48 UNL A   1       9.056  15.249  26.314  1.00  0.00    +0.000 C 
ATOM     61  F6  UNL A   1       8.511  14.359  25.473  1.00  0.00    +0.000 F 
ATOM     62  C49 UNL A   1       8.507  16.532  26.358  1.00  0.00    +0.000 C 
ATOM     63  F7  UNL A   1       7.508  16.864  25.528  1.00  0.00    +0.000 F 
ATOM     64  C50 UNL A   1       8.967  17.455  27.284  1.00  0.00    +0.000 C 
ENDBRANCH   58   59
BRANCH   73   74
ATOM     74  C56 UNL A   1      13.021  13.178  21.824  1.00  0.00    +0.000 C 
ATOM     75  C57 UNL A   1      13.338  11.985  21.151  1.00  0.00    +0.000 C 
ATOM     76  F11 UNL A   1      12.894  10.809  21.619  1.00  0.00    +0.000 F 
ATOM     77  C58 UNL A   1      14.043  11.988  19.943  1.00  0.00    +0.000 C 
ATOM     78  F12 UNL A   1      14.260  10.837  19.292  1.00  0.00    +0.000 F 
ATOM     79  C59 UNL A   1      14.461  13.182  19.380  1.00  0.00    +0.000 C 
ATOM     80  F13 UNL A   1      15.072  13.193  18.188  1.00  0.00    +0.000 F 
ATOM     81  C60 UNL A   1      14.202  14.371  20.038  1.00  0.00    +0.000 C 
ATOM     82  F14 UNL A   1      14.571  15.536  19.487  1.00  0.00    +0.000 F 
ATOM     83  C61 UNL A   1      13.494  14.369  21.241  1.00  0.00    +0.000 C 
ATOM     84  F15 UNL A   1      13.191  15.563  21.772  1.00  0.00    +0.000 F 
ENDBRANCH   73   74
TORSDOF 25
ENDMDL
MODEL 9
REMARK VINA RESULT:      -8.1     19.364     27.354
ROOT
ATOM    148  H44 UNL A   1      19.204  37.605  44.645  1.00  0.00    +0.000 H 
ATOM    149  H45 UNL A   1      18.479  38.930  46.832  1.00  0.00    +0.000 H 
ATOM    150  H46 UNL A   1      19.378  35.099  47.838  1.00  0.00    +0.000 H 
ATOM    151  H47 UNL A   1      25.048  38.637  52.192  1.00  0.00    +0.000 H 
ATOM    152  H48 UNL A   1      25.616  39.451  49.847  1.00  0.00    +0.000 H 
ATOM    153  H49 UNL A   1      22.393  36.854  49.486  1.00  0.00    +0.000 H 
ATOM    154  H50 UNL A   1      21.894  34.151  51.240  1.00  0.00    +0.000 H 
ATOM    155  H51 UNL A   1      20.054  34.580  49.486  1.00  0.00    +0.000 H 
ATOM    156  H52 UNL A   1      23.636  34.663  44.655  1.00  0.00    +0.000 H 
ATOM    157  H53 UNL A   1      25.410  35.796  46.135  1.00  0.00    +0.000 H 
ATOM     37  C32 UNL A   1      24.333  37.895  47.771  1.00  0.00    +0.000 C 
ATOM     38  C33 UNL A   1      23.599  36.943  46.887  1.00  0.00    +0.000 C 
ATOM     39  N3  UNL A   1      22.338  36.938  46.596  1.00  0.00    +0.000 N 
ATOM     40  C34 UNL A   1      22.146  35.837  45.763  1.00  0.00    +0.000 C 
ATOM     41  C35 UNL A   1      20.925  35.249  45.630  1.00  0.00    +0.000 C 
ATOM     53  C42 UNL A   1      19.869  36.118  46.070  1.00  0.00    +0.000 C 
ATOM     54  C43 UNL A   1      19.310  37.295  45.623  1.00  0.00    +0.000 C 
ATOM     55  C44 UNL A   1      18.908  37.992  46.801  1.00  0.00    +0.000 C 
ATOM     56  C45 UNL A   1      19.196  37.188  47.905  1.00  0.00    +0.000 C 
ATOM     57  N4  UNL A   1      19.463  35.959  47.367  1.00  0.00    +0.000 N 
ATOM     58  C46 UNL A   1      19.366  37.486  49.310  1.00  0.00    +0.000 C 
ATOM     70  C53 UNL A   1      19.952  36.658  50.223  1.00  0.00    +0.000 C 
ATOM     71  N5  UNL A   1      20.546  37.181  51.360  1.00  0.00    +0.000 N 
ATOM     72  C54 UNL A   1      21.499  36.339  51.649  1.00  0.00    +0.000 C 
ATOM     73  C55 UNL A   1      22.810  36.744  52.206  1.00  0.00    +0.000 C 
ATOM     85  C62 UNL A   1      23.446  37.447  51.237  1.00  0.00    +0.000 C 
ATOM     86  C63 UNL A   1      24.576  38.345  51.322  1.00  0.00    +0.000 C 
ATOM     87  C64 UNL A   1      24.908  38.737  50.076  1.00  0.00    +0.000 C 
ATOM     88  C65 UNL A   1      24.109  37.996  49.097  1.00  0.00    +0.000 C 
ATOM     89  N6  UNL A   1      23.165  37.338  49.858  1.00  0.00    +0.000 N 
ATOM     90  C66 UNL A   1      21.383  35.026  51.041  1.00  0.00    +0.000 C 
ATOM     91  C67 UNL A   1      20.423  35.279  50.150  1.00  0.00    +0.000 C 
ATOM     92  C68 UNL A   1      23.452  35.368  45.387  1.00  0.00    +0.000 C 
ATOM     93  C69 UNL A   1      24.392  35.969  46.116  1.00  0.00    +0.000 C 
ENDROOT
BRANCH   37   36
ATOM     33  C28 UNL A   1      27.505  40.013  45.901  1.00  0.00    +0.000 C 
ATOM     34  C29 UNL A   1      27.759  38.901  46.705  1.00  0.00    +0.000 C 
ATOM     35  C30 UNL A   1      26.713  38.199  47.287  1.00  0.00    +0.000 C 
ATOM     36  C31 UNL A   1      25.399  38.630  47.099  1.00  0.00    +0.000 C 
ATOM    146  H42 UNL A   1      28.733  38.599  46.870  1.00  0.00    +0.000 H 
ATOM    147  H43 UNL A   1      26.906  37.360  47.856  1.00  0.00    +0.000 H 
ATOM    158  H54 UNL A   1      24.171  40.160  46.326  1.00  0.00    +0.000 H 
ATOM    159  H55 UNL A   1      25.987  41.327  45.240  1.00  0.00    +0.000 H 
ATOM     94  C70 UNL A   1      25.135  39.799  46.395  1.00  0.00    +0.000 C 
ATOM     95  C71 UNL A   1      26.182  40.473  45.786  1.00  0.00    +0.000 C 
BRANCH   33   31
ATOM     31  C27 UNL A   1      28.511  40.762  45.107  1.00  0.00    +0.000 C 
ATOM     32  O2  UNL A   1      28.523  41.994  45.173  1.00  0.00    +0.000 O 
BRANCH   31   30
ATOM    145  H41 UNL A   1      29.430  40.634  43.377  1.00  0.00    +0.000 H 
ATOM     30  N2  UNL A   1      29.414  40.197  44.259  1.00  0.00    +0.000 N 
BRANCH   30   29
ATOM     29  C26 UNL A   1      30.353  39.104  44.358  1.00  0.00    +0.000 C 
ATOM    143  H39 UNL A   1      30.497  38.868  45.393  1.00  0.00    +0.000 H 
ATOM    144  H40 UNL A   1      29.944  38.277  43.816  1.00  0.00    +0.000 H 
BRANCH   29   28
ATOM     28  C25 UNL A   1      31.713  39.431  43.739  1.00  0.00    +0.000 C 
ATOM    141  H37 UNL A   1      31.879  40.485  43.825  1.00  0.00    +0.000 H 
ATOM    142  H38 UNL A   1      32.448  38.863  44.270  1.00  0.00    +0.000 H 
BRANCH   28   27
ATOM     27  C24 UNL A   1      31.816  39.039  42.258  1.00  0.00    +0.000 C 
ATOM    140  H36 UNL A   1      32.860  38.940  42.043  1.00  0.00    +0.000 H 
ATOM    139  H35 UNL A   1      31.337  39.800  41.678  1.00  0.00    +0.000 H 
BRANCH   27   26
ATOM    137  H33 UNL A   1      31.206  37.063  42.773  1.00  0.00    +0.000 H 
ATOM     26  C23 UNL A   1      31.170  37.690  41.907  1.00  0.00    +0.000 C 
ATOM    138  H34 UNL A   1      30.168  37.894  41.594  1.00  0.00    +0.000 H 
BRANCH   26   25
ATOM     25  C22 UNL A   1      31.859  36.969  40.761  1.00  0.00    +0.000 C 
ATOM    135  H31 UNL A   1      31.317  37.149  39.856  1.00  0.00    +0.000 H 
ATOM    136  H32 UNL A   1      32.860  37.338  40.671  1.00  0.00    +0.000 H 
BRANCH   25   24
ATOM    133  H29 UNL A   1      31.774  34.964  40.098  1.00  0.00    +0.000 H 
ATOM    134  H30 UNL A   1      32.856  35.252  41.457  1.00  0.00    +0.000 H 
ATOM     24  C21 UNL A   1      31.908  35.486  41.023  1.00  0.00    +0.000 C 
BRANCH   24   23
ATOM    132  H28 UNL A   1      29.976  35.468  41.801  1.00  0.00    +0.000 H 
ATOM     23  N1  UNL A   1      30.867  35.077  41.950  1.00  0.00    +0.000 N 
BRANCH   23   21
ATOM     21  C20 UNL A   1      30.980  34.207  43.012  1.00  0.00    +0.000 C 
ATOM     22  O1  UNL A   1      31.860  33.370  42.952  1.00  0.00    +0.000 O 
BRANCH   21   18
ATOM     18  C17 UNL A   1      29.839  34.193  44.038  1.00  0.00    +0.000 C 
BRANCH   18   17
ATOM     17  C16 UNL A   1      29.458  35.501  44.791  1.00  0.00    +0.000 C 
ATOM    124  H20 UNL A   1      30.256  36.199  44.652  1.00  0.00    +0.000 H 
ATOM    125  H21 UNL A   1      28.521  35.803  44.371  1.00  0.00    +0.000 H 
BRANCH   17   16
ATOM      4  C4  UNL A   1      28.122  36.329  50.617  1.00  0.00    +0.000 C 
ATOM      5  C5  UNL A   1      26.984  35.612  50.236  1.00  0.00    +0.000 C 
ATOM      6  C6  UNL A   1      26.867  35.039  48.965  1.00  0.00    +0.000 C 
ATOM      7  C7  UNL A   1      27.922  35.205  48.051  1.00  0.00    +0.000 C 
ATOM      8  C8  UNL A   1      29.116  35.851  48.412  1.00  0.00    +0.000 C 
ATOM      9  C9  UNL A   1      29.203  36.404  49.718  1.00  0.00    +0.000 C 
ATOM     10  C10 UNL A   1      30.007  35.832  47.275  1.00  0.00    +0.000 C 
ATOM    112  H8  UNL A   1      26.209  35.505  50.909  1.00  0.00    +0.000 H 
ATOM    113  H9  UNL A   1      26.024  34.503  48.704  1.00  0.00    +0.000 H 
ATOM    114  H10 UNL A   1      30.075  36.871  50.014  1.00  0.00    +0.000 H 
ATOM     16  C15 UNL A   1      29.216  35.385  46.227  1.00  0.00    +0.000 C 
ATOM     96  N7  UNL A   1      28.040  34.827  46.721  1.00  0.00    +0.000 N 
BRANCH    4    2
ATOM      2  C2  UNL A   1      28.154  36.997  51.983  1.00  0.00    +0.000 C 
ATOM    108  H4  UNL A   1      27.940  38.032  51.815  1.00  0.00    +0.000 H 
BRANCH    2    1
ATOM      1  C1  UNL A   1      27.082  36.411  52.900  1.00  0.00    +0.000 C 
ATOM    106  H2  UNL A   1      26.120  36.531  52.447  1.00  0.00    +0.000 H 
ATOM    107  H3  UNL A   1      27.100  36.920  53.841  1.00  0.00    +0.000 H 
ATOM    105  H1  UNL A   1      27.275  35.369  53.053  1.00  0.00    +0.000 H 
ENDBRANCH    2    1
BRANCH    2    3
ATOM      3  C3  UNL A   1      29.532  36.946  52.652  1.00  0.00    +0.000 C 
ATOM    109  H5  UNL A   1      30.148  37.730  52.260  1.00  0.00    +0.000 H 
ATOM    110  H6  UNL A   1      29.990  36.000  52.455  1.00  0.00    +0.000 H 
ATOM    111  H7  UNL A   1      29.420  37.076  53.708  1.00  0.00    +0.000 H 
ENDBRANCH    2    3
ENDBRANCH    4    2
BRANCH   10   11
ATOM     11  S1  UNL A   1      31.637  36.565  47.355  1.00  0.00    +0.000 S 
ATOM     12  C11 UNL A   1      33.009  35.977  46.210  1.00  0.00    +0.000 C 
ATOM     13  C12 UNL A   1      33.399  34.535  46.553  1.00  0.00    +0.000 C 
ATOM     14  C13 UNL A   1      32.989  36.109  44.666  1.00  0.00    +0.000 C 
ATOM     15  C14 UNL A   1      34.178  36.938  46.568  1.00  0.00    +0.000 C 
ATOM    115  H11 UNL A   1      32.591  33.878  46.305  1.00  0.00    +0.000 H 
ATOM    116  H12 UNL A   1      33.610  34.462  47.600  1.00  0.00    +0.000 H 
ATOM    117  H13 UNL A   1      34.269  34.258  45.995  1.00  0.00    +0.000 H 
ATOM    118  H14 UNL A   1      32.215  35.489  44.265  1.00  0.00    +0.000 H 
ATOM    119  H15 UNL A   1      33.935  35.803  44.269  1.00  0.00    +0.000 H 
ATOM    120  H16 UNL A   1      32.804  37.129  44.399  1.00  0.00    +0.000 H 
ATOM    121  H17 UNL A   1      34.316  36.952  47.628  1.00  0.00    +0.000 H 
ATOM    122  H18 UNL A   1      33.946  37.925  46.224  1.00  0.00    +0.000 H 
ATOM    123  H19 UNL A   1      35.076  36.599  46.095  1.00  0.00    +0.000 H 
ENDBRANCH   10   11
BRANCH   96   97
ATOM     97  C72 UNL A   1      27.157  33.830  46.045  1.00  0.00    +0.000 C 
ATOM    161  H57 UNL A   1      26.173  34.230  46.170  1.00  0.00    +0.000 H 
ATOM    160  H56 UNL A   1      27.508  33.732  45.039  1.00  0.00    +0.000 H 
BRANCH   97   98
ATOM     98  C73 UNL A   1      27.057  32.422  46.623  1.00  0.00    +0.000 C 
ATOM     99  C74 UNL A   1      28.088  31.876  47.416  1.00  0.00    +0.000 C 
ATOM    100  C75 UNL A   1      28.119  30.514  47.739  1.00  0.00    +0.000 C 
ATOM    162  H58 UNL A   1      28.835  32.495  47.766  1.00  0.00    +0.000 H 
ATOM    165  H61 UNL A   1      25.116  32.003  45.895  1.00  0.00    +0.000 H 
ATOM    103  C77 UNL A   1      25.938  30.252  46.753  1.00  0.00    +0.000 C 
ATOM    104  C78 UNL A   1      25.942  31.605  46.369  1.00  0.00    +0.000 C 
ATOM    163  H59 UNL A   1      28.928  30.118  48.242  1.00  0.00    +0.000 H 
ATOM    164  H60 UNL A   1      25.107  29.668  46.570  1.00  0.00    +0.000 H 
ATOM    101  C76 UNL A   1      27.054  29.700  47.377  1.00  0.00    +0.000 C 
ATOM    102 Cl1  UNL A   1      27.139  28.006  47.671  1.00  0.00    +0.000 Cl
ENDBRANCH   97   98
ENDBRANCH   96   97
ENDBRANCH   17   16
ENDBRANCH   18   17
BRANCH   18   19
ATOM     19  C18 UNL A   1      30.500  33.168  45.005  1.00  0.00    +0.000 C 
ATOM    126  H22 UNL A   1      31.138  32.513  44.448  1.00  0.00    +0.000 H 
ATOM    127  H23 UNL A   1      29.739  32.594  45.491  1.00  0.00    +0.000 H 
ATOM    128  H24 UNL A   1      31.077  33.690  45.738  1.00  0.00    +0.000 H 
ENDBRANCH   18   19
BRANCH   18   20
ATOM    129  H25 UNL A   1      28.667  34.029  42.222  1.00  0.00    +0.000 H 
ATOM    130  H26 UNL A   1      27.748  34.568  43.606  1.00  0.00    +0.000 H 
ATOM    131  H27 UNL A   1      28.206  32.889  43.462  1.00  0.00    +0.000 H 
ATOM     20  C19 UNL A   1      28.510  33.896  43.272  1.00  0.00    +0.000 C 
ENDBRANCH   18   20
ENDBRANCH   21   18
ENDBRANCH   23   21
ENDBRANCH   24   23
ENDBRANCH   25   24
ENDBRANCH   26   25
ENDBRANCH   27   26
ENDBRANCH   28   27
ENDBRANCH   29   28
ENDBRANCH   30   29
ENDBRANCH   31   30
ENDBRANCH   33   31
ENDBRANCH   37   36
BRANCH   41   42
ATOM     42  C36 UNL A   1      20.729  33.759  45.500  1.00  0.00    +0.000 C 
ATOM     43  C37 UNL A   1      21.421  32.881  46.357  1.00  0.00    +0.000 C 
ATOM     44  F1  UNL A   1      22.075  33.352  47.431  1.00  0.00    +0.000 F 
ATOM     45  C38 UNL A   1      21.528  31.514  46.082  1.00  0.00    +0.000 C 
ATOM     46  F2  UNL A   1      22.283  30.734  46.867  1.00  0.00    +0.000 F 
ATOM     47  C39 UNL A   1      20.910  30.970  44.971  1.00  0.00    +0.000 C 
ATOM     48  F3  UNL A   1      21.050  29.670  44.681  1.00  0.00    +0.000 F 
ATOM     49  C40 UNL A   1      20.190  31.790  44.129  1.00  0.00    +0.000 C 
ATOM     50  F4  UNL A   1      19.611  31.288  43.029  1.00  0.00    +0.000 F 
ATOM     51  C41 UNL A   1      20.125  33.161  44.372  1.00  0.00    +0.000 C 
ATOM     52  F5  UNL A   1      19.551  33.889  43.407  1.00  0.00    +0.000 F 
ENDBRANCH   41   42
BRANCH   58   59
ATOM     65  F8  UNL A   1      17.879  42.759  50.710  1.00  0.00    +0.000 F 
ATOM     66  C51 UNL A   1      17.386  40.454  50.570  1.00  0.00    +0.000 C 
ATOM     67  F9  UNL A   1      16.136  40.681  50.997  1.00  0.00    +0.000 F 
ATOM     68  C52 UNL A   1      17.783  39.159  50.256  1.00  0.00    +0.000 C 
ATOM     69  F10 UNL A   1      16.897  38.162  50.400  1.00  0.00    +0.000 F 
ATOM     59  C47 UNL A   1      19.062  38.892  49.747  1.00  0.00    +0.000 C 
ATOM     60  C48 UNL A   1      19.931  39.982  49.570  1.00  0.00    +0.000 C 
ATOM     61  F6  UNL A   1      21.136  39.818  49.006  1.00  0.00    +0.000 F 
ATOM     62  C49 UNL A   1      19.544  41.276  49.924  1.00  0.00    +0.000 C 
ATOM     63  F7  UNL A   1      20.392  42.300  49.758  1.00  0.00    +0.000 F 
ATOM     64  C50 UNL A   1      18.268  41.511  50.414  1.00  0.00    +0.000 C 
ENDBRANCH   58   59
BRANCH   73   74
ATOM     74  C56 UNL A   1      23.385  36.099  53.410  1.00  0.00    +0.000 C 
ATOM     75  C57 UNL A   1      22.938  36.453  54.696  1.00  0.00    +0.000 C 
ATOM     76  F11 UNL A   1      22.179  37.545  54.869  1.00  0.00    +0.000 F 
ATOM     77  C58 UNL A   1      23.193  35.646  55.810  1.00  0.00    +0.000 C 
ATOM     78  F12 UNL A   1      22.686  35.976  57.006  1.00  0.00    +0.000 F 
ATOM     79  C59 UNL A   1      23.911  34.469  55.672  1.00  0.00    +0.000 C 
ATOM     80  F13 UNL A   1      24.093  33.659  56.722  1.00  0.00    +0.000 F 
ATOM     81  C60 UNL A   1      24.400  34.114  54.428  1.00  0.00    +0.000 C 
ATOM     82  F14 UNL A   1      25.065  32.960  54.275  1.00  0.00    +0.000 F 
ATOM     83  C61 UNL A   1      24.141  34.916  53.315  1.00  0.00    +0.000 C 
ATOM     84  F15 UNL A   1      24.558  34.460  52.125  1.00  0.00    +0.000 F 
ENDBRANCH   73   74
TORSDOF 25
ENDMDL
MODEL 10
REMARK VINA RESULT:      -8.1     31.728     36.751
ROOT
ATOM    148  H44 UNL A   1      19.093  14.069   7.913  1.00  0.00    +0.000 H 
ATOM    149  H45 UNL A   1      20.604  15.087   9.848  1.00  0.00    +0.000 H 
ATOM    150  H46 UNL A   1      22.997  13.290   7.101  1.00  0.00    +0.000 H 
ATOM    151  H47 UNL A   1      25.833  20.692   6.213  1.00  0.00    +0.000 H 
ATOM    152  H48 UNL A   1      23.367  21.016   5.663  1.00  0.00    +0.000 H 
ATOM    153  H49 UNL A   1      23.934  16.961   6.373  1.00  0.00    +0.000 H 
ATOM    154  H50 UNL A   1      26.562  15.213   5.557  1.00  0.00    +0.000 H 
ATOM    155  H51 UNL A   1      24.734  13.818   6.721  1.00  0.00    +0.000 H 
ATOM    156  H52 UNL A   1      20.310  14.986   2.817  1.00  0.00    +0.000 H 
ATOM    157  H53 UNL A   1      21.296  17.351   2.586  1.00  0.00    +0.000 H 
ATOM     37  C32 UNL A   1      21.999  18.526   5.109  1.00  0.00    +0.000 C 
ATOM     38  C33 UNL A   1      21.520  17.139   4.836  1.00  0.00    +0.000 C 
ATOM     39  N3  UNL A   1      21.223  16.216   5.694  1.00  0.00    +0.000 N 
ATOM     40  C34 UNL A   1      20.861  15.101   4.940  1.00  0.00    +0.000 C 
ATOM     41  C35 UNL A   1      20.931  13.842   5.452  1.00  0.00    +0.000 C 
ATOM     53  C42 UNL A   1      20.987  13.857   6.887  1.00  0.00    +0.000 C 
ATOM     54  C43 UNL A   1      20.118  14.184   7.905  1.00  0.00    +0.000 C 
ATOM     55  C44 UNL A   1      20.938  14.712   8.946  1.00  0.00    +0.000 C 
ATOM     56  C45 UNL A   1      22.269  14.638   8.534  1.00  0.00    +0.000 C 
ATOM     57  N4  UNL A   1      22.239  13.820   7.438  1.00  0.00    +0.000 N 
ATOM     58  C46 UNL A   1      23.463  15.332   8.965  1.00  0.00    +0.000 C 
ATOM     70  C53 UNL A   1      24.633  15.390   8.266  1.00  0.00    +0.000 C 
ATOM     71  N5  UNL A   1      25.504  16.452   8.449  1.00  0.00    +0.000 N 
ATOM     72  C54 UNL A   1      26.110  16.580   7.301  1.00  0.00    +0.000 C 
ATOM     73  C55 UNL A   1      26.505  17.885   6.722  1.00  0.00    +0.000 C 
ATOM     85  C62 UNL A   1      25.357  18.541   6.421  1.00  0.00    +0.000 C 
ATOM     86  C63 UNL A   1      25.125  19.943   6.153  1.00  0.00    +0.000 C 
ATOM     87  C64 UNL A   1      23.831  20.107   5.814  1.00  0.00    +0.000 C 
ATOM     88  C65 UNL A   1      23.185  18.798   5.692  1.00  0.00    +0.000 C 
ATOM     89  N6  UNL A   1      24.115  17.912   6.195  1.00  0.00    +0.000 N 
ATOM     90  C66 UNL A   1      26.038  15.428   6.420  1.00  0.00    +0.000 C 
ATOM     91  C67 UNL A   1      25.095  14.726   7.052  1.00  0.00    +0.000 C 
ATOM     92  C68 UNL A   1      20.719  15.547   3.580  1.00  0.00    +0.000 C 
ATOM     93  C69 UNL A   1      21.190  16.787   3.444  1.00  0.00    +0.000 C 
ENDROOT
BRANCH   37   36
ATOM     33  C28 UNL A   1      19.366  21.498   3.601  1.00  0.00    +0.000 C 
ATOM     34  C29 UNL A   1      18.943  20.588   4.571  1.00  0.00    +0.000 C 
ATOM     35  C30 UNL A   1      19.821  19.641   5.078  1.00  0.00    +0.000 C 
ATOM     36  C31 UNL A   1      21.125  19.570   4.587  1.00  0.00    +0.000 C 
ATOM    146  H42 UNL A   1      17.969  20.620   4.913  1.00  0.00    +0.000 H 
ATOM    147  H43 UNL A   1      19.510  18.991   5.817  1.00  0.00    +0.000 H 
ATOM    158  H54 UNL A   1      22.467  20.284   3.125  1.00  0.00    +0.000 H 
ATOM    159  H55 UNL A   1      20.965  21.992   2.310  1.00  0.00    +0.000 H 
ATOM     94  C70 UNL A   1      21.530  20.393   3.542  1.00  0.00    +0.000 C 
ATOM     95  C71 UNL A   1      20.659  21.361   3.067  1.00  0.00    +0.000 C 
BRANCH   33   31
ATOM     31  C27 UNL A   1      18.581  22.646   3.081  1.00  0.00    +0.000 C 
ATOM     32  O2  UNL A   1      18.472  22.788   1.860  1.00  0.00    +0.000 O 
BRANCH   31   30
ATOM    145  H41 UNL A   1      18.349  24.503   3.674  1.00  0.00    +0.000 H 
ATOM     30  N2  UNL A   1      17.994  23.602   3.852  1.00  0.00    +0.000 N 
BRANCH   30   29
ATOM     29  C26 UNL A   1      16.970  23.597   4.871  1.00  0.00    +0.000 C 
ATOM    143  H39 UNL A   1      17.406  23.273   5.794  1.00  0.00    +0.000 H 
ATOM    144  H40 UNL A   1      16.582  24.592   4.943  1.00  0.00    +0.000 H 
BRANCH   29   28
ATOM     28  C25 UNL A   1      15.800  22.671   4.532  1.00  0.00    +0.000 C 
ATOM    141  H37 UNL A   1      15.615  22.730   3.481  1.00  0.00    +0.000 H 
ATOM    142  H38 UNL A   1      16.079  21.684   4.838  1.00  0.00    +0.000 H 
BRANCH   28   27
ATOM     27  C24 UNL A   1      14.507  23.030   5.278  1.00  0.00    +0.000 C 
ATOM    140  H36 UNL A   1      13.700  22.664   4.678  1.00  0.00    +0.000 H 
ATOM    139  H35 UNL A   1      14.483  24.091   5.412  1.00  0.00    +0.000 H 
BRANCH   27   26
ATOM    137  H33 UNL A   1      15.313  21.990   6.954  1.00  0.00    +0.000 H 
ATOM     26  C23 UNL A   1      14.358  22.369   6.657  1.00  0.00    +0.000 C 
ATOM    138  H34 UNL A   1      13.992  23.119   7.326  1.00  0.00    +0.000 H 
BRANCH   26   25
ATOM     25  C22 UNL A   1      13.358  21.226   6.675  1.00  0.00    +0.000 C 
ATOM    135  H31 UNL A   1      12.822  21.212   5.749  1.00  0.00    +0.000 H 
ATOM    136  H32 UNL A   1      13.887  20.305   6.810  1.00  0.00    +0.000 H 
BRANCH   25   24
ATOM    133  H29 UNL A   1      11.538  20.759   7.643  1.00  0.00    +0.000 H 
ATOM    134  H30 UNL A   1      12.876  21.140   8.722  1.00  0.00    +0.000 H 
ATOM     24  C21 UNL A   1      12.381  21.397   7.810  1.00  0.00    +0.000 C 
BRANCH   24   23
ATOM    132  H28 UNL A   1      12.559  23.416   8.292  1.00  0.00    +0.000 H 
ATOM     23  N1  UNL A   1      11.920  22.771   7.911  1.00  0.00    +0.000 N 
BRANCH   23   21
ATOM     21  C20 UNL A   1      10.696  23.277   7.535  1.00  0.00    +0.000 C 
ATOM     22  O1  UNL A   1       9.718  22.593   7.767  1.00  0.00    +0.000 O 
BRANCH   21   18
ATOM     18  C17 UNL A   1      10.692  24.518   6.632  1.00  0.00    +0.000 C 
BRANCH   18   17
ATOM     17  C16 UNL A   1       9.660  25.656   6.883  1.00  0.00    +0.000 C 
ATOM    124  H20 UNL A   1       9.100  25.399   7.758  1.00  0.00    +0.000 H 
ATOM    125  H21 UNL A   1      10.243  26.549   6.971  1.00  0.00    +0.000 H 
BRANCH   17   16
ATOM      4  C4  UNL A   1       5.005  27.358   3.440  1.00  0.00    +0.000 C 
ATOM      5  C5  UNL A   1       5.939  28.311   3.024  1.00  0.00    +0.000 C 
ATOM      6  C6  UNL A   1       7.276  28.260   3.435  1.00  0.00    +0.000 C 
ATOM      7  C7  UNL A   1       7.676  27.226   4.299  1.00  0.00    +0.000 C 
ATOM      8  C8  UNL A   1       6.793  26.202   4.683  1.00  0.00    +0.000 C 
ATOM      9  C9  UNL A   1       5.448  26.281   4.230  1.00  0.00    +0.000 C 
ATOM     10  C10 UNL A   1       7.506  25.282   5.540  1.00  0.00    +0.000 C 
ATOM    112  H8  UNL A   1       5.635  29.074   2.399  1.00  0.00    +0.000 H 
ATOM    113  H9  UNL A   1       7.955  28.966   3.109  1.00  0.00    +0.000 H 
ATOM    114  H10 UNL A   1       4.783  25.534   4.486  1.00  0.00    +0.000 H 
ATOM     16  C15 UNL A   1       8.705  25.925   5.810  1.00  0.00    +0.000 C 
ATOM     96  N7  UNL A   1       8.891  26.981   4.923  1.00  0.00    +0.000 N 
BRANCH    4    2
ATOM      2  C2  UNL A   1       3.550  27.516   3.025  1.00  0.00    +0.000 C 
ATOM    108  H4  UNL A   1       3.146  28.293   3.640  1.00  0.00    +0.000 H 
BRANCH    2    1
ATOM      1  C1  UNL A   1       3.446  27.936   1.560  1.00  0.00    +0.000 C 
ATOM    106  H2  UNL A   1       2.853  27.224   1.026  1.00  0.00    +0.000 H 
ATOM    107  H3  UNL A   1       4.425  27.979   1.131  1.00  0.00    +0.000 H 
ATOM    105  H1  UNL A   1       2.986  28.901   1.497  1.00  0.00    +0.000 H 
ENDBRANCH    2    1
BRANCH    2    3
ATOM      3  C3  UNL A   1       2.702  26.268   3.297  1.00  0.00    +0.000 C 
ATOM    109  H5  UNL A   1       3.320  25.396   3.231  1.00  0.00    +0.000 H 
ATOM    110  H6  UNL A   1       1.918  26.206   2.574  1.00  0.00    +0.000 H 
ATOM    111  H7  UNL A   1       2.279  26.332   4.278  1.00  0.00    +0.000 H 
ENDBRANCH    2    3
ENDBRANCH    4    2
BRANCH   10   11
ATOM     11  S1  UNL A   1       6.704  23.840   6.231  1.00  0.00    +0.000 S 
ATOM     12  C11 UNL A   1       5.080  24.002   7.167  1.00  0.00    +0.000 C 
ATOM     13  C12 UNL A   1       5.299  24.778   8.470  1.00  0.00    +0.000 C 
ATOM     14  C13 UNL A   1       3.747  24.485   6.543  1.00  0.00    +0.000 C 
ATOM     15  C14 UNL A   1       4.730  22.522   7.487  1.00  0.00    +0.000 C 
ATOM    115  H11 UNL A   1       5.539  25.796   8.243  1.00  0.00    +0.000 H 
ATOM    116  H12 UNL A   1       6.103  24.335   9.019  1.00  0.00    +0.000 H 
ATOM    117  H13 UNL A   1       4.406  24.745   9.059  1.00  0.00    +0.000 H 
ATOM    118  H14 UNL A   1       3.835  25.515   6.265  1.00  0.00    +0.000 H 
ATOM    119  H15 UNL A   1       2.958  24.375   7.258  1.00  0.00    +0.000 H 
ATOM    120  H16 UNL A   1       3.526  23.899   5.676  1.00  0.00    +0.000 H 
ATOM    121  H17 UNL A   1       5.576  22.044   7.935  1.00  0.00    +0.000 H 
ATOM    122  H18 UNL A   1       4.470  22.012   6.583  1.00  0.00    +0.000 H 
ATOM    123  H19 UNL A   1       3.902  22.489   8.165  1.00  0.00    +0.000 H 
ENDBRANCH   10   11
BRANCH   96   97
ATOM     97  C72 UNL A   1      10.184  27.616   4.530  1.00  0.00    +0.000 C 
ATOM    161  H57 UNL A   1       9.960  28.662   4.499  1.00  0.00    +0.000 H 
ATOM    160  H56 UNL A   1      10.917  27.306   5.245  1.00  0.00    +0.000 H 
BRANCH   97   98
ATOM     98  C73 UNL A   1      10.759  27.324   3.147  1.00  0.00    +0.000 C 
ATOM     99  C74 UNL A   1      10.932  26.003   2.686  1.00  0.00    +0.000 C 
ATOM    100  C75 UNL A   1      11.681  25.721   1.536  1.00  0.00    +0.000 C 
ATOM    162  H58 UNL A   1      10.497  25.226   3.207  1.00  0.00    +0.000 H 
ATOM    165  H61 UNL A   1      10.942  29.340   2.534  1.00  0.00    +0.000 H 
ATOM    103  C77 UNL A   1      11.851  28.082   1.095  1.00  0.00    +0.000 C 
ATOM    104  C78 UNL A   1      11.159  28.361   2.287  1.00  0.00    +0.000 C 
ATOM    163  H59 UNL A   1      11.872  24.744   1.267  1.00  0.00    +0.000 H 
ATOM    164  H60 UNL A   1      12.127  28.854   0.468  1.00  0.00    +0.000 H 
ATOM    101  C76 UNL A   1      12.164  26.767   0.760  1.00  0.00    +0.000 C 
ATOM    102 Cl1  UNL A   1      13.178  26.429  -0.588  1.00  0.00    +0.000 Cl
ENDBRANCH   97   98
ENDBRANCH   96   97
ENDBRANCH   17   16
ENDBRANCH   18   17
BRANCH   18   19
ATOM     19  C18 UNL A   1      10.372  23.759   5.312  1.00  0.00    +0.000 C 
ATOM    126  H22 UNL A   1      11.206  23.144   5.042  1.00  0.00    +0.000 H 
ATOM    127  H23 UNL A   1      10.183  24.466   4.530  1.00  0.00    +0.000 H 
ATOM    128  H24 UNL A   1       9.507  23.145   5.453  1.00  0.00    +0.000 H 
ENDBRANCH   18   19
BRANCH   18   20
ATOM    129  H25 UNL A   1      11.933  26.291   6.522  1.00  0.00    +0.000 H 
ATOM    130  H26 UNL A   1      12.818  24.799   6.318  1.00  0.00    +0.000 H 
ATOM    131  H27 UNL A   1      12.271  25.280   7.905  1.00  0.00    +0.000 H 
ATOM     20  C19 UNL A   1      12.034  25.282   6.863  1.00  0.00    +0.000 C 
ENDBRANCH   18   20
ENDBRANCH   21   18
ENDBRANCH   23   21
ENDBRANCH   24   23
ENDBRANCH   25   24
ENDBRANCH   26   25
ENDBRANCH   27   26
ENDBRANCH   28   27
ENDBRANCH   29   28
ENDBRANCH   30   29
ENDBRANCH   31   30
ENDBRANCH   33   31
ENDBRANCH   37   36
BRANCH   41   42
ATOM     42  C36 UNL A   1      21.365  12.640   4.651  1.00  0.00    +0.000 C 
ATOM     43  C37 UNL A   1      20.541  11.499   4.592  1.00  0.00    +0.000 C 
ATOM     44  F1  UNL A   1      19.279  11.546   5.046  1.00  0.00    +0.000 F 
ATOM     45  C38 UNL A   1      21.022  10.265   4.143  1.00  0.00    +0.000 C 
ATOM     46  F2  UNL A   1      20.235   9.182   4.202  1.00  0.00    +0.000 F 
ATOM     47  C39 UNL A   1      22.325  10.138   3.696  1.00  0.00    +0.000 C 
ATOM     48  F3  UNL A   1      22.801   8.947   3.310  1.00  0.00    +0.000 F 
ATOM     49  C40 UNL A   1      23.151  11.241   3.701  1.00  0.00    +0.000 C 
ATOM     50  F4  UNL A   1      24.426  11.132   3.303  1.00  0.00    +0.000 F 
ATOM     51  C41 UNL A   1      22.690  12.460   4.195  1.00  0.00    +0.000 C 
ATOM     52  F5  UNL A   1      23.617  13.418   4.319  1.00  0.00    +0.000 F 
ENDBRANCH   41   42
BRANCH   58   59
ATOM     65  F8  UNL A   1      22.729  18.386  13.667  1.00  0.00    +0.000 F 
ATOM     66  C51 UNL A   1      23.408  16.394  12.597  1.00  0.00    +0.000 C 
ATOM     67  F9  UNL A   1      23.634  15.816  13.785  1.00  0.00    +0.000 F 
ATOM     68  C52 UNL A   1      23.618  15.672  11.427  1.00  0.00    +0.000 C 
ATOM     69  F10 UNL A   1      24.056  14.407  11.522  1.00  0.00    +0.000 F 
ATOM     59  C47 UNL A   1      23.333  16.223  10.169  1.00  0.00    +0.000 C 
ATOM     60  C48 UNL A   1      22.829  17.535  10.134  1.00  0.00    +0.000 C 
ATOM     61  F6  UNL A   1      22.451  18.095   8.977  1.00  0.00    +0.000 F 
ATOM     62  C49 UNL A   1      22.658  18.271  11.307  1.00  0.00    +0.000 C 
ATOM     63  F7  UNL A   1      22.188  19.525  11.251  1.00  0.00    +0.000 F 
ATOM     64  C50 UNL A   1      22.938  17.696  12.538  1.00  0.00    +0.000 C 
ENDBRANCH   58   59
BRANCH   73   74
ATOM     74  C56 UNL A   1      27.876  18.140   6.221  1.00  0.00    +0.000 C 
ATOM     75  C57 UNL A   1      28.959  18.240   7.113  1.00  0.00    +0.000 C 
ATOM     76  F11 UNL A   1      28.738  18.361   8.430  1.00  0.00    +0.000 F 
ATOM     77  C58 UNL A   1      30.283  18.134   6.675  1.00  0.00    +0.000 C 
ATOM     78  F12 UNL A   1      31.286  18.157   7.564  1.00  0.00    +0.000 F 
ATOM     79  C59 UNL A   1      30.562  17.935   5.333  1.00  0.00    +0.000 C 
ATOM     80  F13 UNL A   1      31.825  17.760   4.922  1.00  0.00    +0.000 F 
ATOM     81  C60 UNL A   1      29.521  17.874   4.424  1.00  0.00    +0.000 C 
ATOM     82  F14 UNL A   1      29.777  17.647   3.128  1.00  0.00    +0.000 F 
ATOM     83  C61 UNL A   1      28.199  17.974   4.861  1.00  0.00    +0.000 C 
ATOM     84  F15 UNL A   1      27.239  17.805   3.941  1.00  0.00    +0.000 F 
ENDBRANCH   73   74
TORSDOF 25
ENDMDL
