MODEL 1
REMARK VINA RESULT:      -9.4      0.000      0.000
ROOT
ATOM     26  C20 UNL A   1      23.213  36.158  47.067  1.00  0.00    +0.000 C 
ATOM     27  C21 UNL A   1      24.209  37.280  46.989  1.00  0.00    +0.000 C 
ATOM     28  N3  UNL A   1      24.073  38.534  47.341  1.00  0.00    +0.000 N 
ATOM     29  C22 UNL A   1      25.307  39.128  47.109  1.00  0.00    +0.000 C 
ATOM     30  C23 UNL A   1      25.662  40.426  47.269  1.00  0.00    +0.000 C 
ATOM     42  C30 UNL A   1      24.771  41.465  47.713  1.00  0.00    +0.000 C 
ATOM     43  C31 UNL A   1      25.017  42.822  47.826  1.00  0.00    +0.000 C 
ATOM     44  C32 UNL A   1      23.868  43.433  48.339  1.00  0.00    +0.000 C 
ATOM     45  C33 UNL A   1      22.893  42.464  48.503  1.00  0.00    +0.000 C 
ATOM     46  N4  UNL A   1      23.461  41.260  48.117  1.00  0.00    +0.000 N 
ATOM     47  C34 UNL A   1      21.543  42.620  48.979  1.00  0.00    +0.000 C 
ATOM     59  C41 UNL A   1      20.640  41.616  49.098  1.00  0.00    +0.000 C 
ATOM     60  N5  UNL A   1      20.789  40.271  48.794  1.00  0.00    +0.000 N 
ATOM     61  C42 UNL A   1      19.643  39.706  49.088  1.00  0.00    +0.000 C 
ATOM     62  C43 UNL A   1      19.225  38.270  48.935  1.00  0.00    +0.000 C 
ATOM     74  C50 UNL A   1      20.091  37.383  48.410  1.00  0.00    +0.000 C 
ATOM     75  C51 UNL A   1      19.825  35.963  48.198  1.00  0.00    +0.000 C 
ATOM     76  C52 UNL A   1      20.929  35.378  47.705  1.00  0.00    +0.000 C 
ATOM     77  C53 UNL A   1      21.971  36.390  47.534  1.00  0.00    +0.000 C 
ATOM     78  N6  UNL A   1      21.380  37.552  47.966  1.00  0.00    +0.000 N 
ATOM     79  C54 UNL A   1      18.644  40.631  49.642  1.00  0.00    +0.000 C 
ATOM     80  C55 UNL A   1      19.289  41.789  49.589  1.00  0.00    +0.000 C 
ATOM     81  C56 UNL A   1      26.191  38.090  46.625  1.00  0.00    +0.000 C 
ATOM     82  C57 UNL A   1      25.544  36.943  46.473  1.00  0.00    +0.000 C 
ATOM    114  H30 UNL A   1      25.897  43.300  47.577  1.00  0.00    +0.000 H 
ATOM    115  H31 UNL A   1      23.765  44.437  48.557  1.00  0.00    +0.000 H 
ATOM    116  H32 UNL A   1      23.002  40.390  48.128  1.00  0.00    +0.000 H 
ATOM    117  H33 UNL A   1      18.932  35.485  48.396  1.00  0.00    +0.000 H 
ATOM    118  H34 UNL A   1      21.026  34.375  47.482  1.00  0.00    +0.000 H 
ATOM    119  H35 UNL A   1      21.836  38.424  47.959  1.00  0.00    +0.000 H 
ATOM    120  H36 UNL A   1      17.691  40.433  49.983  1.00  0.00    +0.000 H 
ATOM    121  H37 UNL A   1      18.881  42.695  49.863  1.00  0.00    +0.000 H 
ATOM    122  H38 UNL A   1      27.195  38.226  46.425  1.00  0.00    +0.000 H 
ATOM    123  H39 UNL A   1      25.889  36.048  46.092  1.00  0.00    +0.000 H 
ENDROOT
BRANCH   26   25
ATOM    112  H28 UNL A   1      23.424  32.528  44.208  1.00  0.00    +0.000 H 
ATOM    113  H29 UNL A   1      22.896  34.844  44.715  1.00  0.00    +0.000 H 
ATOM     83  C58 UNL A   1      24.276  33.973  47.647  1.00  0.00    +0.000 C 
ATOM     84  C59 UNL A   1      24.647  32.668  47.329  1.00  0.00    +0.000 C 
ATOM     22  C16 UNL A   1      24.277  32.120  46.097  1.00  0.00    +0.000 C 
ATOM     23  C17 UNL A   1      23.652  32.918  45.136  1.00  0.00    +0.000 C 
ATOM     24  C18 UNL A   1      23.336  34.247  45.433  1.00  0.00    +0.000 C 
ATOM     25  C19 UNL A   1      23.614  34.774  46.704  1.00  0.00    +0.000 C 
ATOM    124  H40 UNL A   1      24.489  34.352  48.583  1.00  0.00    +0.000 H 
ATOM    125  H41 UNL A   1      25.193  32.107  48.001  1.00  0.00    +0.000 H 
BRANCH   22   20
ATOM     20  C15 UNL A   1      24.536  30.697  45.780  1.00  0.00    +0.000 C 
ATOM     21  O2  UNL A   1      25.678  30.261  45.831  1.00  0.00    +0.000 O 
BRANCH   20   19
ATOM     19  N2  UNL A   1      23.497  29.882  45.395  1.00  0.00    +0.000 N 
ATOM    111  H27 UNL A   1      23.650  29.364  44.570  1.00  0.00    +0.000 H 
BRANCH   19   18
ATOM     18  C14 UNL A   1      22.207  29.675  46.030  1.00  0.00    +0.000 C 
ATOM    109  H25 UNL A   1      22.267  28.803  46.649  1.00  0.00    +0.000 H 
ATOM    110  H26 UNL A   1      21.986  30.554  46.599  1.00  0.00    +0.000 H 
BRANCH   18   17
ATOM     17  C13 UNL A   1      21.074  29.482  45.029  1.00  0.00    +0.000 C 
ATOM    107  H23 UNL A   1      21.501  29.443  44.048  1.00  0.00    +0.000 H 
ATOM    108  H24 UNL A   1      20.575  28.580  45.317  1.00  0.00    +0.000 H 
BRANCH   17   16
ATOM    105  H21 UNL A   1      19.885  30.925  44.027  1.00  0.00    +0.000 H 
ATOM    106  H22 UNL A   1      19.120  30.119  45.434  1.00  0.00    +0.000 H 
ATOM     16  C12 UNL A   1      20.001  30.574  45.031  1.00  0.00    +0.000 C 
BRANCH   16   15
ATOM    103  H19 UNL A   1      20.287  31.452  46.939  1.00  0.00    +0.000 H 
ATOM     15  C11 UNL A   1      20.294  31.783  45.922  1.00  0.00    +0.000 C 
ATOM    104  H20 UNL A   1      21.240  32.163  45.595  1.00  0.00    +0.000 H 
BRANCH   15   14
ATOM    102  H18 UNL A   1      19.498  33.587  46.644  1.00  0.00    +0.000 H 
ATOM    101  H17 UNL A   1      18.319  32.553  45.778  1.00  0.00    +0.000 H 
ATOM     14  C10 UNL A   1      19.309  32.955  45.801  1.00  0.00    +0.000 C 
BRANCH   14   13
ATOM     99  H15 UNL A   1      19.748  34.824  44.880  1.00  0.00    +0.000 H 
ATOM    100  H16 UNL A   1      20.266  33.409  43.964  1.00  0.00    +0.000 H 
ATOM     13  C9  UNL A   1      19.490  33.835  44.566  1.00  0.00    +0.000 C 
BRANCH   13   12
ATOM     98  H14 UNL A   1      18.338  33.680  42.810  1.00  0.00    +0.000 H 
ATOM     12  N1  UNL A   1      18.285  33.895  43.769  1.00  0.00    +0.000 N 
BRANCH   12    2
ATOM      1  O1  UNL A   1      16.859  35.298  44.892  1.00  0.00    +0.000 O 
ATOM      2  C1  UNL A   1      17.068  34.242  44.303  1.00  0.00    +0.000 C 
BRANCH    2    3
ATOM      3  C2  UNL A   1      15.984  33.201  44.106  1.00  0.00    +0.000 C 
ATOM     85  H1  UNL A   1      15.056  33.604  44.452  1.00  0.00    +0.000 H 
ATOM     86  H2  UNL A   1      16.270  32.330  44.659  1.00  0.00    +0.000 H 
BRANCH    3    4
ATOM      4  C3  UNL A   1      15.821  32.783  42.642  1.00  0.00    +0.000 C 
ATOM     87  H3  UNL A   1      16.549  33.323  42.073  1.00  0.00    +0.000 H 
ATOM     88  H4  UNL A   1      14.800  33.003  42.411  1.00  0.00    +0.000 H 
BRANCH    4    5
ATOM     89  H5  UNL A   1      16.290  31.231  41.279  1.00  0.00    +0.000 H 
ATOM     90  H6  UNL A   1      15.033  30.861  42.533  1.00  0.00    +0.000 H 
ATOM      5  C4  UNL A   1      15.985  31.291  42.303  1.00  0.00    +0.000 C 
BRANCH    5    6
ATOM     91  H7  UNL A   1      17.312  31.082  43.934  1.00  0.00    +0.000 H 
ATOM     92  H8  UNL A   1      17.729  30.177  42.413  1.00  0.00    +0.000 H 
ATOM      6  C5  UNL A   1      16.983  30.465  43.124  1.00  0.00    +0.000 C 
BRANCH    6    7
ATOM     97  H13 UNL A   1      17.500  25.886  44.326  1.00  0.00    +0.000 H 
ATOM      7  C6  UNL A   1      16.515  29.130  43.735  1.00  0.00    +0.000 C 
ATOM      8  C7  UNL A   1      17.533  27.997  43.865  1.00  0.00    +0.000 C 
ATOM      9  C8  UNL A   1      16.831  26.721  44.323  1.00  0.00    +0.000 C 
ATOM     10  S1  UNL A   1      15.459  26.465  43.175  1.00  0.00    +0.000 S 
ATOM     11  S2  UNL A   1      15.123  28.445  42.764  1.00  0.00    +0.000 S 
ATOM     93  H9  UNL A   1      16.267  29.425  44.733  1.00  0.00    +0.000 H 
ATOM     94  H10 UNL A   1      18.278  28.270  44.582  1.00  0.00    +0.000 H 
ATOM     95  H11 UNL A   1      17.992  27.824  42.914  1.00  0.00    +0.000 H 
ATOM     96  H12 UNL A   1      16.464  26.837  45.322  1.00  0.00    +0.000 H 
ENDBRANCH    6    7
ENDBRANCH    5    6
ENDBRANCH    4    5
ENDBRANCH    3    4
ENDBRANCH    2    3
ENDBRANCH   12    2
ENDBRANCH   13   12
ENDBRANCH   14   13
ENDBRANCH   15   14
ENDBRANCH   16   15
ENDBRANCH   17   16
ENDBRANCH   18   17
ENDBRANCH   19   18
ENDBRANCH   20   19
ENDBRANCH   22   20
ENDBRANCH   26   25
BRANCH   30   31
ATOM     33  F1  UNL A   1      27.713  40.744  49.249  1.00  0.00    +0.000 F 
ATOM     34  C26 UNL A   1      29.370  41.240  47.653  1.00  0.00    +0.000 C 
ATOM     35  F2  UNL A   1      30.270  41.386  48.635  1.00  0.00    +0.000 F 
ATOM     36  C27 UNL A   1      29.750  41.423  46.332  1.00  0.00    +0.000 C 
ATOM     37  F3  UNL A   1      31.021  41.728  46.036  1.00  0.00    +0.000 F 
ATOM     38  C28 UNL A   1      28.812  41.297  45.319  1.00  0.00    +0.000 C 
ATOM     39  F4  UNL A   1      29.181  41.462  44.041  1.00  0.00    +0.000 F 
ATOM     40  C29 UNL A   1      27.487  40.998  45.627  1.00  0.00    +0.000 C 
ATOM     41  F5  UNL A   1      26.600  40.894  44.626  1.00  0.00    +0.000 F 
ATOM     31  C24 UNL A   1      27.082  40.800  46.956  1.00  0.00    +0.000 C 
ATOM     32  C25 UNL A   1      28.051  40.915  47.963  1.00  0.00    +0.000 C 
ENDBRANCH   30   31
BRANCH   47   48
ATOM     48  C35 UNL A   1      21.090  44.000  49.355  1.00  0.00    +0.000 C 
ATOM     49  C36 UNL A   1      20.527  44.872  48.411  1.00  0.00    +0.000 C 
ATOM     50  F6  UNL A   1      20.429  44.501  47.126  1.00  0.00    +0.000 F 
ATOM     51  C37 UNL A   1      20.097  46.143  48.780  1.00  0.00    +0.000 C 
ATOM     52  F7  UNL A   1      19.601  46.975  47.854  1.00  0.00    +0.000 F 
ATOM     53  C38 UNL A   1      20.192  46.555  50.102  1.00  0.00    +0.000 C 
ATOM     54  F8  UNL A   1      19.772  47.777  50.455  1.00  0.00    +0.000 F 
ATOM     55  C39 UNL A   1      20.731  45.703  51.054  1.00  0.00    +0.000 C 
ATOM     56  F9  UNL A   1      20.814  46.095  52.333  1.00  0.00    +0.000 F 
ATOM     57  C40 UNL A   1      21.187  44.441  50.683  1.00  0.00    +0.000 C 
ATOM     58  F10 UNL A   1      21.714  43.643  51.625  1.00  0.00    +0.000 F 
ENDBRANCH   47   48
BRANCH   62   63
ATOM     65  F11 UNL A   1      18.383  38.099  51.634  1.00  0.00    +0.000 F 
ATOM     66  C46 UNL A   1      16.230  37.330  51.067  1.00  0.00    +0.000 C 
ATOM     67  F12 UNL A   1      15.920  37.238  52.368  1.00  0.00    +0.000 F 
ATOM     68  C47 UNL A   1      15.299  36.970  50.105  1.00  0.00    +0.000 C 
ATOM     69  F13 UNL A   1      14.081  36.548  50.473  1.00  0.00    +0.000 F 
ATOM     70  C48 UNL A   1      15.633  37.040  48.761  1.00  0.00    +0.000 C 
ATOM     71  F14 UNL A   1      14.732  36.705  47.829  1.00  0.00    +0.000 F 
ATOM     72  C49 UNL A   1      16.907  37.456  48.378  1.00  0.00    +0.000 C 
ATOM     73  F15 UNL A   1      17.208  37.501  47.073  1.00  0.00    +0.000 F 
ATOM     63  C44 UNL A   1      17.863  37.831  49.333  1.00  0.00    +0.000 C 
ATOM     64  C45 UNL A   1      17.495  37.771  50.684  1.00  0.00    +0.000 C 
ENDBRANCH   62   63
TORSDOF 19
ENDMDL
MODEL 2
REMARK VINA RESULT:      -9.4      0.328      1.674
ROOT
ATOM     26  C20 UNL A   1      23.165  36.106  47.051  1.00  0.00    +0.000 C 
ATOM     27  C21 UNL A   1      24.163  37.228  46.993  1.00  0.00    +0.000 C 
ATOM     28  N3  UNL A   1      24.024  38.480  47.352  1.00  0.00    +0.000 N 
ATOM     29  C22 UNL A   1      25.262  39.074  47.139  1.00  0.00    +0.000 C 
ATOM     30  C23 UNL A   1      25.616  40.370  47.312  1.00  0.00    +0.000 C 
ATOM     42  C30 UNL A   1      24.721  41.407  47.754  1.00  0.00    +0.000 C 
ATOM     43  C31 UNL A   1      24.967  42.763  47.880  1.00  0.00    +0.000 C 
ATOM     44  C32 UNL A   1      23.813  43.372  48.384  1.00  0.00    +0.000 C 
ATOM     45  C33 UNL A   1      22.835  42.402  48.529  1.00  0.00    +0.000 C 
ATOM     46  N4  UNL A   1      23.406  41.201  48.140  1.00  0.00    +0.000 N 
ATOM     47  C34 UNL A   1      21.479  42.556  48.991  1.00  0.00    +0.000 C 
ATOM     59  C41 UNL A   1      20.574  41.553  49.091  1.00  0.00    +0.000 C 
ATOM     60  N5  UNL A   1      20.726  40.209  48.780  1.00  0.00    +0.000 N 
ATOM     61  C42 UNL A   1      19.576  39.644  49.056  1.00  0.00    +0.000 C 
ATOM     62  C43 UNL A   1      19.157  38.209  48.888  1.00  0.00    +0.000 C 
ATOM     74  C50 UNL A   1      20.029  37.325  48.366  1.00  0.00    +0.000 C 
ATOM     75  C51 UNL A   1      19.764  35.906  48.140  1.00  0.00    +0.000 C 
ATOM     76  C52 UNL A   1      20.873  35.324  47.657  1.00  0.00    +0.000 C 
ATOM     77  C53 UNL A   1      21.918  36.337  47.505  1.00  0.00    +0.000 C 
ATOM     78  N6  UNL A   1      21.323  37.496  47.939  1.00  0.00    +0.000 N 
ATOM     79  C54 UNL A   1      18.571  40.566  49.605  1.00  0.00    +0.000 C 
ATOM     80  C55 UNL A   1      19.218  41.723  49.568  1.00  0.00    +0.000 C 
ATOM     81  C56 UNL A   1      26.150  38.039  46.658  1.00  0.00    +0.000 C 
ATOM     82  C57 UNL A   1      25.504  36.894  46.490  1.00  0.00    +0.000 C 
ATOM    114  H30 UNL A   1      25.850  43.242  47.644  1.00  0.00    +0.000 H 
ATOM    115  H31 UNL A   1      23.708  44.374  48.608  1.00  0.00    +0.000 H 
ATOM    116  H32 UNL A   1      22.946  40.330  48.140  1.00  0.00    +0.000 H 
ATOM    117  H33 UNL A   1      18.868  35.428  48.324  1.00  0.00    +0.000 H 
ATOM    118  H34 UNL A   1      20.971  34.323  47.427  1.00  0.00    +0.000 H 
ATOM    119  H35 UNL A   1      21.780  38.368  47.943  1.00  0.00    +0.000 H 
ATOM    120  H36 UNL A   1      17.613  40.366  49.933  1.00  0.00    +0.000 H 
ATOM    121  H37 UNL A   1      18.807  42.628  49.844  1.00  0.00    +0.000 H 
ATOM    122  H38 UNL A   1      27.156  38.175  46.470  1.00  0.00    +0.000 H 
ATOM    123  H39 UNL A   1      25.852  36.001  46.106  1.00  0.00    +0.000 H 
ENDROOT
BRANCH   26   25
ATOM    112  H28 UNL A   1      23.404  32.497  44.168  1.00  0.00    +0.000 H 
ATOM    113  H29 UNL A   1      22.872  34.809  44.686  1.00  0.00    +0.000 H 
ATOM     83  C58 UNL A   1      24.220  33.917  47.627  1.00  0.00    +0.000 C 
ATOM     84  C59 UNL A   1      24.594  32.614  47.304  1.00  0.00    +0.000 C 
ATOM     22  C16 UNL A   1      24.237  32.075  46.064  1.00  0.00    +0.000 C 
ATOM     23  C17 UNL A   1      23.622  32.880  45.101  1.00  0.00    +0.000 C 
ATOM     24  C18 UNL A   1      23.305  34.206  45.404  1.00  0.00    +0.000 C 
ATOM     25  C19 UNL A   1      23.569  34.725  46.682  1.00  0.00    +0.000 C 
ATOM    124  H40 UNL A   1      24.424  34.289  48.568  1.00  0.00    +0.000 H 
ATOM    125  H41 UNL A   1      25.132  32.048  47.978  1.00  0.00    +0.000 H 
BRANCH   22   20
ATOM     20  C15 UNL A   1      24.497  30.654  45.739  1.00  0.00    +0.000 C 
ATOM     21  O2  UNL A   1      25.646  30.233  45.732  1.00  0.00    +0.000 O 
BRANCH   20   19
ATOM     19  N2  UNL A   1      23.451  29.822  45.413  1.00  0.00    +0.000 N 
ATOM    111  H27 UNL A   1      23.610  29.225  44.646  1.00  0.00    +0.000 H 
BRANCH   19   18
ATOM     18  C14 UNL A   1      22.146  29.699  46.040  1.00  0.00    +0.000 C 
ATOM    109  H25 UNL A   1      22.186  28.904  46.757  1.00  0.00    +0.000 H 
ATOM    110  H26 UNL A   1      21.921  30.639  46.499  1.00  0.00    +0.000 H 
BRANCH   18   17
ATOM     17  C13 UNL A   1      21.032  29.399  45.043  1.00  0.00    +0.000 C 
ATOM    107  H23 UNL A   1      21.469  29.334  44.069  1.00  0.00    +0.000 H 
ATOM    108  H24 UNL A   1      20.578  28.488  45.373  1.00  0.00    +0.000 H 
BRANCH   17   16
ATOM    105  H21 UNL A   1      19.654  30.590  43.957  1.00  0.00    +0.000 H 
ATOM    106  H22 UNL A   1      19.105  30.028  45.568  1.00  0.00    +0.000 H 
ATOM     16  C12 UNL A   1      19.906  30.433  44.985  1.00  0.00    +0.000 C 
BRANCH   16   15
ATOM    103  H19 UNL A   1      20.517  31.634  46.622  1.00  0.00    +0.000 H 
ATOM     15  C11 UNL A   1      20.229  31.795  45.605  1.00  0.00    +0.000 C 
ATOM    104  H20 UNL A   1      21.003  32.216  44.995  1.00  0.00    +0.000 H 
BRANCH   15   14
ATOM    102  H18 UNL A   1      19.253  33.457  46.440  1.00  0.00    +0.000 H 
ATOM    101  H17 UNL A   1      18.161  32.285  45.636  1.00  0.00    +0.000 H 
ATOM     14  C10 UNL A   1      19.086  32.821  45.595  1.00  0.00    +0.000 C 
BRANCH   14   13
ATOM     99  H15 UNL A   1      19.166  34.752  44.703  1.00  0.00    +0.000 H 
ATOM    100  H16 UNL A   1      19.835  33.453  43.715  1.00  0.00    +0.000 H 
ATOM     13  C9  UNL A   1      19.045  33.741  44.376  1.00  0.00    +0.000 C 
BRANCH   13   12
ATOM     98  H14 UNL A   1      17.813  33.363  42.712  1.00  0.00    +0.000 H 
ATOM     12  N1  UNL A   1      17.794  33.625  43.660  1.00  0.00    +0.000 N 
BRANCH   12    2
ATOM      1  O1  UNL A   1      16.266  34.952  44.740  1.00  0.00    +0.000 O 
ATOM      2  C1  UNL A   1      16.581  33.870  44.256  1.00  0.00    +0.000 C 
BRANCH    2    3
ATOM      3  C2  UNL A   1      15.645  32.677  44.269  1.00  0.00    +0.000 C 
ATOM     85  H1  UNL A   1      14.684  33.000  44.611  1.00  0.00    +0.000 H 
ATOM     86  H2  UNL A   1      16.072  31.940  44.918  1.00  0.00    +0.000 H 
BRANCH    3    4
ATOM      4  C3  UNL A   1      15.481  32.035  42.889  1.00  0.00    +0.000 C 
ATOM     87  H3  UNL A   1      16.197  32.493  42.237  1.00  0.00    +0.000 H 
ATOM     88  H4  UNL A   1      14.455  32.200  42.633  1.00  0.00    +0.000 H 
BRANCH    4    5
ATOM     89  H5  UNL A   1      16.149  30.316  41.846  1.00  0.00    +0.000 H 
ATOM     90  H6  UNL A   1      14.683  30.115  42.895  1.00  0.00    +0.000 H 
ATOM      5  C4  UNL A   1      15.670  30.511  42.783  1.00  0.00    +0.000 C 
BRANCH    5    6
ATOM     91  H7  UNL A   1      16.401  30.388  44.761  1.00  0.00    +0.000 H 
ATOM     92  H8  UNL A   1      17.469  29.728  43.446  1.00  0.00    +0.000 H 
ATOM      6  C5  UNL A   1      16.490  29.804  43.869  1.00  0.00    +0.000 C 
BRANCH    6    7
ATOM     97  H13 UNL A   1      17.372  25.144  44.290  1.00  0.00    +0.000 H 
ATOM      7  C6  UNL A   1      16.131  28.353  44.242  1.00  0.00    +0.000 C 
ATOM      8  C7  UNL A   1      17.235  27.297  44.191  1.00  0.00    +0.000 C 
ATOM      9  C8  UNL A   1      16.638  25.912  44.420  1.00  0.00    +0.000 C 
ATOM     10  S1  UNL A   1      15.288  25.746  43.231  1.00  0.00    +0.000 S 
ATOM     11  S2  UNL A   1      14.794  27.733  43.154  1.00  0.00    +0.000 S 
ATOM     93  H9  UNL A   1      15.863  28.455  45.273  1.00  0.00    +0.000 H 
ATOM     94  H10 UNL A   1      17.958  27.503  44.951  1.00  0.00    +0.000 H 
ATOM     95  H11 UNL A   1      17.704  27.324  43.229  1.00  0.00    +0.000 H 
ATOM     96  H12 UNL A   1      16.266  25.829  45.420  1.00  0.00    +0.000 H 
ENDBRANCH    6    7
ENDBRANCH    5    6
ENDBRANCH    4    5
ENDBRANCH    3    4
ENDBRANCH    2    3
ENDBRANCH   12    2
ENDBRANCH   13   12
ENDBRANCH   14   13
ENDBRANCH   15   14
ENDBRANCH   16   15
ENDBRANCH   17   16
ENDBRANCH   18   17
ENDBRANCH   19   18
ENDBRANCH   20   19
ENDBRANCH   22   20
ENDBRANCH   26   25
BRANCH   30   31
ATOM     33  F1  UNL A   1      26.638  40.853  44.676  1.00  0.00    +0.000 F 
ATOM     34  C26 UNL A   1      28.798  41.368  45.458  1.00  0.00    +0.000 C 
ATOM     35  F2  UNL A   1      29.206  41.563  44.197  1.00  0.00    +0.000 F 
ATOM     36  C27 UNL A   1      29.690  41.524  46.507  1.00  0.00    +0.000 C 
ATOM     37  F3  UNL A   1      30.956  41.889  46.263  1.00  0.00    +0.000 F 
ATOM     38  C28 UNL A   1      29.273  41.297  47.810  1.00  0.00    +0.000 C 
ATOM     39  F4  UNL A   1      30.132  41.460  48.826  1.00  0.00    +0.000 F 
ATOM     40  C29 UNL A   1      27.963  40.901  48.064  1.00  0.00    +0.000 C 
ATOM     41  F5  UNL A   1      27.591  40.678  49.334  1.00  0.00    +0.000 F 
ATOM     31  C24 UNL A   1      27.040  40.745  47.019  1.00  0.00    +0.000 C 
ATOM     32  C25 UNL A   1      27.479  40.997  45.711  1.00  0.00    +0.000 C 
ENDBRANCH   30   31
BRANCH   47   48
ATOM     48  C35 UNL A   1      21.023  43.934  49.371  1.00  0.00    +0.000 C 
ATOM     49  C36 UNL A   1      20.500  44.824  48.422  1.00  0.00    +0.000 C 
ATOM     50  F6  UNL A   1      20.444  44.473  47.128  1.00  0.00    +0.000 F 
ATOM     51  C37 UNL A   1      20.066  46.093  48.795  1.00  0.00    +0.000 C 
ATOM     52  F7  UNL A   1      19.608  46.942  47.864  1.00  0.00    +0.000 F 
ATOM     53  C38 UNL A   1      20.118  46.485  50.124  1.00  0.00    +0.000 C 
ATOM     54  F8  UNL A   1      19.694  47.704  50.482  1.00  0.00    +0.000 F 
ATOM     55  C39 UNL A   1      20.617  45.614  51.082  1.00  0.00    +0.000 C 
ATOM     56  F9  UNL A   1      20.659  45.987  52.368  1.00  0.00    +0.000 F 
ATOM     57  C40 UNL A   1      21.077  44.355  50.708  1.00  0.00    +0.000 C 
ATOM     58  F10 UNL A   1      21.565  43.539  51.656  1.00  0.00    +0.000 F 
ENDBRANCH   47   48
BRANCH   62   63
ATOM     65  F11 UNL A   1      17.191  37.466  46.989  1.00  0.00    +0.000 F 
ATOM     66  C46 UNL A   1      15.562  37.023  48.632  1.00  0.00    +0.000 C 
ATOM     67  F12 UNL A   1      14.675  36.725  47.672  1.00  0.00    +0.000 F 
ATOM     68  C47 UNL A   1      15.187  36.966  49.965  1.00  0.00    +0.000 C 
ATOM     69  F13 UNL A   1      13.942  36.596  50.298  1.00  0.00    +0.000 F 
ATOM     70  C48 UNL A   1      16.100  37.302  50.954  1.00  0.00    +0.000 C 
ATOM     71  F14 UNL A   1      15.744  37.237  52.244  1.00  0.00    +0.000 F 
ATOM     72  C49 UNL A   1      17.386  37.711  50.608  1.00  0.00    +0.000 C 
ATOM     73  F15 UNL A   1      18.244  38.044  51.583  1.00  0.00    +0.000 F 
ATOM     63  C44 UNL A   1      17.790  37.769  49.266  1.00  0.00    +0.000 C 
ATOM     64  C45 UNL A   1      16.857  37.406  48.286  1.00  0.00    +0.000 C 
ENDBRANCH   62   63
TORSDOF 19
ENDMDL
MODEL 3
REMARK VINA RESULT:      -9.2     46.617     51.569
ROOT
ATOM     26  C20 UNL A   1      53.454  19.827  11.631  1.00  0.00    +0.000 C 
ATOM     27  C21 UNL A   1      54.811  19.199  11.481  1.00  0.00    +0.000 C 
ATOM     28  N3  UNL A   1      55.804  19.158  12.334  1.00  0.00    +0.000 N 
ATOM     29  C22 UNL A   1      56.802  18.414  11.718  1.00  0.00    +0.000 C 
ATOM     30  C23 UNL A   1      58.045  18.129  12.174  1.00  0.00    +0.000 C 
ATOM     42  C30 UNL A   1      58.576  18.586  13.431  1.00  0.00    +0.000 C 
ATOM     43  C31 UNL A   1      59.851  18.418  13.942  1.00  0.00    +0.000 C 
ATOM     44  C32 UNL A   1      59.892  18.997  15.215  1.00  0.00    +0.000 C 
ATOM     45  C33 UNL A   1      58.656  19.563  15.478  1.00  0.00    +0.000 C 
ATOM     46  N4  UNL A   1      57.857  19.303  14.376  1.00  0.00    +0.000 N 
ATOM     47  C34 UNL A   1      58.231  20.287  16.648  1.00  0.00    +0.000 C 
ATOM     59  C41 UNL A   1      57.000  20.826  16.824  1.00  0.00    +0.000 C 
ATOM     60  N5  UNL A   1      55.915  20.819  15.959  1.00  0.00    +0.000 N 
ATOM     61  C42 UNL A   1      54.954  21.458  16.581  1.00  0.00    +0.000 C 
ATOM     62  C43 UNL A   1      53.563  21.777  16.107  1.00  0.00    +0.000 C 
ATOM     74  C50 UNL A   1      53.185  21.402  14.870  1.00  0.00    +0.000 C 
ATOM     75  C51 UNL A   1      51.874  21.645  14.275  1.00  0.00    +0.000 C 
ATOM     76  C52 UNL A   1      51.837  21.089  13.054  1.00  0.00    +0.000 C 
ATOM     77  C53 UNL A   1      53.135  20.480  12.765  1.00  0.00    +0.000 C 
ATOM     78  N6  UNL A   1      53.876  20.725  13.895  1.00  0.00    +0.000 N 
ATOM     79  C54 UNL A   1      55.316  21.917  17.930  1.00  0.00    +0.000 C 
ATOM     80  C55 UNL A   1      56.585  21.542  18.012  1.00  0.00    +0.000 C 
ATOM     81  C56 UNL A   1      56.282  17.989  10.436  1.00  0.00    +0.000 C 
ATOM     82  C57 UNL A   1      55.079  18.500  10.215  1.00  0.00    +0.000 C 
ATOM    114  H30 UNL A   1      60.636  17.947  13.466  1.00  0.00    +0.000 H 
ATOM    115  H31 UNL A   1      60.706  19.001  15.850  1.00  0.00    +0.000 H 
ATOM    116  H32 UNL A   1      56.919  19.584  14.280  1.00  0.00    +0.000 H 
ATOM    117  H33 UNL A   1      51.100  22.161  14.722  1.00  0.00    +0.000 H 
ATOM    118  H34 UNL A   1      51.023  21.093  12.419  1.00  0.00    +0.000 H 
ATOM    119  H35 UNL A   1      54.814  20.444  13.997  1.00  0.00    +0.000 H 
ATOM    120  H36 UNL A   1      54.736  22.405  18.630  1.00  0.00    +0.000 H 
ATOM    121  H37 UNL A   1      57.197  21.734  18.819  1.00  0.00    +0.000 H 
ATOM    122  H38 UNL A   1      56.783  17.368   9.781  1.00  0.00    +0.000 H 
ATOM    123  H39 UNL A   1      54.486  18.426   9.373  1.00  0.00    +0.000 H 
ENDROOT
BRANCH   26   25
ATOM    112  H28 UNL A   1      51.013  21.291   7.985  1.00  0.00    +0.000 H 
ATOM    113  H29 UNL A   1      52.797  21.521   9.616  1.00  0.00    +0.000 H 
ATOM     83  C58 UNL A   1      51.670  18.488  10.507  1.00  0.00    +0.000 C 
ATOM     84  C59 UNL A   1      50.697  18.325   9.522  1.00  0.00    +0.000 C 
ATOM     22  C16 UNL A   1      50.413  19.375   8.643  1.00  0.00    +0.000 C 
ATOM     23  C17 UNL A   1      51.190  20.536   8.666  1.00  0.00    +0.000 C 
ATOM     24  C18 UNL A   1      52.208  20.674   9.614  1.00  0.00    +0.000 C 
ATOM     25  C19 UNL A   1      52.432  19.665  10.564  1.00  0.00    +0.000 C 
ATOM    124  H40 UNL A   1      51.830  17.738  11.197  1.00  0.00    +0.000 H 
ATOM    125  H41 UNL A   1      50.187  17.431   9.441  1.00  0.00    +0.000 H 
BRANCH   22   20
ATOM     20  C15 UNL A   1      49.297  19.287   7.675  1.00  0.00    +0.000 C 
ATOM     21  O2  UNL A   1      48.289  19.961   7.845  1.00  0.00    +0.000 O 
BRANCH   20   19
ATOM     19  N2  UNL A   1      49.382  18.422   6.608  1.00  0.00    +0.000 N 
ATOM    111  H27 UNL A   1      49.605  17.490   6.837  1.00  0.00    +0.000 H 
BRANCH   19   18
ATOM     18  C14 UNL A   1      49.189  18.688   5.193  1.00  0.00    +0.000 C 
ATOM    109  H25 UNL A   1      49.518  19.685   4.984  1.00  0.00    +0.000 H 
ATOM    110  H26 UNL A   1      49.755  17.959   4.650  1.00  0.00    +0.000 H 
BRANCH   18   17
ATOM     17  C13 UNL A   1      47.734  18.555   4.754  1.00  0.00    +0.000 C 
ATOM    107  H23 UNL A   1      47.725  18.255   3.727  1.00  0.00    +0.000 H 
ATOM    108  H24 UNL A   1      47.291  17.840   5.416  1.00  0.00    +0.000 H 
BRANCH   17   16
ATOM    105  H21 UNL A   1      46.535  19.886   5.890  1.00  0.00    +0.000 H 
ATOM    106  H22 UNL A   1      47.532  20.634   4.601  1.00  0.00    +0.000 H 
ATOM     16  C12 UNL A   1      46.890  19.825   4.882  1.00  0.00    +0.000 C 
BRANCH   16   15
ATOM    103  H19 UNL A   1      44.797  19.819   4.549  1.00  0.00    +0.000 H 
ATOM     15  C11 UNL A   1      45.678  19.907   3.950  1.00  0.00    +0.000 C 
ATOM    104  H20 UNL A   1      45.766  20.844   3.440  1.00  0.00    +0.000 H 
BRANCH   15   14
ATOM    102  H18 UNL A   1      46.141  17.990   3.228  1.00  0.00    +0.000 H 
ATOM    101  H17 UNL A   1      46.036  19.251   1.961  1.00  0.00    +0.000 H 
ATOM     14  C10 UNL A   1      45.609  18.838   2.850  1.00  0.00    +0.000 C 
BRANCH   14   13
ATOM     99  H15 UNL A   1      44.159  18.120   1.466  1.00  0.00    +0.000 H 
ATOM    100  H16 UNL A   1      44.014  17.463   3.096  1.00  0.00    +0.000 H 
ATOM     13  C9  UNL A   1      44.206  18.339   2.512  1.00  0.00    +0.000 C 
BRANCH   13   12
ATOM     98  H14 UNL A   1      42.838  19.356   3.748  1.00  0.00    +0.000 H 
ATOM     12  N1  UNL A   1      43.195  19.322   2.832  1.00  0.00    +0.000 N 
BRANCH   12    2
ATOM      1  O1  UNL A   1      43.349  21.178   1.492  1.00  0.00    +0.000 O 
ATOM      2  C1  UNL A   1      42.715  20.211   1.901  1.00  0.00    +0.000 C 
BRANCH    2    3
ATOM      3  C2  UNL A   1      41.314  19.899   1.411  1.00  0.00    +0.000 C 
ATOM     85  H1  UNL A   1      40.747  19.504   2.227  1.00  0.00    +0.000 H 
ATOM     86  H2  UNL A   1      41.404  19.194   0.610  1.00  0.00    +0.000 H 
BRANCH    3    4
ATOM      4  C3  UNL A   1      40.589  21.130   0.861  1.00  0.00    +0.000 C 
ATOM     87  H3  UNL A   1      41.334  21.867   0.641  1.00  0.00    +0.000 H 
ATOM     88  H4  UNL A   1      39.890  21.396   1.625  1.00  0.00    +0.000 H 
BRANCH    4    5
ATOM     89  H5  UNL A   1      38.909  20.319  -0.142  1.00  0.00    +0.000 H 
ATOM     90  H6  UNL A   1      40.413  20.551  -1.129  1.00  0.00    +0.000 H 
ATOM      5  C4  UNL A   1      39.733  20.948  -0.405  1.00  0.00    +0.000 C 
BRANCH    5    6
ATOM     91  H7  UNL A   1      39.643  22.307  -2.021  1.00  0.00    +0.000 H 
ATOM     92  H8  UNL A   1      39.324  22.979  -0.362  1.00  0.00    +0.000 H 
ATOM      6  C5  UNL A   1      39.154  22.201  -1.076  1.00  0.00    +0.000 C 
BRANCH    6    7
ATOM     97  H13 UNL A   1      34.958  24.421  -1.451  1.00  0.00    +0.000 H 
ATOM      7  C6  UNL A   1      37.637  22.265  -1.342  1.00  0.00    +0.000 C 
ATOM      8  C7  UNL A   1      36.971  23.639  -1.410  1.00  0.00    +0.000 C 
ATOM      9  C8  UNL A   1      35.457  23.475  -1.504  1.00  0.00    +0.000 C 
ATOM     10  S1  UNL A   1      34.983  22.400  -0.131  1.00  0.00    +0.000 S 
ATOM     11  S2  UNL A   1      36.730  21.330  -0.056  1.00  0.00    +0.000 S 
ATOM     93  H9  UNL A   1      37.575  21.853  -2.328  1.00  0.00    +0.000 H 
ATOM     94  H10 UNL A   1      37.326  24.163  -2.272  1.00  0.00    +0.000 H 
ATOM     95  H11 UNL A   1      37.212  24.191  -0.526  1.00  0.00    +0.000 H 
ATOM     96  H12 UNL A   1      35.189  23.027  -2.438  1.00  0.00    +0.000 H 
ENDBRANCH    6    7
ENDBRANCH    5    6
ENDBRANCH    4    5
ENDBRANCH    3    4
ENDBRANCH    2    3
ENDBRANCH   12    2
ENDBRANCH   13   12
ENDBRANCH   14   13
ENDBRANCH   15   14
ENDBRANCH   16   15
ENDBRANCH   17   16
ENDBRANCH   18   17
ENDBRANCH   19   18
ENDBRANCH   20   19
ENDBRANCH   22   20
ENDBRANCH   26   25
BRANCH   30   31
ATOM     33  F1  UNL A   1      58.248  15.276  12.385  1.00  0.00    +0.000 F 
ATOM     34  C26 UNL A   1      59.772  15.113  10.599  1.00  0.00    +0.000 C 
ATOM     35  F2  UNL A   1      59.826  13.786  10.768  1.00  0.00    +0.000 F 
ATOM     36  C27 UNL A   1      60.526  15.717   9.604  1.00  0.00    +0.000 C 
ATOM     37  F3  UNL A   1      61.294  14.971   8.799  1.00  0.00    +0.000 F 
ATOM     38  C28 UNL A   1      60.488  17.094   9.447  1.00  0.00    +0.000 C 
ATOM     39  F4  UNL A   1      61.208  17.677   8.477  1.00  0.00    +0.000 F 
ATOM     40  C29 UNL A   1      59.705  17.872  10.294  1.00  0.00    +0.000 C 
ATOM     41  F5  UNL A   1      59.698  19.203  10.126  1.00  0.00    +0.000 F 
ATOM     31  C24 UNL A   1      58.927  17.283  11.303  1.00  0.00    +0.000 C 
ATOM     32  C25 UNL A   1      58.966  15.887  11.432  1.00  0.00    +0.000 C 
ENDBRANCH   30   31
BRANCH   47   48
ATOM     48  C35 UNL A   1      59.229  20.480  17.752  1.00  0.00    +0.000 C 
ATOM     49  C36 UNL A   1      59.960  21.669  17.883  1.00  0.00    +0.000 C 
ATOM     50  F6  UNL A   1      59.815  22.653  16.981  1.00  0.00    +0.000 F 
ATOM     51  C37 UNL A   1      60.871  21.838  18.922  1.00  0.00    +0.000 C 
ATOM     52  F7  UNL A   1      61.589  22.967  19.005  1.00  0.00    +0.000 F 
ATOM     53  C38 UNL A   1      61.045  20.836  19.865  1.00  0.00    +0.000 C 
ATOM     54  F8  UNL A   1      61.918  21.003  20.868  1.00  0.00    +0.000 F 
ATOM     55  C39 UNL A   1      60.321  19.657  19.763  1.00  0.00    +0.000 C 
ATOM     56  F9  UNL A   1      60.481  18.692  20.679  1.00  0.00    +0.000 F 
ATOM     57  C40 UNL A   1      59.430  19.475  18.710  1.00  0.00    +0.000 C 
ATOM     58  F10 UNL A   1      58.751  18.319  18.632  1.00  0.00    +0.000 F 
ENDBRANCH   47   48
BRANCH   62   63
ATOM     65  F11 UNL A   1      51.977  20.522  18.090  1.00  0.00    +0.000 F 
ATOM     66  C46 UNL A   1      50.948  22.537  18.750  1.00  0.00    +0.000 C 
ATOM     67  F12 UNL A   1      50.203  21.865  19.639  1.00  0.00    +0.000 F 
ATOM     68  C47 UNL A   1      50.799  23.908  18.615  1.00  0.00    +0.000 C 
ATOM     69  F13 UNL A   1      49.923  24.568  19.385  1.00  0.00    +0.000 F 
ATOM     70  C48 UNL A   1      51.551  24.595  17.674  1.00  0.00    +0.000 C 
ATOM     71  F14 UNL A   1      51.418  25.922  17.549  1.00  0.00    +0.000 F 
ATOM     72  C49 UNL A   1      52.445  23.907  16.855  1.00  0.00    +0.000 C 
ATOM     73  F15 UNL A   1      53.149  24.593  15.945  1.00  0.00    +0.000 F 
ATOM     63  C44 UNL A   1      52.618  22.520  16.979  1.00  0.00    +0.000 C 
ATOM     64  C45 UNL A   1      51.860  21.851  17.950  1.00  0.00    +0.000 C 
ENDBRANCH   62   63
TORSDOF 19
ENDMDL
MODEL 4
REMARK VINA RESULT:      -9.2      3.415      8.343
ROOT
ATOM     26  C20 UNL A   1      21.380  38.331  49.317  1.00  0.00    +0.000 C 
ATOM     27  C21 UNL A   1      22.182  39.599  49.389  1.00  0.00    +0.000 C 
ATOM     28  N3  UNL A   1      23.342  39.877  48.849  1.00  0.00    +0.000 N 
ATOM     29  C22 UNL A   1      23.608  41.200  49.182  1.00  0.00    +0.000 C 
ATOM     30  C23 UNL A   1      24.708  41.937  48.899  1.00  0.00    +0.000 C 
ATOM     42  C30 UNL A   1      25.855  41.444  48.182  1.00  0.00    +0.000 C 
ATOM     43  C31 UNL A   1      27.050  42.090  47.918  1.00  0.00    +0.000 C 
ATOM     44  C32 UNL A   1      27.851  41.234  47.154  1.00  0.00    +0.000 C 
ATOM     45  C33 UNL A   1      27.172  40.040  46.979  1.00  0.00    +0.000 C 
ATOM     46  N4  UNL A   1      25.948  40.183  47.614  1.00  0.00    +0.000 N 
ATOM     47  C34 UNL A   1      27.603  38.855  46.284  1.00  0.00    +0.000 C 
ATOM     59  C41 UNL A   1      26.880  37.715  46.170  1.00  0.00    +0.000 C 
ATOM     60  N5  UNL A   1      25.621  37.427  46.678  1.00  0.00    +0.000 N 
ATOM     61  C42 UNL A   1      25.349  36.204  46.294  1.00  0.00    +0.000 C 
ATOM     62  C43 UNL A   1      24.133  35.367  46.580  1.00  0.00    +0.000 C 
ATOM     74  C50 UNL A   1      23.151  35.872  47.352  1.00  0.00    +0.000 C 
ATOM     75  C51 UNL A   1      21.920  35.177  47.717  1.00  0.00    +0.000 C 
ATOM     76  C52 UNL A   1      21.153  36.001  48.451  1.00  0.00    +0.000 C 
ATOM     77  C53 UNL A   1      21.856  37.270  48.637  1.00  0.00    +0.000 C 
ATOM     78  N6  UNL A   1      23.038  37.098  47.960  1.00  0.00    +0.000 N 
ATOM     79  C54 UNL A   1      26.397  35.588  45.468  1.00  0.00    +0.000 C 
ATOM     80  C55 UNL A   1      27.325  36.536  45.457  1.00  0.00    +0.000 C 
ATOM     81  C56 UNL A   1      22.471  41.681  49.937  1.00  0.00    +0.000 C 
ATOM     82  C57 UNL A   1      21.591  40.713  50.147  1.00  0.00    +0.000 C 
ATOM    114  H30 UNL A   1      27.307  43.040  48.231  1.00  0.00    +0.000 H 
ATOM    115  H31 UNL A   1      28.789  41.456  46.784  1.00  0.00    +0.000 H 
ATOM    116  H32 UNL A   1      25.248  39.492  47.654  1.00  0.00    +0.000 H 
ATOM    117  H33 UNL A   1      21.677  34.210  47.453  1.00  0.00    +0.000 H 
ATOM    118  H34 UNL A   1      20.219  35.773  48.825  1.00  0.00    +0.000 H 
ATOM    119  H35 UNL A   1      23.739  37.787  47.915  1.00  0.00    +0.000 H 
ATOM    120  H36 UNL A   1      26.410  34.660  45.016  1.00  0.00    +0.000 H 
ATOM    121  H37 UNL A   1      28.244  36.444  44.999  1.00  0.00    +0.000 H 
ATOM    122  H38 UNL A   1      22.361  42.653  50.269  1.00  0.00    +0.000 H 
ATOM    123  H39 UNL A   1      20.719  40.735  50.698  1.00  0.00    +0.000 H 
ENDROOT
BRANCH   26   25
ATOM    112  H28 UNL A   1      16.818  39.096  49.359  1.00  0.00    +0.000 H 
ATOM    113  H29 UNL A   1      18.989  39.073  48.271  1.00  0.00    +0.000 H 
ATOM     83  C58 UNL A   1      19.874  37.737  51.219  1.00  0.00    +0.000 C 
ATOM     84  C59 UNL A   1      18.615  37.680  51.814  1.00  0.00    +0.000 C 
ATOM     22  C16 UNL A   1      17.511  38.236  51.160  1.00  0.00    +0.000 C 
ATOM     23  C17 UNL A   1      17.643  38.731  49.860  1.00  0.00    +0.000 C 
ATOM     24  C18 UNL A   1      18.895  38.729  49.240  1.00  0.00    +0.000 C 
ATOM     25  C19 UNL A   1      20.027  38.265  49.928  1.00  0.00    +0.000 C 
ATOM    124  H40 UNL A   1      20.698  37.388  51.732  1.00  0.00    +0.000 H 
ATOM    125  H41 UNL A   1      18.497  37.229  52.734  1.00  0.00    +0.000 H 
BRANCH   22   20
ATOM     20  C15 UNL A   1      16.187  38.315  51.819  1.00  0.00    +0.000 C 
ATOM     21  O2  UNL A   1      15.930  39.257  52.557  1.00  0.00    +0.000 O 
BRANCH   20   19
ATOM     19  N2  UNL A   1      15.265  37.312  51.625  1.00  0.00    +0.000 N 
ATOM    111  H27 UNL A   1      15.121  36.717  52.397  1.00  0.00    +0.000 H 
BRANCH   19   18
ATOM     18  C14 UNL A   1      14.472  37.008  50.446  1.00  0.00    +0.000 C 
ATOM    109  H25 UNL A   1      13.617  36.439  50.748  1.00  0.00    +0.000 H 
ATOM    110  H26 UNL A   1      14.195  37.939  49.997  1.00  0.00    +0.000 H 
BRANCH   18   17
ATOM     17  C13 UNL A   1      15.243  36.209  49.401  1.00  0.00    +0.000 C 
ATOM    107  H23 UNL A   1      16.286  36.411  49.533  1.00  0.00    +0.000 H 
ATOM    108  H24 UNL A   1      14.980  35.183  49.560  1.00  0.00    +0.000 H 
BRANCH   17   16
ATOM    105  H21 UNL A   1      13.981  35.989  47.711  1.00  0.00    +0.000 H 
ATOM    106  H22 UNL A   1      14.795  37.577  47.880  1.00  0.00    +0.000 H 
ATOM     16  C12 UNL A   1      14.884  36.513  47.945  1.00  0.00    +0.000 C 
BRANCH   16   15
ATOM    103  H19 UNL A   1      16.732  35.616  47.424  1.00  0.00    +0.000 H 
ATOM     15  C11 UNL A   1      15.940  36.116  46.909  1.00  0.00    +0.000 C 
ATOM    104  H20 UNL A   1      15.430  35.504  46.194  1.00  0.00    +0.000 H 
BRANCH   15   14
ATOM    102  H18 UNL A   1      16.271  38.170  46.617  1.00  0.00    +0.000 H 
ATOM    101  H17 UNL A   1      16.182  37.213  45.106  1.00  0.00    +0.000 H 
ATOM     14  C10 UNL A   1      16.554  37.272  46.106  1.00  0.00    +0.000 C 
BRANCH   14   13
ATOM     99  H15 UNL A   1      18.387  37.911  45.232  1.00  0.00    +0.000 H 
ATOM    100  H16 UNL A   1      18.448  37.658  46.976  1.00  0.00    +0.000 H 
ATOM     13  C9  UNL A   1      18.080  37.286  46.043  1.00  0.00    +0.000 C 
BRANCH   13   12
ATOM     98  H14 UNL A   1      18.193  35.199  46.302  1.00  0.00    +0.000 H 
ATOM     12  N1  UNL A   1      18.619  35.959  45.844  1.00  0.00    +0.000 N 
BRANCH   12    2
ATOM      1  O1  UNL A   1      20.572  36.558  44.800  1.00  0.00    +0.000 O 
ATOM      2  C1  UNL A   1      19.707  35.722  45.040  1.00  0.00    +0.000 C 
BRANCH    2    3
ATOM      3  C2  UNL A   1      19.757  34.321  44.461  1.00  0.00    +0.000 C 
ATOM     85  H1  UNL A   1      20.776  34.073  44.253  1.00  0.00    +0.000 H 
ATOM     86  H2  UNL A   1      19.158  34.319  43.574  1.00  0.00    +0.000 H 
BRANCH    3    4
ATOM      4  C3  UNL A   1      19.180  33.266  45.408  1.00  0.00    +0.000 C 
ATOM     87  H3  UNL A   1      18.125  33.224  45.234  1.00  0.00    +0.000 H 
ATOM     88  H4  UNL A   1      19.472  33.591  46.385  1.00  0.00    +0.000 H 
BRANCH    4    5
ATOM     89  H5  UNL A   1      19.420  31.307  46.178  1.00  0.00    +0.000 H 
ATOM     90  H6  UNL A   1      20.778  31.957  45.168  1.00  0.00    +0.000 H 
ATOM      5  C4  UNL A   1      19.724  31.831  45.296  1.00  0.00    +0.000 C 
BRANCH    5    6
ATOM     91  H7  UNL A   1      20.083  30.289  43.896  1.00  0.00    +0.000 H 
ATOM     92  H8  UNL A   1      19.093  31.704  43.326  1.00  0.00    +0.000 H 
ATOM      6  C5  UNL A   1      19.293  30.984  44.091  1.00  0.00    +0.000 C 
BRANCH    6    7
ATOM     97  H13 UNL A   1      16.646  27.057  43.593  1.00  0.00    +0.000 H 
ATOM      7  C6  UNL A   1      17.989  30.169  44.187  1.00  0.00    +0.000 C 
ATOM      8  C7  UNL A   1      18.051  28.667  43.911  1.00  0.00    +0.000 C 
ATOM      9  C8  UNL A   1      16.640  28.087  43.884  1.00  0.00    +0.000 C 
ATOM     10  S1  UNL A   1      15.705  29.099  42.714  1.00  0.00    +0.000 S 
ATOM     11  S2  UNL A   1      16.739  30.840  43.029  1.00  0.00    +0.000 S 
ATOM     93  H9  UNL A   1      17.746  30.273  45.224  1.00  0.00    +0.000 H 
ATOM     94  H10 UNL A   1      18.617  28.188  44.681  1.00  0.00    +0.000 H 
ATOM     95  H11 UNL A   1      18.519  28.502  42.963  1.00  0.00    +0.000 H 
ATOM     96  H12 UNL A   1      16.198  28.139  44.857  1.00  0.00    +0.000 H 
ENDBRANCH    6    7
ENDBRANCH    5    6
ENDBRANCH    4    5
ENDBRANCH    3    4
ENDBRANCH    2    3
ENDBRANCH   12    2
ENDBRANCH   13   12
ENDBRANCH   14   13
ENDBRANCH   15   14
ENDBRANCH   16   15
ENDBRANCH   17   16
ENDBRANCH   18   17
ENDBRANCH   19   18
ENDBRANCH   20   19
ENDBRANCH   22   20
ENDBRANCH   26   25
BRANCH   30   31
ATOM     33  F1  UNL A   1      23.852  44.167  47.312  1.00  0.00    +0.000 F 
ATOM     34  C26 UNL A   1      24.278  45.726  49.024  1.00  0.00    +0.000 C 
ATOM     35  F2  UNL A   1      23.876  46.717  48.218  1.00  0.00    +0.000 F 
ATOM     36  C27 UNL A   1      24.707  46.009  50.311  1.00  0.00    +0.000 C 
ATOM     37  F3  UNL A   1      24.704  47.273  50.757  1.00  0.00    +0.000 F 
ATOM     38  C28 UNL A   1      25.147  44.984  51.135  1.00  0.00    +0.000 C 
ATOM     39  F4  UNL A   1      25.551  45.256  52.383  1.00  0.00    +0.000 F 
ATOM     40  C29 UNL A   1      25.169  43.673  50.667  1.00  0.00    +0.000 C 
ATOM     41  F5  UNL A   1      25.611  42.704  51.483  1.00  0.00    +0.000 F 
ATOM     31  C24 UNL A   1      24.730  43.361  49.371  1.00  0.00    +0.000 C 
ATOM     32  C25 UNL A   1      24.273  44.411  48.562  1.00  0.00    +0.000 C 
ENDBRANCH   30   31
BRANCH   47   48
ATOM     48  C35 UNL A   1      28.965  38.872  45.653  1.00  0.00    +0.000 C 
ATOM     49  C36 UNL A   1      29.208  39.547  44.448  1.00  0.00    +0.000 C 
ATOM     50  F6  UNL A   1      28.202  40.154  43.800  1.00  0.00    +0.000 F 
ATOM     51  C37 UNL A   1      30.481  39.567  43.885  1.00  0.00    +0.000 C 
ATOM     52  F7  UNL A   1      30.683  40.182  42.711  1.00  0.00    +0.000 F 
ATOM     53  C38 UNL A   1      31.539  38.943  44.530  1.00  0.00    +0.000 C 
ATOM     54  F8  UNL A   1      32.764  38.969  43.990  1.00  0.00    +0.000 F 
ATOM     55  C39 UNL A   1      31.323  38.283  45.731  1.00  0.00    +0.000 C 
ATOM     56  F9  UNL A   1      32.345  37.688  46.361  1.00  0.00    +0.000 F 
ATOM     57  C40 UNL A   1      30.046  38.238  46.283  1.00  0.00    +0.000 C 
ATOM     58  F10 UNL A   1      29.866  37.583  47.441  1.00  0.00    +0.000 F 
ENDBRANCH   47   48
BRANCH   62   63
ATOM     65  F11 UNL A   1      22.854  34.765  44.125  1.00  0.00    +0.000 F 
ATOM     66  C46 UNL A   1      23.243  32.449  44.323  1.00  0.00    +0.000 C 
ATOM     67  F12 UNL A   1      22.588  32.241  43.172  1.00  0.00    +0.000 F 
ATOM     68  C47 UNL A   1      23.766  31.376  45.027  1.00  0.00    +0.000 C 
ATOM     69  F13 UNL A   1      23.635  30.131  44.550  1.00  0.00    +0.000 F 
ATOM     70  C48 UNL A   1      24.419  31.593  46.232  1.00  0.00    +0.000 C 
ATOM     71  F14 UNL A   1      24.936  30.560  46.909  1.00  0.00    +0.000 F 
ATOM     72  C49 UNL A   1      24.535  32.885  46.741  1.00  0.00    +0.000 C 
ATOM     73  F15 UNL A   1      25.157  33.065  47.915  1.00  0.00    +0.000 F 
ATOM     63  C44 UNL A   1      24.019  33.987  46.043  1.00  0.00    +0.000 C 
ATOM     64  C45 UNL A   1      23.382  33.745  44.818  1.00  0.00    +0.000 C 
ENDBRANCH   62   63
TORSDOF 19
ENDMDL
MODEL 5
REMARK VINA RESULT:      -9.1      3.578      8.408
ROOT
ATOM     26  C20 UNL A   1      21.571  38.616  49.242  1.00  0.00    +0.000 C 
ATOM     27  C21 UNL A   1      22.400  39.868  49.297  1.00  0.00    +0.000 C 
ATOM     28  N3  UNL A   1      23.574  40.108  48.770  1.00  0.00    +0.000 N 
ATOM     29  C22 UNL A   1      23.863  41.432  49.075  1.00  0.00    +0.000 C 
ATOM     30  C23 UNL A   1      24.984  42.138  48.793  1.00  0.00    +0.000 C 
ATOM     42  C30 UNL A   1      26.132  41.604  48.109  1.00  0.00    +0.000 C 
ATOM     43  C31 UNL A   1      27.345  42.217  47.851  1.00  0.00    +0.000 C 
ATOM     44  C32 UNL A   1      28.140  41.325  47.123  1.00  0.00    +0.000 C 
ATOM     45  C33 UNL A   1      27.439  40.141  46.967  1.00  0.00    +0.000 C 
ATOM     46  N4  UNL A   1      26.207  40.327  47.575  1.00  0.00    +0.000 N 
ATOM     47  C34 UNL A   1      27.856  38.930  46.309  1.00  0.00    +0.000 C 
ATOM     59  C41 UNL A   1      27.111  37.803  46.211  1.00  0.00    +0.000 C 
ATOM     60  N5  UNL A   1      25.838  37.555  46.704  1.00  0.00    +0.000 N 
ATOM     61  C42 UNL A   1      25.545  36.329  46.345  1.00  0.00    +0.000 C 
ATOM     62  C43 UNL A   1      24.306  35.525  46.631  1.00  0.00    +0.000 C 
ATOM     74  C50 UNL A   1      23.323  36.070  47.372  1.00  0.00    +0.000 C 
ATOM     75  C51 UNL A   1      22.070  35.412  47.732  1.00  0.00    +0.000 C 
ATOM     76  C52 UNL A   1      21.309  36.270  48.431  1.00  0.00    +0.000 C 
ATOM     77  C53 UNL A   1      22.036  37.529  48.597  1.00  0.00    +0.000 C 
ATOM     78  N6  UNL A   1      23.226  37.314  47.947  1.00  0.00    +0.000 N 
ATOM     79  C54 UNL A   1      26.594  35.669  45.555  1.00  0.00    +0.000 C 
ATOM     80  C55 UNL A   1      27.542  36.597  45.536  1.00  0.00    +0.000 C 
ATOM     81  C56 UNL A   1      22.724  41.957  49.797  1.00  0.00    +0.000 C 
ATOM     82  C57 UNL A   1      21.820  41.013  50.015  1.00  0.00    +0.000 C 
ATOM    114  H30 UNL A   1      27.617  43.168  48.144  1.00  0.00    +0.000 H 
ATOM    115  H31 UNL A   1      29.089  41.517  46.765  1.00  0.00    +0.000 H 
ATOM    116  H32 UNL A   1      25.492  39.651  47.620  1.00  0.00    +0.000 H 
ATOM    117  H33 UNL A   1      21.811  34.443  47.488  1.00  0.00    +0.000 H 
ATOM    118  H34 UNL A   1      20.363  36.072  48.794  1.00  0.00    +0.000 H 
ATOM    119  H35 UNL A   1      23.942  37.987  47.897  1.00  0.00    +0.000 H 
ATOM    120  H36 UNL A   1      26.595  34.731  45.126  1.00  0.00    +0.000 H 
ATOM    121  H37 UNL A   1      28.467  36.474  45.097  1.00  0.00    +0.000 H 
ATOM    122  H38 UNL A   1      22.629  42.939  50.102  1.00  0.00    +0.000 H 
ATOM    123  H39 UNL A   1      20.939  41.068  50.550  1.00  0.00    +0.000 H 
ENDROOT
BRANCH   26   25
ATOM    112  H28 UNL A   1      16.976  39.106  49.049  1.00  0.00    +0.000 H 
ATOM    113  H29 UNL A   1      19.175  38.993  48.026  1.00  0.00    +0.000 H 
ATOM     83  C58 UNL A   1      20.045  38.327  51.198  1.00  0.00    +0.000 C 
ATOM     84  C59 UNL A   1      18.774  38.316  51.770  1.00  0.00    +0.000 C 
ATOM     22  C16 UNL A   1      17.661  38.666  50.999  1.00  0.00    +0.000 C 
ATOM     23  C17 UNL A   1      17.804  38.898  49.628  1.00  0.00    +0.000 C 
ATOM     24  C18 UNL A   1      19.072  38.845  49.043  1.00  0.00    +0.000 C 
ATOM     25  C19 UNL A   1      20.207  38.595  49.830  1.00  0.00    +0.000 C 
ATOM    124  H40 UNL A   1      20.872  38.136  51.785  1.00  0.00    +0.000 H 
ATOM    125  H41 UNL A   1      18.654  38.052  52.760  1.00  0.00    +0.000 H 
BRANCH   22   20
ATOM     20  C15 UNL A   1      16.316  38.797  51.604  1.00  0.00    +0.000 C 
ATOM     21  O2  UNL A   1      16.009  39.829  52.185  1.00  0.00    +0.000 O 
BRANCH   20   19
ATOM     19  N2  UNL A   1      15.431  37.745  51.542  1.00  0.00    +0.000 N 
ATOM    111  H27 UNL A   1      15.417  37.159  52.334  1.00  0.00    +0.000 H 
BRANCH   19   18
ATOM     18  C14 UNL A   1      14.515  37.377  50.476  1.00  0.00    +0.000 C 
ATOM    109  H25 UNL A   1      13.596  37.049  50.914  1.00  0.00    +0.000 H 
ATOM    110  H26 UNL A   1      14.378  38.241  49.860  1.00  0.00    +0.000 H 
BRANCH   18   17
ATOM     17  C13 UNL A   1      15.054  36.263  49.586  1.00  0.00    +0.000 C 
ATOM    107  H23 UNL A   1      16.081  36.102  49.842  1.00  0.00    +0.000 H 
ATOM    108  H24 UNL A   1      14.428  35.413  49.765  1.00  0.00    +0.000 H 
BRANCH   17   16
ATOM    105  H21 UNL A   1      14.202  35.916  47.675  1.00  0.00    +0.000 H 
ATOM    106  H22 UNL A   1      14.802  37.579  47.977  1.00  0.00    +0.000 H 
ATOM     16  C12 UNL A   1      14.980  36.529  48.081  1.00  0.00    +0.000 C 
BRANCH   16   15
ATOM    103  H19 UNL A   1      17.084  36.296  47.980  1.00  0.00    +0.000 H 
ATOM     15  C11 UNL A   1      16.263  36.242  47.297  1.00  0.00    +0.000 C 
ATOM    104  H20 UNL A   1      16.126  35.275  46.858  1.00  0.00    +0.000 H 
BRANCH   15   14
ATOM    102  H18 UNL A   1      16.226  38.160  46.443  1.00  0.00    +0.000 H 
ATOM    101  H17 UNL A   1      16.045  36.823  45.265  1.00  0.00    +0.000 H 
ATOM     14  C10 UNL A   1      16.557  37.193  46.128  1.00  0.00    +0.000 C 
BRANCH   14   13
ATOM     99  H15 UNL A   1      18.109  37.761  44.785  1.00  0.00    +0.000 H 
ATOM    100  H16 UNL A   1      18.485  37.997  46.492  1.00  0.00    +0.000 H 
ATOM     13  C9  UNL A   1      18.034  37.349  45.769  1.00  0.00    +0.000 C 
BRANCH   13   12
ATOM     98  H14 UNL A   1      18.405  35.377  46.405  1.00  0.00    +0.000 H 
ATOM     12  N1  UNL A   1      18.731  36.083  45.802  1.00  0.00    +0.000 N 
BRANCH   12    2
ATOM      1  O1  UNL A   1      20.676  36.675  44.740  1.00  0.00    +0.000 O 
ATOM      2  C1  UNL A   1      19.833  35.830  45.022  1.00  0.00    +0.000 C 
BRANCH    2    3
ATOM      3  C2  UNL A   1      19.928  34.401  44.527  1.00  0.00    +0.000 C 
ATOM     85  H1  UNL A   1      20.889  34.256  44.082  1.00  0.00    +0.000 H 
ATOM     86  H2  UNL A   1      19.136  34.252  43.821  1.00  0.00    +0.000 H 
BRANCH    3    4
ATOM      4  C3  UNL A   1      19.746  33.371  45.645  1.00  0.00    +0.000 C 
ATOM     87  H3  UNL A   1      18.955  33.721  46.276  1.00  0.00    +0.000 H 
ATOM     88  H4  UNL A   1      20.708  33.303  46.109  1.00  0.00    +0.000 H 
BRANCH    4    5
ATOM     89  H5  UNL A   1      18.434  31.708  45.629  1.00  0.00    +0.000 H 
ATOM     90  H6  UNL A   1      20.211  31.344  45.635  1.00  0.00    +0.000 H 
ATOM      5  C4  UNL A   1      19.406  31.926  45.238  1.00  0.00    +0.000 C 
BRANCH    5    6
ATOM     91  H7  UNL A   1      19.869  30.632  43.635  1.00  0.00    +0.000 H 
ATOM     92  H8  UNL A   1      19.862  32.414  43.277  1.00  0.00    +0.000 H 
ATOM      6  C5  UNL A   1      19.385  31.579  43.744  1.00  0.00    +0.000 C 
BRANCH    6    7
ATOM     97  H13 UNL A   1      15.893  33.181  40.931  1.00  0.00    +0.000 H 
ATOM      7  C6  UNL A   1      18.025  31.477  43.026  1.00  0.00    +0.000 C 
ATOM      8  C7  UNL A   1      17.655  32.565  42.019  1.00  0.00    +0.000 C 
ATOM      9  C8  UNL A   1      16.212  32.375  41.559  1.00  0.00    +0.000 C 
ATOM     10  S1  UNL A   1      15.217  32.275  43.063  1.00  0.00    +0.000 S 
ATOM     11  S2  UNL A   1      16.665  31.442  44.251  1.00  0.00    +0.000 S 
ATOM     93  H9  UNL A   1      18.148  30.576  42.461  1.00  0.00    +0.000 H 
ATOM     94  H10 UNL A   1      18.308  32.504  41.174  1.00  0.00    +0.000 H 
ATOM     95  H11 UNL A   1      17.754  33.524  42.484  1.00  0.00    +0.000 H 
ATOM     96  H12 UNL A   1      16.119  31.474  40.990  1.00  0.00    +0.000 H 
ENDBRANCH    6    7
ENDBRANCH    5    6
ENDBRANCH    4    5
ENDBRANCH    3    4
ENDBRANCH    2    3
ENDBRANCH   12    2
ENDBRANCH   13   12
ENDBRANCH   14   13
ENDBRANCH   15   14
ENDBRANCH   16   15
ENDBRANCH   17   16
ENDBRANCH   18   17
ENDBRANCH   19   18
ENDBRANCH   20   19
ENDBRANCH   22   20
ENDBRANCH   26   25
BRANCH   30   31
ATOM     33  F1  UNL A   1      26.067  43.022  51.298  1.00  0.00    +0.000 F 
ATOM     34  C26 UNL A   1      25.651  45.292  50.834  1.00  0.00    +0.000 C 
ATOM     35  F2  UNL A   1      26.159  45.627  52.028  1.00  0.00    +0.000 F 
ATOM     36  C27 UNL A   1      25.171  46.277  49.984  1.00  0.00    +0.000 C 
ATOM     37  F3  UNL A   1      25.232  47.565  50.347  1.00  0.00    +0.000 F 
ATOM     38  C28 UNL A   1      24.622  45.926  48.760  1.00  0.00    +0.000 C 
ATOM     39  F4  UNL A   1      24.169  46.878  47.932  1.00  0.00    +0.000 F 
ATOM     40  C29 UNL A   1      24.541  44.587  48.389  1.00  0.00    +0.000 C 
ATOM     41  F5  UNL A   1      23.995  44.277  47.203  1.00  0.00    +0.000 F 
ATOM     31  C24 UNL A   1      25.029  43.574  49.229  1.00  0.00    +0.000 C 
ATOM     32  C25 UNL A   1      25.596  43.953  50.455  1.00  0.00    +0.000 C 
ENDBRANCH   30   31
BRANCH   47   48
ATOM     48  C35 UNL A   1      29.229  38.902  45.703  1.00  0.00    +0.000 C 
ATOM     49  C36 UNL A   1      30.315  38.317  46.369  1.00  0.00    +0.000 C 
ATOM     50  F6  UNL A   1      30.157  37.810  47.601  1.00  0.00    +0.000 F 
ATOM     51  C37 UNL A   1      31.578  38.285  45.785  1.00  0.00    +0.000 C 
ATOM     52  F7  UNL A   1      32.612  37.759  46.457  1.00  0.00    +0.000 F 
ATOM     53  C38 UNL A   1      31.773  38.807  44.515  1.00  0.00    +0.000 C 
ATOM     54  F8  UNL A   1      32.988  38.770  43.952  1.00  0.00    +0.000 F 
ATOM     55  C39 UNL A   1      30.708  39.377  43.832  1.00  0.00    +0.000 C 
ATOM     56  F9  UNL A   1      30.891  39.873  42.600  1.00  0.00    +0.000 F 
ATOM     57  C40 UNL A   1      29.449  39.435  44.424  1.00  0.00    +0.000 C 
ATOM     58  F10 UNL A   1      28.441  40.001  43.743  1.00  0.00    +0.000 F 
ENDBRANCH   47   48
BRANCH   62   63
ATOM     65  F11 UNL A   1      25.405  33.283  47.969  1.00  0.00    +0.000 F 
ATOM     66  C46 UNL A   1      24.637  31.756  46.348  1.00  0.00    +0.000 C 
ATOM     67  F12 UNL A   1      25.219  30.752  47.018  1.00  0.00    +0.000 F 
ATOM     68  C47 UNL A   1      23.957  31.499  45.167  1.00  0.00    +0.000 C 
ATOM     69  F13 UNL A   1      23.866  30.245  44.704  1.00  0.00    +0.000 F 
ATOM     70  C48 UNL A   1      23.380  32.545  44.462  1.00  0.00    +0.000 C 
ATOM     71  F14 UNL A   1      22.713  32.299  43.327  1.00  0.00    +0.000 F 
ATOM     72  C49 UNL A   1      23.496  33.852  44.931  1.00  0.00    +0.000 C 
ATOM     73  F15 UNL A   1      22.941  34.845  44.222  1.00  0.00    +0.000 F 
ATOM     63  C44 UNL A   1      24.172  34.135  46.126  1.00  0.00    +0.000 C 
ATOM     64  C45 UNL A   1      24.731  33.059  46.831  1.00  0.00    +0.000 C 
ENDBRANCH   62   63
TORSDOF 19
ENDMDL
MODEL 6
REMARK VINA RESULT:      -9.1     43.323     46.673
ROOT
ATOM     26  C20 UNL A   1      13.935  53.663   5.205  1.00  0.00    +0.000 C 
ATOM     27  C21 UNL A   1      14.889  54.139   4.146  1.00  0.00    +0.000 C 
ATOM     28  N3  UNL A   1      15.390  53.485   3.128  1.00  0.00    +0.000 N 
ATOM     29  C22 UNL A   1      16.172  54.401   2.437  1.00  0.00    +0.000 C 
ATOM     30  C23 UNL A   1      16.937  54.199   1.338  1.00  0.00    +0.000 C 
ATOM     42  C30 UNL A   1      17.090  52.930   0.675  1.00  0.00    +0.000 C 
ATOM     43  C31 UNL A   1      17.907  52.609  -0.394  1.00  0.00    +0.000 C 
ATOM     44  C32 UNL A   1      17.690  51.267  -0.723  1.00  0.00    +0.000 C 
ATOM     45  C33 UNL A   1      16.771  50.741   0.170  1.00  0.00    +0.000 C 
ATOM     46  N4  UNL A   1      16.410  51.773   1.021  1.00  0.00    +0.000 N 
ATOM     47  C34 UNL A   1      16.255  49.398   0.242  1.00  0.00    +0.000 C 
ATOM     59  C41 UNL A   1      15.363  48.957   1.161  1.00  0.00    +0.000 C 
ATOM     60  N5  UNL A   1      14.771  49.654   2.204  1.00  0.00    +0.000 N 
ATOM     61  C42 UNL A   1      13.977  48.800   2.803  1.00  0.00    +0.000 C 
ATOM     62  C43 UNL A   1      13.107  48.999   4.014  1.00  0.00    +0.000 C 
ATOM     74  C50 UNL A   1      13.107  50.193   4.637  1.00  0.00    +0.000 C 
ATOM     75  C51 UNL A   1      12.321  50.531   5.820  1.00  0.00    +0.000 C 
ATOM     76  C52 UNL A   1      12.531  51.819   6.134  1.00  0.00    +0.000 C 
ATOM     77  C53 UNL A   1      13.495  52.390   5.193  1.00  0.00    +0.000 C 
ATOM     78  N6  UNL A   1      13.791  51.349   4.348  1.00  0.00    +0.000 N 
ATOM     79  C54 UNL A   1      13.955  47.467   2.184  1.00  0.00    +0.000 C 
ATOM     80  C55 UNL A   1      14.846  47.605   1.213  1.00  0.00    +0.000 C 
ATOM     81  C56 UNL A   1      16.049  55.667   3.128  1.00  0.00    +0.000 C 
ATOM     82  C57 UNL A   1      15.318  55.543   4.226  1.00  0.00    +0.000 C 
ATOM    114  H30 UNL A   1      18.563  53.249  -0.869  1.00  0.00    +0.000 H 
ATOM    115  H31 UNL A   1      18.139  50.755  -1.499  1.00  0.00    +0.000 H 
ATOM    116  H32 UNL A   1      15.765  51.696   1.761  1.00  0.00    +0.000 H 
ATOM    117  H33 UNL A   1      11.702  49.883   6.333  1.00  0.00    +0.000 H 
ATOM    118  H34 UNL A   1      12.085  52.325   6.915  1.00  0.00    +0.000 H 
ATOM    119  H35 UNL A   1      14.433  51.422   3.605  1.00  0.00    +0.000 H 
ATOM    120  H36 UNL A   1      13.393  46.639   2.438  1.00  0.00    +0.000 H 
ATOM    121  H37 UNL A   1      15.134  46.847   0.575  1.00  0.00    +0.000 H 
ATOM    122  H38 UNL A   1      16.475  56.550   2.806  1.00  0.00    +0.000 H 
ATOM    123  H39 UNL A   1      15.105  56.249   4.949  1.00  0.00    +0.000 H 
ENDROOT
BRANCH   26   25
ATOM    112  H28 UNL A   1      10.875  56.743   6.801  1.00  0.00    +0.000 H 
ATOM    113  H29 UNL A   1      11.623  55.083   5.194  1.00  0.00    +0.000 H 
ATOM     83  C58 UNL A   1      14.145  54.846   7.394  1.00  0.00    +0.000 C 
ATOM     84  C59 UNL A   1      13.677  55.743   8.353  1.00  0.00    +0.000 C 
ATOM     22  C16 UNL A   1      12.517  56.483   8.105  1.00  0.00    +0.000 C 
ATOM     23  C17 UNL A   1      11.757  56.232   6.959  1.00  0.00    +0.000 C 
ATOM     24  C18 UNL A   1      12.195  55.286   6.029  1.00  0.00    +0.000 C 
ATOM     25  C19 UNL A   1      13.411  54.611   6.222  1.00  0.00    +0.000 C 
ATOM    124  H40 UNL A   1      15.038  54.352   7.549  1.00  0.00    +0.000 H 
ATOM    125  H41 UNL A   1      14.185  55.861   9.243  1.00  0.00    +0.000 H 
BRANCH   22   20
ATOM     20  C15 UNL A   1      12.065  57.540   9.038  1.00  0.00    +0.000 C 
ATOM     21  O2  UNL A   1      12.422  58.698   8.865  1.00  0.00    +0.000 O 
BRANCH   20   19
ATOM     19  N2  UNL A   1      11.275  57.212  10.116  1.00  0.00    +0.000 N 
ATOM    111  H27 UNL A   1      10.978  57.971  10.669  1.00  0.00    +0.000 H 
BRANCH   19   18
ATOM     18  C14 UNL A   1      10.817  55.904  10.553  1.00  0.00    +0.000 C 
ATOM    109  H25 UNL A   1       9.825  56.003  10.943  1.00  0.00    +0.000 H 
ATOM    110  H26 UNL A   1      10.849  55.253   9.705  1.00  0.00    +0.000 H 
BRANCH   18   17
ATOM     17  C13 UNL A   1      11.704  55.292  11.633  1.00  0.00    +0.000 C 
ATOM    107  H23 UNL A   1      12.406  56.037  11.945  1.00  0.00    +0.000 H 
ATOM    108  H24 UNL A   1      11.043  54.971  12.411  1.00  0.00    +0.000 H 
BRANCH   17   16
ATOM    105  H21 UNL A   1      11.974  53.190  11.581  1.00  0.00    +0.000 H 
ATOM    106  H22 UNL A   1      12.553  54.090  10.143  1.00  0.00    +0.000 H 
ATOM     16  C12 UNL A   1      12.491  54.050  11.210  1.00  0.00    +0.000 C 
BRANCH   16   15
ATOM    103  H19 UNL A   1      14.553  53.671  10.896  1.00  0.00    +0.000 H 
ATOM     15  C11 UNL A   1      13.936  53.983  11.712  1.00  0.00    +0.000 C 
ATOM    104  H20 UNL A   1      14.163  54.964  12.078  1.00  0.00    +0.000 H 
BRANCH   15   14
ATOM    102  H18 UNL A   1      13.453  52.257  12.807  1.00  0.00    +0.000 H 
ATOM    101  H17 UNL A   1      14.121  53.595  13.793  1.00  0.00    +0.000 H 
ATOM     14  C10 UNL A   1      14.190  53.029  12.888  1.00  0.00    +0.000 C 
BRANCH   14   13
ATOM     99  H15 UNL A   1      16.302  53.031  12.614  1.00  0.00    +0.000 H 
ATOM    100  H16 UNL A   1      15.717  51.916  13.849  1.00  0.00    +0.000 H 
ATOM     13  C9  UNL A   1      15.544  52.322  12.874  1.00  0.00    +0.000 C 
BRANCH   13   12
ATOM     98  H14 UNL A   1      14.762  50.688  11.802  1.00  0.00    +0.000 H 
ATOM     12  N1  UNL A   1      15.571  51.235  11.922  1.00  0.00    +0.000 N 
BRANCH   12    2
ATOM      1  O1  UNL A   1      17.811  50.815  11.658  1.00  0.00    +0.000 O 
ATOM      2  C1  UNL A   1      16.688  50.936  11.180  1.00  0.00    +0.000 C 
BRANCH    2    3
ATOM      3  C2  UNL A   1      16.420  50.765   9.698  1.00  0.00    +0.000 C 
ATOM     85  H1  UNL A   1      16.314  49.722   9.487  1.00  0.00    +0.000 H 
ATOM     86  H2  UNL A   1      17.246  51.196   9.170  1.00  0.00    +0.000 H 
BRANCH    3    4
ATOM      4  C3  UNL A   1      15.152  51.488   9.236  1.00  0.00    +0.000 C 
ATOM     87  H3  UNL A   1      15.350  51.890   8.264  1.00  0.00    +0.000 H 
ATOM     88  H4  UNL A   1      14.959  52.211  10.001  1.00  0.00    +0.000 H 
BRANCH    4    5
ATOM     89  H5  UNL A   1      13.273  51.085   8.345  1.00  0.00    +0.000 H 
ATOM     90  H6  UNL A   1      13.428  50.731  10.118  1.00  0.00    +0.000 H 
ATOM      5  C4  UNL A   1      13.855  50.666   9.139  1.00  0.00    +0.000 C 
BRANCH    5    6
ATOM     91  H7  UNL A   1      14.980  48.878   9.085  1.00  0.00    +0.000 H 
ATOM     92  H8  UNL A   1      13.646  49.049   7.861  1.00  0.00    +0.000 H 
ATOM      6  C5  UNL A   1      13.969  49.159   8.875  1.00  0.00    +0.000 C 
BRANCH    6    7
ATOM     97  H13 UNL A   1      12.390  44.863  10.187  1.00  0.00    +0.000 H 
ATOM      7  C6  UNL A   1      13.060  48.197   9.663  1.00  0.00    +0.000 C 
ATOM      8  C7  UNL A   1      13.365  46.700   9.605  1.00  0.00    +0.000 C 
ATOM      9  C8  UNL A   1      12.255  45.918  10.300  1.00  0.00    +0.000 C 
ATOM     10  S1  UNL A   1      10.707  46.471   9.548  1.00  0.00    +0.000 S 
ATOM     11  S2  UNL A   1      11.323  48.376   9.113  1.00  0.00    +0.000 S 
ATOM     93  H9  UNL A   1      13.248  48.501  10.672  1.00  0.00    +0.000 H 
ATOM     94  H10 UNL A   1      14.296  46.509  10.096  1.00  0.00    +0.000 H 
ATOM     95  H11 UNL A   1      13.426  46.393   8.582  1.00  0.00    +0.000 H 
ATOM     96  H12 UNL A   1      12.254  46.127  11.350  1.00  0.00    +0.000 H 
ENDBRANCH    6    7
ENDBRANCH    5    6
ENDBRANCH    4    5
ENDBRANCH    3    4
ENDBRANCH    2    3
ENDBRANCH   12    2
ENDBRANCH   13   12
ENDBRANCH   14   13
ENDBRANCH   15   14
ENDBRANCH   16   15
ENDBRANCH   17   16
ENDBRANCH   18   17
ENDBRANCH   19   18
ENDBRANCH   20   19
ENDBRANCH   22   20
ENDBRANCH   26   25
BRANCH   30   31
ATOM     33  F1  UNL A   1      19.538  55.027   2.220  1.00  0.00    +0.000 F 
ATOM     34  C26 UNL A   1      19.644  56.808   0.685  1.00  0.00    +0.000 C 
ATOM     35  F2  UNL A   1      20.851  57.143   1.159  1.00  0.00    +0.000 F 
ATOM     36  C27 UNL A   1      19.072  57.547  -0.340  1.00  0.00    +0.000 C 
ATOM     37  F3  UNL A   1      19.734  58.585  -0.869  1.00  0.00    +0.000 F 
ATOM     38  C28 UNL A   1      17.811  57.214  -0.812  1.00  0.00    +0.000 C 
ATOM     39  F4  UNL A   1      17.263  57.920  -1.811  1.00  0.00    +0.000 F 
ATOM     40  C29 UNL A   1      17.115  56.147  -0.252  1.00  0.00    +0.000 C 
ATOM     41  F5  UNL A   1      15.892  55.856  -0.722  1.00  0.00    +0.000 F 
ATOM     31  C24 UNL A   1      17.677  55.379   0.780  1.00  0.00    +0.000 C 
ATOM     32  C25 UNL A   1      18.960  55.723   1.230  1.00  0.00    +0.000 C 
ENDBRANCH   30   31
BRANCH   47   48
ATOM     48  C35 UNL A   1      16.758  48.403  -0.762  1.00  0.00    +0.000 C 
ATOM     49  C36 UNL A   1      18.005  47.778  -0.618  1.00  0.00    +0.000 C 
ATOM     50  F6  UNL A   1      18.806  48.101   0.409  1.00  0.00    +0.000 F 
ATOM     51  C37 UNL A   1      18.448  46.844  -1.550  1.00  0.00    +0.000 C 
ATOM     52  F7  UNL A   1      19.661  46.290  -1.415  1.00  0.00    +0.000 F 
ATOM     53  C38 UNL A   1      17.643  46.495  -2.624  1.00  0.00    +0.000 C 
ATOM     54  F8  UNL A   1      18.070  45.591  -3.517  1.00  0.00    +0.000 F 
ATOM     55  C39 UNL A   1      16.399  47.089  -2.777  1.00  0.00    +0.000 C 
ATOM     56  F9  UNL A   1      15.616  46.746  -3.809  1.00  0.00    +0.000 F 
ATOM     57  C40 UNL A   1      15.965  48.043  -1.862  1.00  0.00    +0.000 C 
ATOM     58  F10 UNL A   1      14.761  48.609  -2.043  1.00  0.00    +0.000 F 
ENDBRANCH   47   48
BRANCH   62   63
ATOM     65  F11 UNL A   1      10.470  48.488   3.117  1.00  0.00    +0.000 F 
ATOM     66  C46 UNL A   1      10.176  46.654   4.566  1.00  0.00    +0.000 C 
ATOM     67  F12 UNL A   1       8.922  46.501   4.118  1.00  0.00    +0.000 F 
ATOM     68  C47 UNL A   1      10.670  45.808   5.547  1.00  0.00    +0.000 C 
ATOM     69  F13 UNL A   1       9.901  44.825   6.036  1.00  0.00    +0.000 F 
ATOM     70  C48 UNL A   1      11.959  45.987   6.027  1.00  0.00    +0.000 C 
ATOM     71  F14 UNL A   1      12.444  45.164   6.966  1.00  0.00    +0.000 F 
ATOM     72  C49 UNL A   1      12.750  47.024   5.536  1.00  0.00    +0.000 C 
ATOM     73  F15 UNL A   1      13.987  47.183   6.028  1.00  0.00    +0.000 F 
ATOM     63  C44 UNL A   1      12.274  47.887   4.539  1.00  0.00    +0.000 C 
ATOM     64  C45 UNL A   1      10.976  47.675   4.056  1.00  0.00    +0.000 C 
ENDBRANCH   62   63
TORSDOF 19
ENDMDL
MODEL 7
REMARK VINA RESULT:      -9.1      4.599     10.334
ROOT
ATOM     26  C20 UNL A   1      25.755  36.164  45.393  1.00  0.00    +0.000 C 
ATOM     27  C21 UNL A   1      25.658  37.322  46.346  1.00  0.00    +0.000 C 
ATOM     28  N3  UNL A   1      26.575  38.190  46.691  1.00  0.00    +0.000 N 
ATOM     29  C22 UNL A   1      25.950  39.079  47.557  1.00  0.00    +0.000 C 
ATOM     30  C23 UNL A   1      26.489  40.128  48.223  1.00  0.00    +0.000 C 
ATOM     42  C30 UNL A   1      27.875  40.510  48.156  1.00  0.00    +0.000 C 
ATOM     43  C31 UNL A   1      28.530  41.506  48.859  1.00  0.00    +0.000 C 
ATOM     44  C32 UNL A   1      29.862  41.537  48.434  1.00  0.00    +0.000 C 
ATOM     45  C33 UNL A   1      30.047  40.531  47.500  1.00  0.00    +0.000 C 
ATOM     46  N4  UNL A   1      28.819  39.909  47.338  1.00  0.00    +0.000 N 
ATOM     47  C34 UNL A   1      31.253  40.162  46.804  1.00  0.00    +0.000 C 
ATOM     59  C41 UNL A   1      31.355  39.149  45.910  1.00  0.00    +0.000 C 
ATOM     60  N5  UNL A   1      30.376  38.264  45.482  1.00  0.00    +0.000 N 
ATOM     61  C42 UNL A   1      30.958  37.479  44.609  1.00  0.00    +0.000 C 
ATOM     62  C43 UNL A   1      30.384  36.317  43.844  1.00  0.00    +0.000 C 
ATOM     74  C50 UNL A   1      29.101  35.962  44.049  1.00  0.00    +0.000 C 
ATOM     75  C51 UNL A   1      28.412  34.859  43.385  1.00  0.00    +0.000 C 
ATOM     76  C52 UNL A   1      27.133  34.831  43.795  1.00  0.00    +0.000 C 
ATOM     77  C53 UNL A   1      26.922  35.895  44.777  1.00  0.00    +0.000 C 
ATOM     78  N6  UNL A   1      28.147  36.506  44.874  1.00  0.00    +0.000 N 
ATOM     79  C54 UNL A   1      32.371  37.799  44.362  1.00  0.00    +0.000 C 
ATOM     80  C55 UNL A   1      32.573  38.800  45.209  1.00  0.00    +0.000 C 
ATOM     81  C56 UNL A   1      24.565  38.670  47.654  1.00  0.00    +0.000 C 
ATOM     82  C57 UNL A   1      24.348  37.553  46.974  1.00  0.00    +0.000 C 
ATOM    114  H30 UNL A   1      28.108  42.121  49.572  1.00  0.00    +0.000 H 
ATOM    115  H31 UNL A   1      30.585  42.197  48.762  1.00  0.00    +0.000 H 
ATOM    116  H32 UNL A   1      28.644  39.154  46.731  1.00  0.00    +0.000 H 
ATOM    117  H33 UNL A   1      28.839  34.206  42.710  1.00  0.00    +0.000 H 
ATOM    118  H34 UNL A   1      26.415  34.165  43.469  1.00  0.00    +0.000 H 
ATOM    119  H35 UNL A   1      28.326  37.263  45.477  1.00  0.00    +0.000 H 
ATOM    120  H36 UNL A   1      33.034  37.362  43.703  1.00  0.00    +0.000 H 
ATOM    121  H37 UNL A   1      33.481  39.268  45.351  1.00  0.00    +0.000 H 
ATOM    122  H38 UNL A   1      23.842  39.182  48.183  1.00  0.00    +0.000 H 
ATOM    123  H39 UNL A   1      23.485  36.992  46.905  1.00  0.00    +0.000 H 
ENDROOT
BRANCH   26   25
ATOM    112  H28 UNL A   1      21.684  35.471  43.309  1.00  0.00    +0.000 H 
ATOM    113  H29 UNL A   1      23.717  36.741  43.698  1.00  0.00    +0.000 H 
ATOM     83  C58 UNL A   1      24.374  34.101  45.661  1.00  0.00    +0.000 C 
ATOM     84  C59 UNL A   1      23.242  33.338  45.379  1.00  0.00    +0.000 C 
ATOM     22  C16 UNL A   1      22.230  33.867  44.572  1.00  0.00    +0.000 C 
ATOM     23  C17 UNL A   1      22.409  35.103  43.945  1.00  0.00    +0.000 C 
ATOM     24  C18 UNL A   1      23.573  35.839  44.179  1.00  0.00    +0.000 C 
ATOM     25  C19 UNL A   1      24.549  35.359  45.067  1.00  0.00    +0.000 C 
ATOM    124  H40 UNL A   1      25.087  33.736  46.312  1.00  0.00    +0.000 H 
ATOM    125  H41 UNL A   1      23.151  32.385  45.764  1.00  0.00    +0.000 H 
BRANCH   22   20
ATOM     20  C15 UNL A   1      20.956  33.141  44.361  1.00  0.00    +0.000 C 
ATOM     21  O2  UNL A   1      20.967  31.928  44.205  1.00  0.00    +0.000 O 
BRANCH   20   19
ATOM     19  N2  UNL A   1      19.772  33.839  44.305  1.00  0.00    +0.000 N 
ATOM    111  H27 UNL A   1      19.861  34.819  44.263  1.00  0.00    +0.000 H 
BRANCH   19   18
ATOM     18  C14 UNL A   1      18.409  33.336  44.299  1.00  0.00    +0.000 C 
ATOM    109  H25 UNL A   1      18.393  32.387  44.793  1.00  0.00    +0.000 H 
ATOM    110  H26 UNL A   1      17.799  34.058  44.801  1.00  0.00    +0.000 H 
BRANCH   18   17
ATOM     17  C13 UNL A   1      17.845  33.160  42.893  1.00  0.00    +0.000 C 
ATOM    107  H23 UNL A   1      16.874  33.609  42.868  1.00  0.00    +0.000 H 
ATOM    108  H24 UNL A   1      18.549  33.622  42.233  1.00  0.00    +0.000 H 
BRANCH   17   16
ATOM    105  H21 UNL A   1      17.175  31.721  41.487  1.00  0.00    +0.000 H 
ATOM    106  H22 UNL A   1      18.706  31.334  42.336  1.00  0.00    +0.000 H 
ATOM     16  C12 UNL A   1      17.708  31.713  42.415  1.00  0.00    +0.000 C 
BRANCH   16   15
ATOM    103  H19 UNL A   1      16.646  31.344  44.211  1.00  0.00    +0.000 H 
ATOM     15  C11 UNL A   1      16.975  30.770  43.371  1.00  0.00    +0.000 C 
ATOM    104  H20 UNL A   1      16.178  30.338  42.801  1.00  0.00    +0.000 H 
BRANCH   15   14
ATOM    102  H18 UNL A   1      17.842  29.711  44.964  1.00  0.00    +0.000 H 
ATOM    101  H17 UNL A   1      18.755  29.610  43.426  1.00  0.00    +0.000 H 
ATOM     14  C10 UNL A   1      17.798  29.586  43.902  1.00  0.00    +0.000 C 
BRANCH   14   13
ATOM     99  H15 UNL A   1      17.952  27.467  43.761  1.00  0.00    +0.000 H 
ATOM    100  H16 UNL A   1      16.413  28.057  44.388  1.00  0.00    +0.000 H 
ATOM     13  C9  UNL A   1      17.186  28.207  43.664  1.00  0.00    +0.000 C 
BRANCH   13   12
ATOM     98  H14 UNL A   1      17.024  28.572  41.597  1.00  0.00    +0.000 H 
ATOM     12  N1  UNL A   1      16.596  28.102  42.348  1.00  0.00    +0.000 N 
BRANCH   12    2
ATOM      1  O1  UNL A   1      14.867  27.362  41.035  1.00  0.00    +0.000 O 
ATOM      2  C1  UNL A   1      15.459  27.370  42.109  1.00  0.00    +0.000 C 
BRANCH    2    3
ATOM      3  C2  UNL A   1      14.983  26.558  43.298  1.00  0.00    +0.000 C 
ATOM     85  H1  UNL A   1      13.913  26.536  43.291  1.00  0.00    +0.000 H 
ATOM     86  H2  UNL A   1      15.365  27.027  44.181  1.00  0.00    +0.000 H 
BRANCH    3    4
ATOM      4  C3  UNL A   1      15.501  25.118  43.280  1.00  0.00    +0.000 C 
ATOM     87  H3  UNL A   1      15.823  24.882  44.274  1.00  0.00    +0.000 H 
ATOM     88  H4  UNL A   1      16.270  25.116  42.536  1.00  0.00    +0.000 H 
BRANCH    4    5
ATOM     89  H5  UNL A   1      13.589  24.207  43.313  1.00  0.00    +0.000 H 
ATOM     90  H6  UNL A   1      15.014  23.103  43.117  1.00  0.00    +0.000 H 
ATOM      5  C4  UNL A   1      14.527  24.013  42.836  1.00  0.00    +0.000 C 
BRANCH    5    6
ATOM     91  H7  UNL A   1      15.194  23.703  40.856  1.00  0.00    +0.000 H 
ATOM     92  H8  UNL A   1      13.715  24.737  41.073  1.00  0.00    +0.000 H 
ATOM      6  C5  UNL A   1      14.250  23.849  41.336  1.00  0.00    +0.000 C 
BRANCH    6    7
ATOM     97  H13 UNL A   1      12.576  19.392  41.415  1.00  0.00    +0.000 H 
ATOM      7  C6  UNL A   1      13.325  22.706  40.873  1.00  0.00    +0.000 C 
ATOM      8  C7  UNL A   1      13.344  21.396  41.660  1.00  0.00    +0.000 C 
ATOM      9  C8  UNL A   1      12.500  20.348  40.940  1.00  0.00    +0.000 C 
ATOM     10  S1  UNL A   1      13.110  20.295  39.241  1.00  0.00    +0.000 S 
ATOM     11  S2  UNL A   1      13.698  22.255  39.138  1.00  0.00    +0.000 S 
ATOM     93  H9  UNL A   1      12.358  23.136  41.031  1.00  0.00    +0.000 H 
ATOM     94  H10 UNL A   1      12.946  21.563  42.638  1.00  0.00    +0.000 H 
ATOM     95  H11 UNL A   1      14.352  21.045  41.736  1.00  0.00    +0.000 H 
ATOM     96  H12 UNL A   1      11.467  20.629  40.957  1.00  0.00    +0.000 H 
ENDBRANCH    6    7
ENDBRANCH    5    6
ENDBRANCH    4    5
ENDBRANCH    3    4
ENDBRANCH    2    3
ENDBRANCH   12    2
ENDBRANCH   13   12
ENDBRANCH   14   13
ENDBRANCH   15   14
ENDBRANCH   16   15
ENDBRANCH   17   16
ENDBRANCH   18   17
ENDBRANCH   19   18
ENDBRANCH   20   19
ENDBRANCH   22   20
ENDBRANCH   26   25
BRANCH   30   31
ATOM     33  F1  UNL A   1      25.078  42.460  47.328  1.00  0.00    +0.000 F 
ATOM     34  C26 UNL A   1      24.023  42.789  49.406  1.00  0.00    +0.000 C 
ATOM     35  F2  UNL A   1      23.410  43.876  48.921  1.00  0.00    +0.000 F 
ATOM     36  C27 UNL A   1      23.806  42.398  50.719  1.00  0.00    +0.000 C 
ATOM     37  F3  UNL A   1      22.969  43.097  51.497  1.00  0.00    +0.000 F 
ATOM     38  C28 UNL A   1      24.461  41.287  51.227  1.00  0.00    +0.000 C 
ATOM     39  F4  UNL A   1      24.242  40.902  52.492  1.00  0.00    +0.000 F 
ATOM     40  C29 UNL A   1      25.345  40.570  50.425  1.00  0.00    +0.000 C 
ATOM     41  F5  UNL A   1      25.973  39.506  50.948  1.00  0.00    +0.000 F 
ATOM     31  C24 UNL A   1      25.574  40.942  49.092  1.00  0.00    +0.000 C 
ATOM     32  C25 UNL A   1      24.887  42.058  48.593  1.00  0.00    +0.000 C 
ENDBRANCH   30   31
BRANCH   47   48
ATOM     48  C35 UNL A   1      32.498  40.944  47.103  1.00  0.00    +0.000 C 
ATOM     49  C36 UNL A   1      33.474  40.463  47.988  1.00  0.00    +0.000 C 
ATOM     50  F6  UNL A   1      33.285  39.302  48.633  1.00  0.00    +0.000 F 
ATOM     51  C37 UNL A   1      34.631  41.194  48.241  1.00  0.00    +0.000 C 
ATOM     52  F7  UNL A   1      35.531  40.735  49.123  1.00  0.00    +0.000 F 
ATOM     53  C38 UNL A   1      34.850  42.400  47.593  1.00  0.00    +0.000 C 
ATOM     54  F8  UNL A   1      35.968  43.098  47.833  1.00  0.00    +0.000 F 
ATOM     55  C39 UNL A   1      33.906  42.887  46.701  1.00  0.00    +0.000 C 
ATOM     56  F9  UNL A   1      34.120  44.047  46.066  1.00  0.00    +0.000 F 
ATOM     57  C40 UNL A   1      32.734  42.172  46.466  1.00  0.00    +0.000 C 
ATOM     58  F10 UNL A   1      31.834  42.673  45.606  1.00  0.00    +0.000 F 
ENDBRANCH   47   48
BRANCH   62   63
ATOM     65  F11 UNL A   1      31.851  34.011  44.590  1.00  0.00    +0.000 F 
ATOM     66  C46 UNL A   1      32.742  33.701  42.431  1.00  0.00    +0.000 C 
ATOM     67  F12 UNL A   1      33.437  32.643  42.870  1.00  0.00    +0.000 F 
ATOM     68  C47 UNL A   1      32.847  34.100  41.107  1.00  0.00    +0.000 C 
ATOM     69  F13 UNL A   1      33.630  33.418  40.260  1.00  0.00    +0.000 F 
ATOM     70  C48 UNL A   1      32.148  35.213  40.664  1.00  0.00    +0.000 C 
ATOM     71  F14 UNL A   1      32.238  35.595  39.384  1.00  0.00    +0.000 F 
ATOM     72  C49 UNL A   1      31.353  35.938  41.550  1.00  0.00    +0.000 C 
ATOM     73  F15 UNL A   1      30.699  37.017  41.099  1.00  0.00    +0.000 F 
ATOM     63  C44 UNL A   1      31.225  35.548  42.891  1.00  0.00    +0.000 C 
ATOM     64  C45 UNL A   1      31.926  34.409  43.311  1.00  0.00    +0.000 C 
ENDBRANCH   62   63
TORSDOF 19
ENDMDL
MODEL 8
REMARK VINA RESULT:      -9.1     46.730     51.896
ROOT
ATOM     26  C20 UNL A   1      52.950  20.323  11.550  1.00  0.00    +0.000 C 
ATOM     27  C21 UNL A   1      54.278  19.656  11.325  1.00  0.00    +0.000 C 
ATOM     28  N3  UNL A   1      55.289  19.526  12.147  1.00  0.00    +0.000 N 
ATOM     29  C22 UNL A   1      56.243  18.786  11.459  1.00  0.00    +0.000 C 
ATOM     30  C23 UNL A   1      57.485  18.427  11.863  1.00  0.00    +0.000 C 
ATOM     42  C30 UNL A   1      58.063  18.785  13.132  1.00  0.00    +0.000 C 
ATOM     43  C31 UNL A   1      59.343  18.538  13.596  1.00  0.00    +0.000 C 
ATOM     44  C32 UNL A   1      59.438  19.034  14.901  1.00  0.00    +0.000 C 
ATOM     45  C33 UNL A   1      58.232  19.628  15.232  1.00  0.00    +0.000 C 
ATOM     46  N4  UNL A   1      57.397  19.466  14.138  1.00  0.00    +0.000 N 
ATOM     47  C34 UNL A   1      57.863  20.292  16.456  1.00  0.00    +0.000 C 
ATOM     59  C41 UNL A   1      56.659  20.863  16.697  1.00  0.00    +0.000 C 
ATOM     60  N5  UNL A   1      55.553  20.950  15.863  1.00  0.00    +0.000 N 
ATOM     61  C42 UNL A   1      54.634  21.583  16.550  1.00  0.00    +0.000 C 
ATOM     62  C43 UNL A   1      53.244  21.983  16.134  1.00  0.00    +0.000 C 
ATOM     74  C50 UNL A   1      52.822  21.700  14.887  1.00  0.00    +0.000 C 
ATOM     75  C51 UNL A   1      51.507  22.028  14.343  1.00  0.00    +0.000 C 
ATOM     76  C52 UNL A   1      51.418  21.552  13.091  1.00  0.00    +0.000 C 
ATOM     77  C53 UNL A   1      52.685  20.914  12.731  1.00  0.00    +0.000 C 
ATOM     78  N6  UNL A   1      53.462  21.061  13.853  1.00  0.00    +0.000 N 
ATOM     79  C54 UNL A   1      55.045  21.944  17.914  1.00  0.00    +0.000 C 
ATOM     80  C55 UNL A   1      56.301  21.517  17.938  1.00  0.00    +0.000 C 
ATOM     81  C56 UNL A   1      55.675  18.461  10.168  1.00  0.00    +0.000 C 
ATOM     82  C57 UNL A   1      54.488  19.028  10.012  1.00  0.00    +0.000 C 
ATOM    114  H30 UNL A   1      60.098  18.069  13.072  1.00  0.00    +0.000 H 
ATOM    115  H31 UNL A   1      60.267  18.968  15.513  1.00  0.00    +0.000 H 
ATOM    116  H32 UNL A   1      56.467  19.787  14.084  1.00  0.00    +0.000 H 
ATOM    117  H33 UNL A   1      50.764  22.543  14.842  1.00  0.00    +0.000 H 
ATOM    118  H34 UNL A   1      50.590  21.625  12.480  1.00  0.00    +0.000 H 
ATOM    119  H35 UNL A   1      54.391  20.739  13.912  1.00  0.00    +0.000 H 
ATOM    120  H36 UNL A   1      54.501  22.407  18.658  1.00  0.00    +0.000 H 
ATOM    121  H37 UNL A   1      56.940  21.637  18.739  1.00  0.00    +0.000 H 
ATOM    122  H38 UNL A   1      56.136  17.865   9.463  1.00  0.00    +0.000 H 
ATOM    123  H39 UNL A   1      53.872  19.030   9.183  1.00  0.00    +0.000 H 
ENDROOT
BRANCH   26   25
ATOM    112  H28 UNL A   1      49.575  18.219   9.189  1.00  0.00    +0.000 H 
ATOM    113  H29 UNL A   1      51.178  18.341  11.008  1.00  0.00    +0.000 H 
ATOM     83  C58 UNL A   1      51.712  21.360   9.646  1.00  0.00    +0.000 C 
ATOM     84  C59 UNL A   1      50.738  21.320   8.649  1.00  0.00    +0.000 C 
ATOM     22  C16 UNL A   1      50.004  20.148   8.441  1.00  0.00    +0.000 C 
ATOM     23  C17 UNL A   1      50.153  19.065   9.312  1.00  0.00    +0.000 C 
ATOM     24  C18 UNL A   1      51.085  19.131  10.351  1.00  0.00    +0.000 C 
ATOM     25  C19 UNL A   1      51.897  20.266  10.504  1.00  0.00    +0.000 C 
ATOM    124  H40 UNL A   1      52.300  22.202   9.752  1.00  0.00    +0.000 H 
ATOM    125  H41 UNL A   1      50.560  22.152   8.066  1.00  0.00    +0.000 H 
BRANCH   22   20
ATOM     20  C15 UNL A   1      49.060  20.023   7.307  1.00  0.00    +0.000 C 
ATOM     21  O2  UNL A   1      47.899  19.697   7.517  1.00  0.00    +0.000 O 
BRANCH   20   19
ATOM     19  N2  UNL A   1      49.499  20.239   6.022  1.00  0.00    +0.000 N 
ATOM    111  H27 UNL A   1      49.733  21.172   5.807  1.00  0.00    +0.000 H 
BRANCH   19   18
ATOM     18  C14 UNL A   1      49.669  19.288   4.937  1.00  0.00    +0.000 C 
ATOM    109  H25 UNL A   1      48.959  18.498   5.062  1.00  0.00    +0.000 H 
ATOM    110  H26 UNL A   1      49.520  19.819   4.020  1.00  0.00    +0.000 H 
BRANCH   18   17
ATOM     17  C13 UNL A   1      51.068  18.682   4.890  1.00  0.00    +0.000 C 
ATOM    107  H23 UNL A   1      51.110  17.892   5.612  1.00  0.00    +0.000 H 
ATOM    108  H24 UNL A   1      51.213  18.352   3.882  1.00  0.00    +0.000 H 
BRANCH   17   16
ATOM    105  H21 UNL A   1      52.867  19.658   4.335  1.00  0.00    +0.000 H 
ATOM    106  H22 UNL A   1      51.757  20.596   5.385  1.00  0.00    +0.000 H 
ATOM     16  C12 UNL A   1      52.215  19.651   5.184  1.00  0.00    +0.000 C 
BRANCH   16   15
ATOM    103  H19 UNL A   1      54.081  19.278   6.118  1.00  0.00    +0.000 H 
ATOM     15  C11 UNL A   1      53.056  19.321   6.420  1.00  0.00    +0.000 C 
ATOM    104  H20 UNL A   1      52.844  20.093   7.131  1.00  0.00    +0.000 H 
BRANCH   15   14
ATOM    102  H18 UNL A   1      51.809  17.651   6.677  1.00  0.00    +0.000 H 
ATOM    101  H17 UNL A   1      52.630  18.197   8.172  1.00  0.00    +0.000 H 
ATOM     14  C10 UNL A   1      52.716  18.000   7.125  1.00  0.00    +0.000 C 
BRANCH   14   13
ATOM     99  H15 UNL A   1      54.691  17.311   6.723  1.00  0.00    +0.000 H 
ATOM    100  H16 UNL A   1      53.770  16.305   7.841  1.00  0.00    +0.000 H 
ATOM     13  C9  UNL A   1      53.737  16.878   6.938  1.00  0.00    +0.000 C 
BRANCH   13   12
ATOM     98  H14 UNL A   1      53.839  16.073   4.995  1.00  0.00    +0.000 H 
ATOM     12  N1  UNL A   1      53.368  15.993   5.856  1.00  0.00    +0.000 N 
BRANCH   12    2
ATOM      1  O1  UNL A   1      51.855  14.754   7.053  1.00  0.00    +0.000 O 
ATOM      2  C1  UNL A   1      52.383  15.045   5.986  1.00  0.00    +0.000 C 
BRANCH    2    3
ATOM      3  C2  UNL A   1      51.994  14.372   4.684  1.00  0.00    +0.000 C 
ATOM     85  H1  UNL A   1      51.769  13.346   4.883  1.00  0.00    +0.000 H 
ATOM     86  H2  UNL A   1      52.820  14.475   4.010  1.00  0.00    +0.000 H 
BRANCH    3    4
ATOM      4  C3  UNL A   1      50.776  15.021   4.021  1.00  0.00    +0.000 C 
ATOM     87  H3  UNL A   1      50.746  14.681   3.007  1.00  0.00    +0.000 H 
ATOM     88  H4  UNL A   1      50.927  16.073   4.149  1.00  0.00    +0.000 H 
BRANCH    4    5
ATOM     89  H5  UNL A   1      49.556  14.187   5.539  1.00  0.00    +0.000 H 
ATOM     90  H6  UNL A   1      48.854  14.243   3.867  1.00  0.00    +0.000 H 
ATOM      5  C4  UNL A   1      49.395  14.747   4.641  1.00  0.00    +0.000 C 
BRANCH    5    6
ATOM     91  H7  UNL A   1      48.827  16.767   4.394  1.00  0.00    +0.000 H 
ATOM     92  H8  UNL A   1      48.647  16.059   6.059  1.00  0.00    +0.000 H 
ATOM      6  C5  UNL A   1      48.510  15.947   5.004  1.00  0.00    +0.000 C 
BRANCH    6    7
ATOM     97  H13 UNL A   1      43.984  16.630   6.314  1.00  0.00    +0.000 H 
ATOM      7  C6  UNL A   1      46.984  15.821   4.836  1.00  0.00    +0.000 C 
ATOM      8  C7  UNL A   1      46.083  16.584   5.806  1.00  0.00    +0.000 C 
ATOM      9  C8  UNL A   1      44.627  16.187   5.582  1.00  0.00    +0.000 C 
ATOM     10  S1  UNL A   1      44.581  14.383   5.666  1.00  0.00    +0.000 S 
ATOM     11  S2  UNL A   1      46.478  14.065   4.957  1.00  0.00    +0.000 S 
ATOM     93  H9  UNL A   1      46.836  16.268   3.875  1.00  0.00    +0.000 H 
ATOM     94  H10 UNL A   1      46.195  17.635   5.642  1.00  0.00    +0.000 H 
ATOM     95  H11 UNL A   1      46.363  16.344   6.811  1.00  0.00    +0.000 H 
ATOM     96  H12 UNL A   1      44.294  16.524   4.622  1.00  0.00    +0.000 H 
ENDBRANCH    6    7
ENDBRANCH    5    6
ENDBRANCH    4    5
ENDBRANCH    3    4
ENDBRANCH    2    3
ENDBRANCH   12    2
ENDBRANCH   13   12
ENDBRANCH   14   13
ENDBRANCH   15   14
ENDBRANCH   16   15
ENDBRANCH   17   16
ENDBRANCH   18   17
ENDBRANCH   19   18
ENDBRANCH   20   19
ENDBRANCH   22   20
ENDBRANCH   26   25
BRANCH   30   31
ATOM     33  F1  UNL A   1      59.199  19.537   9.848  1.00  0.00    +0.000 F 
ATOM     34  C26 UNL A   1      59.934  17.425   9.115  1.00  0.00    +0.000 C 
ATOM     35  F2  UNL A   1      60.700  18.016   8.188  1.00  0.00    +0.000 F 
ATOM     36  C27 UNL A   1      59.910  16.043   9.215  1.00  0.00    +0.000 C 
ATOM     37  F3  UNL A   1      60.666  15.297   8.398  1.00  0.00    +0.000 F 
ATOM     38  C28 UNL A   1      59.097  15.432  10.159  1.00  0.00    +0.000 C 
ATOM     39  F4  UNL A   1      59.083  14.096  10.264  1.00  0.00    +0.000 F 
ATOM     40  C29 UNL A   1      58.297  16.204  10.996  1.00  0.00    +0.000 C 
ATOM     41  F5  UNL A   1      57.513  15.585  11.891  1.00  0.00    +0.000 F 
ATOM     31  C24 UNL A   1      58.312  17.606  10.918  1.00  0.00    +0.000 C 
ATOM     32  C25 UNL A   1      59.155  18.202   9.969  1.00  0.00    +0.000 C 
ENDBRANCH   30   31
BRANCH   47   48
ATOM     48  C35 UNL A   1      58.896  20.378  17.542  1.00  0.00    +0.000 C 
ATOM     49  C36 UNL A   1      59.617  21.557  17.779  1.00  0.00    +0.000 C 
ATOM     50  F6  UNL A   1      59.431  22.630  16.995  1.00  0.00    +0.000 F 
ATOM     51  C37 UNL A   1      60.559  21.624  18.801  1.00  0.00    +0.000 C 
ATOM     52  F7  UNL A   1      61.268  22.748  18.983  1.00  0.00    +0.000 F 
ATOM     53  C38 UNL A   1      60.775  20.529  19.624  1.00  0.00    +0.000 C 
ATOM     54  F8  UNL A   1      61.678  20.598  20.611  1.00  0.00    +0.000 F 
ATOM     55  C39 UNL A   1      60.061  19.358  19.417  1.00  0.00    +0.000 C 
ATOM     56  F9  UNL A   1      60.261  18.301  20.216  1.00  0.00    +0.000 F 
ATOM     57  C40 UNL A   1      59.138  19.278  18.378  1.00  0.00    +0.000 C 
ATOM     58  F10 UNL A   1      58.470  18.128  18.196  1.00  0.00    +0.000 F 
ENDBRANCH   47   48
BRANCH   62   63
ATOM     65  F11 UNL A   1      53.027  24.806  16.203  1.00  0.00    +0.000 F 
ATOM     66  C46 UNL A   1      51.463  24.789  17.965  1.00  0.00    +0.000 C 
ATOM     67  F12 UNL A   1      51.446  26.129  17.962  1.00  0.00    +0.000 F 
ATOM     68  C47 UNL A   1      50.687  24.087  18.874  1.00  0.00    +0.000 C 
ATOM     69  F13 UNL A   1      49.904  24.746  19.739  1.00  0.00    +0.000 F 
ATOM     70  C48 UNL A   1      50.729  22.701  18.892  1.00  0.00    +0.000 C 
ATOM     71  F14 UNL A   1      49.972  22.019  19.761  1.00  0.00    +0.000 F 
ATOM     72  C49 UNL A   1      51.562  22.015  18.009  1.00  0.00    +0.000 C 
ATOM     73  F15 UNL A   1      51.594  20.676  18.057  1.00  0.00    +0.000 F 
ATOM     63  C44 UNL A   1      52.350  22.704  17.075  1.00  0.00    +0.000 C 
ATOM     64  C45 UNL A   1      52.275  24.104  17.063  1.00  0.00    +0.000 C 
ENDBRANCH   62   63
TORSDOF 19
ENDMDL
MODEL 9
REMARK VINA RESULT:      -9.1     24.910     29.636
ROOT
ATOM     26  C20 UNL A   1      41.274  26.642  27.723  1.00  0.00    +0.000 C 
ATOM     27  C21 UNL A   1      42.713  26.895  27.376  1.00  0.00    +0.000 C 
ATOM     28  N3  UNL A   1      43.460  27.935  27.650  1.00  0.00    +0.000 N 
ATOM     29  C22 UNL A   1      44.721  27.638  27.148  1.00  0.00    +0.000 C 
ATOM     30  C23 UNL A   1      45.831  28.416  27.140  1.00  0.00    +0.000 C 
ATOM     42  C30 UNL A   1      45.890  29.756  27.661  1.00  0.00    +0.000 C 
ATOM     43  C31 UNL A   1      46.944  30.651  27.622  1.00  0.00    +0.000 C 
ATOM     44  C32 UNL A   1      46.554  31.816  28.291  1.00  0.00    +0.000 C 
ATOM     45  C33 UNL A   1      45.242  31.663  28.707  1.00  0.00    +0.000 C 
ATOM     46  N4  UNL A   1      44.847  30.394  28.315  1.00  0.00    +0.000 N 
ATOM     47  C34 UNL A   1      44.408  32.602  29.412  1.00  0.00    +0.000 C 
ATOM     59  C41 UNL A   1      43.121  32.380  29.772  1.00  0.00    +0.000 C 
ATOM     60  N5  UNL A   1      42.336  31.257  29.550  1.00  0.00    +0.000 N 
ATOM     61  C42 UNL A   1      41.172  31.519  30.093  1.00  0.00    +0.000 C 
ATOM     62  C43 UNL A   1      39.929  30.673  30.131  1.00  0.00    +0.000 C 
ATOM     74  C50 UNL A   1      39.931  29.471  29.523  1.00  0.00    +0.000 C 
ATOM     75  C51 UNL A   1      38.802  28.545  29.474  1.00  0.00    +0.000 C 
ATOM     76  C52 UNL A   1      39.179  27.428  28.831  1.00  0.00    +0.000 C 
ATOM     77  C53 UNL A   1      40.568  27.573  28.393  1.00  0.00    +0.000 C 
ATOM     78  N6  UNL A   1      40.928  28.821  28.837  1.00  0.00    +0.000 N 
ATOM     79  C54 UNL A   1      41.099  32.832  30.751  1.00  0.00    +0.000 C 
ATOM     80  C55 UNL A   1      42.299  33.331  30.491  1.00  0.00    +0.000 C 
ATOM     81  C56 UNL A   1      44.650  26.306  26.590  1.00  0.00    +0.000 C 
ATOM     82  C57 UNL A   1      43.416  25.827  26.649  1.00  0.00    +0.000 C 
ATOM    114  H30 UNL A   1      47.861  30.487  27.178  1.00  0.00    +0.000 H 
ATOM    115  H31 UNL A   1      47.144  32.649  28.448  1.00  0.00    +0.000 H 
ATOM    116  H32 UNL A   1      43.958  30.004  28.478  1.00  0.00    +0.000 H 
ATOM    117  H33 UNL A   1      37.866  28.721  29.870  1.00  0.00    +0.000 H 
ATOM    118  H34 UNL A   1      38.584  26.600  28.671  1.00  0.00    +0.000 H 
ATOM    119  H35 UNL A   1      41.816  29.215  28.679  1.00  0.00    +0.000 H 
ATOM    120  H36 UNL A   1      40.319  33.255  31.277  1.00  0.00    +0.000 H 
ATOM    121  H37 UNL A   1      42.608  34.276  30.766  1.00  0.00    +0.000 H 
ATOM    122  H38 UNL A   1      45.457  25.795  26.197  1.00  0.00    +0.000 H 
ATOM    123  H39 UNL A   1      43.045  24.938  26.280  1.00  0.00    +0.000 H 
ENDROOT
BRANCH   26   25
ATOM    112  H28 UNL A   1      41.018  22.025  27.863  1.00  0.00    +0.000 H 
ATOM    113  H29 UNL A   1      41.976  24.152  28.540  1.00  0.00    +0.000 H 
ATOM     83  C58 UNL A   1      39.508  25.298  26.576  1.00  0.00    +0.000 C 
ATOM     84  C59 UNL A   1      38.912  24.081  26.250  1.00  0.00    +0.000 C 
ATOM     22  C16 UNL A   1      39.503  22.884  26.666  1.00  0.00    +0.000 C 
ATOM     23  C17 UNL A   1      40.612  22.908  27.515  1.00  0.00    +0.000 C 
ATOM     24  C18 UNL A   1      41.171  24.132  27.894  1.00  0.00    +0.000 C 
ATOM     25  C19 UNL A   1      40.644  25.335  27.399  1.00  0.00    +0.000 C 
ATOM    124  H40 UNL A   1      39.109  26.177  26.211  1.00  0.00    +0.000 H 
ATOM    125  H41 UNL A   1      38.038  24.063  25.702  1.00  0.00    +0.000 H 
BRANCH   22   20
ATOM     20  C15 UNL A   1      38.975  21.572  26.225  1.00  0.00    +0.000 C 
ATOM     21  O2  UNL A   1      39.700  20.586  26.249  1.00  0.00    +0.000 O 
BRANCH   20   19
ATOM     19  N2  UNL A   1      37.685  21.474  25.757  1.00  0.00    +0.000 N 
ATOM    111  H27 UNL A   1      36.980  21.598  26.435  1.00  0.00    +0.000 H 
BRANCH   19   18
ATOM     18  C14 UNL A   1      37.215  21.217  24.407  1.00  0.00    +0.000 C 
ATOM    109  H25 UNL A   1      38.035  20.852  23.824  1.00  0.00    +0.000 H 
ATOM    110  H26 UNL A   1      36.423  20.500  24.475  1.00  0.00    +0.000 H 
BRANCH   18   17
ATOM     17  C13 UNL A   1      36.648  22.458  23.726  1.00  0.00    +0.000 C 
ATOM    107  H23 UNL A   1      37.469  23.090  23.457  1.00  0.00    +0.000 H 
ATOM    108  H24 UNL A   1      36.085  22.104  22.888  1.00  0.00    +0.000 H 
BRANCH   17   16
ATOM    105  H21 UNL A   1      35.110  22.608  25.178  1.00  0.00    +0.000 H 
ATOM    106  H22 UNL A   1      36.277  23.968  25.129  1.00  0.00    +0.000 H 
ATOM     16  C12 UNL A   1      35.674  23.284  24.569  1.00  0.00    +0.000 C 
BRANCH   16   15
ATOM    103  H19 UNL A   1      33.893  24.426  24.441  1.00  0.00    +0.000 H 
ATOM     15  C11 UNL A   1      34.685  24.144  23.780  1.00  0.00    +0.000 C 
ATOM    104  H20 UNL A   1      35.253  24.971  23.405  1.00  0.00    +0.000 H 
BRANCH   15   14
ATOM    102  H18 UNL A   1      34.759  22.739  22.220  1.00  0.00    +0.000 H 
ATOM    101  H17 UNL A   1      33.864  24.239  21.822  1.00  0.00    +0.000 H 
ATOM     14  C10 UNL A   1      34.056  23.477  22.548  1.00  0.00    +0.000 C 
BRANCH   14   13
ATOM     99  H15 UNL A   1      32.402  22.312  21.884  1.00  0.00    +0.000 H 
ATOM    100  H16 UNL A   1      32.941  21.964  23.527  1.00  0.00    +0.000 H 
ATOM     13  C9  UNL A   1      32.749  22.730  22.805  1.00  0.00    +0.000 C 
BRANCH   13   12
ATOM     98  H14 UNL A   1      31.310  24.265  22.740  1.00  0.00    +0.000 H 
ATOM     12  N1  UNL A   1      31.728  23.605  23.337  1.00  0.00    +0.000 N 
BRANCH   12    2
ATOM      1  O1  UNL A   1      30.903  24.514  25.275  1.00  0.00    +0.000 O 
ATOM      2  C1  UNL A   1      31.322  23.547  24.648  1.00  0.00    +0.000 C 
BRANCH    2    3
ATOM      3  C2  UNL A   1      31.434  22.169  25.272  1.00  0.00    +0.000 C 
ATOM     85  H1  UNL A   1      31.607  21.455  24.495  1.00  0.00    +0.000 H 
ATOM     86  H2  UNL A   1      30.518  21.976  25.792  1.00  0.00    +0.000 H 
BRANCH    3    4
ATOM      4  C3  UNL A   1      32.571  22.069  26.291  1.00  0.00    +0.000 C 
ATOM     87  H3  UNL A   1      32.136  22.155  27.265  1.00  0.00    +0.000 H 
ATOM     88  H4  UNL A   1      33.248  22.852  26.019  1.00  0.00    +0.000 H 
BRANCH    4    5
ATOM     89  H5  UNL A   1      32.921  20.063  26.877  1.00  0.00    +0.000 H 
ATOM     90  H6  UNL A   1      34.383  21.111  26.646  1.00  0.00    +0.000 H 
ATOM      5  C4  UNL A   1      33.430  20.792  26.281  1.00  0.00    +0.000 C 
BRANCH    5    6
ATOM     91  H7  UNL A   1      34.791  20.246  24.760  1.00  0.00    +0.000 H 
ATOM     92  H8  UNL A   1      33.094  20.641  24.241  1.00  0.00    +0.000 H 
ATOM      6  C5  UNL A   1      33.741  20.137  24.928  1.00  0.00    +0.000 C 
BRANCH    6    7
ATOM     97  H13 UNL A   1      32.193  15.867  26.360  1.00  0.00    +0.000 H 
ATOM      7  C6  UNL A   1      33.403  18.646  24.732  1.00  0.00    +0.000 C 
ATOM      8  C7  UNL A   1      32.682  17.912  25.861  1.00  0.00    +0.000 C 
ATOM      9  C8  UNL A   1      32.603  16.421  25.541  1.00  0.00    +0.000 C 
ATOM     10  S1  UNL A   1      34.292  15.899  25.168  1.00  0.00    +0.000 S 
ATOM     11  S2  UNL A   1      34.931  17.691  24.406  1.00  0.00    +0.000 S 
ATOM     93  H9  UNL A   1      32.714  18.688  23.914  1.00  0.00    +0.000 H 
ATOM     94  H10 UNL A   1      31.694  18.306  25.966  1.00  0.00    +0.000 H 
ATOM     95  H11 UNL A   1      33.225  18.048  26.773  1.00  0.00    +0.000 H 
ATOM     96  H12 UNL A   1      31.967  16.257  24.697  1.00  0.00    +0.000 H 
ENDBRANCH    6    7
ENDBRANCH    5    6
ENDBRANCH    4    5
ENDBRANCH    3    4
ENDBRANCH    2    3
ENDBRANCH   12    2
ENDBRANCH   13   12
ENDBRANCH   14   13
ENDBRANCH   15   14
ENDBRANCH   16   15
ENDBRANCH   17   16
ENDBRANCH   18   17
ENDBRANCH   19   18
ENDBRANCH   20   19
ENDBRANCH   22   20
ENDBRANCH   26   25
BRANCH   30   31
ATOM     33  F1  UNL A   1      47.825  27.003  28.642  1.00  0.00    +0.000 F 
ATOM     34  C26 UNL A   1      49.151  26.578  26.744  1.00  0.00    +0.000 C 
ATOM     35  F2  UNL A   1      50.046  25.944  27.513  1.00  0.00    +0.000 F 
ATOM     36  C27 UNL A   1      49.368  26.693  25.379  1.00  0.00    +0.000 C 
ATOM     37  F3  UNL A   1      50.463  26.155  24.826  1.00  0.00    +0.000 F 
ATOM     38  C28 UNL A   1      48.453  27.372  24.589  1.00  0.00    +0.000 C 
ATOM     39  F4  UNL A   1      48.657  27.473  23.267  1.00  0.00    +0.000 F 
ATOM     40  C29 UNL A   1      47.324  27.948  25.164  1.00  0.00    +0.000 C 
ATOM     41  F5  UNL A   1      46.463  28.608  24.375  1.00  0.00    +0.000 F 
ATOM     31  C24 UNL A   1      47.080  27.836  26.542  1.00  0.00    +0.000 C 
ATOM     32  C25 UNL A   1      48.009  27.130  27.319  1.00  0.00    +0.000 C 
ENDBRANCH   30   31
BRANCH   47   48
ATOM     48  C35 UNL A   1      44.998  33.937  29.758  1.00  0.00    +0.000 C 
ATOM     49  C36 UNL A   1      45.683  34.148  30.964  1.00  0.00    +0.000 C 
ATOM     50  F6  UNL A   1      45.780  33.160  31.866  1.00  0.00    +0.000 F 
ATOM     51  C37 UNL A   1      46.240  35.389  31.262  1.00  0.00    +0.000 C 
ATOM     52  F7  UNL A   1      46.853  35.580  32.438  1.00  0.00    +0.000 F 
ATOM     53  C38 UNL A   1      46.150  36.430  30.350  1.00  0.00    +0.000 C 
ATOM     54  F8  UNL A   1      46.692  37.621  30.637  1.00  0.00    +0.000 F 
ATOM     55  C39 UNL A   1      45.491  36.239  29.145  1.00  0.00    +0.000 C 
ATOM     56  F9  UNL A   1      45.412  37.241  28.259  1.00  0.00    +0.000 F 
ATOM     57  C40 UNL A   1      44.910  35.007  28.856  1.00  0.00    +0.000 C 
ATOM     58  F10 UNL A   1      44.269  34.856  27.686  1.00  0.00    +0.000 F 
ENDBRANCH   47   48
BRANCH   62   63
ATOM     65  F11 UNL A   1      37.843  32.015  28.764  1.00  0.00    +0.000 F 
ATOM     66  C46 UNL A   1      36.553  32.304  30.714  1.00  0.00    +0.000 C 
ATOM     67  F12 UNL A   1      35.629  32.966  30.004  1.00  0.00    +0.000 F 
ATOM     68  C47 UNL A   1      36.382  32.123  32.078  1.00  0.00    +0.000 C 
ATOM     69  F13 UNL A   1      35.284  32.592  32.686  1.00  0.00    +0.000 F 
ATOM     70  C48 UNL A   1      37.355  31.462  32.813  1.00  0.00    +0.000 C 
ATOM     71  F14 UNL A   1      37.188  31.274  34.129  1.00  0.00    +0.000 F 
ATOM     72  C49 UNL A   1      38.509  30.995  32.186  1.00  0.00    +0.000 C 
ATOM     73  F15 UNL A   1      39.440  30.373  32.924  1.00  0.00    +0.000 F 
ATOM     63  C44 UNL A   1      38.700  31.161  30.807  1.00  0.00    +0.000 C 
ATOM     64  C45 UNL A   1      37.695  31.815  30.082  1.00  0.00    +0.000 C 
ENDBRANCH   62   63
TORSDOF 19
ENDMDL
MODEL 10
REMARK VINA RESULT:      -9.1      4.378     10.087
ROOT
ATOM     26  C20 UNL A   1      25.693  36.156  45.527  1.00  0.00    +0.000 C 
ATOM     27  C21 UNL A   1      25.572  37.327  46.460  1.00  0.00    +0.000 C 
ATOM     28  N3  UNL A   1      26.470  38.223  46.786  1.00  0.00    +0.000 N 
ATOM     29  C22 UNL A   1      25.827  39.111  47.639  1.00  0.00    +0.000 C 
ATOM     30  C23 UNL A   1      26.342  40.185  48.284  1.00  0.00    +0.000 C 
ATOM     42  C30 UNL A   1      27.719  40.599  48.205  1.00  0.00    +0.000 C 
ATOM     43  C31 UNL A   1      28.352  41.622  48.887  1.00  0.00    +0.000 C 
ATOM     44  C32 UNL A   1      29.682  41.678  48.455  1.00  0.00    +0.000 C 
ATOM     45  C33 UNL A   1      29.887  40.661  47.538  1.00  0.00    +0.000 C 
ATOM     46  N4  UNL A   1      28.674  40.007  47.393  1.00  0.00    +0.000 N 
ATOM     47  C34 UNL A   1      31.098  40.310  46.843  1.00  0.00    +0.000 C 
ATOM     59  C41 UNL A   1      31.221  39.284  45.966  1.00  0.00    +0.000 C 
ATOM     60  N5  UNL A   1      30.262  38.368  45.558  1.00  0.00    +0.000 N 
ATOM     61  C42 UNL A   1      30.860  37.581  44.696  1.00  0.00    +0.000 C 
ATOM     62  C43 UNL A   1      30.311  36.393  43.955  1.00  0.00    +0.000 C 
ATOM     74  C50 UNL A   1      29.038  36.011  44.171  1.00  0.00    +0.000 C 
ATOM     75  C51 UNL A   1      28.373  34.880  43.530  1.00  0.00    +0.000 C 
ATOM     76  C52 UNL A   1      27.097  34.829  43.946  1.00  0.00    +0.000 C 
ATOM     77  C53 UNL A   1      26.863  35.904  44.910  1.00  0.00    +0.000 C 
ATOM     78  N6  UNL A   1      28.074  36.546  44.991  1.00  0.00    +0.000 N 
ATOM     79  C54 UNL A   1      32.263  37.932  44.438  1.00  0.00    +0.000 C 
ATOM     80  C55 UNL A   1      32.444  38.952  45.266  1.00  0.00    +0.000 C 
ATOM     81  C56 UNL A   1      24.453  38.671  47.749  1.00  0.00    +0.000 C 
ATOM     82  C57 UNL A   1      24.260  37.537  47.090  1.00  0.00    +0.000 C 
ATOM    114  H30 UNL A   1      27.918  42.240  49.591  1.00  0.00    +0.000 H 
ATOM    115  H31 UNL A   1      30.390  42.361  48.768  1.00  0.00    +0.000 H 
ATOM    116  H32 UNL A   1      28.515  39.238  46.799  1.00  0.00    +0.000 H 
ATOM    117  H33 UNL A   1      28.812  34.226  42.864  1.00  0.00    +0.000 H 
ATOM    118  H34 UNL A   1      26.394  34.140  43.636  1.00  0.00    +0.000 H 
ATOM    119  H35 UNL A   1      28.238  37.318  45.581  1.00  0.00    +0.000 H 
ATOM    120  H36 UNL A   1      32.934  37.499  43.783  1.00  0.00    +0.000 H 
ATOM    121  H37 UNL A   1      33.341  39.444  45.395  1.00  0.00    +0.000 H 
ATOM    122  H38 UNL A   1      23.720  39.175  48.273  1.00  0.00    +0.000 H 
ATOM    123  H39 UNL A   1      23.410  36.954  47.035  1.00  0.00    +0.000 H 
ENDROOT
BRANCH   26   25
ATOM    112  H28 UNL A   1      21.660  35.304  43.428  1.00  0.00    +0.000 H 
ATOM    113  H29 UNL A   1      23.665  36.626  43.787  1.00  0.00    +0.000 H 
ATOM     83  C58 UNL A   1      24.346  34.079  45.864  1.00  0.00    +0.000 C 
ATOM     84  C59 UNL A   1      23.231  33.285  45.600  1.00  0.00    +0.000 C 
ATOM     22  C16 UNL A   1      22.220  33.763  44.761  1.00  0.00    +0.000 C 
ATOM     23  C17 UNL A   1      22.384  34.975  44.086  1.00  0.00    +0.000 C 
ATOM     24  C18 UNL A   1      23.532  35.741  44.303  1.00  0.00    +0.000 C 
ATOM     25  C19 UNL A   1      24.506  35.316  45.221  1.00  0.00    +0.000 C 
ATOM    124  H40 UNL A   1      25.058  33.755  46.537  1.00  0.00    +0.000 H 
ATOM    125  H41 UNL A   1      23.153  32.347  46.023  1.00  0.00    +0.000 H 
BRANCH   22   20
ATOM     20  C15 UNL A   1      20.962  33.006  44.565  1.00  0.00    +0.000 C 
ATOM     21  O2  UNL A   1      20.938  32.055  43.795  1.00  0.00    +0.000 O 
BRANCH   20   19
ATOM     19  N2  UNL A   1      19.818  33.397  45.222  1.00  0.00    +0.000 N 
ATOM    111  H27 UNL A   1      19.693  33.007  46.118  1.00  0.00    +0.000 H 
BRANCH   19   18
ATOM     18  C14 UNL A   1      18.771  34.302  44.783  1.00  0.00    +0.000 C 
ATOM    109  H25 UNL A   1      18.478  34.913  45.612  1.00  0.00    +0.000 H 
ATOM    110  H26 UNL A   1      19.168  34.885  43.978  1.00  0.00    +0.000 H 
BRANCH   18   17
ATOM     17  C13 UNL A   1      17.538  33.576  44.255  1.00  0.00    +0.000 C 
ATOM    107  H23 UNL A   1      17.434  32.661  44.801  1.00  0.00    +0.000 H 
ATOM    108  H24 UNL A   1      16.718  34.251  44.387  1.00  0.00    +0.000 H 
BRANCH   17   16
ATOM    105  H21 UNL A   1      16.651  33.583  42.329  1.00  0.00    +0.000 H 
ATOM    106  H22 UNL A   1      18.439  33.708  42.369  1.00  0.00    +0.000 H 
ATOM     16  C12 UNL A   1      17.565  33.234  42.764  1.00  0.00    +0.000 C 
BRANCH   16   15
ATOM    103  H19 UNL A   1      16.959  31.499  41.709  1.00  0.00    +0.000 H 
ATOM     15  C11 UNL A   1      17.707  31.747  42.431  1.00  0.00    +0.000 C 
ATOM    104  H20 UNL A   1      18.710  31.621  42.079  1.00  0.00    +0.000 H 
BRANCH   15   14
ATOM    102  H18 UNL A   1      17.707  31.369  44.497  1.00  0.00    +0.000 H 
ATOM    101  H17 UNL A   1      18.274  29.997  43.495  1.00  0.00    +0.000 H 
ATOM     14  C10 UNL A   1      17.557  30.781  43.616  1.00  0.00    +0.000 C 
BRANCH   14   13
ATOM     99  H15 UNL A   1      15.674  30.595  44.593  1.00  0.00    +0.000 H 
ATOM    100  H16 UNL A   1      15.639  30.294  42.855  1.00  0.00    +0.000 H 
ATOM     13  C9  UNL A   1      16.179  30.140  43.766  1.00  0.00    +0.000 C 
BRANCH   13   12
ATOM     98  H14 UNL A   1      16.780  28.395  44.778  1.00  0.00    +0.000 H 
ATOM     12  N1  UNL A   1      16.272  28.717  43.999  1.00  0.00    +0.000 N 
BRANCH   12    2
ATOM      1  O1  UNL A   1      15.357  26.667  43.526  1.00  0.00    +0.000 O 
ATOM      2  C1  UNL A   1      15.677  27.796  43.170  1.00  0.00    +0.000 C 
BRANCH    2    3
ATOM      3  C2  UNL A   1      15.444  28.294  41.757  1.00  0.00    +0.000 C 
ATOM     85  H1  UNL A   1      16.017  29.185  41.610  1.00  0.00    +0.000 H 
ATOM     86  H2  UNL A   1      14.394  28.474  41.649  1.00  0.00    +0.000 H 
BRANCH    3    4
ATOM      4  C3  UNL A   1      15.848  27.271  40.693  1.00  0.00    +0.000 C 
ATOM     87  H3  UNL A   1      16.395  26.495  41.187  1.00  0.00    +0.000 H 
ATOM     88  H4  UNL A   1      16.400  27.835  39.971  1.00  0.00    +0.000 H 
BRANCH    4    5
ATOM     89  H5  UNL A   1      14.733  27.034  38.907  1.00  0.00    +0.000 H 
ATOM     90  H6  UNL A   1      13.842  26.771  40.465  1.00  0.00    +0.000 H 
ATOM      5  C4  UNL A   1      14.724  26.599  39.885  1.00  0.00    +0.000 C 
BRANCH    5    6
ATOM     91  H7  UNL A   1      15.798  24.786  39.728  1.00  0.00    +0.000 H 
ATOM     92  H8  UNL A   1      14.247  24.907  38.787  1.00  0.00    +0.000 H 
ATOM      6  C5  UNL A   1      14.769  25.075  39.706  1.00  0.00    +0.000 C 
BRANCH    6    7
ATOM     97  H13 UNL A   1      14.488  22.282  43.552  1.00  0.00    +0.000 H 
ATOM      7  C6  UNL A   1      14.028  24.187  40.724  1.00  0.00    +0.000 C 
ATOM      8  C7  UNL A   1      14.791  23.710  41.959  1.00  0.00    +0.000 C 
ATOM      9  C8  UNL A   1      13.941  22.710  42.738  1.00  0.00    +0.000 C 
ATOM     10  S1  UNL A   1      13.434  21.449  41.547  1.00  0.00    +0.000 S 
ATOM     11  S2  UNL A   1      13.402  22.675  39.904  1.00  0.00    +0.000 S 
ATOM     93  H9  UNL A   1      13.271  24.855  41.080  1.00  0.00    +0.000 H 
ATOM     94  H10 UNL A   1      15.016  24.548  42.583  1.00  0.00    +0.000 H 
ATOM     95  H11 UNL A   1      15.699  23.235  41.650  1.00  0.00    +0.000 H 
ATOM     96  H12 UNL A   1      13.083  23.196  43.153  1.00  0.00    +0.000 H 
ENDBRANCH    6    7
ENDBRANCH    5    6
ENDBRANCH    4    5
ENDBRANCH    3    4
ENDBRANCH    2    3
ENDBRANCH   12    2
ENDBRANCH   13   12
ENDBRANCH   14   13
ENDBRANCH   15   14
ENDBRANCH   16   15
ENDBRANCH   17   16
ENDBRANCH   18   17
ENDBRANCH   19   18
ENDBRANCH   20   19
ENDBRANCH   22   20
ENDBRANCH   26   25
BRANCH   30   31
ATOM     33  F1  UNL A   1      24.862  42.458  47.352  1.00  0.00    +0.000 F 
ATOM     34  C26 UNL A   1      23.814  42.801  49.431  1.00  0.00    +0.000 C 
ATOM     35  F2  UNL A   1      23.167  43.861  48.928  1.00  0.00    +0.000 F 
ATOM     36  C27 UNL A   1      23.616  42.432  50.753  1.00  0.00    +0.000 C 
ATOM     37  F3  UNL A   1      22.766  43.124  51.523  1.00  0.00    +0.000 F 
ATOM     38  C28 UNL A   1      24.305  41.350  51.279  1.00  0.00    +0.000 C 
ATOM     39  F4  UNL A   1      24.106  40.986  52.554  1.00  0.00    +0.000 F 
ATOM     40  C29 UNL A   1      25.203  40.641  50.486  1.00  0.00    +0.000 C 
ATOM     41  F5  UNL A   1      25.864  39.606  51.026  1.00  0.00    +0.000 F 
ATOM     31  C24 UNL A   1      25.412  40.991  49.143  1.00  0.00    +0.000 C 
ATOM     32  C25 UNL A   1      24.691  42.078  48.627  1.00  0.00    +0.000 C 
ENDBRANCH   30   31
BRANCH   47   48
ATOM     48  C35 UNL A   1      32.326  41.127  47.122  1.00  0.00    +0.000 C 
ATOM     49  C36 UNL A   1      32.511  42.394  46.551  1.00  0.00    +0.000 C 
ATOM     50  F6  UNL A   1      31.606  42.885  45.692  1.00  0.00    +0.000 F 
ATOM     51  C37 UNL A   1      33.648  43.146  46.835  1.00  0.00    +0.000 C 
ATOM     52  F7  UNL A   1      33.825  44.337  46.245  1.00  0.00    +0.000 F 
ATOM     53  C38 UNL A   1      34.603  42.660  47.716  1.00  0.00    +0.000 C 
ATOM     54  F8  UNL A   1      35.693  43.388  47.991  1.00  0.00    +0.000 F 
ATOM     55  C39 UNL A   1      34.432  41.416  48.304  1.00  0.00    +0.000 C 
ATOM     56  F9  UNL A   1      35.348  40.949  49.162  1.00  0.00    +0.000 F 
ATOM     57  C40 UNL A   1      33.309  40.650  48.001  1.00  0.00    +0.000 C 
ATOM     58  F10 UNL A   1      33.177  39.445  48.578  1.00  0.00    +0.000 F 
ENDBRANCH   47   48
BRANCH   62   63
ATOM     65  F11 UNL A   1      30.708  37.162  41.258  1.00  0.00    +0.000 F 
ATOM     66  C46 UNL A   1      32.108  35.327  40.787  1.00  0.00    +0.000 C 
ATOM     67  F12 UNL A   1      32.214  35.735  39.515  1.00  0.00    +0.000 F 
ATOM     68  C47 UNL A   1      32.753  34.173  41.203  1.00  0.00    +0.000 C 
ATOM     69  F13 UNL A   1      33.500  33.472  40.337  1.00  0.00    +0.000 F 
ATOM     70  C48 UNL A   1      32.618  33.739  42.513  1.00  0.00    +0.000 C 
ATOM     71  F14 UNL A   1      33.250  32.631  42.921  1.00  0.00    +0.000 F 
ATOM     72  C49 UNL A   1      31.822  34.454  43.407  1.00  0.00    +0.000 C 
ATOM     73  F15 UNL A   1      31.697  34.005  44.664  1.00  0.00    +0.000 F 
ATOM     63  C44 UNL A   1      31.166  35.628  43.011  1.00  0.00    +0.000 C 
ATOM     64  C45 UNL A   1      31.334  36.057  41.687  1.00  0.00    +0.000 C 
ENDBRANCH   62   63
TORSDOF 19
ENDMDL
