MODEL 1
REMARK VINA RESULT:     -12.4      0.000      0.000
ROOT
ATOM    130  H32 UNL A   1      45.908  26.214  27.934  1.00  0.00    +0.000 H 
ATOM    131  H33 UNL A   1      46.833  26.807  30.333  1.00  0.00    +0.000 H 
ATOM    132  H34 UNL A   1      43.652  24.220  30.759  1.00  0.00    +0.000 H 
ATOM    133  H35 UNL A   1      44.854  29.611  30.557  1.00  0.00    +0.000 H 
ATOM    134  H36 UNL A   1      43.531  28.294  28.815  1.00  0.00    +0.000 H 
ATOM    135  H37 UNL A   1      40.902  30.696  30.945  1.00  0.00    +0.000 H 
ATOM    136  H38 UNL A   1      43.535  28.572  35.535  1.00  0.00    +0.000 H 
ATOM    137  H39 UNL A   1      44.686  26.278  35.315  1.00  0.00    +0.000 H 
ATOM    138  H40 UNL A   1      40.452  24.045  27.556  1.00  0.00    +0.000 H 
ATOM    139  H41 UNL A   1      39.071  26.147  28.097  1.00  0.00    +0.000 H 
ATOM     36  C29 UNL A   1      40.707  28.133  29.532  1.00  0.00    +0.000 C 
ATOM     37  C30 UNL A   1      41.039  26.800  28.996  1.00  0.00    +0.000 C 
ATOM     38  N6  UNL A   1      42.178  26.217  29.169  1.00  0.00    +0.000 N 
ATOM     39  C31 UNL A   1      42.189  25.077  28.405  1.00  0.00    +0.000 C 
ATOM     40  C32 UNL A   1      43.389  24.501  28.112  1.00  0.00    +0.000 C 
ATOM     52  C39 UNL A   1      44.449  25.020  28.985  1.00  0.00    +0.000 C 
ATOM     53  C40 UNL A   1      45.531  25.871  28.831  1.00  0.00    +0.000 C 
ATOM     54  C41 UNL A   1      46.033  26.189  30.130  1.00  0.00    +0.000 C 
ATOM     55  C42 UNL A   1      45.262  25.524  31.066  1.00  0.00    +0.000 C 
ATOM     56  N7  UNL A   1      44.326  24.809  30.349  1.00  0.00    +0.000 N 
ATOM     57  C43 UNL A   1      45.209  25.497  32.517  1.00  0.00    +0.000 C 
ATOM     69  C50 UNL A   1      44.710  26.603  33.138  1.00  0.00    +0.000 C 
ATOM     70  N8  UNL A   1      44.267  27.696  32.446  1.00  0.00    +0.000 N 
ATOM     71  C51 UNL A   1      43.716  28.533  33.280  1.00  0.00    +0.000 C 
ATOM     72  C52 UNL A   1      42.939  29.758  32.860  1.00  0.00    +0.000 C 
ATOM     84  C59 UNL A   1      42.883  29.976  31.516  1.00  0.00    +0.000 C 
ATOM     85  C60 UNL A   1      43.831  29.480  30.539  1.00  0.00    +0.000 C 
ATOM     86  C61 UNL A   1      43.130  28.821  29.606  1.00  0.00    +0.000 C 
ATOM     87  C62 UNL A   1      41.706  28.972  29.896  1.00  0.00    +0.000 C 
ATOM     88  N9  UNL A   1      41.635  30.051  30.817  1.00  0.00    +0.000 N 
ATOM     89  C63 UNL A   1      43.836  28.093  34.672  1.00  0.00    +0.000 C 
ATOM     90  C64 UNL A   1      44.442  26.902  34.531  1.00  0.00    +0.000 C 
ATOM     91  C65 UNL A   1      40.814  24.898  28.011  1.00  0.00    +0.000 C 
ATOM     92  C66 UNL A   1      40.065  25.965  28.304  1.00  0.00    +0.000 C 
ENDROOT
BRANCH   36   35
ATOM     33  C26 UNL A   1      37.318  28.840  30.906  1.00  0.00    +0.000 C 
ATOM     34  C27 UNL A   1      38.429  28.076  30.570  1.00  0.00    +0.000 C 
ATOM    129  H31 UNL A   1      38.594  27.161  31.018  1.00  0.00    +0.000 H 
ATOM     35  C28 UNL A   1      39.317  28.572  29.614  1.00  0.00    +0.000 C 
ATOM    140  H42 UNL A   1      39.548  29.914  27.991  1.00  0.00    +0.000 H 
ATOM    141  H43 UNL A   1      37.472  31.111  28.440  1.00  0.00    +0.000 H 
ATOM    128  H30 UNL A   1      36.654  28.518  31.627  1.00  0.00    +0.000 H 
ATOM     93  C67 UNL A   1      38.957  29.655  28.796  1.00  0.00    +0.000 C 
ATOM     94  C68 UNL A   1      37.808  30.370  29.074  1.00  0.00    +0.000 C 
ATOM     32  C25 UNL A   1      37.120  30.054  30.243  1.00  0.00    +0.000 C 
BRANCH   32   30
ATOM     30  C24 UNL A   1      36.552  31.166  31.040  1.00  0.00    +0.000 C 
ATOM     31  O2  UNL A   1      35.748  30.948  31.916  1.00  0.00    +0.000 O 
BRANCH   30   29
ATOM     29  N5  UNL A   1      37.060  32.440  30.780  1.00  0.00    +0.000 N 
ATOM    127  H29 UNL A   1      37.590  32.535  29.956  1.00  0.00    +0.000 H 
BRANCH   29   28
ATOM     28  C23 UNL A   1      36.900  33.660  31.589  1.00  0.00    +0.000 C 
ATOM    125  H27 UNL A   1      36.614  33.365  32.577  1.00  0.00    +0.000 H 
ATOM    126  H28 UNL A   1      37.842  34.167  31.547  1.00  0.00    +0.000 H 
BRANCH   28   27
ATOM     27  C22 UNL A   1      35.861  34.655  31.073  1.00  0.00    +0.000 C 
ATOM    124  H26 UNL A   1      36.221  34.935  30.106  1.00  0.00    +0.000 H 
ATOM    123  H25 UNL A   1      35.794  35.444  31.793  1.00  0.00    +0.000 H 
BRANCH   27   26
ATOM    121  H23 UNL A   1      34.379  33.163  31.227  1.00  0.00    +0.000 H 
ATOM     26  C21 UNL A   1      34.441  34.151  30.818  1.00  0.00    +0.000 C 
ATOM    122  H24 UNL A   1      33.815  34.889  31.273  1.00  0.00    +0.000 H 
BRANCH   26   25
ATOM     25  C20 UNL A   1      33.940  34.074  29.367  1.00  0.00    +0.000 C 
ATOM    119  H21 UNL A   1      32.966  33.631  29.419  1.00  0.00    +0.000 H 
ATOM    120  H22 UNL A   1      34.061  35.090  29.054  1.00  0.00    +0.000 H 
BRANCH   25   24
ATOM    117  H19 UNL A   1      34.378  33.786  27.321  1.00  0.00    +0.000 H 
ATOM    118  H20 UNL A   1      35.703  33.406  28.550  1.00  0.00    +0.000 H 
ATOM     24  C19 UNL A   1      34.685  33.324  28.237  1.00  0.00    +0.000 C 
BRANCH   24   23
ATOM    115  H17 UNL A   1      35.521  31.423  27.840  1.00  0.00    +0.000 H 
ATOM    116  H18 UNL A   1      34.065  31.454  28.907  1.00  0.00    +0.000 H 
ATOM     23  C18 UNL A   1      34.542  31.817  28.021  1.00  0.00    +0.000 C 
BRANCH   23   22
ATOM    114  H16 UNL A   1      33.865  31.759  26.037  1.00  0.00    +0.000 H 
ATOM     22  N4  UNL A   1      33.686  31.380  26.928  1.00  0.00    +0.000 N 
BRANCH   22   20
ATOM     20  C17 UNL A   1      32.646  30.483  27.034  1.00  0.00    +0.000 C 
ATOM     21  O1  UNL A   1      31.548  30.896  26.630  1.00  0.00    +0.000 O 
BRANCH   20   19
ATOM    110  H12 UNL A   1      31.164  26.263  26.294  1.00  0.00    +0.000 H 
ATOM    111  H13 UNL A   1      31.381  27.640  28.140  1.00  0.00    +0.000 H 
ATOM    112  H14 UNL A   1      30.771  28.727  27.023  1.00  0.00    +0.000 H 
ATOM     17  C15 UNL A   1      31.758  27.147  26.192  1.00  0.00    +0.000 C 
ATOM     18  N3  UNL A   1      31.563  28.131  27.264  1.00  0.00    +0.000 N 
ATOM     19  C16 UNL A   1      32.771  28.977  27.419  1.00  0.00    +0.000 C 
ATOM    142  H44 UNL A   1      34.812  28.276  27.476  1.00  0.00    +0.000 H 
ATOM    143  H45 UNL A   1      34.361  28.904  25.938  1.00  0.00    +0.000 H 
ATOM    113  H15 UNL A   1      32.894  29.011  28.482  1.00  0.00    +0.000 H 
ATOM     95  C69 UNL A   1      34.009  28.332  26.771  1.00  0.00    +0.000 C 
ATOM     96  S1  UNL A   1      33.492  26.672  26.271  1.00  0.00    +0.000 S 
BRANCH   17   16
ATOM      6  C6  UNL A   1      31.243  27.136  23.597  1.00  0.00    +0.000 C 
ATOM      7  N1  UNL A   1      30.839  28.036  22.670  1.00  0.00    +0.000 N 
ATOM      8  N2  UNL A   1      30.474  29.130  23.388  1.00  0.00    +0.000 N 
ATOM    109  H11 UNL A   1      30.833  29.796  25.389  1.00  0.00    +0.000 H 
ATOM     15  C13 UNL A   1      30.871  29.040  24.687  1.00  0.00    +0.000 C 
ATOM     16  C14 UNL A   1      31.337  27.759  24.897  1.00  0.00    +0.000 C 
BRANCH    6    5
ATOM     97  C70 UNL A   1      32.655  25.303  22.612  1.00  0.00    +0.000 C 
ATOM      2  C2  UNL A   1      31.950  22.962  22.672  1.00  0.00    +0.000 C 
ATOM      3  C3  UNL A   1      30.754  23.365  23.260  1.00  0.00    +0.000 C 
ATOM      4  C4  UNL A   1      30.530  24.717  23.540  1.00  0.00    +0.000 C 
ATOM     98  C71 UNL A   1      32.889  23.943  22.332  1.00  0.00    +0.000 C 
ATOM    102  H4  UNL A   1      30.032  22.665  23.488  1.00  0.00    +0.000 H 
ATOM      5  C5  UNL A   1      31.480  25.712  23.252  1.00  0.00    +0.000 C 
ATOM    103  H5  UNL A   1      29.635  24.993  23.974  1.00  0.00    +0.000 H 
ATOM    144  H46 UNL A   1      33.358  26.008  22.343  1.00  0.00    +0.000 H 
ATOM    145  H47 UNL A   1      33.767  23.664  21.867  1.00  0.00    +0.000 H 
BRANCH    2    1
ATOM      1  C1  UNL A   1      32.188  21.502  22.422  1.00  0.00    +0.000 C 
ATOM     99  H1  UNL A   1      32.727  21.081  23.245  1.00  0.00    +0.000 H 
ATOM    100  H2  UNL A   1      32.756  21.381  21.524  1.00  0.00    +0.000 H 
ATOM    101  H3  UNL A   1      31.248  21.000  22.319  1.00  0.00    +0.000 H 
ENDBRANCH    2    1
ENDBRANCH    6    5
BRANCH    8    9
ATOM    104  H6  UNL A   1      29.525  29.314  20.940  1.00  0.00    +0.000 H 
ATOM      9  C7  UNL A   1      29.583  30.116  22.904  1.00  0.00    +0.000 C 
ATOM     10  C8  UNL A   1      29.204  30.086  21.547  1.00  0.00    +0.000 C 
ATOM     11  C9  UNL A   1      28.399  31.095  21.023  1.00  0.00    +0.000 C 
ATOM    108  H10 UNL A   1      29.376  31.141  24.740  1.00  0.00    +0.000 H 
ATOM     13  C11 UNL A   1      28.213  32.067  23.230  1.00  0.00    +0.000 C 
ATOM     14  C12 UNL A   1      29.094  31.110  23.747  1.00  0.00    +0.000 C 
ATOM    105  H7  UNL A   1      28.180  31.114  20.014  1.00  0.00    +0.000 H 
ATOM    107  H9  UNL A   1      27.798  32.771  23.858  1.00  0.00    +0.000 H 
ATOM     12  C10 UNL A   1      27.891  32.076  21.868  1.00  0.00    +0.000 C 
ATOM    106  H8  UNL A   1      27.274  32.813  21.491  1.00  0.00    +0.000 H 
ENDBRANCH    8    9
ENDBRANCH   17   16
ENDBRANCH   20   19
ENDBRANCH   22   20
ENDBRANCH   23   22
ENDBRANCH   24   23
ENDBRANCH   25   24
ENDBRANCH   26   25
ENDBRANCH   27   26
ENDBRANCH   28   27
ENDBRANCH   29   28
ENDBRANCH   30   29
ENDBRANCH   32   30
ENDBRANCH   36   35
BRANCH   40   41
ATOM     41  C33 UNL A   1      43.668  23.574  26.938  1.00  0.00    +0.000 C 
ATOM     42  C34 UNL A   1      43.193  22.242  26.962  1.00  0.00    +0.000 C 
ATOM     43  F1  UNL A   1      42.389  21.803  27.941  1.00  0.00    +0.000 F 
ATOM     44  C35 UNL A   1      43.544  21.294  25.993  1.00  0.00    +0.000 C 
ATOM     45  F2  UNL A   1      43.108  20.032  26.111  1.00  0.00    +0.000 F 
ATOM     46  C36 UNL A   1      44.353  21.638  24.932  1.00  0.00    +0.000 C 
ATOM     47  F3  UNL A   1      44.702  20.731  24.011  1.00  0.00    +0.000 F 
ATOM     48  C37 UNL A   1      44.806  22.933  24.839  1.00  0.00    +0.000 C 
ATOM     49  F4  UNL A   1      45.589  23.298  23.813  1.00  0.00    +0.000 F 
ATOM     50  C38 UNL A   1      44.483  23.871  25.824  1.00  0.00    +0.000 C 
ATOM     51  F5  UNL A   1      45.046  25.064  25.636  1.00  0.00    +0.000 F 
ENDBRANCH   40   41
BRANCH   57   58
ATOM     65  C48 UNL A   1      47.355  23.177  34.649  1.00  0.00    +0.000 C 
ATOM     66  F9  UNL A   1      48.581  23.182  35.193  1.00  0.00    +0.000 F 
ATOM     67  C49 UNL A   1      46.963  24.224  33.818  1.00  0.00    +0.000 C 
ATOM     68  F10 UNL A   1      47.878  25.167  33.548  1.00  0.00    +0.000 F 
ATOM     58  C44 UNL A   1      45.671  24.287  33.263  1.00  0.00    +0.000 C 
ATOM     59  C45 UNL A   1      44.808  23.218  33.552  1.00  0.00    +0.000 C 
ATOM     60  F6  UNL A   1      43.554  23.206  33.074  1.00  0.00    +0.000 F 
ATOM     61  C46 UNL A   1      45.218  22.149  34.349  1.00  0.00    +0.000 C 
ATOM     62  F7  UNL A   1      44.379  21.130  34.581  1.00  0.00    +0.000 F 
ATOM     63  C47 UNL A   1      46.484  22.137  34.912  1.00  0.00    +0.000 C 
ATOM     64  F8  UNL A   1      46.864  21.124  35.703  1.00  0.00    +0.000 F 
ENDBRANCH   57   58
BRANCH   72   73
ATOM     73  C53 UNL A   1      41.770  30.319  33.580  1.00  0.00    +0.000 C 
ATOM     74  C54 UNL A   1      41.766  31.696  33.875  1.00  0.00    +0.000 C 
ATOM     75  F11 UNL A   1      42.913  32.393  33.840  1.00  0.00    +0.000 F 
ATOM     76  C55 UNL A   1      40.576  32.383  34.091  1.00  0.00    +0.000 C 
ATOM     77  F12 UNL A   1      40.593  33.712  34.263  1.00  0.00    +0.000 F 
ATOM     78  C56 UNL A   1      39.370  31.702  34.055  1.00  0.00    +0.000 C 
ATOM     79  F13 UNL A   1      38.217  32.373  34.172  1.00  0.00    +0.000 F 
ATOM     80  C57 UNL A   1      39.360  30.328  33.858  1.00  0.00    +0.000 C 
ATOM     81  F14 UNL A   1      38.192  29.674  33.799  1.00  0.00    +0.000 F 
ATOM     82  C58 UNL A   1      40.551  29.638  33.628  1.00  0.00    +0.000 C 
ATOM     83  F15 UNL A   1      40.493  28.330  33.338  1.00  0.00    +0.000 F 
ENDBRANCH   72   73
TORSDOF 19
ENDMDL
MODEL 2
REMARK VINA RESULT:     -12.3     22.279     28.594
ROOT
ATOM    130  H32 UNL A   1      18.536  37.993  45.865  1.00  0.00    +0.000 H 
ATOM    131  H33 UNL A   1      19.581  36.607  43.878  1.00  0.00    +0.000 H 
ATOM    132  H34 UNL A   1      19.255  34.141  47.166  1.00  0.00    +0.000 H 
ATOM    133  H35 UNL A   1      22.775  37.601  44.678  1.00  0.00    +0.000 H 
ATOM    134  H36 UNL A   1      21.636  37.970  46.934  1.00  0.00    +0.000 H 
ATOM    135  H37 UNL A   1      25.635  37.080  47.593  1.00  0.00    +0.000 H 
ATOM    136  H38 UNL A   1      24.708  32.765  43.983  1.00  0.00    +0.000 H 
ATOM    137  H39 UNL A   1      22.299  31.884  43.746  1.00  0.00    +0.000 H 
ATOM    138  H40 UNL A   1      19.260  35.930  51.328  1.00  0.00    +0.000 H 
ATOM    139  H41 UNL A   1      21.765  36.399  51.681  1.00  0.00    +0.000 H 
ATOM     36  C29 UNL A   1      23.143  36.718  49.097  1.00  0.00    +0.000 C 
ATOM     37  C30 UNL A   1      21.728  36.461  49.422  1.00  0.00    +0.000 C 
ATOM     38  N6  UNL A   1      20.816  36.231  48.538  1.00  0.00    +0.000 N 
ATOM     39  C31 UNL A   1      19.604  36.199  49.180  1.00  0.00    +0.000 C 
ATOM     40  C32 UNL A   1      18.469  36.357  48.441  1.00  0.00    +0.000 C 
ATOM     52  C39 UNL A   1      18.745  36.175  47.011  1.00  0.00    +0.000 C 
ATOM     53  C40 UNL A   1      18.829  37.004  45.904  1.00  0.00    +0.000 C 
ATOM     54  C41 UNL A   1      19.392  36.252  44.829  1.00  0.00    +0.000 C 
ATOM     55  C42 UNL A   1      19.638  34.969  45.280  1.00  0.00    +0.000 C 
ATOM     56  N7  UNL A   1      19.219  34.941  46.594  1.00  0.00    +0.000 N 
ATOM     57  C43 UNL A   1      20.260  33.784  44.715  1.00  0.00    +0.000 C 
ATOM     69  C50 UNL A   1      21.613  33.810  44.561  1.00  0.00    +0.000 C 
ATOM     70  N8  UNL A   1      22.373  34.888  44.923  1.00  0.00    +0.000 N 
ATOM     71  C51 UNL A   1      23.634  34.581  44.801  1.00  0.00    +0.000 C 
ATOM     72  C52 UNL A   1      24.768  35.446  45.296  1.00  0.00    +0.000 C 
ATOM     84  C59 UNL A   1      24.390  36.631  45.856  1.00  0.00    +0.000 C 
ATOM     85  C60 UNL A   1      23.146  37.328  45.602  1.00  0.00    +0.000 C 
ATOM     86  C61 UNL A   1      22.569  37.553  46.789  1.00  0.00    +0.000 C 
ATOM     87  C62 UNL A   1      23.478  37.110  47.844  1.00  0.00    +0.000 C 
ATOM     88  N9  UNL A   1      24.738  36.971  47.203  1.00  0.00    +0.000 N 
ATOM     89  C63 UNL A   1      23.829  33.246  44.229  1.00  0.00    +0.000 C 
ATOM     90  C64 UNL A   1      22.563  32.812  44.111  1.00  0.00    +0.000 C 
ATOM     91  C65 UNL A   1      19.942  36.125  50.579  1.00  0.00    +0.000 C 
ATOM     92  C66 UNL A   1      21.245  36.338  50.791  1.00  0.00    +0.000 C 
ENDROOT
BRANCH   36   35
ATOM     33  C26 UNL A   1      25.910  35.340  51.174  1.00  0.00    +0.000 C 
ATOM     34  C27 UNL A   1      24.655  35.383  50.579  1.00  0.00    +0.000 C 
ATOM    129  H31 UNL A   1      24.093  34.524  50.474  1.00  0.00    +0.000 H 
ATOM     35  C28 UNL A   1      24.170  36.611  50.128  1.00  0.00    +0.000 C 
ATOM    140  H42 UNL A   1      24.329  38.715  50.320  1.00  0.00    +0.000 H 
ATOM    141  H43 UNL A   1      26.419  38.633  51.571  1.00  0.00    +0.000 H 
ATOM    128  H30 UNL A   1      26.313  34.446  51.494  1.00  0.00    +0.000 H 
ATOM     93  C67 UNL A   1      24.782  37.811  50.524  1.00  0.00    +0.000 C 
ATOM     94  C68 UNL A   1      25.992  37.775  51.190  1.00  0.00    +0.000 C 
ATOM     32  C25 UNL A   1      26.615  36.537  51.327  1.00  0.00    +0.000 C 
BRANCH   32   30
ATOM     30  C24 UNL A   1      28.086  36.473  51.158  1.00  0.00    +0.000 C 
ATOM     31  O2  UNL A   1      28.783  35.985  52.016  1.00  0.00    +0.000 O 
BRANCH   30   29
ATOM     29  N5  UNL A   1      28.591  36.922  49.936  1.00  0.00    +0.000 N 
ATOM    127  H29 UNL A   1      28.745  37.891  49.860  1.00  0.00    +0.000 H 
BRANCH   29   28
ATOM     28  C23 UNL A   1      28.920  36.121  48.746  1.00  0.00    +0.000 C 
ATOM    125  H27 UNL A   1      29.011  35.100  49.050  1.00  0.00    +0.000 H 
ATOM    126  H28 UNL A   1      28.128  36.292  48.046  1.00  0.00    +0.000 H 
BRANCH   28   27
ATOM     27  C22 UNL A   1      30.209  36.517  48.027  1.00  0.00    +0.000 C 
ATOM    124  H26 UNL A   1      29.880  36.895  47.083  1.00  0.00    +0.000 H 
ATOM    123  H25 UNL A   1      30.831  35.646  47.991  1.00  0.00    +0.000 H 
BRANCH   27   26
ATOM    121  H23 UNL A   1      30.801  37.716  49.658  1.00  0.00    +0.000 H 
ATOM     26  C21 UNL A   1      31.048  37.650  48.618  1.00  0.00    +0.000 C 
ATOM    122  H24 UNL A   1      32.057  37.375  48.391  1.00  0.00    +0.000 H 
BRANCH   26   25
ATOM     25  C20 UNL A   1      30.898  39.060  48.025  1.00  0.00    +0.000 C 
ATOM    119  H21 UNL A   1      31.892  39.389  47.802  1.00  0.00    +0.000 H 
ATOM    120  H22 UNL A   1      30.195  38.877  47.239  1.00  0.00    +0.000 H 
BRANCH   25   24
ATOM    117  H19 UNL A   1      30.875  41.077  48.652  1.00  0.00    +0.000 H 
ATOM    118  H20 UNL A   1      29.254  40.261  48.303  1.00  0.00    +0.000 H 
ATOM     24  C19 UNL A   1      30.219  40.238  48.763  1.00  0.00    +0.000 C 
BRANCH   24   23
ATOM    115  H17 UNL A   1      29.243  39.311  50.394  1.00  0.00    +0.000 H 
ATOM    116  H18 UNL A   1      30.796  40.155  50.761  1.00  0.00    +0.000 H 
ATOM     23  C18 UNL A   1      29.857  40.175  50.248  1.00  0.00    +0.000 C 
BRANCH   23   22
ATOM    114  H16 UNL A   1      29.484  41.683  51.657  1.00  0.00    +0.000 H 
ATOM     22  N4  UNL A   1      29.147  41.316  50.808  1.00  0.00    +0.000 N 
BRANCH   22   20
ATOM     20  C17 UNL A   1      28.044  41.924  50.252  1.00  0.00    +0.000 C 
ATOM     21  O1  UNL A   1      26.948  41.492  50.642  1.00  0.00    +0.000 O 
BRANCH   20   19
ATOM    110  H12 UNL A   1      26.622  43.846  46.400  1.00  0.00    +0.000 H 
ATOM    111  H13 UNL A   1      28.671  43.489  47.413  1.00  0.00    +0.000 H 
ATOM    112  H14 UNL A   1      27.939  42.010  47.687  1.00  0.00    +0.000 H 
ATOM     17  C15 UNL A   1      26.628  43.552  47.428  1.00  0.00    +0.000 C 
ATOM     18  N3  UNL A   1      27.910  43.009  47.893  1.00  0.00    +0.000 N 
ATOM     19  C16 UNL A   1      28.056  43.201  49.357  1.00  0.00    +0.000 C 
ATOM    142  H44 UNL A   1      27.628  45.015  50.447  1.00  0.00    +0.000 H 
ATOM    143  H45 UNL A   1      26.363  43.853  50.554  1.00  0.00    +0.000 H 
ATOM    113  H15 UNL A   1      29.066  43.545  49.444  1.00  0.00    +0.000 H 
ATOM     95  C69 UNL A   1      27.092  44.273  49.892  1.00  0.00    +0.000 C 
ATOM     96  S1  UNL A   1      26.321  45.013  48.432  1.00  0.00    +0.000 S 
BRANCH   17   16
ATOM      6  C6  UNL A   1      25.604  41.152  46.990  1.00  0.00    +0.000 C 
ATOM      7  N1  UNL A   1      24.459  40.499  47.301  1.00  0.00    +0.000 N 
ATOM      8  N2  UNL A   1      23.837  41.303  48.201  1.00  0.00    +0.000 N 
ATOM    109  H11 UNL A   1      24.044  43.355  48.770  1.00  0.00    +0.000 H 
ATOM     15  C13 UNL A   1      24.416  42.534  48.267  1.00  0.00    +0.000 C 
ATOM     16  C14 UNL A   1      25.587  42.487  47.541  1.00  0.00    +0.000 C 
BRANCH    6    5
ATOM     97  C70 UNL A   1      27.333  41.136  45.165  1.00  0.00    +0.000 C 
ATOM      2  C2  UNL A   1      28.852  39.245  44.847  1.00  0.00    +0.000 C 
ATOM      3  C3  UNL A   1      28.192  38.577  45.873  1.00  0.00    +0.000 C 
ATOM      4  C4  UNL A   1      27.134  39.195  46.548  1.00  0.00    +0.000 C 
ATOM     98  C71 UNL A   1      28.402  40.521  44.484  1.00  0.00    +0.000 C 
ATOM    102  H4  UNL A   1      28.482  37.622  46.136  1.00  0.00    +0.000 H 
ATOM      5  C5  UNL A   1      26.699  40.494  46.233  1.00  0.00    +0.000 C 
ATOM    103  H5  UNL A   1      26.657  38.679  47.304  1.00  0.00    +0.000 H 
ATOM    144  H46 UNL A   1      27.014  42.072  44.873  1.00  0.00    +0.000 H 
ATOM    145  H47 UNL A   1      28.861  41.018  43.705  1.00  0.00    +0.000 H 
BRANCH    2    1
ATOM      1  C1  UNL A   1      30.013  38.581  44.168  1.00  0.00    +0.000 C 
ATOM     99  H1  UNL A   1      30.848  38.548  44.836  1.00  0.00    +0.000 H 
ATOM    100  H2  UNL A   1      30.278  39.135  43.291  1.00  0.00    +0.000 H 
ATOM    101  H3  UNL A   1      29.740  37.584  43.889  1.00  0.00    +0.000 H 
ENDBRANCH    2    1
ENDBRANCH    6    5
BRANCH    8    9
ATOM    104  H6  UNL A   1      21.492  40.260  47.617  1.00  0.00    +0.000 H 
ATOM      9  C7  UNL A   1      22.871  40.837  49.123  1.00  0.00    +0.000 C 
ATOM     10  C8  UNL A   1      21.646  40.340  48.634  1.00  0.00    +0.000 C 
ATOM     11  C9  UNL A   1      20.643  39.956  49.522  1.00  0.00    +0.000 C 
ATOM    108  H10 UNL A   1      24.009  41.247  50.855  1.00  0.00    +0.000 H 
ATOM     13  C11 UNL A   1      22.135  40.403  51.372  1.00  0.00    +0.000 C 
ATOM     14  C12 UNL A   1      23.117  40.875  50.493  1.00  0.00    +0.000 C 
ATOM    105  H7  UNL A   1      19.719  39.660  49.167  1.00  0.00    +0.000 H 
ATOM    107  H9  UNL A   1      22.330  40.371  52.384  1.00  0.00    +0.000 H 
ATOM     12  C10 UNL A   1      20.894  39.972  50.890  1.00  0.00    +0.000 C 
ATOM    106  H8  UNL A   1      20.164  39.667  51.552  1.00  0.00    +0.000 H 
ENDBRANCH    8    9
ENDBRANCH   17   16
ENDBRANCH   20   19
ENDBRANCH   22   20
ENDBRANCH   23   22
ENDBRANCH   24   23
ENDBRANCH   25   24
ENDBRANCH   26   25
ENDBRANCH   27   26
ENDBRANCH   28   27
ENDBRANCH   29   28
ENDBRANCH   30   29
ENDBRANCH   32   30
ENDBRANCH   36   35
BRANCH   40   41
ATOM     41  C33 UNL A   1      17.122  36.828  48.967  1.00  0.00    +0.000 C 
ATOM     42  C34 UNL A   1      15.928  36.365  48.366  1.00  0.00    +0.000 C 
ATOM     43  F1  UNL A   1      15.944  35.417  47.418  1.00  0.00    +0.000 F 
ATOM     44  C35 UNL A   1      14.666  36.874  48.694  1.00  0.00    +0.000 C 
ATOM     45  F2  UNL A   1      13.581  36.433  48.041  1.00  0.00    +0.000 F 
ATOM     46  C36 UNL A   1      14.529  37.840  49.667  1.00  0.00    +0.000 C 
ATOM     47  F3  UNL A   1      13.325  38.340  49.975  1.00  0.00    +0.000 F 
ATOM     48  C37 UNL A   1      15.654  38.293  50.313  1.00  0.00    +0.000 C 
ATOM     49  F4  UNL A   1      15.550  39.228  51.269  1.00  0.00    +0.000 F 
ATOM     50  C38 UNL A   1      16.918  37.809  49.962  1.00  0.00    +0.000 C 
ATOM     51  F5  UNL A   1      17.919  38.387  50.625  1.00  0.00    +0.000 F 
ENDBRANCH   40   41
BRANCH   57   58
ATOM     65  C48 UNL A   1      17.844  31.527  42.815  1.00  0.00    +0.000 C 
ATOM     66  F9  UNL A   1      17.020  31.622  41.762  1.00  0.00    +0.000 F 
ATOM     67  C49 UNL A   1      18.512  32.660  43.275  1.00  0.00    +0.000 C 
ATOM     68  F10 UNL A   1      18.236  33.822  42.664  1.00  0.00    +0.000 F 
ATOM     58  C44 UNL A   1      19.423  32.601  44.346  1.00  0.00    +0.000 C 
ATOM     59  C45 UNL A   1      19.593  31.351  44.961  1.00  0.00    +0.000 C 
ATOM     60  F6  UNL A   1      20.453  31.204  45.980  1.00  0.00    +0.000 F 
ATOM     61  C46 UNL A   1      18.890  30.226  44.527  1.00  0.00    +0.000 C 
ATOM     62  F7  UNL A   1      19.053  29.054  45.156  1.00  0.00    +0.000 F 
ATOM     63  C47 UNL A   1      18.030  30.311  43.444  1.00  0.00    +0.000 C 
ATOM     64  F8  UNL A   1      17.379  29.222  43.010  1.00  0.00    +0.000 F 
ENDBRANCH   57   58
BRANCH   72   73
ATOM     73  C53 UNL A   1      26.057  34.945  45.831  1.00  0.00    +0.000 C 
ATOM     74  C54 UNL A   1      26.023  33.972  46.849  1.00  0.00    +0.000 C 
ATOM     75  F11 UNL A   1      24.898  33.779  47.556  1.00  0.00    +0.000 F 
ATOM     76  C55 UNL A   1      27.100  33.118  47.065  1.00  0.00    +0.000 C 
ATOM     77  F12 UNL A   1      27.000  32.131  47.967  1.00  0.00    +0.000 F 
ATOM     78  C56 UNL A   1      28.244  33.243  46.295  1.00  0.00    +0.000 C 
ATOM     79  F13 UNL A   1      29.248  32.367  46.437  1.00  0.00    +0.000 F 
ATOM     80  C57 UNL A   1      28.332  34.256  45.351  1.00  0.00    +0.000 C 
ATOM     81  F14 UNL A   1      29.431  34.362  44.590  1.00  0.00    +0.000 F 
ATOM     82  C58 UNL A   1      27.250  35.106  45.122  1.00  0.00    +0.000 C 
ATOM     83  F15 UNL A   1      27.333  36.004  44.130  1.00  0.00    +0.000 F 
ENDBRANCH   72   73
TORSDOF 19
ENDMDL
MODEL 3
REMARK VINA RESULT:     -12.0     24.111     30.144
ROOT
ATOM    130  H32 UNL A   1      52.864  14.273   6.503  1.00  0.00    +0.000 H 
ATOM    131  H33 UNL A   1      50.958  15.305   8.008  1.00  0.00    +0.000 H 
ATOM    132  H34 UNL A   1      51.929  18.031   5.072  1.00  0.00    +0.000 H 
ATOM    133  H35 UNL A   1      53.228  16.591  10.248  1.00  0.00    +0.000 H 
ATOM    134  H36 UNL A   1      54.733  16.369   8.197  1.00  0.00    +0.000 H 
ATOM    135  H37 UNL A   1      56.120  19.508  10.530  1.00  0.00    +0.000 H 
ATOM    136  H38 UNL A   1      50.665  21.165  10.580  1.00  0.00    +0.000 H 
ATOM    137  H39 UNL A   1      49.153  20.410   8.636  1.00  0.00    +0.000 H 
ATOM    138  H40 UNL A   1      56.061  17.959   3.214  1.00  0.00    +0.000 H 
ATOM    139  H41 UNL A   1      57.460  19.121   5.034  1.00  0.00    +0.000 H 
ATOM     36  C29 UNL A   1      56.178  18.849   7.672  1.00  0.00    +0.000 C 
ATOM     37  C30 UNL A   1      55.786  18.350   6.341  1.00  0.00    +0.000 C 
ATOM     38  N6  UNL A   1      54.675  17.737   6.101  1.00  0.00    +0.000 N 
ATOM     39  C31 UNL A   1      54.718  17.279   4.808  1.00  0.00    +0.000 C 
ATOM     40  C32 UNL A   1      53.857  16.289   4.438  1.00  0.00    +0.000 C 
ATOM     52  C39 UNL A   1      52.776  16.139   5.420  1.00  0.00    +0.000 C 
ATOM     53  C40 UNL A   1      52.441  15.207   6.389  1.00  0.00    +0.000 C 
ATOM     54  C41 UNL A   1      51.407  15.765   7.201  1.00  0.00    +0.000 C 
ATOM     55  C42 UNL A   1      51.111  17.027   6.718  1.00  0.00    +0.000 C 
ATOM     56  N7  UNL A   1      51.936  17.221   5.630  1.00  0.00    +0.000 N 
ATOM     57  C43 UNL A   1      50.238  18.107   7.141  1.00  0.00    +0.000 C 
ATOM     69  C50 UNL A   1      50.608  18.802   8.253  1.00  0.00    +0.000 C 
ATOM     70  N8  UNL A   1      51.749  18.518   8.950  1.00  0.00    +0.000 N 
ATOM     71  C51 UNL A   1      51.924  19.425   9.870  1.00  0.00    +0.000 C 
ATOM     72  C52 UNL A   1      53.177  19.556  10.704  1.00  0.00    +0.000 C 
ATOM     84  C59 UNL A   1      54.130  18.611  10.467  1.00  0.00    +0.000 C 
ATOM     85  C60 UNL A   1      53.898  17.297   9.903  1.00  0.00    +0.000 C 
ATOM     86  C61 UNL A   1      54.715  17.169   8.849  1.00  0.00    +0.000 C 
ATOM     87  C62 UNL A   1      55.574  18.347   8.776  1.00  0.00    +0.000 C 
ATOM     88  N9  UNL A   1      55.454  18.965  10.050  1.00  0.00    +0.000 N 
ATOM     89  C63 UNL A   1      50.813  20.379   9.929  1.00  0.00    +0.000 C 
ATOM     90  C64 UNL A   1      50.040  19.961   8.912  1.00  0.00    +0.000 C 
ATOM     91  C65 UNL A   1      55.845  17.962   4.223  1.00  0.00    +0.000 C 
ATOM     92  C66 UNL A   1      56.577  18.598   5.143  1.00  0.00    +0.000 C 
ENDROOT
BRANCH   36   35
ATOM     33  C26 UNL A   1      57.985  21.984   8.556  1.00  0.00    +0.000 C 
ATOM     34  C27 UNL A   1      57.002  21.194   7.971  1.00  0.00    +0.000 C 
ATOM    129  H31 UNL A   1      56.108  21.608   7.664  1.00  0.00    +0.000 H 
ATOM     35  C28 UNL A   1      57.251  19.831   7.807  1.00  0.00    +0.000 C 
ATOM    140  H42 UNL A   1      58.755  18.345   7.669  1.00  0.00    +0.000 H 
ATOM    141  H43 UNL A   1      60.534  19.802   8.477  1.00  0.00    +0.000 H 
ATOM    128  H30 UNL A   1      57.826  22.990   8.718  1.00  0.00    +0.000 H 
ATOM     93  C67 UNL A   1      58.550  19.318   7.945  1.00  0.00    +0.000 C 
ATOM     94  C68 UNL A   1      59.554  20.123   8.450  1.00  0.00    +0.000 C 
ATOM     32  C25 UNL A   1      59.192  21.382   8.920  1.00  0.00    +0.000 C 
BRANCH   32   30
ATOM     30  C24 UNL A   1      59.838  21.875  10.160  1.00  0.00    +0.000 C 
ATOM     31  O2  UNL A   1      61.009  22.173  10.168  1.00  0.00    +0.000 O 
BRANCH   30   29
ATOM     29  N5  UNL A   1      59.004  22.053  11.266  1.00  0.00    +0.000 N 
ATOM    127  H29 UNL A   1      58.277  22.708  11.160  1.00  0.00    +0.000 H 
BRANCH   29   28
ATOM     28  C23 UNL A   1      59.081  21.380  12.573  1.00  0.00    +0.000 C 
ATOM    125  H27 UNL A   1      60.113  21.298  12.841  1.00  0.00    +0.000 H 
ATOM    126  H28 UNL A   1      58.507  21.980  13.248  1.00  0.00    +0.000 H 
BRANCH   28   27
ATOM     27  C22 UNL A   1      58.468  19.981  12.624  1.00  0.00    +0.000 C 
ATOM    124  H26 UNL A   1      57.468  20.118  12.269  1.00  0.00    +0.000 H 
ATOM    123  H25 UNL A   1      58.562  19.631  13.632  1.00  0.00    +0.000 H 
BRANCH   27   26
ATOM    121  H23 UNL A   1      58.523  17.994  11.922  1.00  0.00    +0.000 H 
ATOM     26  C21 UNL A   1      59.050  18.901  11.712  1.00  0.00    +0.000 C 
ATOM    122  H24 UNL A   1      58.930  19.299  10.726  1.00  0.00    +0.000 H 
BRANCH   26   25
ATOM     25  C20 UNL A   1      60.551  18.589  11.812  1.00  0.00    +0.000 C 
ATOM    119  H21 UNL A   1      61.019  19.155  11.034  1.00  0.00    +0.000 H 
ATOM    120  H22 UNL A   1      60.740  18.816  12.841  1.00  0.00    +0.000 H 
BRANCH   25   24
ATOM    117  H19 UNL A   1      60.773  16.625  12.558  1.00  0.00    +0.000 H 
ATOM    118  H20 UNL A   1      60.841  16.867  10.728  1.00  0.00    +0.000 H 
ATOM     24  C19 UNL A   1      61.144  17.162  11.710  1.00  0.00    +0.000 C 
BRANCH   24   23
ATOM    115  H17 UNL A   1      62.986  17.116  10.673  1.00  0.00    +0.000 H 
ATOM    116  H18 UNL A   1      63.062  17.530  12.428  1.00  0.00    +0.000 H 
ATOM     23  C18 UNL A   1      62.650  16.902  11.666  1.00  0.00    +0.000 C 
BRANCH   23   22
ATOM    114  H16 UNL A   1      63.977  15.477  12.445  1.00  0.00    +0.000 H 
ATOM     22  N4  UNL A   1      63.102  15.560  12.001  1.00  0.00    +0.000 N 
BRANCH   22   20
ATOM     20  C17 UNL A   1      62.412  14.395  11.749  1.00  0.00    +0.000 C 
ATOM     21  O1  UNL A   1      62.523  13.953  10.595  1.00  0.00    +0.000 O 
BRANCH   20   19
ATOM    110  H12 UNL A   1      58.580  13.632  14.048  1.00  0.00    +0.000 H 
ATOM    111  H13 UNL A   1      60.796  13.997  14.601  1.00  0.00    +0.000 H 
ATOM    112  H14 UNL A   1      60.592  15.145  13.401  1.00  0.00    +0.000 H 
ATOM     17  C15 UNL A   1      59.308  13.566  13.268  1.00  0.00    +0.000 C 
ATOM     18  N3  UNL A   1      60.612  14.146  13.609  1.00  0.00    +0.000 N 
ATOM     19  C16 UNL A   1      61.689  13.511  12.811  1.00  0.00    +0.000 C 
ATOM    142  H44 UNL A   1      61.934  11.393  12.470  1.00  0.00    +0.000 H 
ATOM    143  H45 UNL A   1      61.197  12.206  11.144  1.00  0.00    +0.000 H 
ATOM    113  H15 UNL A   1      62.452  13.346  13.544  1.00  0.00    +0.000 H 
ATOM     95  C69 UNL A   1      61.241  12.167  12.213  1.00  0.00    +0.000 C 
ATOM     96  S1  UNL A   1      59.618  11.824  12.935  1.00  0.00    +0.000 S 
BRANCH   17   16
ATOM      6  C6  UNL A   1      57.925  15.527  12.152  1.00  0.00    +0.000 C 
ATOM      7  N1  UNL A   1      57.580  15.896  10.897  1.00  0.00    +0.000 N 
ATOM      8  N2  UNL A   1      58.319  15.095  10.086  1.00  0.00    +0.000 N 
ATOM    109  H11 UNL A   1      59.403  13.272  10.366  1.00  0.00    +0.000 H 
ATOM     15  C13 UNL A   1      58.909  14.081  10.776  1.00  0.00    +0.000 C 
ATOM     16  C14 UNL A   1      58.729  14.327  12.121  1.00  0.00    +0.000 C 
BRANCH    6    5
ATOM     97  C70 UNL A   1      56.307  16.990  13.402  1.00  0.00    +0.000 C 
ATOM      2  C2  UNL A   1      56.784  17.804  15.658  1.00  0.00    +0.000 C 
ATOM      3  C3  UNL A   1      58.034  17.198  15.584  1.00  0.00    +0.000 C 
ATOM      4  C4  UNL A   1      58.399  16.478  14.441  1.00  0.00    +0.000 C 
ATOM     98  C71 UNL A   1      55.931  17.712  14.551  1.00  0.00    +0.000 C 
ATOM    102  H4  UNL A   1      58.694  17.280  16.372  1.00  0.00    +0.000 H 
ATOM      5  C5  UNL A   1      57.539  16.332  13.339  1.00  0.00    +0.000 C 
ATOM    103  H5  UNL A   1      59.332  16.039  14.406  1.00  0.00    +0.000 H 
ATOM    144  H46 UNL A   1      55.664  16.945  12.596  1.00  0.00    +0.000 H 
ATOM    145  H47 UNL A   1      55.013  18.181  14.578  1.00  0.00    +0.000 H 
BRANCH    2    1
ATOM      1  C1  UNL A   1      56.397  18.532  16.911  1.00  0.00    +0.000 C 
ATOM     99  H1  UNL A   1      57.212  18.510  17.605  1.00  0.00    +0.000 H 
ATOM    100  H2  UNL A   1      55.542  18.060  17.349  1.00  0.00    +0.000 H 
ATOM    101  H3  UNL A   1      56.159  19.549  16.674  1.00  0.00    +0.000 H 
ENDBRANCH    2    1
ENDBRANCH    6    5
BRANCH    8    9
ATOM    104  H6  UNL A   1      56.685  14.969   8.026  1.00  0.00    +0.000 H 
ATOM      9  C7  UNL A   1      58.629  15.421   8.745  1.00  0.00    +0.000 C 
ATOM     10  C8  UNL A   1      57.639  15.259   7.756  1.00  0.00    +0.000 C 
ATOM     11  C9  UNL A   1      57.943  15.488   6.416  1.00  0.00    +0.000 C 
ATOM    108  H10 UNL A   1      60.627  15.998   9.120  1.00  0.00    +0.000 H 
ATOM     13  C11 UNL A   1      60.163  16.199   7.062  1.00  0.00    +0.000 C 
ATOM     14  C12 UNL A   1      59.896  15.886   8.400  1.00  0.00    +0.000 C 
ATOM    105  H7  UNL A   1      57.240  15.300   5.683  1.00  0.00    +0.000 H 
ATOM    107  H9  UNL A   1      61.077  16.599   6.805  1.00  0.00    +0.000 H 
ATOM     12  C10 UNL A   1      59.201  15.973   6.071  1.00  0.00    +0.000 C 
ATOM    106  H8  UNL A   1      59.425  16.168   5.083  1.00  0.00    +0.000 H 
ENDBRANCH    8    9
ENDBRANCH   17   16
ENDBRANCH   20   19
ENDBRANCH   22   20
ENDBRANCH   23   22
ENDBRANCH   24   23
ENDBRANCH   25   24
ENDBRANCH   26   25
ENDBRANCH   27   26
ENDBRANCH   28   27
ENDBRANCH   29   28
ENDBRANCH   30   29
ENDBRANCH   32   30
ENDBRANCH   36   35
BRANCH   40   41
ATOM     41  C33 UNL A   1      54.048  15.333   3.270  1.00  0.00    +0.000 C 
ATOM     42  C34 UNL A   1      55.333  14.818   2.983  1.00  0.00    +0.000 C 
ATOM     43  F1  UNL A   1      56.377  15.049   3.791  1.00  0.00    +0.000 F 
ATOM     44  C35 UNL A   1      55.610  14.062   1.836  1.00  0.00    +0.000 C 
ATOM     45  F2  UNL A   1      56.864  13.657   1.595  1.00  0.00    +0.000 F 
ATOM     46  C36 UNL A   1      54.609  13.749   0.943  1.00  0.00    +0.000 C 
ATOM     47  F3  UNL A   1      54.871  13.038  -0.162  1.00  0.00    +0.000 F 
ATOM     48  C37 UNL A   1      53.332  14.189   1.199  1.00  0.00    +0.000 C 
ATOM     49  F4  UNL A   1      52.337  13.894   0.349  1.00  0.00    +0.000 F 
ATOM     50  C38 UNL A   1      53.063  14.972   2.326  1.00  0.00    +0.000 C 
ATOM     51  F5  UNL A   1      51.797  15.380   2.407  1.00  0.00    +0.000 F 
ENDBRANCH   40   41
BRANCH   57   58
ATOM     65  C48 UNL A   1      46.714  17.868   5.705  1.00  0.00    +0.000 C 
ATOM     66  F9  UNL A   1      45.699  16.991   5.710  1.00  0.00    +0.000 F 
ATOM     67  C49 UNL A   1      47.928  17.523   6.294  1.00  0.00    +0.000 C 
ATOM     68  F10 UNL A   1      48.039  16.280   6.786  1.00  0.00    +0.000 F 
ATOM     58  C44 UNL A   1      49.006  18.427   6.356  1.00  0.00    +0.000 C 
ATOM     59  C45 UNL A   1      48.813  19.681   5.755  1.00  0.00    +0.000 C 
ATOM     60  F6  UNL A   1      49.784  20.606   5.781  1.00  0.00    +0.000 F 
ATOM     61  C46 UNL A   1      47.610  20.007   5.127  1.00  0.00    +0.000 C 
ATOM     62  F7  UNL A   1      47.471  21.202   4.536  1.00  0.00    +0.000 F 
ATOM     63  C47 UNL A   1      46.556  19.109   5.118  1.00  0.00    +0.000 C 
ATOM     64  F8  UNL A   1      45.392  19.438   4.541  1.00  0.00    +0.000 F 
ENDBRANCH   57   58
BRANCH   72   73
ATOM     73  C53 UNL A   1      53.745  20.831  11.200  1.00  0.00    +0.000 C 
ATOM     74  C54 UNL A   1      54.205  20.884  12.530  1.00  0.00    +0.000 C 
ATOM     75  F11 UNL A   1      53.813  19.951  13.412  1.00  0.00    +0.000 F 
ATOM     76  C55 UNL A   1      55.155  21.820  12.927  1.00  0.00    +0.000 C 
ATOM     77  F12 UNL A   1      55.655  21.779  14.171  1.00  0.00    +0.000 F 
ATOM     78  C56 UNL A   1      55.635  22.745  12.016  1.00  0.00    +0.000 C 
ATOM     79  F13 UNL A   1      56.614  23.589  12.368  1.00  0.00    +0.000 F 
ATOM     80  C57 UNL A   1      55.125  22.769  10.725  1.00  0.00    +0.000 C 
ATOM     81  F14 UNL A   1      55.608  23.649   9.836  1.00  0.00    +0.000 F 
ATOM     82  C58 UNL A   1      54.183  21.824  10.319  1.00  0.00    +0.000 C 
ATOM     83  F15 UNL A   1      53.792  21.812   9.036  1.00  0.00    +0.000 F 
ENDBRANCH   72   73
TORSDOF 19
ENDMDL
MODEL 4
REMARK VINA RESULT:     -11.8     22.367     28.819
ROOT
ATOM    130  H32 UNL A   1      18.561  38.029  45.785  1.00  0.00    +0.000 H 
ATOM    131  H33 UNL A   1      19.606  36.613  43.818  1.00  0.00    +0.000 H 
ATOM    132  H34 UNL A   1      19.320  34.210  47.156  1.00  0.00    +0.000 H 
ATOM    133  H35 UNL A   1      22.796  37.649  44.579  1.00  0.00    +0.000 H 
ATOM    134  H36 UNL A   1      21.668  38.053  46.834  1.00  0.00    +0.000 H 
ATOM    135  H37 UNL A   1      25.678  37.209  47.486  1.00  0.00    +0.000 H 
ATOM    136  H38 UNL A   1      24.765  32.816  43.967  1.00  0.00    +0.000 H 
ATOM    137  H39 UNL A   1      22.363  31.910  43.762  1.00  0.00    +0.000 H 
ATOM    138  H40 UNL A   1      19.335  36.080  51.282  1.00  0.00    +0.000 H 
ATOM    139  H41 UNL A   1      21.838  36.577  51.610  1.00  0.00    +0.000 H 
ATOM     36  C29 UNL A   1      23.198  36.856  49.012  1.00  0.00    +0.000 C 
ATOM     37  C30 UNL A   1      21.787  36.594  49.351  1.00  0.00    +0.000 C 
ATOM     38  N6  UNL A   1      20.872  36.339  48.477  1.00  0.00    +0.000 N 
ATOM     39  C31 UNL A   1      19.664  36.309  49.127  1.00  0.00    +0.000 C 
ATOM     40  C32 UNL A   1      18.524  36.444  48.392  1.00  0.00    +0.000 C 
ATOM     52  C39 UNL A   1      18.792  36.236  46.964  1.00  0.00    +0.000 C 
ATOM     53  C40 UNL A   1      18.863  37.044  45.841  1.00  0.00    +0.000 C 
ATOM     54  C41 UNL A   1      19.426  36.276  44.777  1.00  0.00    +0.000 C 
ATOM     55  C42 UNL A   1      19.685  35.003  45.252  1.00  0.00    +0.000 C 
ATOM     56  N7  UNL A   1      19.275  34.998  46.569  1.00  0.00    +0.000 N 
ATOM     57  C43 UNL A   1      20.313  33.813  44.706  1.00  0.00    +0.000 C 
ATOM     69  C50 UNL A   1      21.665  33.847  44.543  1.00  0.00    +0.000 C 
ATOM     70  N8  UNL A   1      22.418  34.938  44.880  1.00  0.00    +0.000 N 
ATOM     71  C51 UNL A   1      23.681  34.639  44.756  1.00  0.00    +0.000 C 
ATOM     72  C52 UNL A   1      24.811  35.523  45.227  1.00  0.00    +0.000 C 
ATOM     84  C59 UNL A   1      24.427  36.715  45.766  1.00  0.00    +0.000 C 
ATOM     85  C60 UNL A   1      23.176  37.397  45.506  1.00  0.00    +0.000 C 
ATOM     86  C61 UNL A   1      22.604  37.641  46.692  1.00  0.00    +0.000 C 
ATOM     87  C62 UNL A   1      23.522  37.226  47.749  1.00  0.00    +0.000 C 
ATOM     88  N9  UNL A   1      24.779  37.084  47.104  1.00  0.00    +0.000 N 
ATOM     89  C63 UNL A   1      23.884  33.294  44.209  1.00  0.00    +0.000 C 
ATOM     90  C64 UNL A   1      22.621  32.848  44.108  1.00  0.00    +0.000 C 
ATOM     91  C65 UNL A   1      20.012  36.266  50.526  1.00  0.00    +0.000 C 
ATOM     92  C66 UNL A   1      21.313  36.494  50.725  1.00  0.00    +0.000 C 
ENDROOT
BRANCH   36   35
ATOM     33  C26 UNL A   1      26.172  35.687  50.926  1.00  0.00    +0.000 C 
ATOM     34  C27 UNL A   1      24.926  35.599  50.316  1.00  0.00    +0.000 C 
ATOM    129  H31 UNL A   1      24.522  34.681  50.075  1.00  0.00    +0.000 H 
ATOM     35  C28 UNL A   1      24.233  36.778  50.039  1.00  0.00    +0.000 C 
ATOM    140  H42 UNL A   1      24.023  38.826  50.539  1.00  0.00    +0.000 H 
ATOM    141  H43 UNL A   1      26.100  38.924  51.810  1.00  0.00    +0.000 H 
ATOM    128  H30 UNL A   1      26.726  34.839  51.121  1.00  0.00    +0.000 H 
ATOM     93  C67 UNL A   1      24.627  37.994  50.619  1.00  0.00    +0.000 C 
ATOM     94  C68 UNL A   1      25.828  38.070  51.299  1.00  0.00    +0.000 C 
ATOM     32  C25 UNL A   1      26.657  36.952  51.267  1.00  0.00    +0.000 C 
BRANCH   32   30
ATOM     30  C24 UNL A   1      28.116  37.170  51.122  1.00  0.00    +0.000 C 
ATOM     31  O2  UNL A   1      28.898  36.606  51.851  1.00  0.00    +0.000 O 
BRANCH   30   29
ATOM     29  N5  UNL A   1      28.521  37.980  50.059  1.00  0.00    +0.000 N 
ATOM    127  H29 UNL A   1      27.867  38.102  49.334  1.00  0.00    +0.000 H 
BRANCH   29   28
ATOM     28  C23 UNL A   1      29.809  38.672  49.891  1.00  0.00    +0.000 C 
ATOM    125  H27 UNL A   1      29.946  39.323  50.729  1.00  0.00    +0.000 H 
ATOM    126  H28 UNL A   1      30.550  37.903  49.818  1.00  0.00    +0.000 H 
BRANCH   28   27
ATOM     27  C22 UNL A   1      29.941  39.508  48.618  1.00  0.00    +0.000 C 
ATOM    124  H26 UNL A   1      29.013  39.359  48.107  1.00  0.00    +0.000 H 
ATOM    123  H25 UNL A   1      30.817  39.168  48.106  1.00  0.00    +0.000 H 
BRANCH   27   26
ATOM    121  H23 UNL A   1      29.064  41.409  48.869  1.00  0.00    +0.000 H 
ATOM     26  C21 UNL A   1      30.057  41.026  48.758  1.00  0.00    +0.000 C 
ATOM    122  H24 UNL A   1      30.711  41.162  49.594  1.00  0.00    +0.000 H 
BRANCH   26   25
ATOM     25  C20 UNL A   1      30.726  41.817  47.623  1.00  0.00    +0.000 C 
ATOM    119  H21 UNL A   1      31.777  41.648  47.730  1.00  0.00    +0.000 H 
ATOM    120  H22 UNL A   1      30.198  41.441  46.771  1.00  0.00    +0.000 H 
BRANCH   25   24
ATOM    117  H19 UNL A   1      31.186  43.808  48.158  1.00  0.00    +0.000 H 
ATOM    118  H20 UNL A   1      30.797  43.457  46.386  1.00  0.00    +0.000 H 
ATOM     24  C19 UNL A   1      30.562  43.343  47.422  1.00  0.00    +0.000 C 
BRANCH   24   23
ATOM    115  H17 UNL A   1      29.272  44.953  46.961  1.00  0.00    +0.000 H 
ATOM    116  H18 UNL A   1      28.501  43.330  47.132  1.00  0.00    +0.000 H 
ATOM     23  C18 UNL A   1      29.204  44.040  47.515  1.00  0.00    +0.000 C 
BRANCH   23   22
ATOM    114  H16 UNL A   1      29.391  44.546  49.542  1.00  0.00    +0.000 H 
ATOM     22  N4  UNL A   1      28.717  44.371  48.846  1.00  0.00    +0.000 N 
BRANCH   22   20
ATOM     20  C17 UNL A   1      27.393  44.459  49.216  1.00  0.00    +0.000 C 
ATOM     21  O1  UNL A   1      26.615  44.814  48.317  1.00  0.00    +0.000 O 
BRANCH   20   19
ATOM    110  H12 UNL A   1      24.344  41.783  51.239  1.00  0.00    +0.000 H 
ATOM    111  H13 UNL A   1      24.858  44.037  51.290  1.00  0.00    +0.000 H 
ATOM    112  H14 UNL A   1      24.964  43.742  49.647  1.00  0.00    +0.000 H 
ATOM     17  C15 UNL A   1      25.273  42.094  50.810  1.00  0.00    +0.000 C 
ATOM     18  N3  UNL A   1      25.368  43.538  50.561  1.00  0.00    +0.000 N 
ATOM     19  C16 UNL A   1      26.786  43.974  50.568  1.00  0.00    +0.000 C 
ATOM    142  H44 UNL A   1      28.278  43.415  52.024  1.00  0.00    +0.000 H 
ATOM    143  H45 UNL A   1      28.388  42.505  50.568  1.00  0.00    +0.000 H 
ATOM    113  H15 UNL A   1      26.748  44.872  51.149  1.00  0.00    +0.000 H 
ATOM     95  C69 UNL A   1      27.698  42.945  51.258  1.00  0.00    +0.000 C 
ATOM     96  S1  UNL A   1      26.589  41.709  51.975  1.00  0.00    +0.000 S 
BRANCH   17   16
ATOM      6  C6  UNL A   1      24.301  41.038  48.587  1.00  0.00    +0.000 C 
ATOM      7  N1  UNL A   1      24.794  40.367  47.519  1.00  0.00    +0.000 N 
ATOM      8  N2  UNL A   1      26.143  40.469  47.640  1.00  0.00    +0.000 N 
ATOM    109  H11 UNL A   1      27.468  40.986  49.238  1.00  0.00    +0.000 H 
ATOM     15  C13 UNL A   1      26.508  40.949  48.861  1.00  0.00    +0.000 C 
ATOM     16  C14 UNL A   1      25.365  41.376  49.504  1.00  0.00    +0.000 C 
BRANCH    6    5
ATOM     97  C70 UNL A   1      21.894  40.416  48.958  1.00  0.00    +0.000 C 
ATOM      2  C2  UNL A   1      20.117  42.097  48.976  1.00  0.00    +0.000 C 
ATOM      3  C3  UNL A   1      21.066  43.064  48.659  1.00  0.00    +0.000 C 
ATOM      4  C4  UNL A   1      22.412  42.709  48.520  1.00  0.00    +0.000 C 
ATOM     98  C71 UNL A   1      20.538  40.767  49.105  1.00  0.00    +0.000 C 
ATOM    102  H4  UNL A   1      20.776  44.045  48.525  1.00  0.00    +0.000 H 
ATOM      5  C5  UNL A   1      22.863  41.389  48.694  1.00  0.00    +0.000 C 
ATOM    103  H5  UNL A   1      23.098  43.443  48.282  1.00  0.00    +0.000 H 
ATOM    144  H46 UNL A   1      22.177  39.428  49.049  1.00  0.00    +0.000 H 
ATOM    145  H47 UNL A   1      19.842  40.033  49.309  1.00  0.00    +0.000 H 
BRANCH    2    1
ATOM      1  C1  UNL A   1      18.687  42.507  49.164  1.00  0.00    +0.000 C 
ATOM     99  H1  UNL A   1      18.648  43.432  49.702  1.00  0.00    +0.000 H 
ATOM    100  H2  UNL A   1      18.168  41.752  49.716  1.00  0.00    +0.000 H 
ATOM    101  H3  UNL A   1      18.222  42.632  48.208  1.00  0.00    +0.000 H 
ENDBRANCH    2    1
ENDBRANCH    6    5
BRANCH    8    9
ATOM    104  H6  UNL A   1      27.099  38.211  46.685  1.00  0.00    +0.000 H 
ATOM      9  C7  UNL A   1      27.034  40.327  46.551  1.00  0.00    +0.000 C 
ATOM     10  C8  UNL A   1      27.476  39.038  46.195  1.00  0.00    +0.000 C 
ATOM     11  C9  UNL A   1      28.421  38.876  45.183  1.00  0.00    +0.000 C 
ATOM    108  H10 UNL A   1      27.164  42.389  46.109  1.00  0.00    +0.000 H 
ATOM     13  C11 UNL A   1      28.359  41.259  44.772  1.00  0.00    +0.000 C 
ATOM     14  C12 UNL A   1      27.479  41.442  45.845  1.00  0.00    +0.000 C 
ATOM    105  H7  UNL A   1      28.800  37.940  44.970  1.00  0.00    +0.000 H 
ATOM    107  H9  UNL A   1      28.648  42.070  44.206  1.00  0.00    +0.000 H 
ATOM     12  C10 UNL A   1      28.850  39.986  44.462  1.00  0.00    +0.000 C 
ATOM    106  H8  UNL A   1      29.532  39.871  43.696  1.00  0.00    +0.000 H 
ENDBRANCH    8    9
ENDBRANCH   17   16
ENDBRANCH   20   19
ENDBRANCH   22   20
ENDBRANCH   23   22
ENDBRANCH   24   23
ENDBRANCH   25   24
ENDBRANCH   26   25
ENDBRANCH   27   26
ENDBRANCH   28   27
ENDBRANCH   29   28
ENDBRANCH   30   29
ENDBRANCH   32   30
ENDBRANCH   36   35
BRANCH   40   41
ATOM     41  C33 UNL A   1      17.176  36.914  48.917  1.00  0.00    +0.000 C 
ATOM     42  C34 UNL A   1      15.983  36.378  48.379  1.00  0.00    +0.000 C 
ATOM     43  F1  UNL A   1      16.004  35.367  47.499  1.00  0.00    +0.000 F 
ATOM     44  C35 UNL A   1      14.714  36.875  48.702  1.00  0.00    +0.000 C 
ATOM     45  F2  UNL A   1      13.628  36.360  48.108  1.00  0.00    +0.000 F 
ATOM     46  C36 UNL A   1      14.571  37.902  49.609  1.00  0.00    +0.000 C 
ATOM     47  F3  UNL A   1      13.361  38.390  49.911  1.00  0.00    +0.000 F 
ATOM     48  C37 UNL A   1      15.698  38.429  50.194  1.00  0.00    +0.000 C 
ATOM     49  F4  UNL A   1      15.588  39.426  51.085  1.00  0.00    +0.000 F 
ATOM     50  C38 UNL A   1      16.967  37.956  49.846  1.00  0.00    +0.000 C 
ATOM     51  F5  UNL A   1      17.965  38.606  50.443  1.00  0.00    +0.000 F 
ENDBRANCH   40   41
BRANCH   57   58
ATOM     65  C48 UNL A   1      17.877  31.513  42.886  1.00  0.00    +0.000 C 
ATOM     66  F9  UNL A   1      17.020  31.591  41.857  1.00  0.00    +0.000 F 
ATOM     67  C49 UNL A   1      18.541  32.657  43.322  1.00  0.00    +0.000 C 
ATOM     68  F10 UNL A   1      18.229  33.813  42.717  1.00  0.00    +0.000 F 
ATOM     58  C44 UNL A   1      19.484  32.616  44.366  1.00  0.00    +0.000 C 
ATOM     59  C45 UNL A   1      19.692  31.370  44.979  1.00  0.00    +0.000 C 
ATOM     60  F6  UNL A   1      20.583  31.240  45.973  1.00  0.00    +0.000 F 
ATOM     61  C46 UNL A   1      18.993  30.234  44.570  1.00  0.00    +0.000 C 
ATOM     62  F7  UNL A   1      19.193  29.067  45.197  1.00  0.00    +0.000 F 
ATOM     63  C47 UNL A   1      18.100  30.302  43.513  1.00  0.00    +0.000 C 
ATOM     64  F8  UNL A   1      17.454  29.202  43.101  1.00  0.00    +0.000 F 
ENDBRANCH   57   58
BRANCH   72   73
ATOM     73  C53 UNL A   1      26.107  35.043  45.764  1.00  0.00    +0.000 C 
ATOM     74  C54 UNL A   1      26.088  34.093  46.803  1.00  0.00    +0.000 C 
ATOM     75  F11 UNL A   1      24.969  33.909  47.523  1.00  0.00    +0.000 F 
ATOM     76  C55 UNL A   1      27.172  33.251  47.031  1.00  0.00    +0.000 C 
ATOM     77  F12 UNL A   1      27.086  32.285  47.956  1.00  0.00    +0.000 F 
ATOM     78  C56 UNL A   1      28.310  33.367  46.250  1.00  0.00    +0.000 C 
ATOM     79  F13 UNL A   1      29.321  32.501  46.405  1.00  0.00    +0.000 F 
ATOM     80  C57 UNL A   1      28.384  34.359  45.282  1.00  0.00    +0.000 C 
ATOM     81  F14 UNL A   1      29.476  34.455  44.511  1.00  0.00    +0.000 F 
ATOM     82  C58 UNL A   1      27.294  35.196  45.043  1.00  0.00    +0.000 C 
ATOM     83  F15 UNL A   1      27.364  36.072  44.029  1.00  0.00    +0.000 F 
ENDBRANCH   72   73
TORSDOF 19
ENDMDL
MODEL 5
REMARK VINA RESULT:     -11.8     19.897     28.197
ROOT
ATOM    130  H32 UNL A   1      52.711  14.222   6.567  1.00  0.00    +0.000 H 
ATOM    131  H33 UNL A   1      50.823  15.302   8.060  1.00  0.00    +0.000 H 
ATOM    132  H34 UNL A   1      51.966  18.047   5.204  1.00  0.00    +0.000 H 
ATOM    133  H35 UNL A   1      53.105  16.440  10.369  1.00  0.00    +0.000 H 
ATOM    134  H36 UNL A   1      54.636  16.198   8.340  1.00  0.00    +0.000 H 
ATOM    135  H37 UNL A   1      56.113  19.222  10.767  1.00  0.00    +0.000 H 
ATOM    136  H38 UNL A   1      50.735  21.113  10.758  1.00  0.00    +0.000 H 
ATOM    137  H39 UNL A   1      49.229  20.466   8.771  1.00  0.00    +0.000 H 
ATOM    138  H40 UNL A   1      56.124  17.836   3.419  1.00  0.00    +0.000 H 
ATOM    139  H41 UNL A   1      57.538  18.896   5.288  1.00  0.00    +0.000 H 
ATOM     36  C29 UNL A   1      56.197  18.624   7.897  1.00  0.00    +0.000 C 
ATOM     37  C30 UNL A   1      55.808  18.170   6.548  1.00  0.00    +0.000 C 
ATOM     38  N6  UNL A   1      54.677  17.612   6.275  1.00  0.00    +0.000 N 
ATOM     39  C31 UNL A   1      54.724  17.181   4.973  1.00  0.00    +0.000 C 
ATOM     40  C32 UNL A   1      53.828  16.237   4.566  1.00  0.00    +0.000 C 
ATOM     52  C39 UNL A   1      52.724  16.113   5.525  1.00  0.00    +0.000 C 
ATOM     53  C40 UNL A   1      52.331  15.176   6.466  1.00  0.00    +0.000 C 
ATOM     54  C41 UNL A   1      51.307  15.760   7.272  1.00  0.00    +0.000 C 
ATOM     55  C42 UNL A   1      51.074  17.044   6.813  1.00  0.00    +0.000 C 
ATOM     56  N7  UNL A   1      51.927  17.226   5.744  1.00  0.00    +0.000 N 
ATOM     57  C43 UNL A   1      50.241  18.152   7.244  1.00  0.00    +0.000 C 
ATOM     69  C50 UNL A   1      50.620  18.806   8.378  1.00  0.00    +0.000 C 
ATOM     70  N8  UNL A   1      51.734  18.457   9.089  1.00  0.00    +0.000 N 
ATOM     71  C51 UNL A   1      51.931  19.336  10.032  1.00  0.00    +0.000 C 
ATOM     72  C52 UNL A   1      53.172  19.394  10.890  1.00  0.00    +0.000 C 
ATOM     84  C59 UNL A   1      54.089  18.413  10.649  1.00  0.00    +0.000 C 
ATOM     85  C60 UNL A   1      53.810  17.124  10.051  1.00  0.00    +0.000 C 
ATOM     86  C61 UNL A   1      54.641  16.983   9.010  1.00  0.00    +0.000 C 
ATOM     87  C62 UNL A   1      55.551  18.125   8.979  1.00  0.00    +0.000 C 
ATOM     88  N9  UNL A   1      55.434  18.719  10.263  1.00  0.00    +0.000 N 
ATOM     89  C63 UNL A   1      50.861  20.336  10.092  1.00  0.00    +0.000 C 
ATOM     90  C64 UNL A   1      50.090  19.974   9.053  1.00  0.00    +0.000 C 
ATOM     91  C65 UNL A   1      55.890  17.826   4.424  1.00  0.00    +0.000 C 
ATOM     92  C66 UNL A   1      56.632  18.410   5.370  1.00  0.00    +0.000 C 
ENDROOT
BRANCH   36   35
ATOM     33  C26 UNL A   1      58.097  21.706   8.770  1.00  0.00    +0.000 C 
ATOM     34  C27 UNL A   1      57.124  20.936   8.144  1.00  0.00    +0.000 C 
ATOM    129  H31 UNL A   1      56.283  21.377   7.740  1.00  0.00    +0.000 H 
ATOM     35  C28 UNL A   1      57.308  19.554   8.073  1.00  0.00    +0.000 C 
ATOM    140  H42 UNL A   1      58.732  17.987   8.142  1.00  0.00    +0.000 H 
ATOM    141  H43 UNL A   1      60.517  19.394   9.024  1.00  0.00    +0.000 H 
ATOM    128  H30 UNL A   1      57.982  22.726   8.866  1.00  0.00    +0.000 H 
ATOM     93  C67 UNL A   1      58.560  18.983   8.349  1.00  0.00    +0.000 C 
ATOM     94  C68 UNL A   1      59.562  19.763   8.896  1.00  0.00    +0.000 C 
ATOM     32  C25 UNL A   1      59.234  21.064   9.267  1.00  0.00    +0.000 C 
BRANCH   32   30
ATOM     30  C24 UNL A   1      59.801  21.592  10.531  1.00  0.00    +0.000 C 
ATOM     31  O2  UNL A   1      59.442  21.151  11.598  1.00  0.00    +0.000 O 
BRANCH   30   29
ATOM     29  N5  UNL A   1      60.815  22.544  10.407  1.00  0.00    +0.000 N 
ATOM    127  H29 UNL A   1      61.707  22.270  10.719  1.00  0.00    +0.000 H 
BRANCH   29   28
ATOM     28  C23 UNL A   1      60.710  23.910   9.867  1.00  0.00    +0.000 C 
ATOM    125  H27 UNL A   1      61.698  24.255   9.649  1.00  0.00    +0.000 H 
ATOM    126  H28 UNL A   1      60.079  23.838   9.005  1.00  0.00    +0.000 H 
BRANCH   28   27
ATOM     27  C22 UNL A   1      60.046  24.929  10.791  1.00  0.00    +0.000 C 
ATOM    124  H26 UNL A   1      60.617  25.823  10.651  1.00  0.00    +0.000 H 
ATOM    123  H25 UNL A   1      60.059  24.517  11.779  1.00  0.00    +0.000 H 
BRANCH   27   26
ATOM    121  H23 UNL A   1      58.531  26.393  10.707  1.00  0.00    +0.000 H 
ATOM     26  C21 UNL A   1      58.606  25.347  10.493  1.00  0.00    +0.000 C 
ATOM    122  H24 UNL A   1      58.457  25.063   9.472  1.00  0.00    +0.000 H 
BRANCH   26   25
ATOM     25  C20 UNL A   1      57.468  24.646  11.250  1.00  0.00    +0.000 C 
ATOM    119  H21 UNL A   1      56.738  25.404  11.447  1.00  0.00    +0.000 H 
ATOM    120  H22 UNL A   1      57.247  23.836  10.585  1.00  0.00    +0.000 H 
BRANCH   25   24
ATOM    117  H19 UNL A   1      56.923  23.111  12.596  1.00  0.00    +0.000 H 
ATOM    118  H20 UNL A   1      58.696  23.629  12.547  1.00  0.00    +0.000 H 
ATOM     24  C19 UNL A   1      57.659  23.888  12.586  1.00  0.00    +0.000 C 
BRANCH   24   23
ATOM    115  H17 UNL A   1      58.531  24.554  14.394  1.00  0.00    +0.000 H 
ATOM    116  H18 UNL A   1      57.193  25.566  13.726  1.00  0.00    +0.000 H 
ATOM     23  C18 UNL A   1      57.560  24.585  13.944  1.00  0.00    +0.000 C 
BRANCH   23   22
ATOM    114  H16 UNL A   1      55.744  24.486  14.987  1.00  0.00    +0.000 H 
ATOM     22  N4  UNL A   1      56.615  24.035  14.905  1.00  0.00    +0.000 N 
BRANCH   22   20
ATOM     20  C17 UNL A   1      56.836  22.939  15.709  1.00  0.00    +0.000 C 
ATOM     21  O1  UNL A   1      56.702  21.838  15.153  1.00  0.00    +0.000 O 
BRANCH   20   19
ATOM    110  H12 UNL A   1      57.007  20.883  19.746  1.00  0.00    +0.000 H 
ATOM    111  H13 UNL A   1      56.480  23.005  18.992  1.00  0.00    +0.000 H 
ATOM    112  H14 UNL A   1      55.696  22.075  17.843  1.00  0.00    +0.000 H 
ATOM     17  C15 UNL A   1      57.270  21.137  18.741  1.00  0.00    +0.000 C 
ATOM     18  N3  UNL A   1      56.603  22.340  18.229  1.00  0.00    +0.000 N 
ATOM     19  C16 UNL A   1      57.414  22.968  17.157  1.00  0.00    +0.000 C 
ATOM    142  H44 UNL A   1      59.543  23.322  17.221  1.00  0.00    +0.000 H 
ATOM    143  H45 UNL A   1      59.123  21.920  16.315  1.00  0.00    +0.000 H 
ATOM    113  H15 UNL A   1      57.369  24.007  17.413  1.00  0.00    +0.000 H 
ATOM     95  C69 UNL A   1      58.875  22.487  17.189  1.00  0.00    +0.000 C 
ATOM     96  S1  UNL A   1      59.033  21.496  18.695  1.00  0.00    +0.000 S 
BRANCH   17   16
ATOM      6  C6  UNL A   1      55.511  19.501  17.630  1.00  0.00    +0.000 C 
ATOM      7  N1  UNL A   1      55.552  18.392  16.855  1.00  0.00    +0.000 N 
ATOM      8  N2  UNL A   1      56.852  18.285  16.475  1.00  0.00    +0.000 N 
ATOM    109  H11 UNL A   1      58.690  19.128  17.172  1.00  0.00    +0.000 H 
ATOM     15  C13 UNL A   1      57.658  19.124  17.182  1.00  0.00    +0.000 C 
ATOM     16  C14 UNL A   1      56.849  19.966  17.914  1.00  0.00    +0.000 C 
BRANCH    6    5
ATOM     97  C70 UNL A   1      53.642  19.838  19.278  1.00  0.00    +0.000 C 
ATOM      2  C2  UNL A   1      51.802  21.387  18.838  1.00  0.00    +0.000 C 
ATOM      3  C3  UNL A   1      52.346  21.636  17.582  1.00  0.00    +0.000 C 
ATOM      4  C4  UNL A   1      53.536  21.009  17.196  1.00  0.00    +0.000 C 
ATOM     98  C71 UNL A   1      52.447  20.468  19.675  1.00  0.00    +0.000 C 
ATOM    102  H4  UNL A   1      51.871  22.282  16.934  1.00  0.00    +0.000 H 
ATOM      5  C5  UNL A   1      54.226  20.122  18.039  1.00  0.00    +0.000 C 
ATOM    103  H5  UNL A   1      53.920  21.207  16.259  1.00  0.00    +0.000 H 
ATOM    144  H46 UNL A   1      54.093  19.157  19.909  1.00  0.00    +0.000 H 
ATOM    145  H47 UNL A   1      52.040  20.250  20.597  1.00  0.00    +0.000 H 
BRANCH    2    1
ATOM      1  C1  UNL A   1      50.550  22.104  19.249  1.00  0.00    +0.000 C 
ATOM     99  H1  UNL A   1      49.702  21.629  18.801  1.00  0.00    +0.000 H 
ATOM    100  H2  UNL A   1      50.600  23.124  18.927  1.00  0.00    +0.000 H 
ATOM    101  H3  UNL A   1      50.454  22.072  20.315  1.00  0.00    +0.000 H 
ENDBRANCH    2    1
ENDBRANCH    6    5
BRANCH    8    9
ATOM    104  H6  UNL A   1      55.461  17.917  14.271  1.00  0.00    +0.000 H 
ATOM      9  C7  UNL A   1      57.270  17.574  15.325  1.00  0.00    +0.000 C 
ATOM     10  C8  UNL A   1      56.378  17.442  14.243  1.00  0.00    +0.000 C 
ATOM     11  C9  UNL A   1      56.730  16.674  13.136  1.00  0.00    +0.000 C 
ATOM    108  H10 UNL A   1      59.190  17.089  16.059  1.00  0.00    +0.000 H 
ATOM     13  C11 UNL A   1      58.914  16.307  14.109  1.00  0.00    +0.000 C 
ATOM     14  C12 UNL A   1      58.537  17.002  15.265  1.00  0.00    +0.000 C 
ATOM    105  H7  UNL A   1      56.050  16.516  12.374  1.00  0.00    +0.000 H 
ATOM    107  H9  UNL A   1      59.870  15.931  14.028  1.00  0.00    +0.000 H 
ATOM     12  C10 UNL A   1      58.004  16.119  13.062  1.00  0.00    +0.000 C 
ATOM    106  H8  UNL A   1      58.280  15.569  12.234  1.00  0.00    +0.000 H 
ENDBRANCH    8    9
ENDBRANCH   17   16
ENDBRANCH   20   19
ENDBRANCH   22   20
ENDBRANCH   23   22
ENDBRANCH   24   23
ENDBRANCH   25   24
ENDBRANCH   26   25
ENDBRANCH   27   26
ENDBRANCH   28   27
ENDBRANCH   29   28
ENDBRANCH   30   29
ENDBRANCH   32   30
ENDBRANCH   36   35
BRANCH   40   41
ATOM     41  C33 UNL A   1      53.999  15.300   3.380  1.00  0.00    +0.000 C 
ATOM     42  C34 UNL A   1      55.272  14.756   3.089  1.00  0.00    +0.000 C 
ATOM     43  F1  UNL A   1      56.318  14.942   3.907  1.00  0.00    +0.000 F 
ATOM     44  C35 UNL A   1      55.534  14.015   1.929  1.00  0.00    +0.000 C 
ATOM     45  F2  UNL A   1      56.779  13.581   1.686  1.00  0.00    +0.000 F 
ATOM     46  C36 UNL A   1      54.530  13.747   1.025  1.00  0.00    +0.000 C 
ATOM     47  F3  UNL A   1      54.779  13.051  -0.092  1.00  0.00    +0.000 F 
ATOM     48  C37 UNL A   1      53.264  14.216   1.283  1.00  0.00    +0.000 C 
ATOM     49  F4  UNL A   1      52.267  13.965   0.423  1.00  0.00    +0.000 F 
ATOM     50  C38 UNL A   1      53.011  14.984   2.424  1.00  0.00    +0.000 C 
ATOM     51  F5  UNL A   1      51.756  15.424   2.507  1.00  0.00    +0.000 F 
ENDBRANCH   40   41
BRANCH   57   58
ATOM     65  C48 UNL A   1      46.747  18.082   5.719  1.00  0.00    +0.000 C 
ATOM     66  F9  UNL A   1      45.706  17.238   5.664  1.00  0.00    +0.000 F 
ATOM     67  C49 UNL A   1      47.936  17.676   6.321  1.00  0.00    +0.000 C 
ATOM     68  F10 UNL A   1      47.996  16.411   6.764  1.00  0.00    +0.000 F 
ATOM     58  C44 UNL A   1      49.039  18.542   6.445  1.00  0.00    +0.000 C 
ATOM     59  C45 UNL A   1      48.899  19.824   5.891  1.00  0.00    +0.000 C 
ATOM     60  F6  UNL A   1      49.897  20.716   5.978  1.00  0.00    +0.000 F 
ATOM     61  C46 UNL A   1      47.723  20.214   5.250  1.00  0.00    +0.000 C 
ATOM     62  F7  UNL A   1      47.634  21.435   4.705  1.00  0.00    +0.000 F 
ATOM     63  C47 UNL A   1      46.642  19.350   5.180  1.00  0.00    +0.000 C 
ATOM     64  F8  UNL A   1      45.502  19.739   4.590  1.00  0.00    +0.000 F 
ENDBRANCH   57   58
BRANCH   72   73
ATOM     73  C53 UNL A   1      53.786  20.633  11.425  1.00  0.00    +0.000 C 
ATOM     74  C54 UNL A   1      54.066  21.680  10.526  1.00  0.00    +0.000 C 
ATOM     75  F11 UNL A   1      54.122  21.435   9.207  1.00  0.00    +0.000 F 
ATOM     76  C55 UNL A   1      54.175  22.996  10.964  1.00  0.00    +0.000 C 
ATOM     77  F12 UNL A   1      54.335  23.986  10.074  1.00  0.00    +0.000 F 
ATOM     78  C56 UNL A   1      54.042  23.287  12.311  1.00  0.00    +0.000 C 
ATOM     79  F13 UNL A   1      54.056  24.561  12.727  1.00  0.00    +0.000 F 
ATOM     80  C57 UNL A   1      53.858  22.258  13.224  1.00  0.00    +0.000 C 
ATOM     81  F14 UNL A   1      53.707  22.543  14.525  1.00  0.00    +0.000 F 
ATOM     82  C58 UNL A   1      53.737  20.939  12.788  1.00  0.00    +0.000 C 
ATOM     83  F15 UNL A   1      53.454  19.985  13.687  1.00  0.00    +0.000 F 
ENDBRANCH   72   73
TORSDOF 19
ENDMDL
MODEL 6
REMARK VINA RESULT:     -11.8     35.482     43.029
ROOT
ATOM    130  H32 UNL A   1      28.831  26.019  -7.729  1.00  0.00    +0.000 H 
ATOM    131  H33 UNL A   1      26.647  27.468  -8.033  1.00  0.00    +0.000 H 
ATOM    132  H34 UNL A   1      25.608  23.882  -6.283  1.00  0.00    +0.000 H 
ATOM    133  H35 UNL A   1      26.144  26.296 -11.227  1.00  0.00    +0.000 H 
ATOM    134  H36 UNL A   1      27.595  24.408 -10.303  1.00  0.00    +0.000 H 
ATOM    135  H37 UNL A   1      25.093  22.854 -13.227  1.00  0.00    +0.000 H 
ATOM    136  H38 UNL A   1      20.989  25.663 -10.437  1.00  0.00    +0.000 H 
ATOM    137  H39 UNL A   1      21.354  26.169  -7.938  1.00  0.00    +0.000 H 
ATOM    138  H40 UNL A   1      28.192  20.221  -6.951  1.00  0.00    +0.000 H 
ATOM    139  H41 UNL A   1      27.467  19.506  -9.314  1.00  0.00    +0.000 H 
ATOM     36  C29 UNL A   1      26.389  21.800 -10.815  1.00  0.00    +0.000 C 
ATOM     37  C30 UNL A   1      26.943  21.701  -9.453  1.00  0.00    +0.000 C 
ATOM     38  N6  UNL A   1      26.960  22.677  -8.609  1.00  0.00    +0.000 N 
ATOM     39  C31 UNL A   1      27.687  22.278  -7.516  1.00  0.00    +0.000 C 
ATOM     40  C32 UNL A   1      28.173  23.232  -6.672  1.00  0.00    +0.000 C 
ATOM     52  C39 UNL A   1      27.512  24.523  -6.902  1.00  0.00    +0.000 C 
ATOM     53  C40 UNL A   1      27.874  25.734  -7.469  1.00  0.00    +0.000 C 
ATOM     54  C41 UNL A   1      26.692  26.519  -7.630  1.00  0.00    +0.000 C 
ATOM     55  C42 UNL A   1      25.619  25.788  -7.153  1.00  0.00    +0.000 C 
ATOM     56  N7  UNL A   1      26.143  24.595  -6.700  1.00  0.00    +0.000 N 
ATOM     57  C43 UNL A   1      24.181  25.986  -7.111  1.00  0.00    +0.000 C 
ATOM     69  C50 UNL A   1      23.508  25.887  -8.291  1.00  0.00    +0.000 C 
ATOM     70  N8  UNL A   1      24.137  25.606  -9.473  1.00  0.00    +0.000 N 
ATOM     71  C51 UNL A   1      23.239  25.429 -10.401  1.00  0.00    +0.000 C 
ATOM     72  C52 UNL A   1      23.544  24.909 -11.786  1.00  0.00    +0.000 C 
ATOM     84  C59 UNL A   1      24.862  24.671 -12.037  1.00  0.00    +0.000 C 
ATOM     85  C60 UNL A   1      25.979  25.284 -11.347  1.00  0.00    +0.000 C 
ATOM     86  C61 UNL A   1      26.758  24.292 -10.896  1.00  0.00    +0.000 C 
ATOM     87  C62 UNL A   1      26.226  23.021 -11.381  1.00  0.00    +0.000 C 
ATOM     88  N9  UNL A   1      25.333  23.375 -12.426  1.00  0.00    +0.000 N 
ATOM     89  C63 UNL A   1      21.879  25.683  -9.917  1.00  0.00    +0.000 C 
ATOM     90  C64 UNL A   1      22.098  25.948  -8.618  1.00  0.00    +0.000 C 
ATOM     91  C65 UNL A   1      27.829  20.853  -7.681  1.00  0.00    +0.000 C 
ATOM     92  C66 UNL A   1      27.433  20.448  -8.892  1.00  0.00    +0.000 C 
ENDROOT
BRANCH   36   35
ATOM     33  C26 UNL A   1      24.438  19.186 -12.614  1.00  0.00    +0.000 C 
ATOM     34  C27 UNL A   1      24.811  20.002 -11.552  1.00  0.00    +0.000 C 
ATOM    129  H31 UNL A   1      24.167  20.164 -10.762  1.00  0.00    +0.000 H 
ATOM     35  C28 UNL A   1      26.074  20.594 -11.576  1.00  0.00    +0.000 C 
ATOM    140  H42 UNL A   1      28.028  20.483 -12.387  1.00  0.00    +0.000 H 
ATOM    141  H43 UNL A   1      27.425  18.869 -14.111  1.00  0.00    +0.000 H 
ATOM    128  H30 UNL A   1      23.502  18.753 -12.644  1.00  0.00    +0.000 H 
ATOM     93  C67 UNL A   1      27.054  20.154 -12.479  1.00  0.00    +0.000 C 
ATOM     94  C68 UNL A   1      26.709  19.278 -13.490  1.00  0.00    +0.000 C 
ATOM     32  C25 UNL A   1      25.360  18.968 -13.641  1.00  0.00    +0.000 C 
BRANCH   32   30
ATOM     30  C24 UNL A   1      24.818  18.862 -15.016  1.00  0.00    +0.000 C 
ATOM     31  O2  UNL A   1      23.629  18.746 -15.202  1.00  0.00    +0.000 O 
BRANCH   30   29
ATOM     29  N5  UNL A   1      25.738  18.992 -16.058  1.00  0.00    +0.000 N 
ATOM    127  H29 UNL A   1      26.297  18.203 -16.243  1.00  0.00    +0.000 H 
BRANCH   29   28
ATOM     28  C23 UNL A   1      25.974  20.166 -16.914  1.00  0.00    +0.000 C 
ATOM    125  H27 UNL A   1      25.939  19.844 -17.934  1.00  0.00    +0.000 H 
ATOM    126  H28 UNL A   1      25.212  20.874 -16.660  1.00  0.00    +0.000 H 
BRANCH   28   27
ATOM     27  C22 UNL A   1      27.305  20.881 -16.691  1.00  0.00    +0.000 C 
ATOM    124  H26 UNL A   1      27.215  21.310 -15.715  1.00  0.00    +0.000 H 
ATOM    123  H25 UNL A   1      27.431  21.575 -17.496  1.00  0.00    +0.000 H 
BRANCH   27   26
ATOM    121  H23 UNL A   1      28.277  19.010 -16.663  1.00  0.00    +0.000 H 
ATOM     26  C21 UNL A   1      28.577  20.036 -16.617  1.00  0.00    +0.000 C 
ATOM    122  H24 UNL A   1      29.174  20.389 -17.432  1.00  0.00    +0.000 H 
BRANCH   26   25
ATOM     25  C20 UNL A   1      29.488  20.188 -15.388  1.00  0.00    +0.000 C 
ATOM    119  H21 UNL A   1      28.862  20.565 -14.607  1.00  0.00    +0.000 H 
ATOM    120  H22 UNL A   1      29.911  19.208 -15.323  1.00  0.00    +0.000 H 
BRANCH   25   24
ATOM    117  H19 UNL A   1      30.436  22.073 -15.506  1.00  0.00    +0.000 H 
ATOM    118  H20 UNL A   1      31.209  20.782 -14.434  1.00  0.00    +0.000 H 
ATOM     24  C19 UNL A   1      30.765  21.064 -15.365  1.00  0.00    +0.000 C 
BRANCH   24   23
ATOM    115  H17 UNL A   1      31.805  19.880 -16.774  1.00  0.00    +0.000 H 
ATOM    116  H18 UNL A   1      31.850  21.665 -17.035  1.00  0.00    +0.000 H 
ATOM     23  C18 UNL A   1      31.921  20.852 -16.343  1.00  0.00    +0.000 C 
BRANCH   23   22
ATOM    114  H16 UNL A   1      33.971  20.419 -16.265  1.00  0.00    +0.000 H 
ATOM     22  N4  UNL A   1      33.270  20.934 -15.804  1.00  0.00    +0.000 N 
BRANCH   22   20
ATOM     20  C17 UNL A   1      33.650  21.669 -14.703  1.00  0.00    +0.000 C 
ATOM     21  O1  UNL A   1      33.988  21.002 -13.712  1.00  0.00    +0.000 O 
BRANCH   20   19
ATOM    110  H12 UNL A   1      31.950  25.704 -13.527  1.00  0.00    +0.000 H 
ATOM    111  H13 UNL A   1      32.785  24.763 -15.468  1.00  0.00    +0.000 H 
ATOM    112  H14 UNL A   1      31.854  23.496 -14.896  1.00  0.00    +0.000 H 
ATOM     17  C15 UNL A   1      32.488  24.783 -13.446  1.00  0.00    +0.000 C 
ATOM     18  N3  UNL A   1      32.673  24.078 -14.720  1.00  0.00    +0.000 N 
ATOM     19  C16 UNL A   1      33.876  23.211 -14.665  1.00  0.00    +0.000 C 
ATOM    142  H44 UNL A   1      35.811  23.774 -13.890  1.00  0.00    +0.000 H 
ATOM    143  H45 UNL A   1      34.884  22.849 -12.774  1.00  0.00    +0.000 H 
ATOM    113  H15 UNL A   1      34.345  23.408 -15.607  1.00  0.00    +0.000 H 
ATOM     95  C69 UNL A   1      34.820  23.614 -13.519  1.00  0.00    +0.000 C 
ATOM     96  S1  UNL A   1      34.144  25.150 -12.843  1.00  0.00    +0.000 S 
BRANCH   17   16
ATOM      6  C6  UNL A   1      30.234  23.764 -12.506  1.00  0.00    +0.000 C 
ATOM      7  N1  UNL A   1      29.877  22.908 -11.519  1.00  0.00    +0.000 N 
ATOM      8  N2  UNL A   1      31.049  22.372 -11.088  1.00  0.00    +0.000 N 
ATOM    109  H11 UNL A   1      33.108  22.912 -11.293  1.00  0.00    +0.000 H 
ATOM     15  C13 UNL A   1      32.126  23.042 -11.582  1.00  0.00    +0.000 C 
ATOM     16  C14 UNL A   1      31.669  23.925 -12.538  1.00  0.00    +0.000 C 
BRANCH    6    5
ATOM     97  C70 UNL A   1      28.446  23.571 -14.262  1.00  0.00    +0.000 C 
ATOM      2  C2  UNL A   1      27.255  25.533 -15.108  1.00  0.00    +0.000 C 
ATOM      3  C3  UNL A   1      28.068  26.336 -14.313  1.00  0.00    +0.000 C 
ATOM      4  C4  UNL A   1      29.037  25.755 -13.489  1.00  0.00    +0.000 C 
ATOM     98  C71 UNL A   1      27.465  24.148 -15.092  1.00  0.00    +0.000 C 
ATOM    102  H4  UNL A   1      27.956  27.361 -14.333  1.00  0.00    +0.000 H 
ATOM      5  C5  UNL A   1      29.231  24.365 -13.420  1.00  0.00    +0.000 C 
ATOM    103  H5  UNL A   1      29.631  26.370 -12.910  1.00  0.00    +0.000 H 
ATOM    144  H46 UNL A   1      28.587  22.549 -14.276  1.00  0.00    +0.000 H 
ATOM    145  H47 UNL A   1      26.891  23.542 -15.698  1.00  0.00    +0.000 H 
BRANCH    2    1
ATOM      1  C1  UNL A   1      26.191  26.173 -15.950  1.00  0.00    +0.000 C 
ATOM     99  H1  UNL A   1      25.839  25.471 -16.677  1.00  0.00    +0.000 H 
ATOM    100  H2  UNL A   1      26.597  27.029 -16.448  1.00  0.00    +0.000 H 
ATOM    101  H3  UNL A   1      25.377  26.478 -15.325  1.00  0.00    +0.000 H 
ENDBRANCH    2    1
ENDBRANCH    6    5
BRANCH    8    9
ATOM    104  H6  UNL A   1      32.308  21.906  -8.824  1.00  0.00    +0.000 H 
ATOM      9  C7  UNL A   1      31.134  21.132 -10.412  1.00  0.00    +0.000 C 
ATOM     10  C8  UNL A   1      31.885  21.053  -9.223  1.00  0.00    +0.000 C 
ATOM     11  C9  UNL A   1      32.059  19.827  -8.585  1.00  0.00    +0.000 C 
ATOM    108  H10 UNL A   1      29.953  20.053 -11.792  1.00  0.00    +0.000 H 
ATOM     13  C11 UNL A   1      30.604  18.793 -10.218  1.00  0.00    +0.000 C 
ATOM     14  C12 UNL A   1      30.497  20.002 -10.917  1.00  0.00    +0.000 C 
ATOM    105  H7  UNL A   1      32.668  19.754  -7.754  1.00  0.00    +0.000 H 
ATOM    107  H9  UNL A   1      30.088  17.965 -10.549  1.00  0.00    +0.000 H 
ATOM     12  C10 UNL A   1      31.405  18.700  -9.074  1.00  0.00    +0.000 C 
ATOM    106  H8  UNL A   1      31.510  17.793  -8.593  1.00  0.00    +0.000 H 
ENDBRANCH    8    9
ENDBRANCH   17   16
ENDBRANCH   20   19
ENDBRANCH   22   20
ENDBRANCH   23   22
ENDBRANCH   24   23
ENDBRANCH   25   24
ENDBRANCH   26   25
ENDBRANCH   27   26
ENDBRANCH   28   27
ENDBRANCH   29   28
ENDBRANCH   30   29
ENDBRANCH   32   30
ENDBRANCH   36   35
BRANCH   40   41
ATOM     41  C33 UNL A   1      29.355  23.068  -5.729  1.00  0.00    +0.000 C 
ATOM     42  C34 UNL A   1      30.674  23.082  -6.242  1.00  0.00    +0.000 C 
ATOM     43  F1  UNL A   1      30.922  23.363  -7.529  1.00  0.00    +0.000 F 
ATOM     44  C35 UNL A   1      31.796  22.782  -5.460  1.00  0.00    +0.000 C 
ATOM     45  F2  UNL A   1      33.011  22.753  -6.025  1.00  0.00    +0.000 F 
ATOM     46  C36 UNL A   1      31.661  22.495  -4.119  1.00  0.00    +0.000 C 
ATOM     47  F3  UNL A   1      32.730  22.194  -3.370  1.00  0.00    +0.000 F 
ATOM     48  C37 UNL A   1      30.405  22.511  -3.562  1.00  0.00    +0.000 C 
ATOM     49  F4  UNL A   1      30.245  22.242  -2.258  1.00  0.00    +0.000 F 
ATOM     50  C38 UNL A   1      29.281  22.778  -4.350  1.00  0.00    +0.000 C 
ATOM     51  F5  UNL A   1      28.128  22.693  -3.688  1.00  0.00    +0.000 F 
ENDBRANCH   40   41
BRANCH   57   58
ATOM     65  C48 UNL A   1      22.481  25.445  -3.740  1.00  0.00    +0.000 C 
ATOM     66  F9  UNL A   1      22.032  24.413  -3.011  1.00  0.00    +0.000 F 
ATOM     67  C49 UNL A   1      22.973  25.222  -5.025  1.00  0.00    +0.000 C 
ATOM     68  F10 UNL A   1      22.908  23.968  -5.496  1.00  0.00    +0.000 F 
ATOM     58  C44 UNL A   1      23.500  26.266  -5.809  1.00  0.00    +0.000 C 
ATOM     59  C45 UNL A   1      23.464  27.554  -5.252  1.00  0.00    +0.000 C 
ATOM     60  F6  UNL A   1      23.957  28.602  -5.927  1.00  0.00    +0.000 F 
ATOM     61  C46 UNL A   1      22.929  27.781  -3.983  1.00  0.00    +0.000 C 
ATOM     62  F7  UNL A   1      22.883  29.028  -3.493  1.00  0.00    +0.000 F 
ATOM     63  C47 UNL A   1      22.456  26.726  -3.221  1.00  0.00    +0.000 C 
ATOM     64  F8  UNL A   1      21.972  26.943  -1.990  1.00  0.00    +0.000 F 
ENDBRANCH   57   58
BRANCH   72   73
ATOM     73  C53 UNL A   1      22.643  24.056 -12.598  1.00  0.00    +0.000 C 
ATOM     74  C54 UNL A   1      22.432  24.403 -13.946  1.00  0.00    +0.000 C 
ATOM     75  F11 UNL A   1      22.730  25.640 -14.375  1.00  0.00    +0.000 F 
ATOM     76  C55 UNL A   1      22.027  23.454 -14.879  1.00  0.00    +0.000 C 
ATOM     77  F12 UNL A   1      21.938  23.786 -16.175  1.00  0.00    +0.000 F 
ATOM     78  C56 UNL A   1      21.789  22.150 -14.478  1.00  0.00    +0.000 C 
ATOM     79  F13 UNL A   1      21.488  21.212 -15.386  1.00  0.00    +0.000 F 
ATOM     80  C57 UNL A   1      21.902  21.810 -13.137  1.00  0.00    +0.000 C 
ATOM     81  F14 UNL A   1      21.694  20.543 -12.753  1.00  0.00    +0.000 F 
ATOM     82  C58 UNL A   1      22.319  22.756 -12.201  1.00  0.00    +0.000 C 
ATOM     83  F15 UNL A   1      22.518  22.365 -10.933  1.00  0.00    +0.000 F 
ENDBRANCH   72   73
TORSDOF 19
ENDMDL
MODEL 7
REMARK VINA RESULT:     -11.8     37.909     44.415
ROOT
ATOM    130  H32 UNL A   1      11.244  50.007  -1.209  1.00  0.00    +0.000 H 
ATOM    131  H33 UNL A   1      13.000  50.110  -3.176  1.00  0.00    +0.000 H 
ATOM    132  H34 UNL A   1      15.004  49.261   0.325  1.00  0.00    +0.000 H 
ATOM    133  H35 UNL A   1      13.401  53.508  -2.829  1.00  0.00    +0.000 H 
ATOM    134  H36 UNL A   1      12.523  52.942  -0.499  1.00  0.00    +0.000 H 
ATOM    135  H37 UNL A   1      14.976  56.277  -0.222  1.00  0.00    +0.000 H 
ATOM    136  H38 UNL A   1      18.621  53.180  -3.324  1.00  0.00    +0.000 H 
ATOM    137  H39 UNL A   1      18.427  50.614  -3.213  1.00  0.00    +0.000 H 
ATOM    138  H40 UNL A   1      13.253  50.571   4.293  1.00  0.00    +0.000 H 
ATOM    139  H41 UNL A   1      13.858  53.071   4.320  1.00  0.00    +0.000 H 
ATOM     36  C29 UNL A   1      14.222  54.088   1.579  1.00  0.00    +0.000 C 
ATOM     37  C30 UNL A   1      13.856  52.751   2.082  1.00  0.00    +0.000 C 
ATOM     38  N6  UNL A   1      13.712  51.713   1.329  1.00  0.00    +0.000 N 
ATOM     39  C31 UNL A   1      13.217  50.694   2.105  1.00  0.00    +0.000 C 
ATOM     40  C32 UNL A   1      12.624  49.634   1.487  1.00  0.00    +0.000 C 
ATOM     52  C39 UNL A   1      12.948  49.611   0.056  1.00  0.00    +0.000 C 
ATOM     53  C40 UNL A   1      12.263  49.873  -1.119  1.00  0.00    +0.000 C 
ATOM     54  C41 UNL A   1      13.214  49.925  -2.184  1.00  0.00    +0.000 C 
ATOM     55  C42 UNL A   1      14.469  49.685  -1.656  1.00  0.00    +0.000 C 
ATOM     56  N7  UNL A   1      14.280  49.477  -0.305  1.00  0.00    +0.000 N 
ATOM     57  C43 UNL A   1      15.821  49.684  -2.185  1.00  0.00    +0.000 C 
ATOM     69  C50 UNL A   1      16.366  50.894  -2.492  1.00  0.00    +0.000 C 
ATOM     70  N8  UNL A   1      15.692  52.070  -2.310  1.00  0.00    +0.000 N 
ATOM     71  C51 UNL A   1      16.499  53.065  -2.548  1.00  0.00    +0.000 C 
ATOM     72  C52 UNL A   1      16.170  54.511  -2.259  1.00  0.00    +0.000 C 
ATOM     84  C59 UNL A   1      14.919  54.731  -1.762  1.00  0.00    +0.000 C 
ATOM     85  C60 UNL A   1      13.776  53.859  -1.933  1.00  0.00    +0.000 C 
ATOM     86  C61 UNL A   1      13.294  53.594  -0.712  1.00  0.00    +0.000 C 
ATOM     87  C62 UNL A   1      14.043  54.378   0.267  1.00  0.00    +0.000 C 
ATOM     88  N9  UNL A   1      14.713  55.369  -0.497  1.00  0.00    +0.000 N 
ATOM     89  C63 UNL A   1      17.811  52.617  -3.022  1.00  0.00    +0.000 C 
ATOM     90  C64 UNL A   1      17.682  51.281  -2.959  1.00  0.00    +0.000 C 
ATOM     91  C65 UNL A   1      13.383  51.163   3.458  1.00  0.00    +0.000 C 
ATOM     92  C66 UNL A   1      13.724  52.454   3.503  1.00  0.00    +0.000 C 
ENDROOT
BRANCH   36   35
ATOM     33  C26 UNL A   1      14.284  56.675   4.257  1.00  0.00    +0.000 C 
ATOM     34  C27 UNL A   1      13.876  56.062   3.079  1.00  0.00    +0.000 C 
ATOM    129  H31 UNL A   1      12.971  56.304   2.646  1.00  0.00    +0.000 H 
ATOM     35  C28 UNL A   1      14.715  55.114   2.493  1.00  0.00    +0.000 C 
ATOM    140  H42 UNL A   1      16.708  54.406   2.360  1.00  0.00    +0.000 H 
ATOM    141  H43 UNL A   1      17.485  55.669   4.295  1.00  0.00    +0.000 H 
ATOM    128  H30 UNL A   1      13.678  57.361   4.733  1.00  0.00    +0.000 H 
ATOM     93  C67 UNL A   1      16.053  54.993   2.900  1.00  0.00    +0.000 C 
ATOM     94  C68 UNL A   1      16.489  55.667   4.026  1.00  0.00    +0.000 C 
ATOM     32  C25 UNL A   1      15.535  56.341   4.782  1.00  0.00    +0.000 C 
BRANCH   32   30
ATOM     30  C24 UNL A   1      15.646  56.281   6.259  1.00  0.00    +0.000 C 
ATOM     31  O2  UNL A   1      16.198  57.165   6.871  1.00  0.00    +0.000 O 
BRANCH   30   29
ATOM     29  N5  UNL A   1      15.010  55.208   6.887  1.00  0.00    +0.000 N 
ATOM    127  H29 UNL A   1      14.780  54.444   6.311  1.00  0.00    +0.000 H 
BRANCH   29   28
ATOM     28  C23 UNL A   1      14.642  55.082   8.307  1.00  0.00    +0.000 C 
ATOM    125  H27 UNL A   1      14.953  54.115   8.643  1.00  0.00    +0.000 H 
ATOM    126  H28 UNL A   1      15.129  55.890   8.811  1.00  0.00    +0.000 H 
BRANCH   28   27
ATOM     27  C22 UNL A   1      13.152  55.231   8.612  1.00  0.00    +0.000 C 
ATOM    124  H26 UNL A   1      13.125  55.736   9.554  1.00  0.00    +0.000 H 
ATOM    123  H25 UNL A   1      12.726  54.249   8.595  1.00  0.00    +0.000 H 
BRANCH   27   26
ATOM    121  H23 UNL A   1      11.672  56.701   8.308  1.00  0.00    +0.000 H 
ATOM     26  C21 UNL A   1      12.309  56.108   7.686  1.00  0.00    +0.000 C 
ATOM    122  H24 UNL A   1      13.029  56.643   7.103  1.00  0.00    +0.000 H 
BRANCH   26   25
ATOM     25  C20 UNL A   1      11.413  55.422   6.642  1.00  0.00    +0.000 C 
ATOM    119  H21 UNL A   1      10.457  55.308   7.109  1.00  0.00    +0.000 H 
ATOM    120  H22 UNL A   1      11.536  56.076   5.804  1.00  0.00    +0.000 H 
BRANCH   25   24
ATOM    117  H19 UNL A   1      11.367  54.102   4.993  1.00  0.00    +0.000 H 
ATOM    118  H20 UNL A   1      12.785  53.967   6.170  1.00  0.00    +0.000 H 
ATOM     24  C19 UNL A   1      11.734  54.052   5.998  1.00  0.00    +0.000 C 
BRANCH   24   23
ATOM    115  H17 UNL A   1      10.632  52.969   7.441  1.00  0.00    +0.000 H 
ATOM    116  H18 UNL A   1      10.669  52.278   5.774  1.00  0.00    +0.000 H 
ATOM     23  C18 UNL A   1      11.213  52.734   6.574  1.00  0.00    +0.000 C 
BRANCH   23   22
ATOM    114  H16 UNL A   1      13.152  51.985   6.852  1.00  0.00    +0.000 H 
ATOM     22  N4  UNL A   1      12.205  51.743   6.967  1.00  0.00    +0.000 N 
BRANCH   22   20
ATOM     20  C17 UNL A   1      11.931  50.497   7.484  1.00  0.00    +0.000 C 
ATOM     21  O1  UNL A   1      11.455  50.493   8.630  1.00  0.00    +0.000 O 
BRANCH   20   19
ATOM    110  H12 UNL A   1      14.532  47.501   5.291  1.00  0.00    +0.000 H 
ATOM    111  H13 UNL A   1      12.624  48.710   4.795  1.00  0.00    +0.000 H 
ATOM    112  H14 UNL A   1      13.530  49.883   5.570  1.00  0.00    +0.000 H 
ATOM     17  C15 UNL A   1      14.015  47.974   6.100  1.00  0.00    +0.000 C 
ATOM     18  N3  UNL A   1      13.045  48.993   5.680  1.00  0.00    +0.000 N 
ATOM     19  C16 UNL A   1      11.981  49.150   6.702  1.00  0.00    +0.000 C 
ATOM    142  H44 UNL A   1      10.927  47.546   7.692  1.00  0.00    +0.000 H 
ATOM    143  H45 UNL A   1      12.187  48.217   8.654  1.00  0.00    +0.000 H 
ATOM    113  H15 UNL A   1      11.093  49.185   6.105  1.00  0.00    +0.000 H 
ATOM     95  C69 UNL A   1      11.921  47.943   7.654  1.00  0.00    +0.000 C 
ATOM     96  S1  UNL A   1      13.064  46.719   6.970  1.00  0.00    +0.000 S 
BRANCH   17   16
ATOM      6  C6  UNL A   1      16.187  49.441   6.468  1.00  0.00    +0.000 C 
ATOM      7  N1  UNL A   1      16.939  49.837   7.522  1.00  0.00    +0.000 N 
ATOM      8  N2  UNL A   1      16.213  49.485   8.615  1.00  0.00    +0.000 N 
ATOM    109  H11 UNL A   1      14.571  48.159   8.959  1.00  0.00    +0.000 H 
ATOM     15  C13 UNL A   1      15.175  48.665   8.293  1.00  0.00    +0.000 C 
ATOM     16  C14 UNL A   1      15.077  48.632   6.918  1.00  0.00    +0.000 C 
BRANCH    6    5
ATOM     97  C70 UNL A   1      16.342  48.999   3.998  1.00  0.00    +0.000 C 
ATOM      2  C2  UNL A   1      17.017  50.740   2.419  1.00  0.00    +0.000 C 
ATOM      3  C3  UNL A   1      17.225  51.598   3.494  1.00  0.00    +0.000 C 
ATOM      4  C4  UNL A   1      16.969  51.163   4.799  1.00  0.00    +0.000 C 
ATOM     98  C71 UNL A   1      16.593  49.431   2.681  1.00  0.00    +0.000 C 
ATOM    102  H4  UNL A   1      17.570  52.556   3.329  1.00  0.00    +0.000 H 
ATOM      5  C5  UNL A   1      16.496  49.870   5.081  1.00  0.00    +0.000 C 
ATOM    103  H5  UNL A   1      17.132  51.816   5.582  1.00  0.00    +0.000 H 
ATOM    144  H46 UNL A   1      16.039  48.027   4.166  1.00  0.00    +0.000 H 
ATOM    145  H47 UNL A   1      16.464  48.773   1.898  1.00  0.00    +0.000 H 
BRANCH    2    1
ATOM      1  C1  UNL A   1      17.255  51.242   1.025  1.00  0.00    +0.000 C 
ATOM     99  H1  UNL A   1      16.524  51.985   0.783  1.00  0.00    +0.000 H 
ATOM    100  H2  UNL A   1      17.179  50.428   0.334  1.00  0.00    +0.000 H 
ATOM    101  H3  UNL A   1      18.233  51.671   0.963  1.00  0.00    +0.000 H 
ENDBRANCH    2    1
ENDBRANCH    6    5
BRANCH    8    9
ATOM    104  H6  UNL A   1      14.339  50.671  10.031  1.00  0.00    +0.000 H 
ATOM      9  C7  UNL A   1      16.374  50.091   9.883  1.00  0.00    +0.000 C 
ATOM     10  C8  UNL A   1      15.265  50.717  10.485  1.00  0.00    +0.000 C 
ATOM     11  C9  UNL A   1      15.415  51.397  11.692  1.00  0.00    +0.000 C 
ATOM    108  H10 UNL A   1      18.426  49.632  10.083  1.00  0.00    +0.000 H 
ATOM     13  C11 UNL A   1      17.726  50.691  11.780  1.00  0.00    +0.000 C 
ATOM     14  C12 UNL A   1      17.609  50.082  10.525  1.00  0.00    +0.000 C 
ATOM    105  H7  UNL A   1      14.620  51.918  12.098  1.00  0.00    +0.000 H 
ATOM    107  H9  UNL A   1      18.620  50.639  12.291  1.00  0.00    +0.000 H 
ATOM     12  C10 UNL A   1      16.642  51.371  12.347  1.00  0.00    +0.000 C 
ATOM    106  H8  UNL A   1      16.754  51.852  13.252  1.00  0.00    +0.000 H 
ENDBRANCH    8    9
ENDBRANCH   17   16
ENDBRANCH   20   19
ENDBRANCH   22   20
ENDBRANCH   23   22
ENDBRANCH   24   23
ENDBRANCH   25   24
ENDBRANCH   26   25
ENDBRANCH   27   26
ENDBRANCH   28   27
ENDBRANCH   29   28
ENDBRANCH   30   29
ENDBRANCH   32   30
ENDBRANCH   36   35
BRANCH   40   41
ATOM     41  C33 UNL A   1      11.619  48.683   2.120  1.00  0.00    +0.000 C 
ATOM     42  C34 UNL A   1      10.236  48.971   2.052  1.00  0.00    +0.000 C 
ATOM     43  F1  UNL A   1       9.770  50.001   1.331  1.00  0.00    +0.000 F 
ATOM     44  C35 UNL A   1       9.270  48.228   2.742  1.00  0.00    +0.000 C 
ATOM     45  F2  UNL A   1       7.982  48.593   2.682  1.00  0.00    +0.000 F 
ATOM     46  C36 UNL A   1       9.634  47.137   3.502  1.00  0.00    +0.000 C 
ATOM     47  F3  UNL A   1       8.716  46.432   4.175  1.00  0.00    +0.000 F 
ATOM     48  C37 UNL A   1      10.962  46.789   3.566  1.00  0.00    +0.000 C 
ATOM     49  F4  UNL A   1      11.343  45.728   4.293  1.00  0.00    +0.000 F 
ATOM     50  C38 UNL A   1      11.929  47.551   2.904  1.00  0.00    +0.000 C 
ATOM     51  F5  UNL A   1      13.177  47.134   3.111  1.00  0.00    +0.000 F 
ENDBRANCH   40   41
BRANCH   57   58
ATOM     65  C48 UNL A   1      17.166  46.478  -3.751  1.00  0.00    +0.000 C 
ATOM     66  F9  UNL A   1      16.983  45.772  -4.876  1.00  0.00    +0.000 F 
ATOM     67  C49 UNL A   1      16.373  47.595  -3.498  1.00  0.00    +0.000 C 
ATOM     68  F10 UNL A   1      15.405  47.871  -4.385  1.00  0.00    +0.000 F 
ATOM     58  C44 UNL A   1      16.560  48.395  -2.355  1.00  0.00    +0.000 C 
ATOM     59  C45 UNL A   1      17.556  47.985  -1.454  1.00  0.00    +0.000 C 
ATOM     60  F6  UNL A   1      17.807  48.698  -0.346  1.00  0.00    +0.000 F 
ATOM     61  C46 UNL A   1      18.319  46.840  -1.688  1.00  0.00    +0.000 C 
ATOM     62  F7  UNL A   1      19.241  46.461  -0.792  1.00  0.00    +0.000 F 
ATOM     63  C47 UNL A   1      18.136  46.098  -2.843  1.00  0.00    +0.000 C 
ATOM     64  F8  UNL A   1      18.892  45.017  -3.079  1.00  0.00    +0.000 F 
ENDBRANCH   57   58
BRANCH   72   73
ATOM     73  C53 UNL A   1      17.146  55.542  -1.832  1.00  0.00    +0.000 C 
ATOM     74  C54 UNL A   1      17.983  55.256  -0.737  1.00  0.00    +0.000 C 
ATOM     75  F11 UNL A   1      17.667  54.260   0.107  1.00  0.00    +0.000 F 
ATOM     76  C55 UNL A   1      19.201  55.907  -0.571  1.00  0.00    +0.000 C 
ATOM     77  F12 UNL A   1      20.027  55.539   0.419  1.00  0.00    +0.000 F 
ATOM     78  C56 UNL A   1      19.589  56.884  -1.473  1.00  0.00    +0.000 C 
ATOM     79  F13 UNL A   1      20.798  57.450  -1.371  1.00  0.00    +0.000 F 
ATOM     80  C57 UNL A   1      18.736  57.246  -2.506  1.00  0.00    +0.000 C 
ATOM     81  F14 UNL A   1      19.121  58.174  -3.393  1.00  0.00    +0.000 F 
ATOM     82  C58 UNL A   1      17.519  56.586  -2.683  1.00  0.00    +0.000 C 
ATOM     83  F15 UNL A   1      16.770  56.890  -3.752  1.00  0.00    +0.000 F 
ENDBRANCH   72   73
TORSDOF 19
ENDMDL
MODEL 8
REMARK VINA RESULT:     -11.7      2.145      3.746
ROOT
ATOM    130  H32 UNL A   1      45.462  25.978  27.396  1.00  0.00    +0.000 H 
ATOM    131  H33 UNL A   1      46.458  26.848  29.681  1.00  0.00    +0.000 H 
ATOM    132  H34 UNL A   1      43.331  24.289  30.504  1.00  0.00    +0.000 H 
ATOM    133  H35 UNL A   1      44.446  29.637  29.657  1.00  0.00    +0.000 H 
ATOM    134  H36 UNL A   1      43.085  28.117  28.121  1.00  0.00    +0.000 H 
ATOM    135  H37 UNL A   1      40.492  30.714  30.059  1.00  0.00    +0.000 H 
ATOM    136  H38 UNL A   1      43.308  29.149  34.763  1.00  0.00    +0.000 H 
ATOM    137  H39 UNL A   1      44.485  26.858  34.762  1.00  0.00    +0.000 H 
ATOM    138  H40 UNL A   1      40.029  23.719  27.454  1.00  0.00    +0.000 H 
ATOM    139  H41 UNL A   1      38.636  25.854  27.804  1.00  0.00    +0.000 H 
ATOM     36  C29 UNL A   1      40.289  28.006  28.950  1.00  0.00    +0.000 C 
ATOM     37  C30 UNL A   1      40.623  26.625  28.555  1.00  0.00    +0.000 C 
ATOM     38  N6  UNL A   1      41.776  26.079  28.753  1.00  0.00    +0.000 N 
ATOM     39  C31 UNL A   1      41.778  24.860  28.121  1.00  0.00    +0.000 C 
ATOM     40  C32 UNL A   1      42.976  24.268  27.853  1.00  0.00    +0.000 C 
ATOM     52  C39 UNL A   1      44.057  24.894  28.625  1.00  0.00    +0.000 C 
ATOM     53  C40 UNL A   1      45.120  25.734  28.339  1.00  0.00    +0.000 C 
ATOM     54  C41 UNL A   1      45.660  26.201  29.576  1.00  0.00    +0.000 C 
ATOM     55  C42 UNL A   1      44.931  25.638  30.607  1.00  0.00    +0.000 C 
ATOM     56  N7  UNL A   1      43.983  24.836  30.008  1.00  0.00    +0.000 N 
ATOM     57  C43 UNL A   1      44.926  25.774  32.053  1.00  0.00    +0.000 C 
ATOM     69  C50 UNL A   1      44.433  26.936  32.563  1.00  0.00    +0.000 C 
ATOM     70  N8  UNL A   1      43.950  27.940  31.769  1.00  0.00    +0.000 N 
ATOM     71  C51 UNL A   1      43.415  28.859  32.522  1.00  0.00    +0.000 C 
ATOM     72  C52 UNL A   1      42.606  30.020  31.995  1.00  0.00    +0.000 C 
ATOM     84  C59 UNL A   1      42.501  30.084  30.637  1.00  0.00    +0.000 C 
ATOM     85  C60 UNL A   1      43.424  29.493  29.690  1.00  0.00    +0.000 C 
ATOM     86  C61 UNL A   1      42.703  28.726  28.862  1.00  0.00    +0.000 C 
ATOM     87  C62 UNL A   1      41.287  28.892  29.182  1.00  0.00    +0.000 C 
ATOM     88  N9  UNL A   1      41.230  30.067  29.978  1.00  0.00    +0.000 N 
ATOM     89  C63 UNL A   1      43.588  28.580  33.950  1.00  0.00    +0.000 C 
ATOM     90  C64 UNL A   1      44.206  27.387  33.922  1.00  0.00    +0.000 C 
ATOM     91  C65 UNL A   1      40.394  24.622  27.797  1.00  0.00    +0.000 C 
ATOM     92  C66 UNL A   1      39.639  25.707  27.995  1.00  0.00    +0.000 C 
ENDROOT
BRANCH   36   35
ATOM     33  C26 UNL A   1      37.042  29.162  30.361  1.00  0.00    +0.000 C 
ATOM     34  C27 UNL A   1      38.147  28.334  30.203  1.00  0.00    +0.000 C 
ATOM    129  H31 UNL A   1      38.407  27.658  30.937  1.00  0.00    +0.000 H 
ATOM     35  C28 UNL A   1      38.896  28.436  29.030  1.00  0.00    +0.000 C 
ATOM    140  H42 UNL A   1      38.875  29.065  27.007  1.00  0.00    +0.000 H 
ATOM    141  H43 UNL A   1      36.804  30.331  27.224  1.00  0.00    +0.000 H 
ATOM    128  H30 UNL A   1      36.480  29.134  31.226  1.00  0.00    +0.000 H 
ATOM     93  C67 UNL A   1      38.392  29.127  27.916  1.00  0.00    +0.000 C 
ATOM     94  C68 UNL A   1      37.246  29.887  28.044  1.00  0.00    +0.000 C 
ATOM     32  C25 UNL A   1      36.709  30.034  29.320  1.00  0.00    +0.000 C 
BRANCH   32   30
ATOM     30  C24 UNL A   1      36.177  31.362  29.705  1.00  0.00    +0.000 C 
ATOM     31  O2  UNL A   1      35.910  31.608  30.858  1.00  0.00    +0.000 O 
BRANCH   30   29
ATOM     29  N5  UNL A   1      36.091  32.315  28.688  1.00  0.00    +0.000 N 
ATOM    127  H29 UNL A   1      36.939  32.727  28.407  1.00  0.00    +0.000 H 
BRANCH   29   28
ATOM     28  C23 UNL A   1      34.883  32.779  27.986  1.00  0.00    +0.000 C 
ATOM    125  H27 UNL A   1      34.605  33.727  28.398  1.00  0.00    +0.000 H 
ATOM    126  H28 UNL A   1      35.143  32.821  26.948  1.00  0.00    +0.000 H 
BRANCH   28   27
ATOM     27  C22 UNL A   1      33.674  31.851  28.081  1.00  0.00    +0.000 C 
ATOM    124  H26 UNL A   1      32.852  32.452  27.755  1.00  0.00    +0.000 H 
ATOM    123  H25 UNL A   1      33.623  31.499  29.091  1.00  0.00    +0.000 H 
BRANCH   27   26
ATOM    121  H23 UNL A   1      33.791  30.967  26.170  1.00  0.00    +0.000 H 
ATOM     26  C21 UNL A   1      33.631  30.623  27.171  1.00  0.00    +0.000 C 
ATOM    122  H24 UNL A   1      34.380  29.974  27.571  1.00  0.00    +0.000 H 
BRANCH   26   25
ATOM     25  C20 UNL A   1      32.356  29.765  27.157  1.00  0.00    +0.000 C 
ATOM    119  H21 UNL A   1      31.969  29.803  28.155  1.00  0.00    +0.000 H 
ATOM    120  H22 UNL A   1      31.817  30.210  26.346  1.00  0.00    +0.000 H 
BRANCH   25   24
ATOM    117  H19 UNL A   1      32.321  27.714  27.664  1.00  0.00    +0.000 H 
ATOM    118  H20 UNL A   1      31.471  28.235  26.108  1.00  0.00    +0.000 H 
ATOM     24  C19 UNL A   1      32.325  28.272  26.750  1.00  0.00    +0.000 C 
BRANCH   24   23
ATOM    115  H17 UNL A   1      33.965  28.437  25.425  1.00  0.00    +0.000 H 
ATOM    116  H18 UNL A   1      33.966  27.010  26.531  1.00  0.00    +0.000 H 
ATOM     23  C18 UNL A   1      33.407  27.641  25.872  1.00  0.00    +0.000 C 
BRANCH   23   22
ATOM    114  H16 UNL A   1      32.698  25.847  25.048  1.00  0.00    +0.000 H 
ATOM     22  N4  UNL A   1      32.963  26.762  24.800  1.00  0.00    +0.000 N 
BRANCH   22   20
ATOM     20  C17 UNL A   1      32.882  27.101  23.467  1.00  0.00    +0.000 C 
ATOM     21  O1  UNL A   1      32.360  28.201  23.232  1.00  0.00    +0.000 O 
BRANCH   20   19
ATOM    110  H12 UNL A   1      34.904  23.275  22.114  1.00  0.00    +0.000 H 
ATOM    111  H13 UNL A   1      35.434  25.526  22.084  1.00  0.00    +0.000 H 
ATOM    112  H14 UNL A   1      34.792  25.389  23.623  1.00  0.00    +0.000 H 
ATOM     17  C15 UNL A   1      34.121  23.977  22.313  1.00  0.00    +0.000 C 
ATOM     18  N3  UNL A   1      34.591  25.332  22.624  1.00  0.00    +0.000 N 
ATOM     19  C16 UNL A   1      33.551  26.334  22.286  1.00  0.00    +0.000 C 
ATOM    142  H44 UNL A   1      32.395  26.396  20.463  1.00  0.00    +0.000 H 
ATOM    143  H45 UNL A   1      31.535  25.697  21.780  1.00  0.00    +0.000 H 
ATOM    113  H15 UNL A   1      34.117  27.098  21.794  1.00  0.00    +0.000 H 
ATOM     95  C69 UNL A   1      32.499  25.762  21.319  1.00  0.00    +0.000 C 
ATOM     96  S1  UNL A   1      33.116  24.135  20.828  1.00  0.00    +0.000 S 
BRANCH   17   16
ATOM      6  C6  UNL A   1      33.942  22.751  24.651  1.00  0.00    +0.000 C 
ATOM      7  N1  UNL A   1      32.951  22.401  25.505  1.00  0.00    +0.000 N 
ATOM      8  N2  UNL A   1      31.847  23.032  25.029  1.00  0.00    +0.000 N 
ATOM    109  H11 UNL A   1      31.330  23.946  23.165  1.00  0.00    +0.000 H 
ATOM     15  C13 UNL A   1      32.052  23.546  23.785  1.00  0.00    +0.000 C 
ATOM     16  C14 UNL A   1      33.397  23.435  23.502  1.00  0.00    +0.000 C 
BRANCH    6    5
ATOM     97  C70 UNL A   1      36.237  23.511  25.343  1.00  0.00    +0.000 C 
ATOM      2  C2  UNL A   1      38.086  21.935  25.620  1.00  0.00    +0.000 C 
ATOM      3  C3  UNL A   1      37.246  20.914  25.186  1.00  0.00    +0.000 C 
ATOM      4  C4  UNL A   1      35.914  21.191  24.860  1.00  0.00    +0.000 C 
ATOM     98  C71 UNL A   1      37.577  23.238  25.677  1.00  0.00    +0.000 C 
ATOM    102  H4  UNL A   1      37.606  19.951  25.102  1.00  0.00    +0.000 H 
ATOM      5  C5  UNL A   1      35.370  22.484  24.958  1.00  0.00    +0.000 C 
ATOM    103  H5  UNL A   1      35.309  20.419  24.538  1.00  0.00    +0.000 H 
ATOM    144  H46 UNL A   1      35.889  24.482  25.384  1.00  0.00    +0.000 H 
ATOM    145  H47 UNL A   1      38.196  24.011  25.967  1.00  0.00    +0.000 H 
BRANCH    2    1
ATOM      1  C1  UNL A   1      39.498  21.607  26.007  1.00  0.00    +0.000 C 
ATOM     99  H1  UNL A   1      39.995  21.139  25.182  1.00  0.00    +0.000 H 
ATOM    100  H2  UNL A   1      39.493  20.942  26.845  1.00  0.00    +0.000 H 
ATOM    101  H3  UNL A   1      40.014  22.507  26.270  1.00  0.00    +0.000 H 
ENDBRANCH    2    1
ENDBRANCH    6    5
BRANCH    8    9
ATOM    104  H6  UNL A   1      30.613  25.351  25.197  1.00  0.00    +0.000 H 
ATOM      9  C7  UNL A   1      30.716  23.327  25.827  1.00  0.00    +0.000 C 
ATOM     10  C8  UNL A   1      30.204  24.639  25.824  1.00  0.00    +0.000 C 
ATOM     11  C9  UNL A   1      29.146  24.979  26.666  1.00  0.00    +0.000 C 
ATOM    108  H10 UNL A   1      30.500  21.382  26.623  1.00  0.00    +0.000 H 
ATOM     13  C11 UNL A   1      29.004  22.675  27.385  1.00  0.00    +0.000 C 
ATOM     14  C12 UNL A   1      30.122  22.343  26.612  1.00  0.00    +0.000 C 
ATOM    105  H7  UNL A   1      28.817  25.957  26.719  1.00  0.00    +0.000 H 
ATOM    107  H9  UNL A   1      28.520  21.940  27.924  1.00  0.00    +0.000 H 
ATOM     12  C10 UNL A   1      28.537  23.992  27.435  1.00  0.00    +0.000 C 
ATOM    106  H8  UNL A   1      27.738  24.232  28.042  1.00  0.00    +0.000 H 
ENDBRANCH    8    9
ENDBRANCH   17   16
ENDBRANCH   20   19
ENDBRANCH   22   20
ENDBRANCH   23   22
ENDBRANCH   24   23
ENDBRANCH   25   24
ENDBRANCH   26   25
ENDBRANCH   27   26
ENDBRANCH   28   27
ENDBRANCH   29   28
ENDBRANCH   30   29
ENDBRANCH   32   30
ENDBRANCH   36   35
BRANCH   40   41
ATOM     41  C33 UNL A   1      43.230  23.218  26.781  1.00  0.00    +0.000 C 
ATOM     42  C34 UNL A   1      42.904  21.864  27.028  1.00  0.00    +0.000 C 
ATOM     43  F1  UNL A   1      42.256  21.492  28.141  1.00  0.00    +0.000 F 
ATOM     44  C35 UNL A   1      43.252  20.828  26.153  1.00  0.00    +0.000 C 
ATOM     45  F2  UNL A   1      42.966  19.559  26.479  1.00  0.00    +0.000 F 
ATOM     46  C36 UNL A   1      43.906  21.096  24.971  1.00  0.00    +0.000 C 
ATOM     47  F3  UNL A   1      44.254  20.106  24.138  1.00  0.00    +0.000 F 
ATOM     48  C37 UNL A   1      44.208  22.401  24.663  1.00  0.00    +0.000 C 
ATOM     49  F4  UNL A   1      44.839  22.692  23.516  1.00  0.00    +0.000 F 
ATOM     50  C38 UNL A   1      43.890  23.432  25.552  1.00  0.00    +0.000 C 
ATOM     51  F5  UNL A   1      44.302  24.634  25.151  1.00  0.00    +0.000 F 
ENDBRANCH   40   41
BRANCH   57   58
ATOM     65  C48 UNL A   1      47.169  23.740  34.370  1.00  0.00    +0.000 C 
ATOM     66  F9  UNL A   1      48.406  23.828  34.881  1.00  0.00    +0.000 F 
ATOM     67  C49 UNL A   1      46.736  24.683  33.441  1.00  0.00    +0.000 C 
ATOM     68  F10 UNL A   1      47.624  25.609  33.050  1.00  0.00    +0.000 F 
ATOM     58  C44 UNL A   1      45.431  24.660  32.913  1.00  0.00    +0.000 C 
ATOM     59  C45 UNL A   1      44.599  23.611  33.335  1.00  0.00    +0.000 C 
ATOM     60  F6  UNL A   1      43.336  23.523  32.891  1.00  0.00    +0.000 F 
ATOM     61  C46 UNL A   1      45.050  22.642  34.232  1.00  0.00    +0.000 C 
ATOM     62  F7  UNL A   1      44.238  21.638  34.591  1.00  0.00    +0.000 F 
ATOM     63  C47 UNL A   1      46.327  22.717  34.763  1.00  0.00    +0.000 C 
ATOM     64  F8  UNL A   1      46.746  21.803  35.649  1.00  0.00    +0.000 F 
ENDBRANCH   57   58
BRANCH   72   73
ATOM     73  C53 UNL A   1      41.454  30.645  32.688  1.00  0.00    +0.000 C 
ATOM     74  C54 UNL A   1      41.391  32.051  32.744  1.00  0.00    +0.000 C 
ATOM     75  F11 UNL A   1      42.494  32.781  32.513  1.00  0.00    +0.000 F 
ATOM     76  C55 UNL A   1      40.180  32.712  32.922  1.00  0.00    +0.000 C 
ATOM     77  F12 UNL A   1      40.134  34.051  32.863  1.00  0.00    +0.000 F 
ATOM     78  C56 UNL A   1      39.014  31.983  33.084  1.00  0.00    +0.000 C 
ATOM     79  F13 UNL A   1      37.834  32.612  33.165  1.00  0.00    +0.000 F 
ATOM     80  C57 UNL A   1      39.068  30.597  33.125  1.00  0.00    +0.000 C 
ATOM     81  F14 UNL A   1      37.936  29.891  33.258  1.00  0.00    +0.000 F 
ATOM     82  C58 UNL A   1      40.278  29.930  32.935  1.00  0.00    +0.000 C 
ATOM     83  F15 UNL A   1      40.275  28.590  32.875  1.00  0.00    +0.000 F 
ENDBRANCH   72   73
TORSDOF 19
ENDMDL
MODEL 9
REMARK VINA RESULT:     -11.7     23.424     28.820
ROOT
ATOM    130  H32 UNL A   1      52.767  14.428   6.522  1.00  0.00    +0.000 H 
ATOM    131  H33 UNL A   1      50.929  15.409   8.142  1.00  0.00    +0.000 H 
ATOM    132  H34 UNL A   1      51.847  18.268   5.317  1.00  0.00    +0.000 H 
ATOM    133  H35 UNL A   1      53.294  16.544  10.366  1.00  0.00    +0.000 H 
ATOM    134  H36 UNL A   1      54.725  16.406   8.255  1.00  0.00    +0.000 H 
ATOM    135  H37 UNL A   1      56.242  19.399  10.697  1.00  0.00    +0.000 H 
ATOM    136  H38 UNL A   1      50.820  21.133  11.018  1.00  0.00    +0.000 H 
ATOM    137  H39 UNL A   1      49.232  20.501   9.091  1.00  0.00    +0.000 H 
ATOM    138  H40 UNL A   1      55.912  18.231   3.318  1.00  0.00    +0.000 H 
ATOM    139  H41 UNL A   1      57.391  19.276   5.145  1.00  0.00    +0.000 H 
ATOM     36  C29 UNL A   1      56.193  18.888   7.809  1.00  0.00    +0.000 C 
ATOM     37  C30 UNL A   1      55.749  18.463   6.468  1.00  0.00    +0.000 C 
ATOM     38  N6  UNL A   1      54.621  17.881   6.235  1.00  0.00    +0.000 N 
ATOM     39  C31 UNL A   1      54.612  17.489   4.920  1.00  0.00    +0.000 C 
ATOM     40  C32 UNL A   1      53.723  16.533   4.530  1.00  0.00    +0.000 C 
ATOM     52  C39 UNL A   1      52.674  16.348   5.539  1.00  0.00    +0.000 C 
ATOM     53  C40 UNL A   1      52.355  15.373   6.470  1.00  0.00    +0.000 C 
ATOM     54  C41 UNL A   1      51.358  15.903   7.345  1.00  0.00    +0.000 C 
ATOM     55  C42 UNL A   1      51.067  17.192   6.937  1.00  0.00    +0.000 C 
ATOM     56  N7  UNL A   1      51.859  17.430   5.833  1.00  0.00    +0.000 N 
ATOM     57  C43 UNL A   1      50.227  18.263   7.444  1.00  0.00    +0.000 C 
ATOM     69  C50 UNL A   1      50.646  18.894   8.577  1.00  0.00    +0.000 C 
ATOM     70  N8  UNL A   1      51.805  18.557   9.219  1.00  0.00    +0.000 N 
ATOM     71  C51 UNL A   1      52.025  19.413  10.178  1.00  0.00    +0.000 C 
ATOM     72  C52 UNL A   1      53.307  19.481  10.974  1.00  0.00    +0.000 C 
ATOM     84  C59 UNL A   1      54.236  18.536  10.656  1.00  0.00    +0.000 C 
ATOM     85  C60 UNL A   1      53.963  17.257  10.034  1.00  0.00    +0.000 C 
ATOM     86  C61 UNL A   1      54.742  17.171   8.948  1.00  0.00    +0.000 C 
ATOM     87  C62 UNL A   1      55.619  18.339   8.906  1.00  0.00    +0.000 C 
ATOM     88  N9  UNL A   1      55.551  18.891  10.213  1.00  0.00    +0.000 N 
ATOM     89  C63 UNL A   1      50.933  20.379  10.323  1.00  0.00    +0.000 C 
ATOM     90  C64 UNL A   1      50.120  20.026   9.314  1.00  0.00    +0.000 C 
ATOM     91  C65 UNL A   1      55.731  18.184   4.333  1.00  0.00    +0.000 C 
ATOM     92  C66 UNL A   1      56.503  18.761   5.258  1.00  0.00    +0.000 C 
ENDROOT
BRANCH   36   35
ATOM     33  C26 UNL A   1      59.628  20.329   7.829  1.00  0.00    +0.000 C 
ATOM     34  C27 UNL A   1      58.607  19.448   8.166  1.00  0.00    +0.000 C 
ATOM    129  H31 UNL A   1      58.822  18.520   8.562  1.00  0.00    +0.000 H 
ATOM     35  C28 UNL A   1      57.286  19.845   7.957  1.00  0.00    +0.000 C 
ATOM    140  H42 UNL A   1      55.991  21.504   7.706  1.00  0.00    +0.000 H 
ATOM    141  H43 UNL A   1      57.798  23.100   7.345  1.00  0.00    +0.000 H 
ATOM    128  H30 UNL A   1      60.617  20.059   7.943  1.00  0.00    +0.000 H 
ATOM     93  C67 UNL A   1      56.974  21.190   7.702  1.00  0.00    +0.000 C 
ATOM     94  C68 UNL A   1      57.990  22.091   7.447  1.00  0.00    +0.000 C 
ATOM     32  C25 UNL A   1      59.283  21.587   7.330  1.00  0.00    +0.000 C 
BRANCH   32   30
ATOM     30  C24 UNL A   1      60.160  22.154   6.278  1.00  0.00    +0.000 C 
ATOM     31  O2  UNL A   1      60.429  23.332   6.270  1.00  0.00    +0.000 O 
BRANCH   30   29
ATOM     29  N5  UNL A   1      60.712  21.244   5.374  1.00  0.00    +0.000 N 
ATOM    127  H29 UNL A   1      61.675  21.067   5.471  1.00  0.00    +0.000 H 
BRANCH   29   28
ATOM     28  C23 UNL A   1      60.027  20.518   4.292  1.00  0.00    +0.000 C 
ATOM    125  H27 UNL A   1      60.728  20.375   3.496  1.00  0.00    +0.000 H 
ATOM    126  H28 UNL A   1      59.677  19.604   4.726  1.00  0.00    +0.000 H 
BRANCH   28   27
ATOM     27  C22 UNL A   1      58.794  21.212   3.717  1.00  0.00    +0.000 C 
ATOM    124  H26 UNL A   1      58.343  21.692   4.560  1.00  0.00    +0.000 H 
ATOM    123  H25 UNL A   1      58.203  20.461   3.235  1.00  0.00    +0.000 H 
BRANCH   27   26
ATOM    121  H23 UNL A   1      60.057  22.526   2.655  1.00  0.00    +0.000 H 
ATOM     26  C21 UNL A   1      59.004  22.341   2.707  1.00  0.00    +0.000 C 
ATOM    122  H24 UNL A   1      58.544  21.979   1.811  1.00  0.00    +0.000 H 
BRANCH   26   25
ATOM     25  C20 UNL A   1      58.318  23.692   2.964  1.00  0.00    +0.000 C 
ATOM    119  H21 UNL A   1      59.089  24.430   2.886  1.00  0.00    +0.000 H 
ATOM    120  H22 UNL A   1      57.522  23.657   2.250  1.00  0.00    +0.000 H 
BRANCH   25   24
ATOM    117  H19 UNL A   1      56.583  23.559   4.163  1.00  0.00    +0.000 H 
ATOM    118  H20 UNL A   1      58.215  23.698   5.017  1.00  0.00    +0.000 H 
ATOM     24  C19 UNL A   1      57.539  24.031   4.259  1.00  0.00    +0.000 C 
BRANCH   24   23
ATOM    115  H17 UNL A   1      58.201  25.920   4.940  1.00  0.00    +0.000 H 
ATOM    116  H18 UNL A   1      56.749  25.916   3.867  1.00  0.00    +0.000 H 
ATOM     23  C18 UNL A   1      57.261  25.470   4.694  1.00  0.00    +0.000 C 
BRANCH   23   22
ATOM    114  H16 UNL A   1      55.919  24.862   6.186  1.00  0.00    +0.000 H 
ATOM     22  N4  UNL A   1      56.375  25.660   5.832  1.00  0.00    +0.000 N 
BRANCH   22   20
ATOM     20  C17 UNL A   1      56.117  26.860   6.456  1.00  0.00    +0.000 C 
ATOM     21  O1  UNL A   1      55.208  27.536   5.950  1.00  0.00    +0.000 O 
BRANCH   20   19
ATOM    110  H12 UNL A   1      55.410  29.166  10.295  1.00  0.00    +0.000 H 
ATOM    111  H13 UNL A   1      56.983  29.218   8.600  1.00  0.00    +0.000 H 
ATOM    112  H14 UNL A   1      55.582  29.041   7.704  1.00  0.00    +0.000 H 
ATOM     17  C15 UNL A   1      55.441  28.341   9.615  1.00  0.00    +0.000 C 
ATOM     18  N3  UNL A   1      56.200  28.601   8.386  1.00  0.00    +0.000 N 
ATOM     19  C16 UNL A   1      56.717  27.333   7.816  1.00  0.00    +0.000 C 
ATOM    142  H44 UNL A   1      57.690  25.751   8.917  1.00  0.00    +0.000 H 
ATOM    143  H45 UNL A   1      56.033  25.420   8.590  1.00  0.00    +0.000 H 
ATOM    113  H15 UNL A   1      57.723  27.590   7.557  1.00  0.00    +0.000 H 
ATOM     95  C69 UNL A   1      56.719  26.198   8.854  1.00  0.00    +0.000 C 
ATOM     96  S1  UNL A   1      56.279  26.972  10.429  1.00  0.00    +0.000 S 
BRANCH   17   16
ATOM      6  C6  UNL A   1      53.113  28.904   8.490  1.00  0.00    +0.000 C 
ATOM      7  N1  UNL A   1      51.898  28.316   8.396  1.00  0.00    +0.000 N 
ATOM      8  N2  UNL A   1      52.084  27.062   8.884  1.00  0.00    +0.000 N 
ATOM    109  H11 UNL A   1      53.596  26.126  10.072  1.00  0.00    +0.000 H 
ATOM     15  C13 UNL A   1      53.287  26.933   9.508  1.00  0.00    +0.000 C 
ATOM     16  C14 UNL A   1      54.017  28.074   9.252  1.00  0.00    +0.000 C 
BRANCH    6    5
ATOM     97  C70 UNL A   1      53.739  31.338   8.562  1.00  0.00    +0.000 C 
ATOM      2  C2  UNL A   1      54.053  32.648   6.521  1.00  0.00    +0.000 C 
ATOM      3  C3  UNL A   1      53.673  31.534   5.779  1.00  0.00    +0.000 C 
ATOM      4  C4  UNL A   1      53.356  30.335   6.426  1.00  0.00    +0.000 C 
ATOM     98  C71 UNL A   1      54.064  32.548   7.918  1.00  0.00    +0.000 C 
ATOM    102  H4  UNL A   1      53.624  31.593   4.750  1.00  0.00    +0.000 H 
ATOM      5  C5  UNL A   1      53.409  30.198   7.824  1.00  0.00    +0.000 C 
ATOM    103  H5  UNL A   1      53.075  29.522   5.855  1.00  0.00    +0.000 H 
ATOM    144  H46 UNL A   1      53.746  31.293   9.593  1.00  0.00    +0.000 H 
ATOM    145  H47 UNL A   1      54.313  33.374   8.483  1.00  0.00    +0.000 H 
BRANCH    2    1
ATOM      1  C1  UNL A   1      54.432  33.911   5.805  1.00  0.00    +0.000 C 
ATOM     99  H1  UNL A   1      54.667  34.671   6.520  1.00  0.00    +0.000 H 
ATOM    100  H2  UNL A   1      53.614  34.235   5.195  1.00  0.00    +0.000 H 
ATOM    101  H3  UNL A   1      55.286  33.727   5.186  1.00  0.00    +0.000 H 
ENDBRANCH    2    1
ENDBRANCH    6    5
BRANCH    8    9
ATOM    104  H6  UNL A   1      50.559  26.831   6.751  1.00  0.00    +0.000 H 
ATOM      9  C7  UNL A   1      51.240  25.971   8.567  1.00  0.00    +0.000 C 
ATOM     10  C8  UNL A   1      50.460  26.030   7.395  1.00  0.00    +0.000 C 
ATOM     11  C9  UNL A   1      49.557  25.010   7.104  1.00  0.00    +0.000 C 
ATOM    108  H10 UNL A   1      51.733  24.816  10.265  1.00  0.00    +0.000 H 
ATOM     13  C11 UNL A   1      50.325  23.800   9.052  1.00  0.00    +0.000 C 
ATOM     14  C12 UNL A   1      51.170  24.859   9.402  1.00  0.00    +0.000 C 
ATOM    105  H7  UNL A   1      48.933  25.086   6.284  1.00  0.00    +0.000 H 
ATOM    107  H9  UNL A   1      50.310  22.947   9.631  1.00  0.00    +0.000 H 
ATOM     12  C10 UNL A   1      49.501  23.888   7.924  1.00  0.00    +0.000 C 
ATOM    106  H8  UNL A   1      48.851  23.118   7.701  1.00  0.00    +0.000 H 
ENDBRANCH    8    9
ENDBRANCH   17   16
ENDBRANCH   20   19
ENDBRANCH   22   20
ENDBRANCH   23   22
ENDBRANCH   24   23
ENDBRANCH   25   24
ENDBRANCH   26   25
ENDBRANCH   27   26
ENDBRANCH   28   27
ENDBRANCH   29   28
ENDBRANCH   30   29
ENDBRANCH   32   30
ENDBRANCH   36   35
BRANCH   40   41
ATOM     41  C33 UNL A   1      53.859  15.636   3.309  1.00  0.00    +0.000 C 
ATOM     42  C34 UNL A   1      52.702  15.199   2.622  1.00  0.00    +0.000 C 
ATOM     43  F1  UNL A   1      51.483  15.656   2.942  1.00  0.00    +0.000 F 
ATOM     44  C35 UNL A   1      52.743  14.251   1.591  1.00  0.00    +0.000 C 
ATOM     45  F2  UNL A   1      51.601  13.836   1.025  1.00  0.00    +0.000 F 
ATOM     46  C36 UNL A   1      53.944  13.725   1.168  1.00  0.00    +0.000 C 
ATOM     47  F3  UNL A   1      53.987  12.809   0.192  1.00  0.00    +0.000 F 
ATOM     48  C37 UNL A   1      55.102  14.150   1.774  1.00  0.00    +0.000 C 
ATOM     49  F4  UNL A   1      56.286  13.659   1.378  1.00  0.00    +0.000 F 
ATOM     50  C38 UNL A   1      55.058  15.070   2.825  1.00  0.00    +0.000 C 
ATOM     51  F5  UNL A   1      56.251  15.337   3.357  1.00  0.00    +0.000 F 
ENDBRANCH   40   41
BRANCH   57   58
ATOM     65  C48 UNL A   1      47.710  20.269   5.401  1.00  0.00    +0.000 C 
ATOM     66  F9  UNL A   1      47.601  21.511   4.905  1.00  0.00    +0.000 F 
ATOM     67  C49 UNL A   1      48.792  19.943   6.215  1.00  0.00    +0.000 C 
ATOM     68  F10 UNL A   1      49.650  20.929   6.516  1.00  0.00    +0.000 F 
ATOM     58  C44 UNL A   1      48.975  18.641   6.720  1.00  0.00    +0.000 C 
ATOM     59  C45 UNL A   1      47.987  17.697   6.401  1.00  0.00    +0.000 C 
ATOM     60  F6  UNL A   1      48.092  16.430   6.830  1.00  0.00    +0.000 F 
ATOM     61  C46 UNL A   1      46.881  18.038   5.622  1.00  0.00    +0.000 C 
ATOM     62  F7  UNL A   1      45.940  17.119   5.362  1.00  0.00    +0.000 F 
ATOM     63  C47 UNL A   1      46.752  19.318   5.108  1.00  0.00    +0.000 C 
ATOM     64  F8  UNL A   1      45.703  19.634   4.335  1.00  0.00    +0.000 F 
ENDBRANCH   57   58
BRANCH   72   73
ATOM     73  C53 UNL A   1      53.913  20.721  11.515  1.00  0.00    +0.000 C 
ATOM     74  C54 UNL A   1      54.142  21.793  10.630  1.00  0.00    +0.000 C 
ATOM     75  F11 UNL A   1      54.157  21.577   9.305  1.00  0.00    +0.000 F 
ATOM     76  C55 UNL A   1      54.238  23.102  11.093  1.00  0.00    +0.000 C 
ATOM     77  F12 UNL A   1      54.347  24.113  10.220  1.00  0.00    +0.000 F 
ATOM     78  C56 UNL A   1      54.146  23.361  12.450  1.00  0.00    +0.000 C 
ATOM     79  F13 UNL A   1      54.147  24.626  12.893  1.00  0.00    +0.000 F 
ATOM     80  C57 UNL A   1      54.014  22.310  13.346  1.00  0.00    +0.000 C 
ATOM     81  F14 UNL A   1      53.900  22.563  14.657  1.00  0.00    +0.000 F 
ATOM     82  C58 UNL A   1      53.904  20.998  12.884  1.00  0.00    +0.000 C 
ATOM     83  F15 UNL A   1      53.672  20.019  13.772  1.00  0.00    +0.000 F 
ENDBRANCH   72   73
TORSDOF 19
ENDMDL
MODEL 10
REMARK VINA RESULT:     -11.7     23.075     29.419
ROOT
ATOM    130  H32 UNL A   1      18.576  38.052  45.918  1.00  0.00    +0.000 H 
ATOM    131  H33 UNL A   1      19.632  36.658  43.941  1.00  0.00    +0.000 H 
ATOM    132  H34 UNL A   1      19.267  34.198  47.229  1.00  0.00    +0.000 H 
ATOM    133  H35 UNL A   1      22.823  37.640  44.767  1.00  0.00    +0.000 H 
ATOM    134  H36 UNL A   1      21.667  38.017  47.012  1.00  0.00    +0.000 H 
ATOM    135  H37 UNL A   1      25.657  37.110  47.706  1.00  0.00    +0.000 H 
ATOM    136  H38 UNL A   1      24.741  32.795  44.094  1.00  0.00    +0.000 H 
ATOM    137  H39 UNL A   1      22.331  31.924  43.838  1.00  0.00    +0.000 H 
ATOM    138  H40 UNL A   1      19.245  35.993  51.389  1.00  0.00    +0.000 H 
ATOM    139  H41 UNL A   1      21.749  36.452  51.762  1.00  0.00    +0.000 H 
ATOM     36  C29 UNL A   1      23.150  36.761  49.190  1.00  0.00    +0.000 C 
ATOM     37  C30 UNL A   1      21.731  36.511  49.503  1.00  0.00    +0.000 C 
ATOM     38  N6  UNL A   1      20.826  36.284  48.611  1.00  0.00    +0.000 N 
ATOM     39  C31 UNL A   1      19.608  36.257  49.244  1.00  0.00    +0.000 C 
ATOM     40  C32 UNL A   1      18.481  36.420  48.495  1.00  0.00    +0.000 C 
ATOM     52  C39 UNL A   1      18.768  36.234  47.067  1.00  0.00    +0.000 C 
ATOM     53  C40 UNL A   1      18.865  37.062  45.961  1.00  0.00    +0.000 C 
ATOM     54  C41 UNL A   1      19.434  36.306  44.890  1.00  0.00    +0.000 C 
ATOM     55  C42 UNL A   1      19.670  35.022  45.346  1.00  0.00    +0.000 C 
ATOM     56  N7  UNL A   1      19.240  34.998  46.656  1.00  0.00    +0.000 N 
ATOM     57  C43 UNL A   1      20.291  33.834  44.787  1.00  0.00    +0.000 C 
ATOM     69  C50 UNL A   1      21.646  33.854  44.645  1.00  0.00    +0.000 C 
ATOM     70  N8  UNL A   1      22.407  34.929  45.012  1.00  0.00    +0.000 N 
ATOM     71  C51 UNL A   1      23.668  34.616  44.901  1.00  0.00    +0.000 C 
ATOM     72  C52 UNL A   1      24.802  35.477  45.405  1.00  0.00    +0.000 C 
ATOM     84  C59 UNL A   1      24.425  36.664  45.960  1.00  0.00    +0.000 C 
ATOM     85  C60 UNL A   1      23.186  37.366  45.694  1.00  0.00    +0.000 C 
ATOM     86  C61 UNL A   1      22.600  37.596  46.876  1.00  0.00    +0.000 C 
ATOM     87  C62 UNL A   1      23.497  37.150  47.939  1.00  0.00    +0.000 C 
ATOM     88  N9  UNL A   1      24.762  37.004  47.309  1.00  0.00    +0.000 N 
ATOM     89  C63 UNL A   1      23.862  33.279  44.332  1.00  0.00    +0.000 C 
ATOM     90  C64 UNL A   1      22.595  32.851  44.204  1.00  0.00    +0.000 C 
ATOM     91  C65 UNL A   1      19.935  36.184  50.646  1.00  0.00    +0.000 C 
ATOM     92  C66 UNL A   1      21.236  36.392  50.868  1.00  0.00    +0.000 C 
ENDROOT
BRANCH   36   35
ATOM     33  C26 UNL A   1      25.997  35.444  51.198  1.00  0.00    +0.000 C 
ATOM     34  C27 UNL A   1      24.751  35.433  50.583  1.00  0.00    +0.000 C 
ATOM    129  H31 UNL A   1      24.267  34.542  50.391  1.00  0.00    +0.000 H 
ATOM     35  C28 UNL A   1      24.169  36.651  50.230  1.00  0.00    +0.000 C 
ATOM    140  H42 UNL A   1      24.142  38.736  50.607  1.00  0.00    +0.000 H 
ATOM    141  H43 UNL A   1      26.214  38.721  51.891  1.00  0.00    +0.000 H 
ATOM    128  H30 UNL A   1      26.471  34.563  51.449  1.00  0.00    +0.000 H 
ATOM     93  C67 UNL A   1      24.668  37.859  50.742  1.00  0.00    +0.000 C 
ATOM     94  C68 UNL A   1      25.868  37.866  51.428  1.00  0.00    +0.000 C 
ATOM     32  C25 UNL A   1      26.593  36.679  51.470  1.00  0.00    +0.000 C 
BRANCH   32   30
ATOM     30  C24 UNL A   1      28.067  36.756  51.328  1.00  0.00    +0.000 C 
ATOM     31  O2  UNL A   1      28.566  37.147  50.299  1.00  0.00    +0.000 O 
BRANCH   30   29
ATOM     29  N5  UNL A   1      28.817  36.439  52.462  1.00  0.00    +0.000 N 
ATOM    127  H29 UNL A   1      29.273  35.567  52.451  1.00  0.00    +0.000 H 
BRANCH   29   28
ATOM     28  C23 UNL A   1      29.010  37.253  53.673  1.00  0.00    +0.000 C 
ATOM    125  H27 UNL A   1      28.099  37.231  54.235  1.00  0.00    +0.000 H 
ATOM    126  H28 UNL A   1      29.843  36.822  54.189  1.00  0.00    +0.000 H 
BRANCH   28   27
ATOM     27  C22 UNL A   1      29.376  38.716  53.427  1.00  0.00    +0.000 C 
ATOM    124  H26 UNL A   1      29.587  38.763  52.380  1.00  0.00    +0.000 H 
ATOM    123  H25 UNL A   1      30.192  38.952  54.079  1.00  0.00    +0.000 H 
BRANCH   27   26
ATOM    121  H23 UNL A   1      27.416  39.270  53.973  1.00  0.00    +0.000 H 
ATOM     26  C21 UNL A   1      28.299  39.778  53.645  1.00  0.00    +0.000 C 
ATOM    122  H24 UNL A   1      28.739  40.458  54.344  1.00  0.00    +0.000 H 
BRANCH   26   25
ATOM     25  C20 UNL A   1      27.895  40.667  52.458  1.00  0.00    +0.000 C 
ATOM    119  H21 UNL A   1      28.667  41.404  52.370  1.00  0.00    +0.000 H 
ATOM    120  H22 UNL A   1      27.752  39.934  51.692  1.00  0.00    +0.000 H 
BRANCH   25   24
ATOM    117  H19 UNL A   1      25.860  40.787  51.903  1.00  0.00    +0.000 H 
ATOM    118  H20 UNL A   1      26.406  41.727  53.397  1.00  0.00    +0.000 H 
ATOM     24  C19 UNL A   1      26.559  41.445  52.378  1.00  0.00    +0.000 C 
BRANCH   24   23
ATOM    115  H17 UNL A   1      26.752  43.550  52.339  1.00  0.00    +0.000 H 
ATOM    116  H18 UNL A   1      27.038  42.689  50.779  1.00  0.00    +0.000 H 
ATOM     23  C18 UNL A   1      26.436  42.788  51.658  1.00  0.00    +0.000 C 
BRANCH   23   22
ATOM    114  H16 UNL A   1      24.466  42.434  51.032  1.00  0.00    +0.000 H 
ATOM     22  N4  UNL A   1      25.116  43.160  51.168  1.00  0.00    +0.000 N 
BRANCH   22   20
ATOM     20  C17 UNL A   1      24.701  44.441  50.878  1.00  0.00    +0.000 C 
ATOM     21  O1  UNL A   1      24.715  45.231  51.835  1.00  0.00    +0.000 O 
BRANCH   20   19
ATOM    110  H12 UNL A   1      23.427  43.513  46.627  1.00  0.00    +0.000 H 
ATOM    111  H13 UNL A   1      25.236  44.557  47.621  1.00  0.00    +0.000 H 
ATOM    112  H14 UNL A   1      25.054  43.238  48.635  1.00  0.00    +0.000 H 
ATOM     17  C15 UNL A   1      23.346  43.779  47.660  1.00  0.00    +0.000 C 
ATOM     18  N3  UNL A   1      24.627  44.102  48.301  1.00  0.00    +0.000 N 
ATOM     19  C16 UNL A   1      24.416  45.011  49.455  1.00  0.00    +0.000 C 
ATOM    142  H44 UNL A   1      23.161  46.768  49.473  1.00  0.00    +0.000 H 
ATOM    143  H45 UNL A   1      22.409  45.399  50.196  1.00  0.00    +0.000 H 
ATOM    113  H15 UNL A   1      25.195  45.732  49.325  1.00  0.00    +0.000 H 
ATOM     95  C69 UNL A   1      23.045  45.707  49.392  1.00  0.00    +0.000 C 
ATOM     96  S1  UNL A   1      22.346  45.270  47.781  1.00  0.00    +0.000 S 
BRANCH   17   16
ATOM      6  C6  UNL A   1      23.305  41.243  48.416  1.00  0.00    +0.000 C 
ATOM      7  N1  UNL A   1      22.461  40.433  49.097  1.00  0.00    +0.000 N 
ATOM      8  N2  UNL A   1      21.528  41.270  49.620  1.00  0.00    +0.000 N 
ATOM    109  H11 UNL A   1      20.929  43.284  49.219  1.00  0.00    +0.000 H 
ATOM     15  C13 UNL A   1      21.609  42.520  49.085  1.00  0.00    +0.000 C 
ATOM     16  C14 UNL A   1      22.763  42.579  48.332  1.00  0.00    +0.000 C 
BRANCH    6    5
ATOM     97  C70 UNL A   1      25.678  40.495  48.775  1.00  0.00    +0.000 C 
ATOM      2  C2  UNL A   1      27.089  39.753  46.920  1.00  0.00    +0.000 C 
ATOM      3  C3  UNL A   1      26.054  40.064  46.044  1.00  0.00    +0.000 C 
ATOM      4  C4  UNL A   1      24.842  40.559  46.536  1.00  0.00    +0.000 C 
ATOM     98  C71 UNL A   1      26.900  39.992  48.288  1.00  0.00    +0.000 C 
ATOM    102  H4  UNL A   1      26.182  39.930  45.029  1.00  0.00    +0.000 H 
ATOM      5  C5  UNL A   1      24.613  40.759  47.908  1.00  0.00    +0.000 C 
ATOM    103  H5  UNL A   1      24.089  40.785  45.867  1.00  0.00    +0.000 H 
ATOM    144  H46 UNL A   1      25.567  40.671  49.786  1.00  0.00    +0.000 H 
ATOM    145  H47 UNL A   1      27.668  39.796  48.947  1.00  0.00    +0.000 H 
BRANCH    2    1
ATOM      1  C1  UNL A   1      28.364  39.181  46.375  1.00  0.00    +0.000 C 
ATOM     99  H1  UNL A   1      28.183  38.195  46.001  1.00  0.00    +0.000 H 
ATOM    100  H2  UNL A   1      29.098  39.139  47.153  1.00  0.00    +0.000 H 
ATOM    101  H3  UNL A   1      28.723  39.802  45.581  1.00  0.00    +0.000 H 
ENDBRANCH    2    1
ENDBRANCH    6    5
BRANCH    8    9
ATOM    104  H6  UNL A   1      19.195  42.313  50.250  1.00  0.00    +0.000 H 
ATOM      9  C7  UNL A   1      20.739  40.947  50.749  1.00  0.00    +0.000 C 
ATOM     10  C8  UNL A   1      19.526  41.634  50.953  1.00  0.00    +0.000 C 
ATOM     11  C9  UNL A   1      18.773  41.398  52.102  1.00  0.00    +0.000 C 
ATOM    108  H10 UNL A   1      22.047  39.474  51.512  1.00  0.00    +0.000 H 
ATOM     13  C11 UNL A   1      20.345  39.681  52.757  1.00  0.00    +0.000 C 
ATOM     14  C12 UNL A   1      21.155  39.973  51.653  1.00  0.00    +0.000 C 
ATOM    105  H7  UNL A   1      17.921  41.952  52.289  1.00  0.00    +0.000 H 
ATOM    107  H9  UNL A   1      20.614  38.921  53.400  1.00  0.00    +0.000 H 
ATOM     12  C10 UNL A   1      19.175  40.410  52.995  1.00  0.00    +0.000 C 
ATOM    106  H8  UNL A   1      18.609  40.214  53.836  1.00  0.00    +0.000 H 
ENDBRANCH    8    9
ENDBRANCH   17   16
ENDBRANCH   20   19
ENDBRANCH   22   20
ENDBRANCH   23   22
ENDBRANCH   24   23
ENDBRANCH   25   24
ENDBRANCH   26   25
ENDBRANCH   27   26
ENDBRANCH   28   27
ENDBRANCH   29   28
ENDBRANCH   30   29
ENDBRANCH   32   30
ENDBRANCH   36   35
BRANCH   40   41
ATOM     41  C33 UNL A   1      17.131  36.897  49.009  1.00  0.00    +0.000 C 
ATOM     42  C34 UNL A   1      15.940  36.396  48.435  1.00  0.00    +0.000 C 
ATOM     43  F1  UNL A   1      15.961  35.410  47.528  1.00  0.00    +0.000 F 
ATOM     44  C35 UNL A   1      14.673  36.904  48.749  1.00  0.00    +0.000 C 
ATOM     45  F2  UNL A   1      13.590  36.424  48.122  1.00  0.00    +0.000 F 
ATOM     46  C36 UNL A   1      14.530  37.909  49.682  1.00  0.00    +0.000 C 
ATOM     47  F3  UNL A   1      13.323  38.407  49.976  1.00  0.00    +0.000 F 
ATOM     48  C37 UNL A   1      15.654  38.401  50.301  1.00  0.00    +0.000 C 
ATOM     49  F4  UNL A   1      15.545  39.374  51.217  1.00  0.00    +0.000 F 
ATOM     50  C38 UNL A   1      16.922  37.917  49.963  1.00  0.00    +0.000 C 
ATOM     51  F5  UNL A   1      17.920  38.533  50.595  1.00  0.00    +0.000 F 
ENDBRANCH   40   41
BRANCH   57   58
ATOM     65  C48 UNL A   1      17.839  31.606  42.900  1.00  0.00    +0.000 C 
ATOM     66  F9  UNL A   1      16.985  31.720  41.872  1.00  0.00    +0.000 F 
ATOM     67  C49 UNL A   1      18.512  32.733  43.369  1.00  0.00    +0.000 C 
ATOM     68  F10 UNL A   1      18.212  33.907  42.794  1.00  0.00    +0.000 F 
ATOM     58  C44 UNL A   1      19.453  32.654  44.413  1.00  0.00    +0.000 C 
ATOM     59  C45 UNL A   1      19.648  31.391  44.992  1.00  0.00    +0.000 C 
ATOM     60  F6  UNL A   1      20.537  31.226  45.984  1.00  0.00    +0.000 F 
ATOM     61  C46 UNL A   1      18.940  30.272  44.551  1.00  0.00    +0.000 C 
ATOM     62  F7  UNL A   1      19.129  29.086  45.146  1.00  0.00    +0.000 F 
ATOM     63  C47 UNL A   1      18.050  30.376  43.494  1.00  0.00    +0.000 C 
ATOM     64  F8  UNL A   1      17.395  29.294  43.052  1.00  0.00    +0.000 F 
ENDBRANCH   57   58
BRANCH   72   73
ATOM     73  C53 UNL A   1      26.084  34.971  45.951  1.00  0.00    +0.000 C 
ATOM     74  C54 UNL A   1      27.283  35.514  45.451  1.00  0.00    +0.000 C 
ATOM     75  F11 UNL A   1      27.282  36.182  44.286  1.00  0.00    +0.000 F 
ATOM     76  C55 UNL A   1      28.457  35.476  46.196  1.00  0.00    +0.000 C 
ATOM     77  F12 UNL A   1      29.557  36.095  45.744  1.00  0.00    +0.000 F 
ATOM     78  C56 UNL A   1      28.466  34.862  47.438  1.00  0.00    +0.000 C 
ATOM     79  F13 UNL A   1      29.568  34.901  48.198  1.00  0.00    +0.000 F 
ATOM     80  C57 UNL A   1      27.318  34.240  47.907  1.00  0.00    +0.000 C 
ATOM     81  F14 UNL A   1      27.321  33.666  49.119  1.00  0.00    +0.000 F 
ATOM     82  C58 UNL A   1      26.136  34.287  47.168  1.00  0.00    +0.000 C 
ATOM     83  F15 UNL A   1      25.021  33.765  47.701  1.00  0.00    +0.000 F 
ENDBRANCH   72   73
TORSDOF 19
ENDMDL
