MODEL 1
REMARK VINA RESULT:     -10.2      0.000      0.000
ROOT
ATOM     27  C21 UNL A   1      22.957  35.947  46.799  1.00  0.00    +0.000 C 
ATOM     28  C22 UNL A   1      24.017  37.010  46.792  1.00  0.00    +0.000 C 
ATOM     29  N3  UNL A   1      23.947  38.251  47.204  1.00  0.00    +0.000 N 
ATOM     30  C23 UNL A   1      25.212  38.787  47.005  1.00  0.00    +0.000 C 
ATOM     31  C24 UNL A   1      25.635  40.056  47.218  1.00  0.00    +0.000 C 
ATOM     43  C31 UNL A   1      24.803  41.117  47.725  1.00  0.00    +0.000 C 
ATOM     44  C32 UNL A   1      25.122  42.450  47.912  1.00  0.00    +0.000 C 
ATOM     45  C33 UNL A   1      24.014  43.091  48.478  1.00  0.00    +0.000 C 
ATOM     46  C34 UNL A   1      22.990  42.166  48.605  1.00  0.00    +0.000 C 
ATOM     47  N4  UNL A   1      23.488  40.960  48.138  1.00  0.00    +0.000 N 
ATOM     48  C35 UNL A   1      21.657  42.364  49.116  1.00  0.00    +0.000 C 
ATOM     60  C42 UNL A   1      20.693  41.412  49.160  1.00  0.00    +0.000 C 
ATOM     61  N5  UNL A   1      20.761  40.085  48.761  1.00  0.00    +0.000 N 
ATOM     62  C43 UNL A   1      19.583  39.571  49.019  1.00  0.00    +0.000 C 
ATOM     63  C44 UNL A   1      19.090  38.171  48.782  1.00  0.00    +0.000 C 
ATOM     75  C51 UNL A   1      19.901  37.276  48.186  1.00  0.00    +0.000 C 
ATOM     76  C52 UNL A   1      19.554  35.889  47.893  1.00  0.00    +0.000 C 
ATOM     77  C53 UNL A   1      20.624  35.271  47.370  1.00  0.00    +0.000 C 
ATOM     78  C54 UNL A   1      21.723  36.231  47.258  1.00  0.00    +0.000 C 
ATOM     79  N6  UNL A   1      21.192  37.403  47.738  1.00  0.00    +0.000 N 
ATOM     80  C55 UNL A   1      18.635  40.515  49.625  1.00  0.00    +0.000 C 
ATOM     81  C56 UNL A   1      19.351  41.629  49.661  1.00  0.00    +0.000 C 
ATOM     82  C57 UNL A   1      26.042  37.722  46.483  1.00  0.00    +0.000 C 
ATOM     83  C58 UNL A   1      25.337  36.620  46.275  1.00  0.00    +0.000 C 
ATOM    109  H24 UNL A   1      26.022  42.897  47.674  1.00  0.00    +0.000 H 
ATOM    110  H25 UNL A   1      23.967  44.084  48.755  1.00  0.00    +0.000 H 
ATOM    111  H26 UNL A   1      22.982  40.115  48.103  1.00  0.00    +0.000 H 
ATOM    112  H27 UNL A   1      18.634  35.453  48.062  1.00  0.00    +0.000 H 
ATOM    113  H28 UNL A   1      20.666  34.279  47.091  1.00  0.00    +0.000 H 
ATOM    114  H29 UNL A   1      21.690  38.252  47.760  1.00  0.00    +0.000 H 
ATOM    115  H30 UNL A   1      17.665  40.353  49.940  1.00  0.00    +0.000 H 
ATOM    116  H31 UNL A   1      18.998  42.537  50.002  1.00  0.00    +0.000 H 
ATOM    117  H32 UNL A   1      27.054  37.810  46.296  1.00  0.00    +0.000 H 
ATOM    118  H33 UNL A   1      25.635  35.723  45.861  1.00  0.00    +0.000 H 
ENDROOT
BRANCH   27   26
ATOM    107  H22 UNL A   1      23.179  32.492  43.737  1.00  0.00    +0.000 H 
ATOM    108  H23 UNL A   1      22.895  34.831  44.326  1.00  0.00    +0.000 H 
ATOM     84  C59 UNL A   1      23.690  33.626  47.355  1.00  0.00    +0.000 C 
ATOM     85  C60 UNL A   1      23.927  32.299  47.002  1.00  0.00    +0.000 C 
ATOM    120  H35 UNL A   1      24.293  31.635  47.701  1.00  0.00    +0.000 H 
ATOM     23  C17 UNL A   1      23.667  31.871  45.697  1.00  0.00    +0.000 C 
ATOM     24  C18 UNL A   1      23.311  32.799  44.713  1.00  0.00    +0.000 C 
ATOM     25  C19 UNL A   1      23.133  34.141  45.055  1.00  0.00    +0.000 C 
ATOM    119  H34 UNL A   1      23.819  33.926  48.334  1.00  0.00    +0.000 H 
ATOM     26  C20 UNL A   1      23.278  34.556  46.389  1.00  0.00    +0.000 C 
BRANCH   23   21
ATOM     21  C16 UNL A   1      23.762  30.442  45.325  1.00  0.00    +0.000 C 
ATOM     22  O4  UNL A   1      24.839  29.860  45.424  1.00  0.00    +0.000 O 
BRANCH   21   20
ATOM    106  H21 UNL A   1      22.700  29.549  43.884  1.00  0.00    +0.000 H 
ATOM     20  N2  UNL A   1      22.663  29.775  44.841  1.00  0.00    +0.000 N 
BRANCH   20   19
ATOM    105  H20 UNL A   1      21.515  29.711  46.538  1.00  0.00    +0.000 H 
ATOM     19  C15 UNL A   1      21.454  29.353  45.531  1.00  0.00    +0.000 C 
ATOM    104  H19 UNL A   1      21.394  28.285  45.494  1.00  0.00    +0.000 H 
BRANCH   19   18
ATOM     18  C14 UNL A   1      20.186  29.936  44.911  1.00  0.00    +0.000 C 
ATOM    102  H17 UNL A   1      20.235  29.783  43.853  1.00  0.00    +0.000 H 
ATOM    103  H18 UNL A   1      19.369  29.430  45.381  1.00  0.00    +0.000 H 
BRANCH   18   17
ATOM     17  C13 UNL A   1      19.961  31.429  45.163  1.00  0.00    +0.000 C 
ATOM    100  H15 UNL A   1      19.064  31.534  45.736  1.00  0.00    +0.000 H 
ATOM    101  H16 UNL A   1      20.838  31.777  45.667  1.00  0.00    +0.000 H 
BRANCH   17   16
ATOM     98  H13 UNL A   1      20.806  32.442  43.502  1.00  0.00    +0.000 H 
ATOM     99  H14 UNL A   1      19.161  31.770  43.256  1.00  0.00    +0.000 H 
ATOM     16  C12 UNL A   1      19.826  32.297  43.908  1.00  0.00    +0.000 C 
BRANCH   16   15
ATOM     97  H12 UNL A   1      19.812  34.377  43.598  1.00  0.00    +0.000 H 
ATOM     15  C11 UNL A   1      19.195  33.679  44.123  1.00  0.00    +0.000 C 
ATOM     96  H11 UNL A   1      19.150  33.865  45.176  1.00  0.00    +0.000 H 
BRANCH   15   14
ATOM     94  H9  UNL A   1      17.617  34.865  43.319  1.00  0.00    +0.000 H 
ATOM     14  C10 UNL A   1      17.785  33.834  43.552  1.00  0.00    +0.000 C 
ATOM     95  H10 UNL A   1      17.714  33.225  42.674  1.00  0.00    +0.000 H 
BRANCH   14   13
ATOM     13  N1  UNL A   1      16.772  33.395  44.488  1.00  0.00    +0.000 N 
ATOM     93  H8  UNL A   1      16.760  33.781  45.394  1.00  0.00    +0.000 H 
BRANCH   13    2
ATOM      1  O1  UNL A   1      14.740  32.721  43.660  1.00  0.00    +0.000 O 
ATOM      2  C1  UNL A   1      15.831  32.459  44.155  1.00  0.00    +0.000 C 
BRANCH    2    3
ATOM      3  C2  UNL A   1      16.204  31.039  44.380  1.00  0.00    +0.000 C 
ATOM     86  H1  UNL A   1      16.033  30.651  45.321  1.00  0.00    +0.000 H 
BRANCH    3    4
ATOM      4  C3  UNL A   1      16.744  30.215  43.467  1.00  0.00    +0.000 C 
ATOM     87  H2  UNL A   1      17.470  30.583  42.834  1.00  0.00    +0.000 H 
BRANCH    4    5
ATOM      5  C4  UNL A   1      16.337  28.808  43.335  1.00  0.00    +0.000 C 
ATOM      6  C5  UNL A   1      15.386  28.388  42.388  1.00  0.00    +0.000 C 
ATOM      7  C6  UNL A   1      15.001  27.044  42.304  1.00  0.00    +0.000 C 
ATOM      8  C7  UNL A   1      15.581  26.120  43.162  1.00  0.00    +0.000 C 
ATOM     10  C8  UNL A   1      16.543  26.525  44.082  1.00  0.00    +0.000 C 
ATOM     12  C9  UNL A   1      16.931  27.855  44.172  1.00  0.00    +0.000 C 
ATOM     88  H3  UNL A   1      14.966  29.079  41.746  1.00  0.00    +0.000 H 
ATOM     89  H4  UNL A   1      14.297  26.745  41.612  1.00  0.00    +0.000 H 
ATOM     92  H7  UNL A   1      17.655  28.140  44.850  1.00  0.00    +0.000 H 
BRANCH    8    9
ATOM      9  O2  UNL A   1      15.234  24.798  43.143  1.00  0.00    +0.000 O 
ATOM     90  H5  UNL A   1      15.765  24.181  42.679  1.00  0.00    +0.000 H 
ENDBRANCH    8    9
BRANCH   10   11
ATOM     11  O3  UNL A   1      17.112  25.609  44.920  1.00  0.00    +0.000 O 
ATOM     91  H6  UNL A   1      18.043  25.503  44.936  1.00  0.00    +0.000 H 
ENDBRANCH   10   11
ENDBRANCH    4    5
ENDBRANCH    3    4
ENDBRANCH    2    3
ENDBRANCH   13    2
ENDBRANCH   14   13
ENDBRANCH   15   14
ENDBRANCH   16   15
ENDBRANCH   17   16
ENDBRANCH   18   17
ENDBRANCH   19   18
ENDBRANCH   20   19
ENDBRANCH   21   20
ENDBRANCH   23   21
ENDBRANCH   27   26
BRANCH   31   32
ATOM     33  C26 UNL A   1      28.077  40.255  47.870  1.00  0.00    +0.000 C 
ATOM     34  F1  UNL A   1      27.768  39.894  49.125  1.00  0.00    +0.000 F 
ATOM     35  C27 UNL A   1      29.401  40.560  47.567  1.00  0.00    +0.000 C 
ATOM     36  F2  UNL A   1      30.337  40.500  48.525  1.00  0.00    +0.000 F 
ATOM     37  C28 UNL A   1      29.750  40.943  46.281  1.00  0.00    +0.000 C 
ATOM     38  F3  UNL A   1      31.025  41.235  45.990  1.00  0.00    +0.000 F 
ATOM     39  C29 UNL A   1      28.775  41.032  45.298  1.00  0.00    +0.000 C 
ATOM     40  F4  UNL A   1      29.114  41.390  44.051  1.00  0.00    +0.000 F 
ATOM     41  C30 UNL A   1      27.445  40.756  45.606  1.00  0.00    +0.000 C 
ATOM     42  F5  UNL A   1      26.523  40.869  44.638  1.00  0.00    +0.000 F 
ATOM     32  C25 UNL A   1      27.069  40.365  46.899  1.00  0.00    +0.000 C 
ENDBRANCH   31   32
BRANCH   48   49
ATOM     49  C36 UNL A   1      21.296  43.729  49.623  1.00  0.00    +0.000 C 
ATOM     50  C37 UNL A   1      21.521  44.095  50.958  1.00  0.00    +0.000 C 
ATOM     51  F6  UNL A   1      22.021  43.204  51.827  1.00  0.00    +0.000 F 
ATOM     52  C38 UNL A   1      21.200  45.372  51.413  1.00  0.00    +0.000 C 
ATOM     53  F7  UNL A   1      21.386  45.688  52.702  1.00  0.00    +0.000 F 
ATOM     54  C39 UNL A   1      20.676  46.311  50.539  1.00  0.00    +0.000 C 
ATOM     55  F8  UNL A   1      20.373  47.541  50.977  1.00  0.00    +0.000 F 
ATOM     56  C40 UNL A   1      20.457  45.974  49.211  1.00  0.00    +0.000 C 
ATOM     57  F9  UNL A   1      19.960  46.884  48.362  1.00  0.00    +0.000 F 
ATOM     58  C41 UNL A   1      20.753  44.691  48.758  1.00  0.00    +0.000 C 
ATOM     59  F10 UNL A   1      20.522  44.391  47.472  1.00  0.00    +0.000 F 
ENDBRANCH   48   49
BRANCH   63   64
ATOM     65  C46 UNL A   1      16.764  37.417  48.216  1.00  0.00    +0.000 C 
ATOM     66  F11 UNL A   1      17.067  37.503  46.913  1.00  0.00    +0.000 F 
ATOM     67  C47 UNL A   1      15.485  37.009  48.588  1.00  0.00    +0.000 C 
ATOM     68  F12 UNL A   1      14.579  36.712  47.646  1.00  0.00    +0.000 F 
ATOM     69  C48 UNL A   1      15.146  36.915  49.929  1.00  0.00    +0.000 C 
ATOM     70  F13 UNL A   1      13.919  36.509  50.285  1.00  0.00    +0.000 F 
ATOM     71  C49 UNL A   1      16.079  37.244  50.901  1.00  0.00    +0.000 C 
ATOM     72  F14 UNL A   1      15.760  37.141  52.198  1.00  0.00    +0.000 F 
ATOM     73  C50 UNL A   1      17.351  37.676  50.530  1.00  0.00    +0.000 C 
ATOM     74  F15 UNL A   1      18.233  37.989  51.490  1.00  0.00    +0.000 F 
ATOM     64  C45 UNL A   1      17.721  37.762  49.181  1.00  0.00    +0.000 C 
ENDBRANCH   63   64
TORSDOF 19
ENDMDL
MODEL 2
REMARK VINA RESULT:     -10.1     47.975     52.680
ROOT
ATOM     27  C21 UNL A   1      29.096 -13.898  30.901  1.00  0.00    +0.000 C 
ATOM     28  C22 UNL A   1      28.807 -14.059  32.366  1.00  0.00    +0.000 C 
ATOM     29  N3  UNL A   1      27.775 -13.644  33.057  1.00  0.00    +0.000 N 
ATOM     30  C23 UNL A   1      27.987 -14.084  34.356  1.00  0.00    +0.000 C 
ATOM     31  C24 UNL A   1      27.233 -13.859  35.458  1.00  0.00    +0.000 C 
ATOM     43  C31 UNL A   1      26.014 -13.094  35.468  1.00  0.00    +0.000 C 
ATOM     44  C32 UNL A   1      25.215 -12.754  36.546  1.00  0.00    +0.000 C 
ATOM     45  C33 UNL A   1      24.105 -12.050  36.065  1.00  0.00    +0.000 C 
ATOM     46  C34 UNL A   1      24.233 -11.914  34.692  1.00  0.00    +0.000 C 
ATOM     47  N4  UNL A   1      25.409 -12.558  34.339  1.00  0.00    +0.000 N 
ATOM     48  C35 UNL A   1      23.350 -11.249  33.767  1.00  0.00    +0.000 C 
ATOM     60  C42 UNL A   1      23.575 -11.117  32.437  1.00  0.00    +0.000 C 
ATOM     61  N5  UNL A   1      24.644 -11.582  31.684  1.00  0.00    +0.000 N 
ATOM     62  C43 UNL A   1      24.398 -11.220  30.449  1.00  0.00    +0.000 C 
ATOM     63  C44 UNL A   1      25.223 -11.451  29.214  1.00  0.00    +0.000 C 
ATOM     75  C51 UNL A   1      26.415 -12.069  29.320  1.00  0.00    +0.000 C 
ATOM     76  C52 UNL A   1      27.318 -12.356  28.211  1.00  0.00    +0.000 C 
ATOM     77  C53 UNL A   1      28.371 -13.049  28.670  1.00  0.00    +0.000 C 
ATOM     78  C54 UNL A   1      28.232 -13.225  30.117  1.00  0.00    +0.000 C 
ATOM     79  N6  UNL A   1      27.056 -12.584  30.419  1.00  0.00    +0.000 N 
ATOM     80  C55 UNL A   1      23.133 -10.494  30.275  1.00  0.00    +0.000 C 
ATOM     81  C56 UNL A   1      22.686 -10.432  31.521  1.00  0.00    +0.000 C 
ATOM     82  C57 UNL A   1      29.221 -14.843  34.346  1.00  0.00    +0.000 C 
ATOM     83  C58 UNL A   1      29.798 -14.806  33.154  1.00  0.00    +0.000 C 
ATOM    109  H24 UNL A   1      25.405 -12.980  37.535  1.00  0.00    +0.000 H 
ATOM    110  H25 UNL A   1      23.323 -11.692  36.636  1.00  0.00    +0.000 H 
ATOM    111  H26 UNL A   1      25.764 -12.625  33.423  1.00  0.00    +0.000 H 
ATOM    112  H27 UNL A   1      27.170 -12.071  27.229  1.00  0.00    +0.000 H 
ATOM    113  H28 UNL A   1      29.152 -13.401  28.097  1.00  0.00    +0.000 H 
ATOM    114  H29 UNL A   1      26.707 -12.503  31.337  1.00  0.00    +0.000 H 
ATOM    115  H30 UNL A   1      22.705 -10.128  29.410  1.00  0.00    +0.000 H 
ATOM    116  H31 UNL A   1      21.816  -9.955  31.803  1.00  0.00    +0.000 H 
ATOM    117  H32 UNL A   1      29.601 -15.347  35.162  1.00  0.00    +0.000 H 
ATOM    118  H33 UNL A   1      30.705 -15.199  32.856  1.00  0.00    +0.000 H 
ENDROOT
BRANCH   27   26
ATOM    107  H22 UNL A   1      31.266 -17.427  28.853  1.00  0.00    +0.000 H 
ATOM    108  H23 UNL A   1      29.265 -16.282  29.615  1.00  0.00    +0.000 H 
ATOM     84  C59 UNL A   1      31.525 -13.905  30.325  1.00  0.00    +0.000 C 
ATOM     85  C60 UNL A   1      32.660 -14.533  29.818  1.00  0.00    +0.000 C 
ATOM    120  H35 UNL A   1      33.560 -14.029  29.787  1.00  0.00    +0.000 H 
ATOM     23  C17 UNL A   1      32.577 -15.847  29.350  1.00  0.00    +0.000 C 
ATOM     24  C18 UNL A   1      31.334 -16.480  29.256  1.00  0.00    +0.000 C 
ATOM     25  C19 UNL A   1      30.186 -15.826  29.708  1.00  0.00    +0.000 C 
ATOM    119  H34 UNL A   1      31.600 -12.959  30.730  1.00  0.00    +0.000 H 
ATOM     26  C20 UNL A   1      30.279 -14.551  30.288  1.00  0.00    +0.000 C 
BRANCH   23   21
ATOM     21  C16 UNL A   1      33.788 -16.595  28.945  1.00  0.00    +0.000 C 
ATOM     22  O4  UNL A   1      34.321 -17.363  29.743  1.00  0.00    +0.000 O 
BRANCH   21   20
ATOM    106  H21 UNL A   1      35.309 -16.534  27.647  1.00  0.00    +0.000 H 
ATOM     20  N2  UNL A   1      34.334 -16.412  27.698  1.00  0.00    +0.000 N 
BRANCH   20   19
ATOM    105  H20 UNL A   1      32.633 -16.192  26.576  1.00  0.00    +0.000 H 
ATOM     19  C15 UNL A   1      33.687 -16.064  26.442  1.00  0.00    +0.000 C 
ATOM    104  H19 UNL A   1      34.068 -16.703  25.673  1.00  0.00    +0.000 H 
BRANCH   19   18
ATOM     18  C14 UNL A   1      33.928 -14.612  26.036  1.00  0.00    +0.000 C 
ATOM    102  H17 UNL A   1      34.810 -14.271  26.535  1.00  0.00    +0.000 H 
ATOM    103  H18 UNL A   1      34.011 -14.615  24.969  1.00  0.00    +0.000 H 
BRANCH   18   17
ATOM     17  C13 UNL A   1      32.791 -13.643  26.370  1.00  0.00    +0.000 C 
ATOM    100  H15 UNL A   1      32.251 -13.446  25.468  1.00  0.00    +0.000 H 
ATOM    101  H16 UNL A   1      32.207 -14.125  27.126  1.00  0.00    +0.000 H 
BRANCH   17   16
ATOM     98  H13 UNL A   1      33.721 -12.496  27.893  1.00  0.00    +0.000 H 
ATOM     99  H14 UNL A   1      33.847 -11.838  26.229  1.00  0.00    +0.000 H 
ATOM     16  C12 UNL A   1      33.223 -12.300  26.966  1.00  0.00    +0.000 C 
BRANCH   16   15
ATOM     97  H12 UNL A   1      31.771 -11.478  28.247  1.00  0.00    +0.000 H 
ATOM     15  C11 UNL A   1      32.091 -11.301  27.241  1.00  0.00    +0.000 C 
ATOM     96  H11 UNL A   1      31.318 -11.466  26.519  1.00  0.00    +0.000 H 
BRANCH   15   14
ATOM     94  H9  UNL A   1      33.538  -9.774  26.904  1.00  0.00    +0.000 H 
ATOM     14  C10 UNL A   1      32.503  -9.831  27.170  1.00  0.00    +0.000 C 
ATOM     95  H10 UNL A   1      31.890  -9.349  26.437  1.00  0.00    +0.000 H 
BRANCH   14   13
ATOM     13  N1  UNL A   1      32.308  -9.154  28.435  1.00  0.00    +0.000 N 
ATOM     93  H8  UNL A   1      32.849  -9.428  29.211  1.00  0.00    +0.000 H 
BRANCH   13    2
ATOM      1  O1  UNL A   1      31.668  -6.952  28.541  1.00  0.00    +0.000 O 
ATOM      2  C1  UNL A   1      31.395  -8.146  28.587  1.00  0.00    +0.000 C 
BRANCH    2    3
ATOM      3  C2  UNL A   1      29.981  -8.561  28.775  1.00  0.00    +0.000 C 
ATOM     86  H1  UNL A   1      29.261  -8.020  28.272  1.00  0.00    +0.000 H 
BRANCH    3    4
ATOM      4  C3  UNL A   1      29.557  -9.578  29.543  1.00  0.00    +0.000 C 
ATOM     87  H2  UNL A   1      29.931 -10.523  29.367  1.00  0.00    +0.000 H 
BRANCH    4    5
ATOM      5  C4  UNL A   1      28.578  -9.395  30.625  1.00  0.00    +0.000 C 
ATOM      6  C5  UNL A   1      27.427  -8.602  30.469  1.00  0.00    +0.000 C 
ATOM      7  C6  UNL A   1      26.527  -8.427  31.527  1.00  0.00    +0.000 C 
ATOM      8  C7  UNL A   1      26.774  -9.060  32.737  1.00  0.00    +0.000 C 
ATOM     10  C8  UNL A   1      27.896  -9.869  32.889  1.00  0.00    +0.000 C 
ATOM     12  C9  UNL A   1      28.794 -10.049  31.845  1.00  0.00    +0.000 C 
ATOM     88  H3  UNL A   1      27.244  -8.143  29.563  1.00  0.00    +0.000 H 
ATOM     89  H4  UNL A   1      25.689  -7.837  31.408  1.00  0.00    +0.000 H 
ATOM     92  H7  UNL A   1      29.616 -10.661  31.966  1.00  0.00    +0.000 H 
BRANCH    8    9
ATOM      9  O2  UNL A   1      25.945  -8.914  33.814  1.00  0.00    +0.000 O 
ATOM     90  H5  UNL A   1      25.533  -9.665  34.194  1.00  0.00    +0.000 H 
ENDBRANCH    8    9
BRANCH   10   11
ATOM     11  O3  UNL A   1      28.131 -10.492  34.082  1.00  0.00    +0.000 O 
ATOM     91  H6  UNL A   1      28.858 -11.077  34.170  1.00  0.00    +0.000 H 
ENDBRANCH   10   11
ENDBRANCH    4    5
ENDBRANCH    3    4
ENDBRANCH    2    3
ENDBRANCH   13    2
ENDBRANCH   14   13
ENDBRANCH   15   14
ENDBRANCH   16   15
ENDBRANCH   17   16
ENDBRANCH   18   17
ENDBRANCH   19   18
ENDBRANCH   20   19
ENDBRANCH   21   20
ENDBRANCH   23   21
ENDBRANCH   27   26
BRANCH   31   32
ATOM     33  C26 UNL A   1      27.248 -15.696  37.206  1.00  0.00    +0.000 C 
ATOM     34  F1  UNL A   1      26.331 -16.374  36.497  1.00  0.00    +0.000 F 
ATOM     35  C27 UNL A   1      27.687 -16.229  38.415  1.00  0.00    +0.000 C 
ATOM     36  F2  UNL A   1      27.188 -17.393  38.853  1.00  0.00    +0.000 F 
ATOM     37  C28 UNL A   1      28.627 -15.549  39.174  1.00  0.00    +0.000 C 
ATOM     38  F3  UNL A   1      29.051 -16.063  40.337  1.00  0.00    +0.000 F 
ATOM     39  C29 UNL A   1      29.122 -14.331  38.731  1.00  0.00    +0.000 C 
ATOM     40  F4  UNL A   1      30.040 -13.678  39.458  1.00  0.00    +0.000 F 
ATOM     41  C30 UNL A   1      28.662 -13.782  37.537  1.00  0.00    +0.000 C 
ATOM     42  F5  UNL A   1      29.146 -12.593  37.145  1.00  0.00    +0.000 F 
ATOM     32  C25 UNL A   1      27.713 -14.452  36.752  1.00  0.00    +0.000 C 
ENDBRANCH   31   32
BRANCH   48   49
ATOM     49  C36 UNL A   1      22.093 -10.639  34.313  1.00  0.00    +0.000 C 
ATOM     50  C37 UNL A   1      20.866 -11.315  34.250  1.00  0.00    +0.000 C 
ATOM     51  F6  UNL A   1      20.784 -12.510  33.646  1.00  0.00    +0.000 F 
ATOM     52  C38 UNL A   1      19.709 -10.748  34.778  1.00  0.00    +0.000 C 
ATOM     53  F7  UNL A   1      18.539 -11.393  34.671  1.00  0.00    +0.000 F 
ATOM     54  C39 UNL A   1      19.762  -9.511  35.402  1.00  0.00    +0.000 C 
ATOM     55  F8  UNL A   1      18.649  -8.970  35.915  1.00  0.00    +0.000 F 
ATOM     56  C40 UNL A   1      20.968  -8.831  35.488  1.00  0.00    +0.000 C 
ATOM     57  F9  UNL A   1      21.023  -7.640  36.100  1.00  0.00    +0.000 F 
ATOM     58  C41 UNL A   1      22.122  -9.383  34.938  1.00  0.00    +0.000 C 
ATOM     59  F10 UNL A   1      23.272  -8.699  35.027  1.00  0.00    +0.000 F 
ENDBRANCH   48   49
BRANCH   63   64
ATOM     65  C46 UNL A   1      25.255  -9.818  27.307  1.00  0.00    +0.000 C 
ATOM     66  F11 UNL A   1      26.131  -9.063  27.985  1.00  0.00    +0.000 F 
ATOM     67  C47 UNL A   1      24.837  -9.401  26.046  1.00  0.00    +0.000 C 
ATOM     68  F12 UNL A   1      25.308  -8.257  25.531  1.00  0.00    +0.000 F 
ATOM     69  C48 UNL A   1      23.929 -10.163  25.325  1.00  0.00    +0.000 C 
ATOM     70  F13 UNL A   1      23.537  -9.767  24.107  1.00  0.00    +0.000 F 
ATOM     71  C49 UNL A   1      23.427 -11.335  25.872  1.00  0.00    +0.000 C 
ATOM     72  F14 UNL A   1      22.561 -12.081  25.173  1.00  0.00    +0.000 F 
ATOM     73  C50 UNL A   1      23.826 -11.741  27.143  1.00  0.00    +0.000 C 
ATOM     74  F15 UNL A   1      23.324 -12.877  27.647  1.00  0.00    +0.000 F 
ATOM     64  C45 UNL A   1      24.755 -10.995  27.882  1.00  0.00    +0.000 C 
ENDBRANCH   63   64
TORSDOF 19
ENDMDL
MODEL 3
REMARK VINA RESULT:     -10.1     43.748     46.831
ROOT
ATOM     27  C21 UNL A   1      14.074  53.731   5.186  1.00  0.00    +0.000 C 
ATOM     28  C22 UNL A   1      15.029  54.159   4.109  1.00  0.00    +0.000 C 
ATOM     29  N3  UNL A   1      15.515  53.466   3.110  1.00  0.00    +0.000 N 
ATOM     30  C23 UNL A   1      16.319  54.344   2.396  1.00  0.00    +0.000 C 
ATOM     31  C24 UNL A   1      17.089  54.093   1.311  1.00  0.00    +0.000 C 
ATOM     43  C31 UNL A   1      17.201  52.807   0.673  1.00  0.00    +0.000 C 
ATOM     44  C32 UNL A   1      18.007  52.437  -0.390  1.00  0.00    +0.000 C 
ATOM     45  C33 UNL A   1      17.737  51.099  -0.699  1.00  0.00    +0.000 C 
ATOM     46  C34 UNL A   1      16.795  50.622   0.198  1.00  0.00    +0.000 C 
ATOM     47  N4  UNL A   1      16.476  51.680   1.035  1.00  0.00    +0.000 N 
ATOM     48  C35 UNL A   1      16.223  49.302   0.287  1.00  0.00    +0.000 C 
ATOM     60  C42 UNL A   1      15.338  48.901   1.231  1.00  0.00    +0.000 C 
ATOM     61  N5  UNL A   1      14.786  49.632   2.273  1.00  0.00    +0.000 N 
ATOM     62  C43 UNL A   1      13.976  48.812   2.898  1.00  0.00    +0.000 C 
ATOM     63  C44 UNL A   1      13.121  49.066   4.107  1.00  0.00    +0.000 C 
ATOM     75  C51 UNL A   1      13.174  50.267   4.715  1.00  0.00    +0.000 C 
ATOM     76  C52 UNL A   1      12.404  50.651   5.893  1.00  0.00    +0.000 C 
ATOM     77  C53 UNL A   1      12.648  51.940   6.176  1.00  0.00    +0.000 C 
ATOM     78  C54 UNL A   1      13.621  52.463   5.216  1.00  0.00    +0.000 C 
ATOM     79  N6  UNL A   1      13.899  51.391   4.404  1.00  0.00    +0.000 N 
ATOM     80  C55 UNL A   1      13.913  47.466   2.312  1.00  0.00    +0.000 C 
ATOM     81  C56 UNL A   1      14.784  47.565   1.318  1.00  0.00    +0.000 C 
ATOM     82  C57 UNL A   1      16.213  55.634   3.047  1.00  0.00    +0.000 C 
ATOM     83  C58 UNL A   1      15.477  55.559   4.146  1.00  0.00    +0.000 C 
ATOM    109  H24 UNL A   1      18.690  53.042  -0.871  1.00  0.00    +0.000 H 
ATOM    110  H25 UNL A   1      18.167  50.558  -1.466  1.00  0.00    +0.000 H 
ATOM    111  H26 UNL A   1      15.831  51.639   1.777  1.00  0.00    +0.000 H 
ATOM    112  H27 UNL A   1      11.773  50.030   6.424  1.00  0.00    +0.000 H 
ATOM    113  H28 UNL A   1      12.219  52.475   6.945  1.00  0.00    +0.000 H 
ATOM    114  H29 UNL A   1      14.556  51.425   3.671  1.00  0.00    +0.000 H 
ATOM    115  H30 UNL A   1      13.341  46.656   2.599  1.00  0.00    +0.000 H 
ATOM    116  H31 UNL A   1      15.036  46.789   0.687  1.00  0.00    +0.000 H 
ATOM    117  H32 UNL A   1      16.656  56.499   2.699  1.00  0.00    +0.000 H 
ATOM    118  H33 UNL A   1      15.271  56.291   4.843  1.00  0.00    +0.000 H 
ENDROOT
BRANCH   27   26
ATOM    107  H22 UNL A   1      14.263  56.115   9.141  1.00  0.00    +0.000 H 
ATOM    108  H23 UNL A   1      15.252  54.706   7.428  1.00  0.00    +0.000 H 
ATOM     84  C59 UNL A   1      12.280  55.275   5.979  1.00  0.00    +0.000 C 
ATOM     85  C60 UNL A   1      11.744  56.144   6.926  1.00  0.00    +0.000 C 
ATOM    120  H35 UNL A   1      10.838  56.606   6.751  1.00  0.00    +0.000 H 
ATOM     23  C17 UNL A   1      12.437  56.390   8.115  1.00  0.00    +0.000 C 
ATOM     24  C18 UNL A   1      13.728  55.882   8.290  1.00  0.00    +0.000 C 
ATOM     25  C19 UNL A   1      14.291  55.060   7.311  1.00  0.00    +0.000 C 
ATOM    119  H34 UNL A   1      11.738  55.043   5.131  1.00  0.00    +0.000 H 
ATOM     26  C20 UNL A   1      13.552  54.714   6.168  1.00  0.00    +0.000 C 
BRANCH   23   21
ATOM     21  C16 UNL A   1      11.832  57.186   9.206  1.00  0.00    +0.000 C 
ATOM     22  O4  UNL A   1      12.011  58.400   9.242  1.00  0.00    +0.000 O 
BRANCH   21   20
ATOM    106  H21 UNL A   1      10.669  57.177  10.834  1.00  0.00    +0.000 H 
ATOM     20  N2  UNL A   1      11.099  56.569  10.191  1.00  0.00    +0.000 N 
BRANCH   20   19
ATOM    105  H20 UNL A   1      11.146  54.626   9.538  1.00  0.00    +0.000 H 
ATOM     19  C15 UNL A   1      10.865  55.153  10.426  1.00  0.00    +0.000 C 
ATOM    104  H19 UNL A   1       9.830  55.011  10.658  1.00  0.00    +0.000 H 
BRANCH   19   18
ATOM     18  C14 UNL A   1      11.703  54.598  11.576  1.00  0.00    +0.000 C 
ATOM    102  H17 UNL A   1      12.003  55.419  12.192  1.00  0.00    +0.000 H 
ATOM    103  H18 UNL A   1      11.080  53.888  12.078  1.00  0.00    +0.000 H 
BRANCH   18   17
ATOM     17  C13 UNL A   1      12.963  53.836  11.159  1.00  0.00    +0.000 C 
ATOM    100  H15 UNL A   1      13.703  54.554  10.872  1.00  0.00    +0.000 H 
ATOM    101  H16 UNL A   1      13.242  53.244  12.006  1.00  0.00    +0.000 H 
BRANCH   17   16
ATOM     98  H13 UNL A   1      11.869  52.321  10.156  1.00  0.00    +0.000 H 
ATOM     99  H14 UNL A   1      12.796  53.442   9.107  1.00  0.00    +0.000 H 
ATOM     16  C12 UNL A   1      12.785  52.851   9.999  1.00  0.00    +0.000 C 
BRANCH   16   15
ATOM     97  H12 UNL A   1      14.804  52.286  10.176  1.00  0.00    +0.000 H 
ATOM     15  C11 UNL A   1      13.906  51.817   9.830  1.00  0.00    +0.000 C 
ATOM     96  H11 UNL A   1      13.949  51.537   8.798  1.00  0.00    +0.000 H 
BRANCH   15   14
ATOM     94  H9  UNL A   1      12.690  50.366  10.806  1.00  0.00    +0.000 H 
ATOM     14  C10 UNL A   1      13.734  50.546  10.662  1.00  0.00    +0.000 C 
ATOM     95  H10 UNL A   1      14.195  49.738  10.131  1.00  0.00    +0.000 H 
BRANCH   14   13
ATOM     13  N1  UNL A   1      14.374  50.657  11.956  1.00  0.00    +0.000 N 
ATOM     93  H8  UNL A   1      13.904  50.315  12.751  1.00  0.00    +0.000 H 
BRANCH   13    2
ATOM      1  O1  UNL A   1      15.810  52.320  12.618  1.00  0.00    +0.000 O 
ATOM      2  C1  UNL A   1      15.610  51.222  12.110  1.00  0.00    +0.000 C 
BRANCH    2    3
ATOM      3  C2  UNL A   1      16.769  50.408  11.661  1.00  0.00    +0.000 C 
ATOM     86  H1  UNL A   1      17.041  49.609  12.254  1.00  0.00    +0.000 H 
BRANCH    3    4
ATOM      4  C3  UNL A   1      17.493  50.620  10.550  1.00  0.00    +0.000 C 
ATOM     87  H2  UNL A   1      18.352  51.188  10.618  1.00  0.00    +0.000 H 
BRANCH    4    5
ATOM      5  C4  UNL A   1      17.108  50.074   9.240  1.00  0.00    +0.000 C 
ATOM      6  C5  UNL A   1      16.572  48.781   9.095  1.00  0.00    +0.000 C 
ATOM      7  C6  UNL A   1      16.238  48.280   7.831  1.00  0.00    +0.000 C 
ATOM      8  C7  UNL A   1      16.428  49.082   6.714  1.00  0.00    +0.000 C 
ATOM     10  C8  UNL A   1      16.931  50.372   6.854  1.00  0.00    +0.000 C 
ATOM     12  C9  UNL A   1      17.264  50.877   8.103  1.00  0.00    +0.000 C 
ATOM     88  H3  UNL A   1      16.423  48.195   9.931  1.00  0.00    +0.000 H 
ATOM     89  H4  UNL A   1      15.854  47.328   7.732  1.00  0.00    +0.000 H 
ATOM     92  H7  UNL A   1      17.625  51.840   8.195  1.00  0.00    +0.000 H 
BRANCH    8    9
ATOM      9  O2  UNL A   1      16.140  48.644   5.452  1.00  0.00    +0.000 O 
ATOM     90  H5  UNL A   1      15.746  49.227   4.832  1.00  0.00    +0.000 H 
ENDBRANCH    8    9
BRANCH   10   11
ATOM     11  O3  UNL A   1      17.111  51.156   5.751  1.00  0.00    +0.000 O 
ATOM     91  H6  UNL A   1      17.578  50.822   5.010  1.00  0.00    +0.000 H 
ENDBRANCH   10   11
ENDBRANCH    4    5
ENDBRANCH    3    4
ENDBRANCH    2    3
ENDBRANCH   13    2
ENDBRANCH   14   13
ENDBRANCH   15   14
ENDBRANCH   16   15
ENDBRANCH   17   16
ENDBRANCH   18   17
ENDBRANCH   19   18
ENDBRANCH   20   19
ENDBRANCH   21   20
ENDBRANCH   23   21
ENDBRANCH   27   26
BRANCH   31   32
ATOM     33  C26 UNL A   1      17.421  55.959  -0.373  1.00  0.00    +0.000 C 
ATOM     34  F1  UNL A   1      16.276  55.610  -0.982  1.00  0.00    +0.000 F 
ATOM     35  C27 UNL A   1      18.165  57.011  -0.900  1.00  0.00    +0.000 C 
ATOM     36  F2  UNL A   1      17.739  57.646  -2.000  1.00  0.00    +0.000 F 
ATOM     37  C28 UNL A   1      19.356  57.390  -0.299  1.00  0.00    +0.000 C 
ATOM     38  F3  UNL A   1      20.071  58.404  -0.805  1.00  0.00    +0.000 F 
ATOM     39  C29 UNL A   1      19.809  56.713   0.824  1.00  0.00    +0.000 C 
ATOM     40  F4  UNL A   1      20.954  57.086   1.413  1.00  0.00    +0.000 F 
ATOM     41  C30 UNL A   1      19.081  55.641   1.335  1.00  0.00    +0.000 C 
ATOM     42  F5  UNL A   1      19.556  54.994   2.410  1.00  0.00    +0.000 F 
ATOM     32  C25 UNL A   1      17.874  55.240   0.744  1.00  0.00    +0.000 C 
ENDBRANCH   31   32
BRANCH   48   49
ATOM     49  C36 UNL A   1      16.649  48.284  -0.731  1.00  0.00    +0.000 C 
ATOM     50  C37 UNL A   1      15.832  47.956  -1.822  1.00  0.00    +0.000 C 
ATOM     51  F6  UNL A   1      14.618  48.515  -1.949  1.00  0.00    +0.000 F 
ATOM     52  C38 UNL A   1      16.245  47.024  -2.771  1.00  0.00    +0.000 C 
ATOM     53  F7  UNL A   1      15.432  46.695  -3.784  1.00  0.00    +0.000 F 
ATOM     54  C39 UNL A   1      17.491  46.426  -2.661  1.00  0.00    +0.000 C 
ATOM     55  F8  UNL A   1      17.890  45.534  -3.578  1.00  0.00    +0.000 F 
ATOM     56  C40 UNL A   1      18.321  46.746  -1.597  1.00  0.00    +0.000 C 
ATOM     57  F9  UNL A   1      19.530  46.175  -1.495  1.00  0.00    +0.000 F 
ATOM     58  C41 UNL A   1      17.901  47.657  -0.632  1.00  0.00    +0.000 C 
ATOM     59  F10 UNL A   1      18.720  47.940   0.391  1.00  0.00    +0.000 F 
ENDBRANCH   48   49
BRANCH   63   64
ATOM     65  C46 UNL A   1      10.873  47.966   4.302  1.00  0.00    +0.000 C 
ATOM     66  F11 UNL A   1      10.355  48.910   3.504  1.00  0.00    +0.000 F 
ATOM     67  C47 UNL A   1      10.040  46.963   4.792  1.00  0.00    +0.000 C 
ATOM     68  F12 UNL A   1       8.740  46.956   4.466  1.00  0.00    +0.000 F 
ATOM     69  C48 UNL A   1      10.550  45.976   5.622  1.00  0.00    +0.000 C 
ATOM     70  F13 UNL A   1       9.750  45.005   6.083  1.00  0.00    +0.000 F 
ATOM     71  C49 UNL A   1      11.891  45.999   5.976  1.00  0.00    +0.000 C 
ATOM     72  F14 UNL A   1      12.392  45.039   6.766  1.00  0.00    +0.000 F 
ATOM     73  C50 UNL A   1      12.721  47.015   5.507  1.00  0.00    +0.000 C 
ATOM     74  F15 UNL A   1      14.013  47.014   5.865  1.00  0.00    +0.000 F 
ATOM     64  C45 UNL A   1      12.230  48.013   4.653  1.00  0.00    +0.000 C 
ENDBRANCH   63   64
TORSDOF 19
ENDMDL
MODEL 4
REMARK VINA RESULT:     -10.0      0.538      2.166
ROOT
ATOM     27  C21 UNL A   1      22.709  35.788  46.760  1.00  0.00    +0.000 C 
ATOM     28  C22 UNL A   1      23.793  36.826  46.737  1.00  0.00    +0.000 C 
ATOM     29  N3  UNL A   1      23.763  38.063  47.165  1.00  0.00    +0.000 N 
ATOM     30  C23 UNL A   1      25.034  38.572  46.939  1.00  0.00    +0.000 C 
ATOM     31  C24 UNL A   1      25.492  39.829  47.156  1.00  0.00    +0.000 C 
ATOM     43  C31 UNL A   1      24.700  40.902  47.696  1.00  0.00    +0.000 C 
ATOM     44  C32 UNL A   1      25.054  42.226  47.890  1.00  0.00    +0.000 C 
ATOM     45  C33 UNL A   1      23.976  42.885  48.492  1.00  0.00    +0.000 C 
ATOM     46  C34 UNL A   1      22.934  41.983  48.634  1.00  0.00    +0.000 C 
ATOM     47  N4  UNL A   1      23.392  40.771  48.141  1.00  0.00    +0.000 N 
ATOM     48  C35 UNL A   1      21.620  42.205  49.181  1.00  0.00    +0.000 C 
ATOM     60  C42 UNL A   1      20.635  41.276  49.239  1.00  0.00    +0.000 C 
ATOM     61  N5  UNL A   1      20.662  39.952  48.824  1.00  0.00    +0.000 N 
ATOM     62  C43 UNL A   1      19.479  39.463  49.106  1.00  0.00    +0.000 C 
ATOM     63  C44 UNL A   1      18.947  38.078  48.866  1.00  0.00    +0.000 C 
ATOM     75  C51 UNL A   1      19.721  37.171  48.239  1.00  0.00    +0.000 C 
ATOM     76  C52 UNL A   1      19.335  35.796  47.940  1.00  0.00    +0.000 C 
ATOM     77  C53 UNL A   1      20.376  35.160  47.382  1.00  0.00    +0.000 C 
ATOM     78  C54 UNL A   1      21.494  36.096  47.253  1.00  0.00    +0.000 C 
ATOM     79  N6  UNL A   1      21.003  37.273  47.760  1.00  0.00    +0.000 N 
ATOM     80  C55 UNL A   1      18.569  40.421  49.747  1.00  0.00    +0.000 C 
ATOM     81  C56 UNL A   1      19.312  41.518  49.777  1.00  0.00    +0.000 C 
ATOM     82  C57 UNL A   1      25.826  37.494  46.384  1.00  0.00    +0.000 C 
ATOM     83  C58 UNL A   1      25.090  36.412  46.182  1.00  0.00    +0.000 C 
ATOM    109  H24 UNL A   1      25.958  42.654  47.634  1.00  0.00    +0.000 H 
ATOM    110  H25 UNL A   1      23.960  43.876  48.781  1.00  0.00    +0.000 H 
ATOM    111  H26 UNL A   1      22.866  39.939  48.110  1.00  0.00    +0.000 H 
ATOM    112  H27 UNL A   1      18.409  35.380  48.128  1.00  0.00    +0.000 H 
ATOM    113  H28 UNL A   1      20.387  34.171  47.091  1.00  0.00    +0.000 H 
ATOM    114  H29 UNL A   1      21.522  38.111  47.779  1.00  0.00    +0.000 H 
ATOM    115  H30 UNL A   1      17.604  40.278  50.085  1.00  0.00    +0.000 H 
ATOM    116  H31 UNL A   1      18.989  42.429  50.137  1.00  0.00    +0.000 H 
ATOM    117  H32 UNL A   1      26.834  37.562  46.172  1.00  0.00    +0.000 H 
ATOM    118  H33 UNL A   1      25.356  35.513  45.751  1.00  0.00    +0.000 H 
ENDROOT
BRANCH   27   26
ATOM    107  H22 UNL A   1      22.819  32.380  43.640  1.00  0.00    +0.000 H 
ATOM    108  H23 UNL A   1      22.608  34.715  44.268  1.00  0.00    +0.000 H 
ATOM     84  C59 UNL A   1      23.371  33.437  47.275  1.00  0.00    +0.000 C 
ATOM     85  C60 UNL A   1      23.567  32.110  46.899  1.00  0.00    +0.000 C 
ATOM    120  H35 UNL A   1      23.914  31.423  47.586  1.00  0.00    +0.000 H 
ATOM     23  C17 UNL A   1      23.292  31.711  45.588  1.00  0.00    +0.000 C 
ATOM     24  C18 UNL A   1      22.962  32.666  44.621  1.00  0.00    +0.000 C 
ATOM     25  C19 UNL A   1      22.826  34.007  44.986  1.00  0.00    +0.000 C 
ATOM    119  H34 UNL A   1      23.512  33.717  48.259  1.00  0.00    +0.000 H 
ATOM     26  C20 UNL A   1      22.986  34.395  46.326  1.00  0.00    +0.000 C 
BRANCH   23   21
ATOM     21  C16 UNL A   1      23.343  30.286  45.192  1.00  0.00    +0.000 C 
ATOM     22  O4  UNL A   1      24.431  29.733  45.059  1.00  0.00    +0.000 O 
BRANCH   21   20
ATOM    106  H21 UNL A   1      22.265  28.864  44.287  1.00  0.00    +0.000 H 
ATOM     20  N2  UNL A   1      22.184  29.593  44.944  1.00  0.00    +0.000 N 
BRANCH   20   19
ATOM    105  H20 UNL A   1      20.958  30.349  46.402  1.00  0.00    +0.000 H 
ATOM     19  C15 UNL A   1      20.854  29.773  45.506  1.00  0.00    +0.000 C 
ATOM    104  H19 UNL A   1      20.432  28.809  45.703  1.00  0.00    +0.000 H 
BRANCH   19   18
ATOM     18  C14 UNL A   1      19.917  30.536  44.574  1.00  0.00    +0.000 C 
ATOM    102  H17 UNL A   1      20.482  30.850  43.722  1.00  0.00    +0.000 H 
ATOM    103  H18 UNL A   1      19.123  29.859  44.336  1.00  0.00    +0.000 H 
BRANCH   18   17
ATOM     17  C13 UNL A   1      19.252  31.773  45.182  1.00  0.00    +0.000 C 
ATOM    100  H15 UNL A   1      18.270  31.494  45.503  1.00  0.00    +0.000 H 
ATOM    101  H16 UNL A   1      19.893  32.088  45.980  1.00  0.00    +0.000 H 
BRANCH   17   16
ATOM     98  H13 UNL A   1      20.101  33.372  44.078  1.00  0.00    +0.000 H 
ATOM     99  H14 UNL A   1      18.641  32.614  43.363  1.00  0.00    +0.000 H 
ATOM     16  C12 UNL A   1      19.120  32.979  44.248  1.00  0.00    +0.000 C 
BRANCH   16   15
ATOM     97  H12 UNL A   1      18.807  35.021  44.646  1.00  0.00    +0.000 H 
ATOM     15  C11 UNL A   1      18.237  34.123  44.762  1.00  0.00    +0.000 C 
ATOM     96  H11 UNL A   1      17.982  33.915  45.781  1.00  0.00    +0.000 H 
BRANCH   15   14
ATOM     94  H9  UNL A   1      16.552  35.302  44.206  1.00  0.00    +0.000 H 
ATOM     14  C10 UNL A   1      16.940  34.331  43.980  1.00  0.00    +0.000 C 
ATOM     95  H10 UNL A   1      17.163  34.239  42.937  1.00  0.00    +0.000 H 
BRANCH   14   13
ATOM     13  N1  UNL A   1      15.941  33.338  44.316  1.00  0.00    +0.000 N 
ATOM     93  H8  UNL A   1      15.522  33.367  45.206  1.00  0.00    +0.000 H 
BRANCH   13    2
ATOM      1  O1  UNL A   1      15.051  32.574  42.343  1.00  0.00    +0.000 O 
ATOM      2  C1  UNL A   1      15.563  32.360  43.436  1.00  0.00    +0.000 C 
BRANCH    2    3
ATOM      3  C2  UNL A   1      15.847  30.961  43.844  1.00  0.00    +0.000 C 
ATOM     86  H1  UNL A   1      15.559  30.680  44.795  1.00  0.00    +0.000 H 
BRANCH    3    4
ATOM      4  C3  UNL A   1      16.444  30.028  43.085  1.00  0.00    +0.000 C 
ATOM     87  H2  UNL A   1      17.185  30.320  42.430  1.00  0.00    +0.000 H 
BRANCH    4    5
ATOM      5  C4  UNL A   1      16.081  28.604  43.154  1.00  0.00    +0.000 C 
ATOM      6  C5  UNL A   1      16.374  27.809  44.276  1.00  0.00    +0.000 C 
ATOM      7  C6  UNL A   1      16.037  26.450  44.300  1.00  0.00    +0.000 C 
ATOM      8  C7  UNL A   1      15.395  25.892  43.204  1.00  0.00    +0.000 C 
ATOM     10  C8  UNL A   1      15.076  26.681  42.102  1.00  0.00    +0.000 C 
ATOM     12  C9  UNL A   1      15.406  28.029  42.070  1.00  0.00    +0.000 C 
ATOM     88  H3  UNL A   1      16.843  28.232  45.092  1.00  0.00    +0.000 H 
ATOM     89  H4  UNL A   1      16.263  25.871  45.124  1.00  0.00    +0.000 H 
ATOM     92  H7  UNL A   1      15.154  28.606  41.252  1.00  0.00    +0.000 H 
BRANCH    8    9
ATOM      9  O2  UNL A   1      15.057  24.569  43.158  1.00  0.00    +0.000 O 
ATOM     90  H5  UNL A   1      15.649  23.946  42.784  1.00  0.00    +0.000 H 
ENDBRANCH    8    9
BRANCH   10   11
ATOM     11  O3  UNL A   1      14.440  26.126  41.029  1.00  0.00    +0.000 O 
ATOM     91  H6  UNL A   1      14.166  26.669  40.314  1.00  0.00    +0.000 H 
ENDBRANCH   10   11
ENDBRANCH    4    5
ENDBRANCH    3    4
ENDBRANCH    2    3
ENDBRANCH   13    2
ENDBRANCH   14   13
ENDBRANCH   15   14
ENDBRANCH   16   15
ENDBRANCH   17   16
ENDBRANCH   18   17
ENDBRANCH   19   18
ENDBRANCH   20   19
ENDBRANCH   21   20
ENDBRANCH   23   21
ENDBRANCH   27   26
BRANCH   31   32
ATOM     33  C26 UNL A   1      27.280  40.678  45.571  1.00  0.00    +0.000 C 
ATOM     34  F1  UNL A   1      26.335  40.961  44.661  1.00  0.00    +0.000 F 
ATOM     35  C27 UNL A   1      28.613  40.918  45.248  1.00  0.00    +0.000 C 
ATOM     36  F2  UNL A   1      28.931  41.413  44.044  1.00  0.00    +0.000 F 
ATOM     37  C28 UNL A   1      29.613  40.630  46.165  1.00  0.00    +0.000 C 
ATOM     38  F3  UNL A   1      30.896  40.862  45.854  1.00  0.00    +0.000 F 
ATOM     39  C29 UNL A   1      29.284  40.092  47.401  1.00  0.00    +0.000 C 
ATOM     40  F4  UNL A   1      30.249  39.823  48.291  1.00  0.00    +0.000 F 
ATOM     41  C30 UNL A   1      27.953  39.823  47.714  1.00  0.00    +0.000 C 
ATOM     42  F5  UNL A   1      27.669  39.285  48.909  1.00  0.00    +0.000 F 
ATOM     32  C25 UNL A   1      26.925  40.108  46.804  1.00  0.00    +0.000 C 
ENDBRANCH   31   32
BRANCH   48   49
ATOM     49  C36 UNL A   1      21.304  43.572  49.713  1.00  0.00    +0.000 C 
ATOM     50  C37 UNL A   1      20.709  44.552  48.905  1.00  0.00    +0.000 C 
ATOM     51  F6  UNL A   1      20.457  44.298  47.612  1.00  0.00    +0.000 F 
ATOM     52  C38 UNL A   1      20.402  45.811  49.416  1.00  0.00    +0.000 C 
ATOM     53  F7  UNL A   1      19.871  46.745  48.615  1.00  0.00    +0.000 F 
ATOM     54  C39 UNL A   1      20.657  46.103  50.746  1.00  0.00    +0.000 C 
ATOM     55  F8  UNL A   1      20.355  47.313  51.237  1.00  0.00    +0.000 F 
ATOM     56  C40 UNL A   1      21.232  45.144  51.567  1.00  0.00    +0.000 C 
ATOM     57  F9  UNL A   1      21.471  45.423  52.857  1.00  0.00    +0.000 F 
ATOM     58  C41 UNL A   1      21.565  43.894  51.054  1.00  0.00    +0.000 C 
ATOM     59  F10 UNL A   1      22.129  42.991  51.869  1.00  0.00    +0.000 F 
ENDBRANCH   48   49
BRANCH   63   64
ATOM     65  C46 UNL A   1      17.245  37.625  50.655  1.00  0.00    +0.000 C 
ATOM     66  F11 UNL A   1      18.181  37.855  51.586  1.00  0.00    +0.000 F 
ATOM     67  C47 UNL A   1      15.955  37.292  51.060  1.00  0.00    +0.000 C 
ATOM     68  F12 UNL A   1      15.668  37.202  52.367  1.00  0.00    +0.000 F 
ATOM     69  C48 UNL A   1      14.969  37.047  50.117  1.00  0.00    +0.000 C 
ATOM     70  F13 UNL A   1      13.725  36.738  50.508  1.00  0.00    +0.000 F 
ATOM     71  C49 UNL A   1      15.275  37.119  48.765  1.00  0.00    +0.000 C 
ATOM     72  F14 UNL A   1      14.322  36.896  47.850  1.00  0.00    +0.000 F 
ATOM     73  C50 UNL A   1      16.571  37.428  48.358  1.00  0.00    +0.000 C 
ATOM     74  F15 UNL A   1      16.840  37.490  47.046  1.00  0.00    +0.000 F 
ATOM     64  C45 UNL A   1      17.579  37.696  49.295  1.00  0.00    +0.000 C 
ENDBRANCH   63   64
TORSDOF 19
ENDMDL
MODEL 5
REMARK VINA RESULT:      -9.9     45.292     50.528
ROOT
ATOM     27  C21 UNL A   1      12.511  29.703  -1.440  1.00  0.00    +0.000 C 
ATOM     28  C22 UNL A   1      11.794  28.902  -0.393  1.00  0.00    +0.000 C 
ATOM     29  N3  UNL A   1      10.517  28.872  -0.103  1.00  0.00    +0.000 N 
ATOM     30  C23 UNL A   1      10.383  27.942   0.918  1.00  0.00    +0.000 C 
ATOM     31  C24 UNL A   1       9.267  27.594   1.603  1.00  0.00    +0.000 C 
ATOM     43  C31 UNL A   1       7.960  28.151   1.366  1.00  0.00    +0.000 C 
ATOM     44  C32 UNL A   1       6.782  27.912   2.052  1.00  0.00    +0.000 C 
ATOM     45  C33 UNL A   1       5.758  28.636   1.430  1.00  0.00    +0.000 C 
ATOM     46  C34 UNL A   1       6.306  29.359   0.383  1.00  0.00    +0.000 C 
ATOM     47  N4  UNL A   1       7.658  29.053   0.356  1.00  0.00    +0.000 N 
ATOM     48  C35 UNL A   1       5.649  30.261  -0.530  1.00  0.00    +0.000 C 
ATOM     60  C42 UNL A   1       6.270  30.972  -1.501  1.00  0.00    +0.000 C 
ATOM     61  N5  UNL A   1       7.614  30.987  -1.845  1.00  0.00    +0.000 N 
ATOM     62  C43 UNL A   1       7.718  31.816  -2.855  1.00  0.00    +0.000 C 
ATOM     63  C44 UNL A   1       8.945  32.223  -3.622  1.00  0.00    +0.000 C 
ATOM     75  C51 UNL A   1      10.147  31.745  -3.249  1.00  0.00    +0.000 C 
ATOM     76  C52 UNL A   1      11.416  32.056  -3.899  1.00  0.00    +0.000 C 
ATOM     77  C53 UNL A   1      12.393  31.346  -3.314  1.00  0.00    +0.000 C 
ATOM     78  C54 UNL A   1      11.822  30.554  -2.224  1.00  0.00    +0.000 C 
ATOM     79  N6  UNL A   1      10.487  30.878  -2.241  1.00  0.00    +0.000 N 
ATOM     80  C55 UNL A   1       6.443  32.412  -3.278  1.00  0.00    +0.000 C 
ATOM     81  C56 UNL A   1       5.598  31.888  -2.401  1.00  0.00    +0.000 C 
ATOM     82  C57 UNL A   1      11.700  27.393   1.163  1.00  0.00    +0.000 C 
ATOM     83  C58 UNL A   1      12.618  27.996   0.421  1.00  0.00    +0.000 C 
ATOM    109  H24 UNL A   1       6.676  27.306   2.880  1.00  0.00    +0.000 H 
ATOM    110  H25 UNL A   1       4.763  28.632   1.704  1.00  0.00    +0.000 H 
ATOM    111  H26 UNL A   1       8.308  29.422  -0.285  1.00  0.00    +0.000 H 
ATOM    112  H27 UNL A   1      11.542  32.716  -4.682  1.00  0.00    +0.000 H 
ATOM    113  H28 UNL A   1      13.387  31.356  -3.589  1.00  0.00    +0.000 H 
ATOM    114  H29 UNL A   1       9.837  30.523  -1.591  1.00  0.00    +0.000 H 
ATOM    115  H30 UNL A   1       6.255  33.066  -4.053  1.00  0.00    +0.000 H 
ATOM    116  H31 UNL A   1       4.591  32.105  -2.364  1.00  0.00    +0.000 H 
ATOM    117  H32 UNL A   1      11.899  26.630   1.830  1.00  0.00    +0.000 H 
ATOM    118  H33 UNL A   1      13.641  27.864   0.415  1.00  0.00    +0.000 H 
ENDROOT
BRANCH   27   26
ATOM    107  H22 UNL A   1      16.139  27.323  -3.033  1.00  0.00    +0.000 H 
ATOM    108  H23 UNL A   1      13.756  27.761  -2.871  1.00  0.00    +0.000 H 
ATOM     84  C59 UNL A   1      14.888  30.406  -1.144  1.00  0.00    +0.000 C 
ATOM     85  C60 UNL A   1      16.256  30.195  -1.303  1.00  0.00    +0.000 C 
ATOM    120  H35 UNL A   1      16.931  30.896  -0.961  1.00  0.00    +0.000 H 
ATOM     23  C17 UNL A   1      16.711  29.030  -1.928  1.00  0.00    +0.000 C 
ATOM     24  C18 UNL A   1      15.799  28.151  -2.519  1.00  0.00    +0.000 C 
ATOM     25  C19 UNL A   1      14.429  28.395  -2.413  1.00  0.00    +0.000 C 
ATOM    119  H34 UNL A   1      14.554  31.234  -0.625  1.00  0.00    +0.000 H 
ATOM     26  C20 UNL A   1      13.962  29.502  -1.685  1.00  0.00    +0.000 C 
BRANCH   23   21
ATOM     21  C16 UNL A   1      18.153  28.701  -1.980  1.00  0.00    +0.000 C 
ATOM     22  O4  UNL A   1      18.581  27.748  -1.333  1.00  0.00    +0.000 O 
BRANCH   21   20
ATOM    106  H21 UNL A   1      18.637  30.314  -3.059  1.00  0.00    +0.000 H 
ATOM     20  N2  UNL A   1      19.015  29.472  -2.720  1.00  0.00    +0.000 N 
BRANCH   20   19
ATOM    105  H20 UNL A   1      20.514  29.449  -4.119  1.00  0.00    +0.000 H 
ATOM     19  C15 UNL A   1      20.405  29.231  -3.077  1.00  0.00    +0.000 C 
ATOM    104  H19 UNL A   1      20.642  28.210  -2.860  1.00  0.00    +0.000 H 
BRANCH   19   18
ATOM     18  C14 UNL A   1      21.375  30.129  -2.314  1.00  0.00    +0.000 C 
ATOM    102  H17 UNL A   1      22.353  29.985  -2.724  1.00  0.00    +0.000 H 
ATOM    103  H18 UNL A   1      21.005  31.126  -2.427  1.00  0.00    +0.000 H 
BRANCH   18   17
ATOM     17  C13 UNL A   1      21.455  29.876  -0.806  1.00  0.00    +0.000 C 
ATOM    100  H15 UNL A   1      20.847  29.024  -0.583  1.00  0.00    +0.000 H 
ATOM    101  H16 UNL A   1      22.493  29.734  -0.587  1.00  0.00    +0.000 H 
BRANCH   17   16
ATOM     98  H13 UNL A   1      20.362  30.628   0.849  1.00  0.00    +0.000 H 
ATOM     99  H14 UNL A   1      21.883  31.493   0.454  1.00  0.00    +0.000 H 
ATOM     16  C12 UNL A   1      20.991  31.033   0.083  1.00  0.00    +0.000 C 
BRANCH   16   15
ATOM     97  H12 UNL A   1      19.834  31.717  -1.535  1.00  0.00    +0.000 H 
ATOM     15  C11 UNL A   1      20.211  32.145  -0.629  1.00  0.00    +0.000 C 
ATOM     96  H11 UNL A   1      20.877  32.966  -0.797  1.00  0.00    +0.000 H 
BRANCH   15   14
ATOM     94  H9  UNL A   1      19.227  33.636   0.533  1.00  0.00    +0.000 H 
ATOM     14  C10 UNL A   1      18.996  32.668   0.139  1.00  0.00    +0.000 C 
ATOM     95  H10 UNL A   1      18.169  32.715  -0.540  1.00  0.00    +0.000 H 
BRANCH   14   13
ATOM     13  N1  UNL A   1      18.632  31.792   1.233  1.00  0.00    +0.000 N 
ATOM     93  H8  UNL A   1      19.049  30.902   1.289  1.00  0.00    +0.000 H 
BRANCH   13    2
ATOM      1  O1  UNL A   1      18.025  32.635   3.279  1.00  0.00    +0.000 O 
ATOM      2  C1  UNL A   1      17.726  32.162   2.189  1.00  0.00    +0.000 C 
BRANCH    2    3
ATOM      3  C2  UNL A   1      16.292  32.006   1.834  1.00  0.00    +0.000 C 
ATOM     86  H1  UNL A   1      15.923  31.044   1.774  1.00  0.00    +0.000 H 
BRANCH    3    4
ATOM      4  C3  UNL A   1      15.433  33.008   1.585  1.00  0.00    +0.000 C 
ATOM     87  H2  UNL A   1      15.792  33.974   1.550  1.00  0.00    +0.000 H 
BRANCH    4    5
ATOM      5  C4  UNL A   1      13.997  32.778   1.360  1.00  0.00    +0.000 C 
ATOM      6  C5  UNL A   1      13.266  33.491   0.393  1.00  0.00    +0.000 C 
ATOM      7  C6  UNL A   1      11.895  33.267   0.220  1.00  0.00    +0.000 C 
ATOM      8  C7  UNL A   1      11.260  32.318   1.009  1.00  0.00    +0.000 C 
ATOM     10  C8  UNL A   1      11.984  31.588   1.948  1.00  0.00    +0.000 C 
ATOM     12  C9  UNL A   1      13.344  31.803   2.125  1.00  0.00    +0.000 C 
ATOM     88  H3  UNL A   1      13.746  34.188  -0.197  1.00  0.00    +0.000 H 
ATOM     89  H4  UNL A   1      11.364  33.800  -0.486  1.00  0.00    +0.000 H 
ATOM     92  H7  UNL A   1      13.872  31.248   2.817  1.00  0.00    +0.000 H 
BRANCH    8    9
ATOM      9  O2  UNL A   1       9.921  32.066   0.902  1.00  0.00    +0.000 O 
ATOM     90  H5  UNL A   1       9.406  32.527   0.270  1.00  0.00    +0.000 H 
ENDBRANCH    8    9
BRANCH   10   11
ATOM     11  O3  UNL A   1      11.353  30.653   2.717  1.00  0.00    +0.000 O 
ATOM     91  H6  UNL A   1      10.932  30.908   3.515  1.00  0.00    +0.000 H 
ENDBRANCH   10   11
ENDBRANCH    4    5
ENDBRANCH    3    4
ENDBRANCH    2    3
ENDBRANCH   13    2
ENDBRANCH   14   13
ENDBRANCH   15   14
ENDBRANCH   16   15
ENDBRANCH   17   16
ENDBRANCH   18   17
ENDBRANCH   19   18
ENDBRANCH   20   19
ENDBRANCH   21   20
ENDBRANCH   23   21
ENDBRANCH   27   26
BRANCH   31   32
ATOM     33  C26 UNL A   1       9.340  25.186   2.392  1.00  0.00    +0.000 C 
ATOM     34  F1  UNL A   1       9.100  24.771   1.138  1.00  0.00    +0.000 F 
ATOM     35  C27 UNL A   1       9.463  24.234   3.400  1.00  0.00    +0.000 C 
ATOM     36  F2  UNL A   1       9.332  22.932   3.110  1.00  0.00    +0.000 F 
ATOM     37  C28 UNL A   1       9.703  24.632   4.707  1.00  0.00    +0.000 C 
ATOM     38  F3  UNL A   1       9.823  23.715   5.677  1.00  0.00    +0.000 F 
ATOM     39  C29 UNL A   1       9.810  25.981   5.010  1.00  0.00    +0.000 C 
ATOM     40  F4  UNL A   1      10.054  26.366   6.270  1.00  0.00    +0.000 F 
ATOM     41  C30 UNL A   1       9.657  26.936   4.008  1.00  0.00    +0.000 C 
ATOM     42  F5  UNL A   1       9.748  28.234   4.335  1.00  0.00    +0.000 F 
ATOM     32  C25 UNL A   1       9.416  26.558   2.679  1.00  0.00    +0.000 C 
ENDBRANCH   31   32
BRANCH   48   49
ATOM     49  C36 UNL A   1       4.166  30.444  -0.387  1.00  0.00    +0.000 C 
ATOM     50  C37 UNL A   1       3.260  29.537  -0.954  1.00  0.00    +0.000 C 
ATOM     51  F6  UNL A   1       3.707  28.505  -1.686  1.00  0.00    +0.000 F 
ATOM     52  C38 UNL A   1       1.886  29.707  -0.799  1.00  0.00    +0.000 C 
ATOM     53  F7  UNL A   1       1.037  28.850  -1.383  1.00  0.00    +0.000 F 
ATOM     54  C39 UNL A   1       1.396  30.767  -0.053  1.00  0.00    +0.000 C 
ATOM     55  F8  UNL A   1       0.074  30.925   0.101  1.00  0.00    +0.000 F 
ATOM     56  C40 UNL A   1       2.275  31.669   0.528  1.00  0.00    +0.000 C 
ATOM     57  F9  UNL A   1       1.803  32.690   1.257  1.00  0.00    +0.000 F 
ATOM     58  C41 UNL A   1       3.648  31.518   0.353  1.00  0.00    +0.000 C 
ATOM     59  F10 UNL A   1       4.474  32.411   0.917  1.00  0.00    +0.000 F 
ENDBRANCH   48   49
BRANCH   63   64
ATOM     65  C46 UNL A   1       9.054  32.698  -6.085  1.00  0.00    +0.000 C 
ATOM     66  F11 UNL A   1       9.378  31.415  -6.305  1.00  0.00    +0.000 F 
ATOM     67  C47 UNL A   1       8.946  33.564  -7.170  1.00  0.00    +0.000 C 
ATOM     68  F12 UNL A   1       9.170  33.110  -8.411  1.00  0.00    +0.000 F 
ATOM     69  C48 UNL A   1       8.616  34.896  -6.969  1.00  0.00    +0.000 C 
ATOM     70  F13 UNL A   1       8.500  35.725  -8.015  1.00  0.00    +0.000 F 
ATOM     71  C49 UNL A   1       8.408  35.367  -5.681  1.00  0.00    +0.000 C 
ATOM     72  F14 UNL A   1       8.075  36.650  -5.484  1.00  0.00    +0.000 F 
ATOM     73  C50 UNL A   1       8.539  34.508  -4.593  1.00  0.00    +0.000 C 
ATOM     74  F15 UNL A   1       8.334  34.990  -3.359  1.00  0.00    +0.000 F 
ATOM     64  C45 UNL A   1       8.856  33.154  -4.774  1.00  0.00    +0.000 C 
ENDBRANCH   63   64
TORSDOF 19
ENDMDL
MODEL 6
REMARK VINA RESULT:      -9.9     24.931     30.422
ROOT
ATOM     27  C21 UNL A   1      41.470  26.363  27.908  1.00  0.00    +0.000 C 
ATOM     28  C22 UNL A   1      40.767  27.483  28.618  1.00  0.00    +0.000 C 
ATOM     29  N3  UNL A   1      41.214  28.672  28.937  1.00  0.00    +0.000 N 
ATOM     30  C23 UNL A   1      40.152  29.325  29.547  1.00  0.00    +0.000 C 
ATOM     31  C24 UNL A   1      40.128  30.558  30.107  1.00  0.00    +0.000 C 
ATOM     43  C31 UNL A   1      41.256  31.452  30.157  1.00  0.00    +0.000 C 
ATOM     44  C32 UNL A   1      41.348  32.693  30.761  1.00  0.00    +0.000 C 
ATOM     45  C33 UNL A   1      42.621  33.214  30.501  1.00  0.00    +0.000 C 
ATOM     46  C34 UNL A   1      43.337  32.279  29.771  1.00  0.00    +0.000 C 
ATOM     47  N4  UNL A   1      42.487  31.202  29.568  1.00  0.00    +0.000 N 
ATOM     48  C35 UNL A   1      44.693  32.358  29.290  1.00  0.00    +0.000 C 
ATOM     60  C42 UNL A   1      45.339  31.373  28.621  1.00  0.00    +0.000 C 
ATOM     61  N5  UNL A   1      44.868  30.123  28.244  1.00  0.00    +0.000 N 
ATOM     62  C43 UNL A   1      45.857  29.543  27.608  1.00  0.00    +0.000 C 
ATOM     63  C44 UNL A   1      45.909  28.175  26.988  1.00  0.00    +0.000 C 
ATOM     75  C51 UNL A   1      44.845  27.356  27.099  1.00  0.00    +0.000 C 
ATOM     76  C52 UNL A   1      44.758  26.007  26.551  1.00  0.00    +0.000 C 
ATOM     77  C53 UNL A   1      43.530  25.518  26.784  1.00  0.00    +0.000 C 
ATOM     78  C54 UNL A   1      42.754  26.510  27.530  1.00  0.00    +0.000 C 
ATOM     79  N6  UNL A   1      43.626  27.557  27.698  1.00  0.00    +0.000 N 
ATOM     80  C55 UNL A   1      47.067  30.368  27.497  1.00  0.00    +0.000 C 
ATOM     81  C56 UNL A   1      46.709  31.460  28.157  1.00  0.00    +0.000 C 
ATOM     82  C57 UNL A   1      39.023  28.419  29.507  1.00  0.00    +0.000 C 
ATOM     83  C58 UNL A   1      39.367  27.245  28.999  1.00  0.00    +0.000 C 
ATOM    109  H24 UNL A   1      40.607  33.156  31.310  1.00  0.00    +0.000 H 
ATOM    110  H25 UNL A   1      42.969  34.138  30.802  1.00  0.00    +0.000 H 
ATOM    111  H26 UNL A   1      42.723  30.381  29.079  1.00  0.00    +0.000 H 
ATOM    112  H27 UNL A   1      45.519  25.509  26.063  1.00  0.00    +0.000 H 
ATOM    113  H28 UNL A   1      43.188  24.592  26.485  1.00  0.00    +0.000 H 
ATOM    114  H29 UNL A   1      43.398  28.373  28.200  1.00  0.00    +0.000 H 
ATOM    115  H30 UNL A   1      47.962  30.153  27.029  1.00  0.00    +0.000 H 
ATOM    116  H31 UNL A   1      47.327  32.270  28.321  1.00  0.00    +0.000 H 
ATOM    117  H32 UNL A   1      38.074  28.657  29.834  1.00  0.00    +0.000 H 
ATOM    118  H33 UNL A   1      38.800  26.388  28.895  1.00  0.00    +0.000 H 
ENDROOT
BRANCH   27   26
ATOM    107  H22 UNL A   1      40.865  21.781  27.864  1.00  0.00    +0.000 H 
ATOM    108  H23 UNL A   1      41.921  23.804  28.693  1.00  0.00    +0.000 H 
ATOM     84  C59 UNL A   1      39.639  25.203  26.670  1.00  0.00    +0.000 C 
ATOM     85  C60 UNL A   1      38.984  24.046  26.254  1.00  0.00    +0.000 C 
ATOM    120  H35 UNL A   1      38.136  24.112  25.670  1.00  0.00    +0.000 H 
ATOM     23  C17 UNL A   1      39.480  22.794  26.631  1.00  0.00    +0.000 C 
ATOM     24  C18 UNL A   1      40.539  22.705  27.539  1.00  0.00    +0.000 C 
ATOM     25  C19 UNL A   1      41.156  23.868  28.004  1.00  0.00    +0.000 C 
ATOM    119  H34 UNL A   1      39.311  26.125  26.338  1.00  0.00    +0.000 H 
ATOM     26  C20 UNL A   1      40.739  25.125  27.537  1.00  0.00    +0.000 C 
BRANCH   23   21
ATOM     21  C16 UNL A   1      38.903  21.545  26.087  1.00  0.00    +0.000 C 
ATOM     22  O4  UNL A   1      39.562  20.509  26.118  1.00  0.00    +0.000 O 
BRANCH   21   20
ATOM    106  H21 UNL A   1      36.908  21.397  26.150  1.00  0.00    +0.000 H 
ATOM     20  N2  UNL A   1      37.651  21.547  25.522  1.00  0.00    +0.000 N 
BRANCH   20   19
ATOM    105  H20 UNL A   1      37.172  20.768  23.687  1.00  0.00    +0.000 H 
ATOM     19  C15 UNL A   1      37.258  21.736  24.134  1.00  0.00    +0.000 C 
ATOM    104  H19 UNL A   1      38.001  22.333  23.646  1.00  0.00    +0.000 H 
BRANCH   19   18
ATOM     18  C14 UNL A   1      35.905  22.430  23.993  1.00  0.00    +0.000 C 
ATOM    102  H17 UNL A   1      35.677  22.502  22.950  1.00  0.00    +0.000 H 
ATOM    103  H18 UNL A   1      35.209  21.833  24.544  1.00  0.00    +0.000 H 
BRANCH   18   17
ATOM     17  C13 UNL A   1      35.825  23.836  24.592  1.00  0.00    +0.000 C 
ATOM    100  H15 UNL A   1      36.728  24.014  25.137  1.00  0.00    +0.000 H 
ATOM    101  H16 UNL A   1      35.683  24.500  23.765  1.00  0.00    +0.000 H 
BRANCH   17   16
ATOM     98  H13 UNL A   1      34.740  25.077  25.928  1.00  0.00    +0.000 H 
ATOM     99  H14 UNL A   1      33.763  23.933  24.952  1.00  0.00    +0.000 H 
ATOM     16  C12 UNL A   1      34.645  24.084  25.537  1.00  0.00    +0.000 C 
BRANCH   16   15
ATOM     97  H12 UNL A   1      34.544  23.724  27.607  1.00  0.00    +0.000 H 
ATOM     15  C11 UNL A   1      34.532  23.119  26.724  1.00  0.00    +0.000 C 
ATOM     96  H11 UNL A   1      35.350  22.431  26.674  1.00  0.00    +0.000 H 
BRANCH   15   14
ATOM     94  H9  UNL A   1      32.784  22.436  27.734  1.00  0.00    +0.000 H 
ATOM     14  C10 UNL A   1      33.234  22.312  26.771  1.00  0.00    +0.000 C 
ATOM     95  H10 UNL A   1      32.590  22.675  25.996  1.00  0.00    +0.000 H 
BRANCH   14   13
ATOM     13  N1  UNL A   1      33.466  20.902  26.541  1.00  0.00    +0.000 N 
ATOM     93  H8  UNL A   1      33.700  20.327  27.305  1.00  0.00    +0.000 H 
BRANCH   13    2
ATOM      1  O1  UNL A   1      34.099  19.447  24.883  1.00  0.00    +0.000 O 
ATOM      2  C1  UNL A   1      33.372  20.344  25.295  1.00  0.00    +0.000 C 
BRANCH    2    3
ATOM      3  C2  UNL A   1      32.279  20.850  24.426  1.00  0.00    +0.000 C 
ATOM     86  H1  UNL A   1      31.318  20.793  24.798  1.00  0.00    +0.000 H 
BRANCH    3    4
ATOM      4  C3  UNL A   1      32.431  21.375  23.200  1.00  0.00    +0.000 C 
ATOM     87  H2  UNL A   1      32.702  20.752  22.423  1.00  0.00    +0.000 H 
BRANCH    4    5
ATOM      5  C4  UNL A   1      32.227  22.804  22.922  1.00  0.00    +0.000 C 
ATOM      6  C5  UNL A   1      33.059  23.525  22.046  1.00  0.00    +0.000 C 
ATOM      7  C6  UNL A   1      32.853  24.891  21.822  1.00  0.00    +0.000 C 
ATOM      8  C7  UNL A   1      31.804  25.532  22.466  1.00  0.00    +0.000 C 
ATOM     10  C8  UNL A   1      30.959  24.819  23.312  1.00  0.00    +0.000 C 
ATOM     12  C9  UNL A   1      31.156  23.463  23.539  1.00  0.00    +0.000 C 
ATOM     88  H3  UNL A   1      33.831  23.040  21.563  1.00  0.00    +0.000 H 
ATOM     89  H4  UNL A   1      33.474  25.415  21.185  1.00  0.00    +0.000 H 
ATOM     92  H7  UNL A   1      30.515  22.942  24.159  1.00  0.00    +0.000 H 
BRANCH    8    9
ATOM      9  O2  UNL A   1      31.563  26.868  22.304  1.00  0.00    +0.000 O 
ATOM     90  H5  UNL A   1      30.875  27.282  22.787  1.00  0.00    +0.000 H 
ENDBRANCH    8    9
BRANCH   10   11
ATOM     11  O3  UNL A   1      29.927  25.455  23.938  1.00  0.00    +0.000 O 
ATOM     91  H6  UNL A   1      30.088  26.232  24.436  1.00  0.00    +0.000 H 
ENDBRANCH   10   11
ENDBRANCH    4    5
ENDBRANCH    3    4
ENDBRANCH    2    3
ENDBRANCH   13    2
ENDBRANCH   14   13
ENDBRANCH   15   14
ENDBRANCH   16   15
ENDBRANCH   17   16
ENDBRANCH   18   17
ENDBRANCH   19   18
ENDBRANCH   20   19
ENDBRANCH   21   20
ENDBRANCH   23   21
ENDBRANCH   27   26
BRANCH   31   32
ATOM     33  C26 UNL A   1      37.816  31.583  29.934  1.00  0.00    +0.000 C 
ATOM     34  F1  UNL A   1      37.998  31.765  28.616  1.00  0.00    +0.000 F 
ATOM     35  C27 UNL A   1      36.624  32.015  30.510  1.00  0.00    +0.000 C 
ATOM     36  F2  UNL A   1      35.691  32.608  29.753  1.00  0.00    +0.000 F 
ATOM     37  C28 UNL A   1      36.409  31.849  31.870  1.00  0.00    +0.000 C 
ATOM     38  F3  UNL A   1      35.262  32.263  32.424  1.00  0.00    +0.000 F 
ATOM     39  C29 UNL A   1      37.388  31.260  32.657  1.00  0.00    +0.000 C 
ATOM     40  F4  UNL A   1      37.177  31.088  33.970  1.00  0.00    +0.000 F 
ATOM     41  C30 UNL A   1      38.593  30.855  32.088  1.00  0.00    +0.000 C 
ATOM     42  F5  UNL A   1      39.527  30.306  32.879  1.00  0.00    +0.000 F 
ATOM     32  C25 UNL A   1      38.832  31.011  30.715  1.00  0.00    +0.000 C 
ENDBRANCH   31   32
BRANCH   48   49
ATOM     49  C36 UNL A   1      45.460  33.619  29.561  1.00  0.00    +0.000 C 
ATOM     50  C37 UNL A   1      45.419  34.704  28.674  1.00  0.00    +0.000 C 
ATOM     51  F6  UNL A   1      44.727  34.614  27.528  1.00  0.00    +0.000 F 
ATOM     52  C38 UNL A   1      46.120  35.877  28.945  1.00  0.00    +0.000 C 
ATOM     53  F7  UNL A   1      46.099  36.887  28.065  1.00  0.00    +0.000 F 
ATOM     54  C39 UNL A   1      46.849  35.996  30.118  1.00  0.00    +0.000 C 
ATOM     55  F8  UNL A   1      47.517  37.128  30.381  1.00  0.00    +0.000 F 
ATOM     56  C40 UNL A   1      46.892  34.940  31.016  1.00  0.00    +0.000 C 
ATOM     57  F9  UNL A   1      47.589  35.057  32.155  1.00  0.00    +0.000 F 
ATOM     58  C41 UNL A   1      46.214  33.756  30.736  1.00  0.00    +0.000 C 
ATOM     59  F10 UNL A   1      46.283  32.748  31.617  1.00  0.00    +0.000 F 
ENDBRANCH   48   49
BRANCH   63   64
ATOM     65  C46 UNL A   1      48.186  27.119  26.963  1.00  0.00    +0.000 C 
ATOM     66  F11 UNL A   1      48.144  27.026  28.299  1.00  0.00    +0.000 F 
ATOM     67  C47 UNL A   1      49.312  26.653  26.287  1.00  0.00    +0.000 C 
ATOM     68  F12 UNL A   1      50.333  26.124  26.976  1.00  0.00    +0.000 F 
ATOM     69  C48 UNL A   1      49.382  26.741  24.905  1.00  0.00    +0.000 C 
ATOM     70  F13 UNL A   1      50.459  26.281  24.255  1.00  0.00    +0.000 F 
ATOM     71  C49 UNL A   1      48.333  27.309  24.197  1.00  0.00    +0.000 C 
ATOM     72  F14 UNL A   1      48.390  27.383  22.860  1.00  0.00    +0.000 F 
ATOM     73  C50 UNL A   1      47.217  27.798  24.873  1.00  0.00    +0.000 C 
ATOM     74  F15 UNL A   1      46.218  28.344  24.164  1.00  0.00    +0.000 F 
ATOM     64  C45 UNL A   1      47.118  27.704  26.268  1.00  0.00    +0.000 C 
ENDBRANCH   63   64
TORSDOF 19
ENDMDL
MODEL 7
REMARK VINA RESULT:      -9.8     48.091     52.750
ROOT
ATOM     27  C21 UNL A   1      29.168 -14.012  30.806  1.00  0.00    +0.000 C 
ATOM     28  C22 UNL A   1      28.889 -14.165  32.273  1.00  0.00    +0.000 C 
ATOM     29  N3  UNL A   1      27.862 -13.748  32.969  1.00  0.00    +0.000 N 
ATOM     30  C23 UNL A   1      28.083 -14.181  34.268  1.00  0.00    +0.000 C 
ATOM     31  C24 UNL A   1      27.336 -13.951  35.375  1.00  0.00    +0.000 C 
ATOM     43  C31 UNL A   1      26.116 -13.187  35.389  1.00  0.00    +0.000 C 
ATOM     44  C32 UNL A   1      25.325 -12.842  36.471  1.00  0.00    +0.000 C 
ATOM     45  C33 UNL A   1      24.212 -12.141  35.994  1.00  0.00    +0.000 C 
ATOM     46  C34 UNL A   1      24.330 -12.012  34.619  1.00  0.00    +0.000 C 
ATOM     47  N4  UNL A   1      25.504 -12.657  34.262  1.00  0.00    +0.000 N 
ATOM     48  C35 UNL A   1      23.440 -11.353  33.697  1.00  0.00    +0.000 C 
ATOM     60  C42 UNL A   1      23.655 -11.227  32.366  1.00  0.00    +0.000 C 
ATOM     61  N5  UNL A   1      24.719 -11.695  31.608  1.00  0.00    +0.000 N 
ATOM     62  C43 UNL A   1      24.465 -11.340  30.372  1.00  0.00    +0.000 C 
ATOM     63  C44 UNL A   1      25.282 -11.576  29.133  1.00  0.00    +0.000 C 
ATOM     75  C51 UNL A   1      26.474 -12.193  29.234  1.00  0.00    +0.000 C 
ATOM     76  C52 UNL A   1      27.370 -12.485  28.120  1.00  0.00    +0.000 C 
ATOM     77  C53 UNL A   1      28.427 -13.175  28.575  1.00  0.00    +0.000 C 
ATOM     78  C54 UNL A   1      28.298 -13.343  30.024  1.00  0.00    +0.000 C 
ATOM     79  N6  UNL A   1      27.124 -12.702  30.331  1.00  0.00    +0.000 N 
ATOM     80  C55 UNL A   1      23.198 -10.615  30.203  1.00  0.00    +0.000 C 
ATOM     81  C56 UNL A   1      22.759 -10.547  31.452  1.00  0.00    +0.000 C 
ATOM     82  C57 UNL A   1      29.317 -14.939  34.254  1.00  0.00    +0.000 C 
ATOM     83  C58 UNL A   1      29.886 -14.908  33.058  1.00  0.00    +0.000 C 
ATOM    109  H24 UNL A   1      25.522 -13.063  37.460  1.00  0.00    +0.000 H 
ATOM    110  H25 UNL A   1      23.433 -11.781  36.569  1.00  0.00    +0.000 H 
ATOM    111  H26 UNL A   1      25.852 -12.728  33.344  1.00  0.00    +0.000 H 
ATOM    112  H27 UNL A   1      27.215 -12.205  27.138  1.00  0.00    +0.000 H 
ATOM    113  H28 UNL A   1      29.205 -13.529  27.998  1.00  0.00    +0.000 H 
ATOM    114  H29 UNL A   1      26.780 -12.616  31.250  1.00  0.00    +0.000 H 
ATOM    115  H30 UNL A   1      22.764 -10.254  29.339  1.00  0.00    +0.000 H 
ATOM    116  H31 UNL A   1      21.891 -10.070  31.738  1.00  0.00    +0.000 H 
ATOM    117  H32 UNL A   1      29.704 -15.438  35.071  1.00  0.00    +0.000 H 
ATOM    118  H33 UNL A   1      30.791 -15.302  32.756  1.00  0.00    +0.000 H 
ENDROOT
BRANCH   27   26
ATOM    107  H22 UNL A   1      33.600 -14.157  29.506  1.00  0.00    +0.000 H 
ATOM    108  H23 UNL A   1      31.752 -13.186  30.746  1.00  0.00    +0.000 H 
ATOM     84  C59 UNL A   1      30.193 -15.896  29.529  1.00  0.00    +0.000 C 
ATOM     85  C60 UNL A   1      31.274 -16.491  28.882  1.00  0.00    +0.000 C 
ATOM    120  H35 UNL A   1      31.172 -17.426  28.457  1.00  0.00    +0.000 H 
ATOM     23  C17 UNL A   1      32.497 -15.819  28.811  1.00  0.00    +0.000 C 
ATOM     24  C18 UNL A   1      32.679 -14.621  29.509  1.00  0.00    +0.000 C 
ATOM     25  C19 UNL A   1      31.612 -14.055  30.210  1.00  0.00    +0.000 C 
ATOM    119  H34 UNL A   1      29.272 -16.364  29.525  1.00  0.00    +0.000 H 
ATOM     26  C20 UNL A   1      30.348 -14.667  30.187  1.00  0.00    +0.000 C 
BRANCH   23   21
ATOM     21  C16 UNL A   1      33.619 -16.350  28.005  1.00  0.00    +0.000 C 
ATOM     22  O4  UNL A   1      34.552 -16.918  28.566  1.00  0.00    +0.000 O 
BRANCH   21   20
ATOM    106  H21 UNL A   1      33.993 -16.945  26.132  1.00  0.00    +0.000 H 
ATOM     20  N2  UNL A   1      33.635 -16.183  26.642  1.00  0.00    +0.000 N 
BRANCH   20   19
ATOM    105  H20 UNL A   1      32.171 -14.870  26.061  1.00  0.00    +0.000 H 
ATOM     19  C15 UNL A   1      33.202 -15.049  25.839  1.00  0.00    +0.000 C 
ATOM    104  H19 UNL A   1      33.349 -15.286  24.806  1.00  0.00    +0.000 H 
BRANCH   19   18
ATOM     18  C14 UNL A   1      33.971 -13.770  26.161  1.00  0.00    +0.000 C 
ATOM    102  H17 UNL A   1      34.249 -13.801  27.193  1.00  0.00    +0.000 H 
ATOM    103  H18 UNL A   1      34.806 -13.752  25.492  1.00  0.00    +0.000 H 
BRANCH   18   17
ATOM     17  C13 UNL A   1      33.206 -12.467  25.917  1.00  0.00    +0.000 C 
ATOM    100  H15 UNL A   1      33.915 -11.667  25.898  1.00  0.00    +0.000 H 
ATOM    101  H16 UNL A   1      32.684 -12.603  24.992  1.00  0.00    +0.000 H 
BRANCH   17   16
ATOM     98  H13 UNL A   1      31.327 -11.639  26.451  1.00  0.00    +0.000 H 
ATOM     99  H14 UNL A   1      31.862 -13.055  27.413  1.00  0.00    +0.000 H 
ATOM     16  C12 UNL A   1      32.135 -12.126  26.957  1.00  0.00    +0.000 C 
BRANCH   16   15
ATOM     97  H12 UNL A   1      33.661 -11.232  28.096  1.00  0.00    +0.000 H 
ATOM     15  C11 UNL A   1      32.591 -11.214  28.103  1.00  0.00    +0.000 C 
ATOM     96  H11 UNL A   1      32.170 -11.587  29.014  1.00  0.00    +0.000 H 
BRANCH   15   14
ATOM     94  H9  UNL A   1      31.919  -9.364  28.919  1.00  0.00    +0.000 H 
ATOM     14  C10 UNL A   1      32.182  -9.748  27.956  1.00  0.00    +0.000 C 
ATOM     95  H10 UNL A   1      33.012  -9.213  27.541  1.00  0.00    +0.000 H 
BRANCH   14   13
ATOM     13  N1  UNL A   1      31.053  -9.590  27.064  1.00  0.00    +0.000 N 
ATOM     93  H8  UNL A   1      30.988 -10.169  26.270  1.00  0.00    +0.000 H 
BRANCH   13    2
ATOM      1  O1  UNL A   1      29.974  -7.601  26.681  1.00  0.00    +0.000 O 
ATOM      2  C1  UNL A   1      30.074  -8.661  27.288  1.00  0.00    +0.000 C 
BRANCH    2    3
ATOM      3  C2  UNL A   1      29.055  -9.011  28.311  1.00  0.00    +0.000 C 
ATOM     86  H1  UNL A   1      28.071  -8.794  28.088  1.00  0.00    +0.000 H 
BRANCH    3    4
ATOM      4  C3  UNL A   1      29.301  -9.585  29.499  1.00  0.00    +0.000 C 
ATOM     87  H2  UNL A   1      30.149 -10.163  29.606  1.00  0.00    +0.000 H 
BRANCH    4    5
ATOM      5  C4  UNL A   1      28.406  -9.422  30.655  1.00  0.00    +0.000 C 
ATOM      6  C5  UNL A   1      27.248  -8.625  30.600  1.00  0.00    +0.000 C 
ATOM      7  C6  UNL A   1      26.430  -8.471  31.726  1.00  0.00    +0.000 C 
ATOM      8  C7  UNL A   1      26.765  -9.127  32.902  1.00  0.00    +0.000 C 
ATOM     10  C8  UNL A   1      27.894  -9.940  32.954  1.00  0.00    +0.000 C 
ATOM     12  C9  UNL A   1      28.710 -10.100  31.843  1.00  0.00    +0.000 C 
ATOM     88  H3  UNL A   1      26.999  -8.149  29.720  1.00  0.00    +0.000 H 
ATOM     89  H4  UNL A   1      25.587  -7.877  31.680  1.00  0.00    +0.000 H 
ATOM     92  H7  UNL A   1      29.538 -10.715  31.890  1.00  0.00    +0.000 H 
BRANCH    8    9
ATOM      9  O2  UNL A   1      26.018  -9.002  34.039  1.00  0.00    +0.000 O 
ATOM     90  H5  UNL A   1      25.433  -9.687  34.294  1.00  0.00    +0.000 H 
ENDBRANCH    8    9
BRANCH   10   11
ATOM     11  O3  UNL A   1      28.215 -10.586  34.113  1.00  0.00    +0.000 O 
ATOM     91  H6  UNL A   1      28.998 -11.099  34.162  1.00  0.00    +0.000 H 
ENDBRANCH   10   11
ENDBRANCH    4    5
ENDBRANCH    3    4
ENDBRANCH    2    3
ENDBRANCH   13    2
ENDBRANCH   14   13
ENDBRANCH   15   14
ENDBRANCH   16   15
ENDBRANCH   17   16
ENDBRANCH   18   17
ENDBRANCH   19   18
ENDBRANCH   20   19
ENDBRANCH   21   20
ENDBRANCH   23   21
ENDBRANCH   27   26
BRANCH   31   32
ATOM     33  C26 UNL A   1      28.730 -13.847  37.490  1.00  0.00    +0.000 C 
ATOM     34  F1  UNL A   1      29.204 -12.648  37.116  1.00  0.00    +0.000 F 
ATOM     35  C27 UNL A   1      29.190 -14.407  38.680  1.00  0.00    +0.000 C 
ATOM     36  F2  UNL A   1      30.095 -13.753  39.421  1.00  0.00    +0.000 F 
ATOM     37  C28 UNL A   1      28.725 -15.648  39.089  1.00  0.00    +0.000 C 
ATOM     38  F3  UNL A   1      29.167 -16.186  40.235  1.00  0.00    +0.000 F 
ATOM     39  C29 UNL A   1      27.809 -16.335  38.306  1.00  0.00    +0.000 C 
ATOM     40  F4  UNL A   1      27.351 -17.530  38.707  1.00  0.00    +0.000 F 
ATOM     41  C30 UNL A   1      27.371 -15.791  37.102  1.00  0.00    +0.000 C 
ATOM     42  F5  UNL A   1      26.499 -16.488  36.358  1.00  0.00    +0.000 F 
ATOM     32  C25 UNL A   1      27.826 -14.537  36.668  1.00  0.00    +0.000 C 
ENDBRANCH   31   32
BRANCH   48   49
ATOM     49  C36 UNL A   1      22.186 -10.741  34.249  1.00  0.00    +0.000 C 
ATOM     50  C37 UNL A   1      22.188  -9.463  34.825  1.00  0.00    +0.000 C 
ATOM     51  F6  UNL A   1      23.336  -8.778  34.943  1.00  0.00    +0.000 F 
ATOM     52  C38 UNL A   1      21.014  -8.897  35.316  1.00  0.00    +0.000 C 
ATOM     53  F7  UNL A   1      21.046  -7.691  35.900  1.00  0.00    +0.000 F 
ATOM     54  C39 UNL A   1      19.815  -9.585  35.215  1.00  0.00    +0.000 C 
ATOM     55  F8  UNL A   1      18.685  -9.036  35.682  1.00  0.00    +0.000 F 
ATOM     56  C40 UNL A   1      19.787 -10.845  34.636  1.00  0.00    +0.000 C 
ATOM     57  F9  UNL A   1      18.626 -11.507  34.528  1.00  0.00    +0.000 F 
ATOM     58  C41 UNL A   1      20.963 -11.425  34.167  1.00  0.00    +0.000 C 
ATOM     59  F10 UNL A   1      20.907 -12.648  33.622  1.00  0.00    +0.000 F 
ENDBRANCH   48   49
BRANCH   63   64
ATOM     65  C46 UNL A   1      24.008 -11.962  27.005  1.00  0.00    +0.000 C 
ATOM     66  F11 UNL A   1      23.711 -13.201  27.422  1.00  0.00    +0.000 F 
ATOM     67  C47 UNL A   1      23.536 -11.534  25.766  1.00  0.00    +0.000 C 
ATOM     68  F12 UNL A   1      22.801 -12.361  25.009  1.00  0.00    +0.000 F 
ATOM     69  C48 UNL A   1      23.832 -10.258  25.310  1.00  0.00    +0.000 C 
ATOM     70  F13 UNL A   1      23.368  -9.844  24.123  1.00  0.00    +0.000 F 
ATOM     71  C49 UNL A   1      24.612  -9.413  26.085  1.00  0.00    +0.000 C 
ATOM     72  F14 UNL A   1      24.888  -8.174  25.655  1.00  0.00    +0.000 F 
ATOM     73  C50 UNL A   1      25.105  -9.848  27.313  1.00  0.00    +0.000 C 
ATOM     74  F15 UNL A   1      25.857  -9.011  28.042  1.00  0.00    +0.000 F 
ATOM     64  C45 UNL A   1      24.804 -11.127  27.801  1.00  0.00    +0.000 C 
ENDBRANCH   63   64
TORSDOF 19
ENDMDL
MODEL 8
REMARK VINA RESULT:      -9.8     22.443     27.456
ROOT
ATOM     27  C21 UNL A   1      38.179  30.091  29.600  1.00  0.00    +0.000 C 
ATOM     28  C22 UNL A   1      39.203  29.120  29.088  1.00  0.00    +0.000 C 
ATOM     29  N3  UNL A   1      40.280  28.666  29.677  1.00  0.00    +0.000 N 
ATOM     30  C23 UNL A   1      40.852  27.772  28.783  1.00  0.00    +0.000 C 
ATOM     31  C24 UNL A   1      42.012  27.083  28.903  1.00  0.00    +0.000 C 
ATOM     43  C31 UNL A   1      42.889  27.157  30.042  1.00  0.00    +0.000 C 
ATOM     44  C32 UNL A   1      44.119  26.550  30.227  1.00  0.00    +0.000 C 
ATOM     45  C33 UNL A   1      44.576  26.867  31.511  1.00  0.00    +0.000 C 
ATOM     46  C34 UNL A   1      43.652  27.707  32.111  1.00  0.00    +0.000 C 
ATOM     47  N4  UNL A   1      42.623  27.878  31.198  1.00  0.00    +0.000 N 
ATOM     48  C35 UNL A   1      43.699  28.310  33.419  1.00  0.00    +0.000 C 
ATOM     60  C42 UNL A   1      42.772  29.165  33.914  1.00  0.00    +0.000 C 
ATOM     61  N5  UNL A   1      41.607  29.627  33.318  1.00  0.00    +0.000 N 
ATOM     62  C43 UNL A   1      41.041  30.416  34.198  1.00  0.00    +0.000 C 
ATOM     63  C44 UNL A   1      39.762  31.197  34.083  1.00  0.00    +0.000 C 
ATOM     75  C51 UNL A   1      39.068  31.165  32.930  1.00  0.00    +0.000 C 
ATOM     76  C52 UNL A   1      37.817  31.872  32.679  1.00  0.00    +0.000 C 
ATOM     77  C53 UNL A   1      37.369  31.550  31.455  1.00  0.00    +0.000 C 
ATOM     78  C54 UNL A   1      38.324  30.639  30.822  1.00  0.00    +0.000 C 
ATOM     79  N6  UNL A   1      39.315  30.490  31.760  1.00  0.00    +0.000 N 
ATOM     80  C55 UNL A   1      41.779  30.534  35.463  1.00  0.00    +0.000 C 
ATOM     81  C56 UNL A   1      42.840  29.776  35.226  1.00  0.00    +0.000 C 
ATOM     82  C57 UNL A   1      39.974  27.708  27.634  1.00  0.00    +0.000 C 
ATOM     83  C58 UNL A   1      38.973  28.568  27.745  1.00  0.00    +0.000 C 
ATOM    109  H24 UNL A   1      44.614  25.964  29.537  1.00  0.00    +0.000 H 
ATOM    110  H25 UNL A   1      45.454  26.532  31.940  1.00  0.00    +0.000 H 
ATOM    111  H26 UNL A   1      41.821  28.429  31.347  1.00  0.00    +0.000 H 
ATOM    112  H27 UNL A   1      37.351  32.516  33.337  1.00  0.00    +0.000 H 
ATOM    113  H28 UNL A   1      36.494  31.890  31.029  1.00  0.00    +0.000 H 
ATOM    114  H29 UNL A   1      40.126  29.951  31.608  1.00  0.00    +0.000 H 
ATOM    115  H30 UNL A   1      41.535  31.066  36.313  1.00  0.00    +0.000 H 
ATOM    116  H31 UNL A   1      43.617  29.639  35.891  1.00  0.00    +0.000 H 
ATOM    117  H32 UNL A   1      40.112  27.075  26.830  1.00  0.00    +0.000 H 
ATOM    118  H33 UNL A   1      38.226  28.791  27.068  1.00  0.00    +0.000 H 
ENDROOT
BRANCH   27   26
ATOM    107  H22 UNL A   1      35.188  32.950  27.541  1.00  0.00    +0.000 H 
ATOM    108  H23 UNL A   1      37.315  32.464  28.604  1.00  0.00    +0.000 H 
ATOM     84  C59 UNL A   1      36.075  29.349  28.479  1.00  0.00    +0.000 C 
ATOM     85  C60 UNL A   1      34.889  29.619  27.801  1.00  0.00    +0.000 C 
ATOM    120  H35 UNL A   1      34.276  28.845  27.501  1.00  0.00    +0.000 H 
ATOM     23  C17 UNL A   1      34.531  30.942  27.526  1.00  0.00    +0.000 C 
ATOM     24  C18 UNL A   1      35.426  31.980  27.800  1.00  0.00    +0.000 C 
ATOM     25  C19 UNL A   1      36.644  31.702  28.425  1.00  0.00    +0.000 C 
ATOM    119  H34 UNL A   1      36.307  28.377  28.740  1.00  0.00    +0.000 H 
ATOM     26  C20 UNL A   1      36.957  30.389  28.810  1.00  0.00    +0.000 C 
BRANCH   23   21
ATOM     21  C16 UNL A   1      33.212  31.275  26.943  1.00  0.00    +0.000 C 
ATOM     22  O4  UNL A   1      32.562  32.207  27.409  1.00  0.00    +0.000 O 
BRANCH   21   20
ATOM    106  H21 UNL A   1      33.185  30.611  25.056  1.00  0.00    +0.000 H 
ATOM     20  N2  UNL A   1      32.701  30.530  25.909  1.00  0.00    +0.000 N 
BRANCH   20   19
ATOM    105  H20 UNL A   1      31.572  29.110  24.955  1.00  0.00    +0.000 H 
ATOM     19  C15 UNL A   1      31.552  29.638  25.886  1.00  0.00    +0.000 C 
ATOM    104  H19 UNL A   1      30.662  30.223  25.989  1.00  0.00    +0.000 H 
BRANCH   19   18
ATOM     18  C14 UNL A   1      31.586  28.601  27.005  1.00  0.00    +0.000 C 
ATOM    102  H17 UNL A   1      32.546  28.652  27.475  1.00  0.00    +0.000 H 
ATOM    103  H18 UNL A   1      30.775  28.846  27.659  1.00  0.00    +0.000 H 
BRANCH   18   17
ATOM     17  C13 UNL A   1      31.352  27.154  26.564  1.00  0.00    +0.000 C 
ATOM    100  H15 UNL A   1      30.858  26.642  27.363  1.00  0.00    +0.000 H 
ATOM    101  H16 UNL A   1      30.774  27.211  25.665  1.00  0.00    +0.000 H 
BRANCH   17   16
ATOM     98  H13 UNL A   1      32.947  26.697  25.243  1.00  0.00    +0.000 H 
ATOM     99  H14 UNL A   1      33.311  26.545  26.992  1.00  0.00    +0.000 H 
ATOM     16  C12 UNL A   1      32.612  26.362  26.203  1.00  0.00    +0.000 C 
BRANCH   16   15
ATOM     97  H12 UNL A   1      31.389  24.651  26.163  1.00  0.00    +0.000 H 
ATOM     15  C11 UNL A   1      32.443  24.838  26.138  1.00  0.00    +0.000 C 
ATOM     96  H11 UNL A   1      32.967  24.409  26.967  1.00  0.00    +0.000 H 
BRANCH   15   14
ATOM     94  H9  UNL A   1      33.919  24.615  24.618  1.00  0.00    +0.000 H 
ATOM     14  C10 UNL A   1      32.966  24.190  24.856  1.00  0.00    +0.000 C 
ATOM     95  H10 UNL A   1      33.046  23.136  25.026  1.00  0.00    +0.000 H 
BRANCH   14   13
ATOM     13  N1  UNL A   1      32.068  24.400  23.740  1.00  0.00    +0.000 N 
ATOM     93  H8  UNL A   1      31.097  24.388  23.901  1.00  0.00    +0.000 H 
BRANCH   13    2
ATOM      1  O1  UNL A   1      33.095  23.767  21.787  1.00  0.00    +0.000 O 
ATOM      2  C1  UNL A   1      32.526  24.612  22.468  1.00  0.00    +0.000 C 
BRANCH    2    3
ATOM      3  C2  UNL A   1      32.261  25.954  21.888  1.00  0.00    +0.000 C 
ATOM     86  H1  UNL A   1      32.191  26.016  20.860  1.00  0.00    +0.000 H 
BRANCH    3    4
ATOM      4  C3  UNL A   1      32.105  27.092  22.582  1.00  0.00    +0.000 C 
ATOM     87  H2  UNL A   1      32.929  27.513  23.039  1.00  0.00    +0.000 H 
BRANCH    4    5
ATOM      5  C4  UNL A   1      30.803  27.762  22.718  1.00  0.00    +0.000 C 
ATOM      6  C5  UNL A   1      29.701  27.140  23.334  1.00  0.00    +0.000 C 
ATOM      7  C6  UNL A   1      28.467  27.795  23.425  1.00  0.00    +0.000 C 
ATOM      8  C7  UNL A   1      28.342  29.078  22.911  1.00  0.00    +0.000 C 
ATOM     10  C8  UNL A   1      29.436  29.709  22.327  1.00  0.00    +0.000 C 
ATOM     12  C9  UNL A   1      30.664  29.068  22.233  1.00  0.00    +0.000 C 
ATOM     88  H3  UNL A   1      29.804  26.190  23.723  1.00  0.00    +0.000 H 
ATOM     89  H4  UNL A   1      27.661  27.329  23.870  1.00  0.00    +0.000 H 
ATOM     92  H7  UNL A   1      31.471  29.551  21.807  1.00  0.00    +0.000 H 
BRANCH    8    9
ATOM      9  O2  UNL A   1      27.159  29.762  22.952  1.00  0.00    +0.000 O 
ATOM     90  H5  UNL A   1      26.347  29.297  22.924  1.00  0.00    +0.000 H 
ENDBRANCH    8    9
BRANCH   10   11
ATOM     11  O3  UNL A   1      29.306  30.973  21.827  1.00  0.00    +0.000 O 
ATOM     91  H6  UNL A   1      28.470  31.277  21.531  1.00  0.00    +0.000 H 
ENDBRANCH   10   11
ENDBRANCH    4    5
ENDBRANCH    3    4
ENDBRANCH    2    3
ENDBRANCH   13    2
ENDBRANCH   14   13
ENDBRANCH   15   14
ENDBRANCH   16   15
ENDBRANCH   17   16
ENDBRANCH   18   17
ENDBRANCH   19   18
ENDBRANCH   20   19
ENDBRANCH   21   20
ENDBRANCH   23   21
ENDBRANCH   27   26
BRANCH   31   32
ATOM     33  C26 UNL A   1      41.854  24.899  27.624  1.00  0.00    +0.000 C 
ATOM     34  F1  UNL A   1      40.987  24.431  28.536  1.00  0.00    +0.000 F 
ATOM     35  C27 UNL A   1      42.232  24.069  26.572  1.00  0.00    +0.000 C 
ATOM     36  F2  UNL A   1      41.739  22.825  26.492  1.00  0.00    +0.000 F 
ATOM     37  C28 UNL A   1      43.131  24.521  25.618  1.00  0.00    +0.000 C 
ATOM     38  F3  UNL A   1      43.493  23.722  24.605  1.00  0.00    +0.000 F 
ATOM     39  C29 UNL A   1      43.661  25.799  25.719  1.00  0.00    +0.000 C 
ATOM     40  F4  UNL A   1      44.521  26.241  24.791  1.00  0.00    +0.000 F 
ATOM     41  C30 UNL A   1      43.307  26.620  26.787  1.00  0.00    +0.000 C 
ATOM     42  F5  UNL A   1      43.852  27.844  26.867  1.00  0.00    +0.000 F 
ATOM     32  C25 UNL A   1      42.399  26.185  27.763  1.00  0.00    +0.000 C 
ENDBRANCH   31   32
BRANCH   48   49
ATOM     49  C36 UNL A   1      44.869  27.983  34.300  1.00  0.00    +0.000 C 
ATOM     50  C37 UNL A   1      44.855  26.868  35.150  1.00  0.00    +0.000 C 
ATOM     51  F6  UNL A   1      43.761  26.095  35.231  1.00  0.00    +0.000 F 
ATOM     52  C38 UNL A   1      45.954  26.563  35.949  1.00  0.00    +0.000 C 
ATOM     53  F7  UNL A   1      45.904  25.516  36.784  1.00  0.00    +0.000 F 
ATOM     54  C39 UNL A   1      47.095  27.348  35.891  1.00  0.00    +0.000 C 
ATOM     55  F8  UNL A   1      48.155  27.049  36.656  1.00  0.00    +0.000 F 
ATOM     56  C40 UNL A   1      47.136  28.448  35.047  1.00  0.00    +0.000 C 
ATOM     57  F9  UNL A   1      48.242  29.202  34.983  1.00  0.00    +0.000 F 
ATOM     58  C41 UNL A   1      46.030  28.771  34.266  1.00  0.00    +0.000 C 
ATOM     59  F10 UNL A   1      46.094  29.846  33.467  1.00  0.00    +0.000 F 
ENDBRANCH   48   49
BRANCH   63   64
ATOM     65  C46 UNL A   1      38.453  31.443  36.211  1.00  0.00    +0.000 C 
ATOM     66  F11 UNL A   1      38.089  30.156  36.122  1.00  0.00    +0.000 F 
ATOM     67  C47 UNL A   1      37.999  32.202  37.288  1.00  0.00    +0.000 C 
ATOM     68  F12 UNL A   1      37.206  31.641  38.212  1.00  0.00    +0.000 F 
ATOM     69  C48 UNL A   1      38.358  33.536  37.402  1.00  0.00    +0.000 C 
ATOM     70  F13 UNL A   1      37.931  34.261  38.445  1.00  0.00    +0.000 F 
ATOM     71  C49 UNL A   1      39.160  34.119  36.431  1.00  0.00    +0.000 C 
ATOM     72  F14 UNL A   1      39.522  35.404  36.545  1.00  0.00    +0.000 F 
ATOM     73  C50 UNL A   1      39.595  33.369  35.341  1.00  0.00    +0.000 C 
ATOM     74  F15 UNL A   1      40.368  33.957  34.417  1.00  0.00    +0.000 F 
ATOM     64  C45 UNL A   1      39.257  32.014  35.215  1.00  0.00    +0.000 C 
ENDBRANCH   63   64
TORSDOF 19
ENDMDL
MODEL 9
REMARK VINA RESULT:      -9.8     22.353     27.404
ROOT
ATOM     27  C21 UNL A   1      38.271  30.271  29.835  1.00  0.00    +0.000 C 
ATOM     28  C22 UNL A   1      39.255  29.279  29.287  1.00  0.00    +0.000 C 
ATOM     29  N3  UNL A   1      40.320  28.770  29.854  1.00  0.00    +0.000 N 
ATOM     30  C23 UNL A   1      40.852  27.881  28.931  1.00  0.00    +0.000 C 
ATOM     31  C24 UNL A   1      41.987  27.147  29.020  1.00  0.00    +0.000 C 
ATOM     43  C31 UNL A   1      42.876  27.159  30.153  1.00  0.00    +0.000 C 
ATOM     44  C32 UNL A   1      44.084  26.503  30.310  1.00  0.00    +0.000 C 
ATOM     45  C33 UNL A   1      44.564  26.768  31.598  1.00  0.00    +0.000 C 
ATOM     46  C34 UNL A   1      43.675  27.624  32.229  1.00  0.00    +0.000 C 
ATOM     47  N4  UNL A   1      42.645  27.856  31.330  1.00  0.00    +0.000 N 
ATOM     48  C35 UNL A   1      43.754  28.187  33.553  1.00  0.00    +0.000 C 
ATOM     60  C42 UNL A   1      42.863  29.061  34.080  1.00  0.00    +0.000 C 
ATOM     61  N5  UNL A   1      41.711  29.581  33.507  1.00  0.00    +0.000 N 
ATOM     62  C43 UNL A   1      41.181  30.366  34.414  1.00  0.00    +0.000 C 
ATOM     63  C44 UNL A   1      39.930  31.194  34.332  1.00  0.00    +0.000 C 
ATOM     75  C51 UNL A   1      39.226  31.219  33.185  1.00  0.00    +0.000 C 
ATOM     76  C52 UNL A   1      37.999  31.977  32.965  1.00  0.00    +0.000 C 
ATOM     77  C53 UNL A   1      37.530  31.706  31.737  1.00  0.00    +0.000 C 
ATOM     78  C54 UNL A   1      38.446  30.779  31.070  1.00  0.00    +0.000 C 
ATOM     79  N6  UNL A   1      39.439  30.569  31.995  1.00  0.00    +0.000 N 
ATOM     80  C55 UNL A   1      41.933  30.421  35.675  1.00  0.00    +0.000 C 
ATOM     81  C56 UNL A   1      42.964  29.633  35.407  1.00  0.00    +0.000 C 
ATOM     82  C57 UNL A   1      39.963  27.880  27.787  1.00  0.00    +0.000 C 
ATOM     83  C58 UNL A   1      38.994  28.773  27.932  1.00  0.00    +0.000 C 
ATOM    109  H24 UNL A   1      44.553  25.919  29.599  1.00  0.00    +0.000 H 
ATOM    110  H25 UNL A   1      45.432  26.390  32.009  1.00  0.00    +0.000 H 
ATOM    111  H26 UNL A   1      41.865  28.432  31.502  1.00  0.00    +0.000 H 
ATOM    112  H27 UNL A   1      37.562  32.620  33.644  1.00  0.00    +0.000 H 
ATOM    113  H28 UNL A   1      36.664  32.089  31.329  1.00  0.00    +0.000 H 
ATOM    114  H29 UNL A   1      40.228  30.005  31.820  1.00  0.00    +0.000 H 
ATOM    115  H30 UNL A   1      41.716  30.939  36.541  1.00  0.00    +0.000 H 
ATOM    116  H31 UNL A   1      43.741  29.450  36.061  1.00  0.00    +0.000 H 
ATOM    117  H32 UNL A   1      40.071  27.265  26.966  1.00  0.00    +0.000 H 
ATOM    118  H33 UNL A   1      38.250  29.041  27.268  1.00  0.00    +0.000 H 
ENDROOT
BRANCH   27   26
ATOM    107  H22 UNL A   1      35.492  33.266  27.675  1.00  0.00    +0.000 H 
ATOM    108  H23 UNL A   1      37.602  32.645  28.703  1.00  0.00    +0.000 H 
ATOM     84  C59 UNL A   1      36.064  29.666  28.836  1.00  0.00    +0.000 C 
ATOM     85  C60 UNL A   1      34.884  30.006  28.178  1.00  0.00    +0.000 C 
ATOM    120  H35 UNL A   1      34.189  29.277  27.953  1.00  0.00    +0.000 H 
ATOM     23  C17 UNL A   1      34.646  31.336  27.822  1.00  0.00    +0.000 C 
ATOM     24  C18 UNL A   1      35.646  32.297  27.994  1.00  0.00    +0.000 C 
ATOM     25  C19 UNL A   1      36.854  31.943  28.599  1.00  0.00    +0.000 C 
ATOM    119  H34 UNL A   1      36.211  28.696  29.157  1.00  0.00    +0.000 H 
ATOM     26  C20 UNL A   1      37.054  30.634  29.065  1.00  0.00    +0.000 C 
BRANCH   23   21
ATOM     21  C16 UNL A   1      33.344  31.758  27.259  1.00  0.00    +0.000 C 
ATOM     22  O4  UNL A   1      32.912  32.881  27.506  1.00  0.00    +0.000 O 
BRANCH   21   20
ATOM    106  H21 UNL A   1      32.625  31.069  25.524  1.00  0.00    +0.000 H 
ATOM     20  N2  UNL A   1      32.605  30.891  26.492  1.00  0.00    +0.000 N 
BRANCH   20   19
ATOM    105  H20 UNL A   1      30.773  29.998  26.714  1.00  0.00    +0.000 H 
ATOM     19  C15 UNL A   1      31.798  29.749  26.894  1.00  0.00    +0.000 C 
ATOM    104  H19 UNL A   1      31.980  29.550  27.930  1.00  0.00    +0.000 H 
BRANCH   19   18
ATOM     18  C14 UNL A   1      32.114  28.490  26.092  1.00  0.00    +0.000 C 
ATOM    102  H17 UNL A   1      31.418  28.430  25.282  1.00  0.00    +0.000 H 
ATOM    103  H18 UNL A   1      33.132  28.589  25.777  1.00  0.00    +0.000 H 
BRANCH   18   17
ATOM     17  C13 UNL A   1      32.040  27.178  26.876  1.00  0.00    +0.000 C 
ATOM    100  H15 UNL A   1      32.441  27.355  27.852  1.00  0.00    +0.000 H 
ATOM    101  H16 UNL A   1      31.008  26.896  26.879  1.00  0.00    +0.000 H 
BRANCH   17   16
ATOM     98  H13 UNL A   1      33.396  25.554  27.029  1.00  0.00    +0.000 H 
ATOM     99  H14 UNL A   1      32.048  25.343  25.865  1.00  0.00    +0.000 H 
ATOM     16  C12 UNL A   1      32.796  25.997  26.261  1.00  0.00    +0.000 C 
BRANCH   16   15
ATOM     97  H12 UNL A   1      34.654  26.637  25.509  1.00  0.00    +0.000 H 
ATOM     15  C11 UNL A   1      33.718  26.341  25.083  1.00  0.00    +0.000 C 
ATOM     96  H11 UNL A   1      33.252  27.115  24.510  1.00  0.00    +0.000 H 
BRANCH   15   14
ATOM     94  H9  UNL A   1      34.979  25.328  23.696  1.00  0.00    +0.000 H 
ATOM     14  C10 UNL A   1      34.021  25.171  24.145  1.00  0.00    +0.000 C 
ATOM     95  H10 UNL A   1      34.009  24.270  24.724  1.00  0.00    +0.000 H 
BRANCH   14   13
ATOM     13  N1  UNL A   1      33.028  25.047  23.099  1.00  0.00    +0.000 N 
ATOM     93  H8  UNL A   1      33.077  25.651  22.322  1.00  0.00    +0.000 H 
BRANCH   13    2
ATOM      1  O1  UNL A   1      32.205  22.908  23.223  1.00  0.00    +0.000 O 
ATOM      2  C1  UNL A   1      32.025  24.119  23.155  1.00  0.00    +0.000 C 
BRANCH    2    3
ATOM      3  C2  UNL A   1      30.637  24.649  23.178  1.00  0.00    +0.000 C 
ATOM     86  H1  UNL A   1      29.948  24.188  22.563  1.00  0.00    +0.000 H 
BRANCH    3    4
ATOM      4  C3  UNL A   1      30.201  25.673  23.928  1.00  0.00    +0.000 C 
ATOM     87  H2  UNL A   1      30.016  25.513  24.930  1.00  0.00    +0.000 H 
BRANCH    4    5
ATOM      5  C4  UNL A   1      29.975  27.017  23.373  1.00  0.00    +0.000 C 
ATOM      6  C5  UNL A   1      31.009  27.771  22.791  1.00  0.00    +0.000 C 
ATOM      7  C6  UNL A   1      30.767  29.058  22.294  1.00  0.00    +0.000 C 
ATOM      8  C7  UNL A   1      29.484  29.582  22.369  1.00  0.00    +0.000 C 
ATOM     10  C8  UNL A   1      28.450  28.829  22.918  1.00  0.00    +0.000 C 
ATOM     12  C9  UNL A   1      28.681  27.552  23.412  1.00  0.00    +0.000 C 
ATOM     88  H3  UNL A   1      31.959  27.372  22.729  1.00  0.00    +0.000 H 
ATOM     89  H4  UNL A   1      31.533  29.609  21.876  1.00  0.00    +0.000 H 
ATOM     92  H7  UNL A   1      27.903  26.999  23.806  1.00  0.00    +0.000 H 
BRANCH    8    9
ATOM      9  O2  UNL A   1      29.188  30.838  21.920  1.00  0.00    +0.000 O 
ATOM     90  H5  UNL A   1      29.736  31.249  21.281  1.00  0.00    +0.000 H 
ENDBRANCH    8    9
BRANCH   10   11
ATOM     11  O3  UNL A   1      27.190  29.349  22.985  1.00  0.00    +0.000 O 
ATOM     91  H6  UNL A   1      26.732  29.365  23.802  1.00  0.00    +0.000 H 
ENDBRANCH   10   11
ENDBRANCH    4    5
ENDBRANCH    3    4
ENDBRANCH    2    3
ENDBRANCH   13    2
ENDBRANCH   14   13
ENDBRANCH   15   14
ENDBRANCH   16   15
ENDBRANCH   17   16
ENDBRANCH   18   17
ENDBRANCH   19   18
ENDBRANCH   20   19
ENDBRANCH   21   20
ENDBRANCH   23   21
ENDBRANCH   27   26
BRANCH   31   32
ATOM     33  C26 UNL A   1      43.253  26.675  26.875  1.00  0.00    +0.000 C 
ATOM     34  F1  UNL A   1      43.828  27.886  26.951  1.00  0.00    +0.000 F 
ATOM     35  C27 UNL A   1      43.553  25.859  25.787  1.00  0.00    +0.000 C 
ATOM     36  F2  UNL A   1      44.394  26.292  24.838  1.00  0.00    +0.000 F 
ATOM     37  C28 UNL A   1      42.969  24.606  25.677  1.00  0.00    +0.000 C 
ATOM     38  F3  UNL A   1      43.259  23.820  24.631  1.00  0.00    +0.000 F 
ATOM     39  C29 UNL A   1      42.077  24.171  26.646  1.00  0.00    +0.000 C 
ATOM     40  F4  UNL A   1      41.521  22.956  26.546  1.00  0.00    +0.000 F 
ATOM     41  C30 UNL A   1      41.753  24.998  27.719  1.00  0.00    +0.000 C 
ATOM     42  F5  UNL A   1      40.872  24.557  28.630  1.00  0.00    +0.000 F 
ATOM     32  C25 UNL A   1      42.332  26.268  27.852  1.00  0.00    +0.000 C 
ENDBRANCH   31   32
BRANCH   48   49
ATOM     49  C36 UNL A   1      44.919  27.794  34.414  1.00  0.00    +0.000 C 
ATOM     50  C37 UNL A   1      46.104  28.544  34.426  1.00  0.00    +0.000 C 
ATOM     51  F6  UNL A   1      46.238  29.608  33.620  1.00  0.00    +0.000 F 
ATOM     52  C38 UNL A   1      47.171  28.181  35.244  1.00  0.00    +0.000 C 
ATOM     53  F7  UNL A   1      48.310  28.888  35.211  1.00  0.00    +0.000 F 
ATOM     54  C39 UNL A   1      47.064  27.082  36.082  1.00  0.00    +0.000 C 
ATOM     55  F8  UNL A   1      48.089  26.738  36.873  1.00  0.00    +0.000 F 
ATOM     56  C40 UNL A   1      45.895  26.334  36.096  1.00  0.00    +0.000 C 
ATOM     57  F9  UNL A   1      45.786  25.277  36.913  1.00  0.00    +0.000 F 
ATOM     58  C41 UNL A   1      44.836  26.678  35.261  1.00  0.00    +0.000 C 
ATOM     59  F10 UNL A   1      43.723  25.931  35.287  1.00  0.00    +0.000 F 
ENDBRANCH   48   49
BRANCH   63   64
ATOM     65  C46 UNL A   1      39.884  33.324  35.661  1.00  0.00    +0.000 C 
ATOM     66  F11 UNL A   1      40.756  33.866  34.798  1.00  0.00    +0.000 F 
ATOM     67  C47 UNL A   1      39.429  34.088  36.732  1.00  0.00    +0.000 C 
ATOM     68  F12 UNL A   1      39.868  35.345  36.890  1.00  0.00    +0.000 F 
ATOM     69  C48 UNL A   1      38.530  33.550  37.641  1.00  0.00    +0.000 C 
ATOM     70  F13 UNL A   1      38.083  34.291  38.664  1.00  0.00    +0.000 F 
ATOM     71  C49 UNL A   1      38.096  32.242  37.487  1.00  0.00    +0.000 C 
ATOM     72  F14 UNL A   1      37.216  31.723  38.354  1.00  0.00    +0.000 F 
ATOM     73  C50 UNL A   1      38.568  31.468  36.430  1.00  0.00    +0.000 C 
ATOM     74  F15 UNL A   1      38.133  30.206  36.306  1.00  0.00    +0.000 F 
ATOM     64  C45 UNL A   1      39.465  31.997  35.490  1.00  0.00    +0.000 C 
ENDBRANCH   63   64
TORSDOF 19
ENDMDL
MODEL 10
REMARK VINA RESULT:      -9.7     44.420     47.357
ROOT
ATOM     27  C21 UNL A   1      13.197  49.506   3.228  1.00  0.00    +0.000 C 
ATOM     28  C22 UNL A   1      14.119  49.164   2.093  1.00  0.00    +0.000 C 
ATOM     29  N3  UNL A   1      14.985  49.924   1.472  1.00  0.00    +0.000 N 
ATOM     30  C23 UNL A   1      15.597  49.109   0.531  1.00  0.00    +0.000 C 
ATOM     31  C24 UNL A   1      16.524  49.441  -0.400  1.00  0.00    +0.000 C 
ATOM     43  C31 UNL A   1      17.066  50.763  -0.573  1.00  0.00    +0.000 C 
ATOM     44  C32 UNL A   1      17.958  51.213  -1.531  1.00  0.00    +0.000 C 
ATOM     45  C33 UNL A   1      18.239  52.559  -1.270  1.00  0.00    +0.000 C 
ATOM     46  C34 UNL A   1      17.490  52.960  -0.176  1.00  0.00    +0.000 C 
ATOM     47  N4  UNL A   1      16.774  51.849   0.241  1.00  0.00    +0.000 N 
ATOM     48  C35 UNL A   1      17.430  54.258   0.448  1.00  0.00    +0.000 C 
ATOM     60  C42 UNL A   1      16.629  54.583   1.491  1.00  0.00    +0.000 C 
ATOM     61  N5  UNL A   1      15.733  53.780   2.184  1.00  0.00    +0.000 N 
ATOM     62  C43 UNL A   1      15.212  54.543   3.114  1.00  0.00    +0.000 C 
ATOM     63  C44 UNL A   1      14.179  54.198   4.149  1.00  0.00    +0.000 C 
ATOM     75  C51 UNL A   1      13.633  52.967   4.156  1.00  0.00    +0.000 C 
ATOM     76  C52 UNL A   1      12.622  52.498   5.098  1.00  0.00    +0.000 C 
ATOM     77  C53 UNL A   1      12.369  51.202   4.860  1.00  0.00    +0.000 C 
ATOM     78  C54 UNL A   1      13.178  50.758   3.723  1.00  0.00    +0.000 C 
ATOM     79  N6  UNL A   1      13.875  51.881   3.351  1.00  0.00    +0.000 N 
ATOM     80  C55 UNL A   1      15.730  55.917   3.125  1.00  0.00    +0.000 C 
ATOM     81  C56 UNL A   1      16.567  55.897   2.098  1.00  0.00    +0.000 C 
ATOM     82  C57 UNL A   1      15.041  47.782   0.698  1.00  0.00    +0.000 C 
ATOM     83  C58 UNL A   1      14.079  47.776   1.610  1.00  0.00    +0.000 C 
ATOM    109  H24 UNL A   1      18.348  50.653  -2.304  1.00  0.00    +0.000 H 
ATOM    110  H25 UNL A   1      18.894  53.154  -1.803  1.00  0.00    +0.000 H 
ATOM    111  H26 UNL A   1      16.150  51.832   1.002  1.00  0.00    +0.000 H 
ATOM    112  H27 UNL A   1      12.174  53.072   5.830  1.00  0.00    +0.000 H 
ATOM    113  H28 UNL A   1      11.711  50.613   5.392  1.00  0.00    +0.000 H 
ATOM    114  H29 UNL A   1      14.488  51.906   2.581  1.00  0.00    +0.000 H 
ATOM    115  H30 UNL A   1      15.502  56.695   3.765  1.00  0.00    +0.000 H 
ATOM    116  H31 UNL A   1      17.106  56.714   1.771  1.00  0.00    +0.000 H 
ATOM    117  H32 UNL A   1      15.353  46.949   0.174  1.00  0.00    +0.000 H 
ATOM    118  H33 UNL A   1      13.465  47.001   1.904  1.00  0.00    +0.000 H 
ENDROOT
BRANCH   27   26
ATOM    107  H22 UNL A   1       9.237  47.234   3.945  1.00  0.00    +0.000 H 
ATOM    108  H23 UNL A   1      10.636  48.778   2.699  1.00  0.00    +0.000 H 
ATOM     84  C59 UNL A   1      12.914  47.677   4.903  1.00  0.00    +0.000 C 
ATOM     85  C60 UNL A   1      12.131  46.736   5.568  1.00  0.00    +0.000 C 
ATOM    120  H35 UNL A   1      12.553  46.120   6.279  1.00  0.00    +0.000 H 
ATOM     23  C17 UNL A   1      10.770  46.629   5.268  1.00  0.00    +0.000 C 
ATOM     24  C18 UNL A   1      10.227  47.359   4.206  1.00  0.00    +0.000 C 
ATOM     25  C19 UNL A   1      11.029  48.258   3.499  1.00  0.00    +0.000 C 
ATOM    119  H34 UNL A   1      13.904  47.801   5.171  1.00  0.00    +0.000 H 
ATOM     26  C20 UNL A   1      12.368  48.456   3.872  1.00  0.00    +0.000 C 
BRANCH   23   21
ATOM     21  C16 UNL A   1       9.877  45.750   6.055  1.00  0.00    +0.000 C 
ATOM     22  O4  UNL A   1       8.737  45.530   5.656  1.00  0.00    +0.000 O 
BRANCH   21   20
ATOM    106  H21 UNL A   1      10.549  44.254   7.202  1.00  0.00    +0.000 H 
ATOM     20  N2  UNL A   1      10.307  45.207   7.241  1.00  0.00    +0.000 N 
BRANCH   20   19
ATOM    105  H20 UNL A   1       9.751  45.373   9.208  1.00  0.00    +0.000 H 
ATOM     19  C15 UNL A   1      10.458  45.830   8.548  1.00  0.00    +0.000 C 
ATOM    104  H19 UNL A   1      10.284  46.881   8.448  1.00  0.00    +0.000 H 
BRANCH   19   18
ATOM     18  C14 UNL A   1      11.848  45.620   9.145  1.00  0.00    +0.000 C 
ATOM    102  H17 UNL A   1      11.727  45.225  10.132  1.00  0.00    +0.000 H 
ATOM    103  H18 UNL A   1      12.358  44.958   8.477  1.00  0.00    +0.000 H 
BRANCH   18   17
ATOM     17  C13 UNL A   1      12.715  46.877   9.241  1.00  0.00    +0.000 C 
ATOM    100  H15 UNL A   1      13.081  46.949  10.244  1.00  0.00    +0.000 H 
ATOM    101  H16 UNL A   1      13.487  46.758   8.509  1.00  0.00    +0.000 H 
BRANCH   17   16
ATOM     98  H13 UNL A   1      11.777  48.179   7.854  1.00  0.00    +0.000 H 
ATOM     99  H14 UNL A   1      11.152  48.240   9.534  1.00  0.00    +0.000 H 
ATOM     16  C12 UNL A   1      12.011  48.193   8.899  1.00  0.00    +0.000 C 
BRANCH   16   15
ATOM     97  H12 UNL A   1      12.104  50.214   9.477  1.00  0.00    +0.000 H 
ATOM     15  C11 UNL A   1      12.815  49.469   9.184  1.00  0.00    +0.000 C 
ATOM     96  H11 UNL A   1      13.356  49.728   8.298  1.00  0.00    +0.000 H 
BRANCH   15   14
ATOM     94  H9  UNL A   1      13.436  48.653  11.052  1.00  0.00    +0.000 H 
ATOM     14  C10 UNL A   1      13.815  49.351  10.335  1.00  0.00    +0.000 C 
ATOM     95  H10 UNL A   1      14.749  49.019   9.930  1.00  0.00    +0.000 H 
BRANCH   14   13
ATOM     13  N1  UNL A   1      14.035  50.622  10.991  1.00  0.00    +0.000 N 
ATOM     93  H8  UNL A   1      13.387  50.930  11.665  1.00  0.00    +0.000 H 
BRANCH   13    2
ATOM      1  O1  UNL A   1      15.435  52.407  11.343  1.00  0.00    +0.000 O 
ATOM      2  C1  UNL A   1      15.115  51.411  10.703  1.00  0.00    +0.000 C 
BRANCH    2    3
ATOM      3  C2  UNL A   1      15.961  50.981   9.560  1.00  0.00    +0.000 C 
ATOM     86  H1  UNL A   1      16.708  50.297   9.759  1.00  0.00    +0.000 H 
BRANCH    3    4
ATOM      4  C3  UNL A   1      15.839  51.403   8.291  1.00  0.00    +0.000 C 
ATOM     87  H2  UNL A   1      15.557  52.380   8.117  1.00  0.00    +0.000 H 
BRANCH    4    5
ATOM      5  C4  UNL A   1      16.090  50.523   7.140  1.00  0.00    +0.000 C 
ATOM      6  C5  UNL A   1      15.907  49.130   7.206  1.00  0.00    +0.000 C 
ATOM      7  C6  UNL A   1      16.179  48.317   6.099  1.00  0.00    +0.000 C 
ATOM      8  C7  UNL A   1      16.621  48.903   4.921  1.00  0.00    +0.000 C 
ATOM     10  C8  UNL A   1      16.777  50.284   4.840  1.00  0.00    +0.000 C 
ATOM     12  C9  UNL A   1      16.509  51.098   5.933  1.00  0.00    +0.000 C 
ATOM     88  H3  UNL A   1      15.568  48.702   8.081  1.00  0.00    +0.000 H 
ATOM     89  H4  UNL A   1      16.051  47.295   6.158  1.00  0.00    +0.000 H 
ATOM     92  H7  UNL A   1      16.616  52.122   5.857  1.00  0.00    +0.000 H 
BRANCH    8    9
ATOM      9  O2  UNL A   1      16.922  48.163   3.813  1.00  0.00    +0.000 O 
ATOM     90  H5  UNL A   1      17.725  48.312   3.353  1.00  0.00    +0.000 H 
ENDBRANCH    8    9
BRANCH   10   11
ATOM     11  O3  UNL A   1      17.208  50.854   3.677  1.00  0.00    +0.000 O 
ATOM     91  H6  UNL A   1      16.803  50.623   2.864  1.00  0.00    +0.000 H 
ENDBRANCH   10   11
ENDBRANCH    4    5
ENDBRANCH    3    4
ENDBRANCH    2    3
ENDBRANCH   13    2
ENDBRANCH   14   13
ENDBRANCH   15   14
ENDBRANCH   16   15
ENDBRANCH   17   16
ENDBRANCH   18   17
ENDBRANCH   19   18
ENDBRANCH   20   19
ENDBRANCH   21   20
ENDBRANCH   23   21
ENDBRANCH   27   26
BRANCH   31   32
ATOM     33  C26 UNL A   1      16.360  48.058  -2.519  1.00  0.00    +0.000 C 
ATOM     34  F1  UNL A   1      15.263  48.742  -2.878  1.00  0.00    +0.000 F 
ATOM     35  C27 UNL A   1      16.809  47.030  -3.345  1.00  0.00    +0.000 C 
ATOM     36  F2  UNL A   1      16.141  46.737  -4.469  1.00  0.00    +0.000 F 
ATOM     37  C28 UNL A   1      17.935  46.300  -2.997  1.00  0.00    +0.000 C 
ATOM     38  F3  UNL A   1      18.367  45.313  -3.794  1.00  0.00    +0.000 F 
ATOM     39  C29 UNL A   1      18.609  46.588  -1.819  1.00  0.00    +0.000 C 
ATOM     40  F4  UNL A   1      19.704  45.890  -1.488  1.00  0.00    +0.000 F 
ATOM     41  C30 UNL A   1      18.144  47.595  -0.977  1.00  0.00    +0.000 C 
ATOM     42  F5  UNL A   1      18.807  47.836   0.165  1.00  0.00    +0.000 F 
ATOM     32  C25 UNL A   1      17.009  48.347  -1.308  1.00  0.00    +0.000 C 
ENDBRANCH   31   32
BRANCH   48   49
ATOM     49  C36 UNL A   1      18.308  55.343  -0.105  1.00  0.00    +0.000 C 
ATOM     50  C37 UNL A   1      17.988  56.003  -1.300  1.00  0.00    +0.000 C 
ATOM     51  F6  UNL A   1      16.907  55.636  -2.006  1.00  0.00    +0.000 F 
ATOM     52  C38 UNL A   1      18.799  57.022  -1.794  1.00  0.00    +0.000 C 
ATOM     53  F7  UNL A   1      18.497  57.612  -2.959  1.00  0.00    +0.000 F 
ATOM     54  C39 UNL A   1      19.926  57.417  -1.090  1.00  0.00    +0.000 C 
ATOM     55  F8  UNL A   1      20.702  58.402  -1.563  1.00  0.00    +0.000 F 
ATOM     56  C40 UNL A   1      20.253  56.787   0.102  1.00  0.00    +0.000 C 
ATOM     57  F9  UNL A   1      21.337  57.175   0.788  1.00  0.00    +0.000 F 
ATOM     58  C41 UNL A   1      19.459  55.751   0.585  1.00  0.00    +0.000 C 
ATOM     59  F10 UNL A   1      19.806  55.153   1.734  1.00  0.00    +0.000 F 
ENDBRANCH   48   49
BRANCH   63   64
ATOM     65  C46 UNL A   1      14.223  55.157   6.469  1.00  0.00    +0.000 C 
ATOM     66  F11 UNL A   1      15.059  54.178   6.843  1.00  0.00    +0.000 F 
ATOM     67  C47 UNL A   1      13.830  56.108   7.408  1.00  0.00    +0.000 C 
ATOM     68  F12 UNL A   1      14.286  56.031   8.666  1.00  0.00    +0.000 F 
ATOM     69  C48 UNL A   1      12.963  57.129   7.046  1.00  0.00    +0.000 C 
ATOM     70  F13 UNL A   1      12.596  58.049   7.947  1.00  0.00    +0.000 F 
ATOM     71  C49 UNL A   1      12.476  57.191   5.749  1.00  0.00    +0.000 C 
ATOM     72  F14 UNL A   1      11.650  58.184   5.391  1.00  0.00    +0.000 F 
ATOM     73  C50 UNL A   1      12.849  56.227   4.815  1.00  0.00    +0.000 C 
ATOM     74  F15 UNL A   1      12.362  56.311   3.568  1.00  0.00    +0.000 F 
ATOM     64  C45 UNL A   1      13.737  55.197   5.154  1.00  0.00    +0.000 C 
ENDBRANCH   63   64
TORSDOF 19
ENDMDL
