MODEL 1
REMARK VINA RESULT:     -11.6      0.000      0.000
ROOT
ATOM     33  C26 UNL A   1      52.768  20.378  11.444  1.00  0.00    +0.000 C 
ATOM     34  C27 UNL A   1      54.074  19.684  11.178  1.00  0.00    +0.000 C 
ATOM     35  N4  UNL A   1      55.100  19.516  11.975  1.00  0.00    +0.000 N 
ATOM     36  C28 UNL A   1      56.021  18.771  11.251  1.00  0.00    +0.000 C 
ATOM     37  C29 UNL A   1      57.267  18.382  11.615  1.00  0.00    +0.000 C 
ATOM     49  C36 UNL A   1      57.879  18.697  12.880  1.00  0.00    +0.000 C 
ATOM     50  C37 UNL A   1      59.160  18.402  13.315  1.00  0.00    +0.000 C 
ATOM     51  C38 UNL A   1      59.294  18.870  14.627  1.00  0.00    +0.000 C 
ATOM     52  C39 UNL A   1      58.112  19.493  14.993  1.00  0.00    +0.000 C 
ATOM     53  N5  UNL A   1      57.252  19.377  13.913  1.00  0.00    +0.000 N 
ATOM     54  C40 UNL A   1      57.789  20.145  16.236  1.00  0.00    +0.000 C 
ATOM     66  C47 UNL A   1      56.605  20.747  16.512  1.00  0.00    +0.000 C 
ATOM     67  N6  UNL A   1      55.485  20.880  15.703  1.00  0.00    +0.000 N 
ATOM     68  C48 UNL A   1      54.599  21.527  16.418  1.00  0.00    +0.000 C 
ATOM     69  C49 UNL A   1      53.213  21.972  16.039  1.00  0.00    +0.000 C 
ATOM     81  C56 UNL A   1      52.753  21.713  14.800  1.00  0.00    +0.000 C 
ATOM     82  C57 UNL A   1      51.435  22.084  14.293  1.00  0.00    +0.000 C 
ATOM     83  C58 UNL A   1      51.305  21.625  13.037  1.00  0.00    +0.000 C 
ATOM     84  C59 UNL A   1      52.545  20.958  12.640  1.00  0.00    +0.000 C 
ATOM     85  N7  UNL A   1      53.350  21.065  13.747  1.00  0.00    +0.000 N 
ATOM     86  C60 UNL A   1      55.050  21.854  17.779  1.00  0.00    +0.000 C 
ATOM     87  C61 UNL A   1      56.292  21.391  17.770  1.00  0.00    +0.000 C 
ATOM     88  C62 UNL A   1      55.416  18.480   9.969  1.00  0.00    +0.000 C 
ATOM     89  C63 UNL A   1      54.238  19.077   9.850  1.00  0.00    +0.000 C 
ATOM    118  H27 UNL A   1      59.890  17.922  12.767  1.00  0.00    +0.000 H 
ATOM    119  H28 UNL A   1      60.131  18.767  15.221  1.00  0.00    +0.000 H 
ATOM    120  H29 UNL A   1      56.332  19.725  13.883  1.00  0.00    +0.000 H 
ATOM    121  H30 UNL A   1      50.719  22.614  14.814  1.00  0.00    +0.000 H 
ATOM    122  H31 UNL A   1      50.464  21.727  12.447  1.00  0.00    +0.000 H 
ATOM    123  H32 UNL A   1      54.267  20.711  13.782  1.00  0.00    +0.000 H 
ATOM    124  H33 UNL A   1      54.534  22.322  18.541  1.00  0.00    +0.000 H 
ATOM    125  H34 UNL A   1      56.951  21.478  18.559  1.00  0.00    +0.000 H 
ATOM    126  H35 UNL A   1      55.845  17.886   9.242  1.00  0.00    +0.000 H 
ATOM    127  H36 UNL A   1      53.603  19.106   9.037  1.00  0.00    +0.000 H 
ENDROOT
BRANCH   33   32
ATOM    129  H38 UNL A   1      50.265  22.380   8.138  1.00  0.00    +0.000 H 
ATOM    128  H37 UNL A   1      52.045  22.353   9.784  1.00  0.00    +0.000 H 
ATOM    116  H25 UNL A   1      49.371  18.367   9.032  1.00  0.00    +0.000 H 
ATOM    117  H26 UNL A   1      51.016  18.403  10.818  1.00  0.00    +0.000 H 
ATOM     90  C64 UNL A   1      51.468  21.511   9.637  1.00  0.00    +0.000 C 
ATOM     91  C65 UNL A   1      50.471  21.515   8.663  1.00  0.00    +0.000 C 
ATOM     29  C22 UNL A   1      49.751  20.347   8.398  1.00  0.00    +0.000 C 
ATOM     30  C23 UNL A   1      49.939  19.214   9.196  1.00  0.00    +0.000 C 
ATOM     31  C24 UNL A   1      50.894  19.230  10.214  1.00  0.00    +0.000 C 
ATOM     32  C25 UNL A   1      51.691  20.368  10.421  1.00  0.00    +0.000 C 
BRANCH   29   27
ATOM     27  C21 UNL A   1      48.774  20.282   7.287  1.00  0.00    +0.000 C 
ATOM     28  O2  UNL A   1      48.713  21.205   6.480  1.00  0.00    +0.000 O 
BRANCH   27   26
ATOM     26  N3  UNL A   1      47.922  19.211   7.177  1.00  0.00    +0.000 N 
ATOM    115  H24 UNL A   1      47.293  19.096   7.926  1.00  0.00    +0.000 H 
BRANCH   26   25
ATOM     25  C20 UNL A   1      47.812  18.221   6.118  1.00  0.00    +0.000 C 
ATOM    114  H23 UNL A   1      47.812  17.255   6.579  1.00  0.00    +0.000 H 
ATOM    113  H22 UNL A   1      48.639  18.342   5.449  1.00  0.00    +0.000 H 
BRANCH   25   24
ATOM    112  H21 UNL A   1      45.793  18.755   5.996  1.00  0.00    +0.000 H 
ATOM    111  H20 UNL A   1      46.260  17.377   4.950  1.00  0.00    +0.000 H 
ATOM     24  C19 UNL A   1      46.517  18.348   5.321  1.00  0.00    +0.000 C 
BRANCH   24   23
ATOM    109  H18 UNL A   1      47.565  19.695   4.063  1.00  0.00    +0.000 H 
ATOM    110  H19 UNL A   1      46.273  18.734   3.277  1.00  0.00    +0.000 H 
ATOM     23  C18 UNL A   1      46.571  19.307   4.130  1.00  0.00    +0.000 C 
BRANCH   23   22
ATOM    107  H16 UNL A   1      45.373  20.673   5.226  1.00  0.00    +0.000 H 
ATOM    108  H17 UNL A   1      46.111  21.310   3.722  1.00  0.00    +0.000 H 
ATOM     22  C17 UNL A   1      45.606  20.495   4.197  1.00  0.00    +0.000 C 
BRANCH   22   21
ATOM    105  H14 UNL A   1      44.017  19.284   3.472  1.00  0.00    +0.000 H 
ATOM    106  H15 UNL A   1      43.574  20.957   3.918  1.00  0.00    +0.000 H 
ATOM     21  C16 UNL A   1      44.285  20.319   3.437  1.00  0.00    +0.000 C 
BRANCH   21   20
ATOM     20  C15 UNL A   1      44.326  20.748   1.971  1.00  0.00    +0.000 C 
ATOM    103  H12 UNL A   1      43.792  21.669   1.862  1.00  0.00    +0.000 H 
ATOM    104  H13 UNL A   1      45.350  20.869   1.683  1.00  0.00    +0.000 H 
BRANCH   20   19
ATOM     19  N2  UNL A   1      43.725  19.749   1.113  1.00  0.00    +0.000 N 
ATOM    102  H11 UNL A   1      44.173  18.877   1.024  1.00  0.00    +0.000 H 
BRANCH   19    2
ATOM      1  O1  UNL A   1      42.334  19.492  -0.697  1.00  0.00    +0.000 O 
ATOM      2  C1  UNL A   1      42.556  19.960   0.417  1.00  0.00    +0.000 C 
BRANCH    2    3
ATOM      3  C2  UNL A   1      41.546  20.844   1.130  1.00  0.00    +0.000 C 
ATOM     92  H1  UNL A   1      40.977  21.376   0.396  1.00  0.00    +0.000 H 
ATOM     93  H2  UNL A   1      42.091  21.509   1.766  1.00  0.00    +0.000 H 
BRANCH    3    4
ATOM     97  H6  UNL A   1      37.394  19.811   2.973  1.00  0.00    +0.000 H 
ATOM      4  C3  UNL A   1      40.593  20.054   2.003  1.00  0.00    +0.000 C 
ATOM      5  C4  UNL A   1      41.094  18.943   2.709  1.00  0.00    +0.000 C 
ATOM      6  C5  UNL A   1      40.252  18.160   3.492  1.00  0.00    +0.000 C 
ATOM      7  C6  UNL A   1      38.903  18.476   3.580  1.00  0.00    +0.000 C 
ATOM      8  C7  UNL A   1      38.397  19.582   2.892  1.00  0.00    +0.000 C 
ATOM      9  C8  UNL A   1      39.223  20.390   2.095  1.00  0.00    +0.000 C 
ATOM     94  H3  UNL A   1      42.097  18.708   2.644  1.00  0.00    +0.000 H 
ATOM     95  H4  UNL A   1      40.628  17.348   4.006  1.00  0.00    +0.000 H 
ATOM     96  H5  UNL A   1      38.273  17.894   4.153  1.00  0.00    +0.000 H 
BRANCH    9   10
ATOM     10  N1  UNL A   1      38.736  21.555   1.446  1.00  0.00    +0.000 N 
ATOM     98  H7  UNL A   1      39.191  22.397   1.677  1.00  0.00    +0.000 H 
BRANCH   10   11
ATOM     99  H8  UNL A   1      34.320  22.091   0.453  1.00  0.00    +0.000 H 
ATOM    100  H9  UNL A   1      34.722  22.146  -1.940  1.00  0.00    +0.000 H 
ATOM    101  H10 UNL A   1      36.976  21.865  -2.788  1.00  0.00    +0.000 H 
ATOM     11  C9  UNL A   1      37.673  21.661   0.507  1.00  0.00    +0.000 C 
ATOM     12  C10 UNL A   1      36.350  21.818   0.972  1.00  0.00    +0.000 C 
ATOM     13 Cl1  UNL A   1      36.002  21.815   2.669  1.00  0.00    +0.000 Cl
ATOM     14  C11 UNL A   1      35.279  21.986   0.088  1.00  0.00    +0.000 C 
ATOM     15  C12 UNL A   1      35.508  22.010  -1.284  1.00  0.00    +0.000 C 
ATOM     16  C13 UNL A   1      36.805  21.851  -1.771  1.00  0.00    +0.000 C 
ATOM     17  C14 UNL A   1      37.877  21.673  -0.887  1.00  0.00    +0.000 C 
ATOM     18 Cl2  UNL A   1      39.433  21.389  -1.595  1.00  0.00    +0.000 Cl
ENDBRANCH   10   11
ENDBRANCH    9   10
ENDBRANCH    3    4
ENDBRANCH    2    3
ENDBRANCH   19    2
ENDBRANCH   20   19
ENDBRANCH   21   20
ENDBRANCH   22   21
ENDBRANCH   23   22
ENDBRANCH   24   23
ENDBRANCH   25   24
ENDBRANCH   26   25
ENDBRANCH   27   26
ENDBRANCH   29   27
ENDBRANCH   33   32
BRANCH   37   38
ATOM     38  C30 UNL A   1      58.055  17.573  10.627  1.00  0.00    +0.000 C 
ATOM     39  C31 UNL A   1      58.810  18.182   9.613  1.00  0.00    +0.000 C 
ATOM     40  F1  UNL A   1      58.808  19.518   9.481  1.00  0.00    +0.000 F 
ATOM     41  C32 UNL A   1      59.539  17.419   8.706  1.00  0.00    +0.000 C 
ATOM     42  F2  UNL A   1      60.213  18.021   7.716  1.00  0.00    +0.000 F 
ATOM     43  C33 UNL A   1      59.558  16.037   8.814  1.00  0.00    +0.000 C 
ATOM     44  F3  UNL A   1      60.264  15.304   7.943  1.00  0.00    +0.000 F 
ATOM     45  C34 UNL A   1      58.838  15.414   9.823  1.00  0.00    +0.000 C 
ATOM     46  F4  UNL A   1      58.864  14.079   9.936  1.00  0.00    +0.000 F 
ATOM     47  C35 UNL A   1      58.084  16.172  10.715  1.00  0.00    +0.000 C 
ATOM     48  F5  UNL A   1      57.386  15.539  11.670  1.00  0.00    +0.000 F 
ENDBRANCH   37   38
BRANCH   54   55
ATOM     65  F10 UNL A   1      59.348  22.455  16.787  1.00  0.00    +0.000 F 
ATOM     55  C41 UNL A   1      58.845  20.186  17.300  1.00  0.00    +0.000 C 
ATOM     56  C42 UNL A   1      59.143  19.062  18.084  1.00  0.00    +0.000 C 
ATOM     57  F6  UNL A   1      58.445  17.927  17.928  1.00  0.00    +0.000 F 
ATOM     58  C43 UNL A   1      60.138  19.113  19.057  1.00  0.00    +0.000 C 
ATOM     59  F7  UNL A   1      60.377  18.039  19.823  1.00  0.00    +0.000 F 
ATOM     60  C44 UNL A   1      60.871  20.274  19.244  1.00  0.00    +0.000 C 
ATOM     61  F8  UNL A   1      61.832  20.318  20.177  1.00  0.00    +0.000 F 
ATOM     62  C45 UNL A   1      60.603  21.393  18.470  1.00  0.00    +0.000 C 
ATOM     63  F9  UNL A   1      61.318  22.513  18.642  1.00  0.00    +0.000 F 
ATOM     64  C46 UNL A   1      59.592  21.354  17.514  1.00  0.00    +0.000 C 
ENDBRANCH   54   55
BRANCH   69   70
ATOM     70  C50 UNL A   1      52.365  22.719  17.004  1.00  0.00    +0.000 C 
ATOM     71  C51 UNL A   1      52.316  24.119  16.978  1.00  0.00    +0.000 C 
ATOM     72  F11 UNL A   1      53.055  24.799  16.088  1.00  0.00    +0.000 F 
ATOM     73  C52 UNL A   1      51.539  24.828  17.892  1.00  0.00    +0.000 C 
ATOM     74  F12 UNL A   1      51.543  26.168  17.872  1.00  0.00    +0.000 F 
ATOM     75  C53 UNL A   1      50.776  24.150  18.830  1.00  0.00    +0.000 C 
ATOM     76  F13 UNL A   1      50.026  24.832  19.706  1.00  0.00    +0.000 F 
ATOM     77  C54 UNL A   1      50.797  22.764  18.863  1.00  0.00    +0.000 C 
ATOM     78  F14 UNL A   1      50.052  22.105  19.760  1.00  0.00    +0.000 F 
ATOM     79  C55 UNL A   1      51.593  22.055  17.966  1.00  0.00    +0.000 C 
ATOM     80  F15 UNL A   1      51.604  20.715  18.029  1.00  0.00    +0.000 F 
ENDBRANCH   69   70
TORSDOF 18
ENDMDL
MODEL 2
REMARK VINA RESULT:     -11.5     41.342     47.516
ROOT
ATOM     33  C26 UNL A   1      10.624   2.889  21.387  1.00  0.00    +0.000 C 
ATOM     34  C27 UNL A   1       9.740   3.861  22.116  1.00  0.00    +0.000 C 
ATOM     35  N4  UNL A   1       9.368   5.068  21.765  1.00  0.00    +0.000 N 
ATOM     36  C28 UNL A   1       8.519   5.507  22.770  1.00  0.00    +0.000 C 
ATOM     37  C29 UNL A   1       7.914   6.714  22.898  1.00  0.00    +0.000 C 
ATOM     49  C36 UNL A   1       8.064   7.801  21.966  1.00  0.00    +0.000 C 
ATOM     50  C37 UNL A   1       7.544   9.081  22.044  1.00  0.00    +0.000 C 
ATOM     51  C38 UNL A   1       7.921   9.777  20.889  1.00  0.00    +0.000 C 
ATOM     52  C39 UNL A   1       8.711   8.944  20.114  1.00  0.00    +0.000 C 
ATOM     53  N5  UNL A   1       8.788   7.733  20.785  1.00  0.00    +0.000 N 
ATOM     54  C40 UNL A   1       9.346   9.227  18.853  1.00  0.00    +0.000 C 
ATOM     66  C47 UNL A   1      10.120   8.355  18.160  1.00  0.00    +0.000 C 
ATOM     67  N6  UNL A   1      10.472   7.053  18.486  1.00  0.00    +0.000 N 
ATOM     68  C48 UNL A   1      11.221   6.624  17.500  1.00  0.00    +0.000 C 
ATOM     69  C49 UNL A   1      11.904   5.294  17.334  1.00  0.00    +0.000 C 
ATOM     81  C56 UNL A   1      11.782   4.365  18.301  1.00  0.00    +0.000 C 
ATOM     82  C57 UNL A   1      12.387   3.036  18.277  1.00  0.00    +0.000 C 
ATOM     83  C58 UNL A   1      12.016   2.367  19.381  1.00  0.00    +0.000 C 
ATOM     84  C59 UNL A   1      11.175   3.234  20.207  1.00  0.00    +0.000 C 
ATOM     85  N7  UNL A   1      11.096   4.402  19.490  1.00  0.00    +0.000 N 
ATOM     86  C60 UNL A   1      11.405   7.602  16.418  1.00  0.00    +0.000 C 
ATOM     87  C61 UNL A   1      10.746   8.653  16.889  1.00  0.00    +0.000 C 
ATOM     88  C62 UNL A   1       8.391   4.425  23.721  1.00  0.00    +0.000 C 
ATOM     89  C63 UNL A   1       9.177   3.408  23.396  1.00  0.00    +0.000 C 
ATOM    118  H27 UNL A   1       6.978   9.459  22.818  1.00  0.00    +0.000 H 
ATOM    119  H28 UNL A   1       7.654  10.746  20.655  1.00  0.00    +0.000 H 
ATOM    120  H29 UNL A   1       9.282   6.943  20.470  1.00  0.00    +0.000 H 
ATOM    121  H30 UNL A   1      13.002   2.670  17.533  1.00  0.00    +0.000 H 
ATOM    122  H31 UNL A   1      12.282   1.397  19.610  1.00  0.00    +0.000 H 
ATOM    123  H32 UNL A   1      10.596   5.191  19.799  1.00  0.00    +0.000 H 
ATOM    124  H33 UNL A   1      11.913   7.499  15.526  1.00  0.00    +0.000 H 
ATOM    125  H34 UNL A   1      10.687   9.564  16.410  1.00  0.00    +0.000 H 
ATOM    126  H35 UNL A   1       7.770   4.441  24.546  1.00  0.00    +0.000 H 
ATOM    127  H36 UNL A   1       9.348   2.528  23.907  1.00  0.00    +0.000 H 
ENDROOT
BRANCH   33   32
ATOM    129  H38 UNL A   1       9.341  -1.486  22.031  1.00  0.00    +0.000 H 
ATOM    128  H37 UNL A   1       9.041   0.743  21.126  1.00  0.00    +0.000 H 
ATOM    116  H25 UNL A   1      13.055  -0.338  23.641  1.00  0.00    +0.000 H 
ATOM    117  H26 UNL A   1      12.662   1.944  22.911  1.00  0.00    +0.000 H 
ATOM     90  C64 UNL A   1       9.886   0.520  21.674  1.00  0.00    +0.000 C 
ATOM     91  C65 UNL A   1      10.077  -0.773  22.159  1.00  0.00    +0.000 C 
ATOM     29  C22 UNL A   1      11.264  -1.101  22.820  1.00  0.00    +0.000 C 
ATOM     30  C23 UNL A   1      12.201  -0.105  23.109  1.00  0.00    +0.000 C 
ATOM     31  C24 UNL A   1      11.981   1.205  22.676  1.00  0.00    +0.000 C 
ATOM     32  C25 UNL A   1      10.838   1.521  21.925  1.00  0.00    +0.000 C 
BRANCH   29   27
ATOM     27  C21 UNL A   1      11.551  -2.492  23.238  1.00  0.00    +0.000 C 
ATOM     28  O2  UNL A   1      12.402  -3.141  22.636  1.00  0.00    +0.000 O 
BRANCH   27   26
ATOM     26  N3  UNL A   1      10.851  -3.063  24.272  1.00  0.00    +0.000 N 
ATOM    115  H24 UNL A   1      10.355  -3.881  24.041  1.00  0.00    +0.000 H 
BRANCH   26   25
ATOM     25  C20 UNL A   1      10.733  -2.636  25.657  1.00  0.00    +0.000 C 
ATOM    114  H23 UNL A   1       9.998  -3.258  26.124  1.00  0.00    +0.000 H 
ATOM    113  H22 UNL A   1      10.449  -1.604  25.674  1.00  0.00    +0.000 H 
BRANCH   25   24
ATOM    112  H21 UNL A   1      12.623  -3.502  25.891  1.00  0.00    +0.000 H 
ATOM    111  H20 UNL A   1      11.786  -3.120  27.429  1.00  0.00    +0.000 H 
ATOM     24  C19 UNL A   1      12.033  -2.796  26.439  1.00  0.00    +0.000 C 
BRANCH   24   23
ATOM    109  H18 UNL A   1      12.274  -0.694  26.309  1.00  0.00    +0.000 H 
ATOM    110  H19 UNL A   1      13.253  -1.517  27.563  1.00  0.00    +0.000 H 
ATOM     23  C18 UNL A   1      12.888  -1.533  26.556  1.00  0.00    +0.000 C 
BRANCH   23   22
ATOM    107  H16 UNL A   1      14.754  -2.318  25.920  1.00  0.00    +0.000 H 
ATOM    108  H17 UNL A   1      13.763  -1.527  24.653  1.00  0.00    +0.000 H 
ATOM     22  C17 UNL A   1      14.128  -1.491  25.658  1.00  0.00    +0.000 C 
BRANCH   22   21
ATOM    105  H14 UNL A   1      15.959  -0.487  26.060  1.00  0.00    +0.000 H 
ATOM    106  H15 UNL A   1      14.940   0.241  24.784  1.00  0.00    +0.000 H 
ATOM     21  C16 UNL A   1      14.971  -0.212  25.753  1.00  0.00    +0.000 C 
BRANCH   21   20
ATOM     20  C15 UNL A   1      14.444   0.834  26.734  1.00  0.00    +0.000 C 
ATOM    103  H12 UNL A   1      13.971   1.621  26.186  1.00  0.00    +0.000 H 
ATOM    104  H13 UNL A   1      13.745   0.357  27.391  1.00  0.00    +0.000 H 
BRANCH   20   19
ATOM     19  N2  UNL A   1      15.514   1.392  27.534  1.00  0.00    +0.000 N 
ATOM    102  H11 UNL A   1      16.216   0.786  27.866  1.00  0.00    +0.000 H 
BRANCH   19    2
ATOM      1  O1  UNL A   1      16.650   3.299  28.123  1.00  0.00    +0.000 O 
ATOM      2  C1  UNL A   1      15.597   2.729  27.851  1.00  0.00    +0.000 C 
BRANCH    2    3
ATOM      3  C2  UNL A   1      14.265   3.461  27.855  1.00  0.00    +0.000 C 
ATOM     92  H1  UNL A   1      13.561   2.896  27.281  1.00  0.00    +0.000 H 
ATOM     93  H2  UNL A   1      14.428   4.432  27.436  1.00  0.00    +0.000 H 
BRANCH    3    4
ATOM     97  H6  UNL A   1      11.022   4.685  30.967  1.00  0.00    +0.000 H 
ATOM      4  C3  UNL A   1      13.709   3.653  29.251  1.00  0.00    +0.000 C 
ATOM      5  C4  UNL A   1      14.496   3.252  30.348  1.00  0.00    +0.000 C 
ATOM      6  C5  UNL A   1      14.016   3.368  31.648  1.00  0.00    +0.000 C 
ATOM      7  C6  UNL A   1      12.746   3.885  31.869  1.00  0.00    +0.000 C 
ATOM      8  C7  UNL A   1      11.960   4.295  30.789  1.00  0.00    +0.000 C 
ATOM      9  C8  UNL A   1      12.419   4.190  29.466  1.00  0.00    +0.000 C 
ATOM     94  H3  UNL A   1      15.441   2.869  30.184  1.00  0.00    +0.000 H 
ATOM     95  H4  UNL A   1      14.601   3.073  32.446  1.00  0.00    +0.000 H 
ATOM     96  H5  UNL A   1      12.382   3.966  32.831  1.00  0.00    +0.000 H 
BRANCH    9   10
ATOM     10  N1  UNL A   1      11.659   4.665  28.366  1.00  0.00    +0.000 N 
ATOM     98  H7  UNL A   1      12.126   5.281  27.756  1.00  0.00    +0.000 H 
BRANCH   10   11
ATOM     99  H8  UNL A   1       7.262   5.833  28.080  1.00  0.00    +0.000 H 
ATOM    100  H9  UNL A   1       6.636   3.749  27.005  1.00  0.00    +0.000 H 
ATOM    101  H10 UNL A   1       8.316   2.047  26.607  1.00  0.00    +0.000 H 
ATOM     11  C9  UNL A   1      10.309   4.367  28.034  1.00  0.00    +0.000 C 
ATOM     12  C10 UNL A   1       9.308   5.335  28.261  1.00  0.00    +0.000 C 
ATOM     13 Cl1  UNL A   1       9.697   6.854  29.000  1.00  0.00    +0.000 Cl
ATOM     14  C11 UNL A   1       7.976   5.112  27.897  1.00  0.00    +0.000 C 
ATOM     15  C12 UNL A   1       7.615   3.914  27.287  1.00  0.00    +0.000 C 
ATOM     16  C13 UNL A   1       8.583   2.937  27.056  1.00  0.00    +0.000 C 
ATOM     17  C14 UNL A   1       9.915   3.156  27.429  1.00  0.00    +0.000 C 
ATOM     18 Cl2  UNL A   1      11.020   1.843  27.187  1.00  0.00    +0.000 Cl
ENDBRANCH   10   11
ENDBRANCH    9   10
ENDBRANCH    3    4
ENDBRANCH    2    3
ENDBRANCH   19    2
ENDBRANCH   20   19
ENDBRANCH   21   20
ENDBRANCH   22   21
ENDBRANCH   23   22
ENDBRANCH   24   23
ENDBRANCH   25   24
ENDBRANCH   26   25
ENDBRANCH   27   26
ENDBRANCH   29   27
ENDBRANCH   33   32
BRANCH   37   38
ATOM     38  C30 UNL A   1       7.035   6.923  24.097  1.00  0.00    +0.000 C 
ATOM     39  C31 UNL A   1       7.480   7.636  25.220  1.00  0.00    +0.000 C 
ATOM     40  F1  UNL A   1       8.733   8.116  25.261  1.00  0.00    +0.000 F 
ATOM     41  C32 UNL A   1       6.653   7.826  26.323  1.00  0.00    +0.000 C 
ATOM     42  F2  UNL A   1       7.117   8.468  27.403  1.00  0.00    +0.000 F 
ATOM     43  C33 UNL A   1       5.355   7.338  26.312  1.00  0.00    +0.000 C 
ATOM     44  F3  UNL A   1       4.558   7.525  27.373  1.00  0.00    +0.000 F 
ATOM     45  C34 UNL A   1       4.885   6.650  25.203  1.00  0.00    +0.000 C 
ATOM     46  F4  UNL A   1       3.628   6.188  25.186  1.00  0.00    +0.000 F 
ATOM     47  C35 UNL A   1       5.720   6.433  24.109  1.00  0.00    +0.000 C 
ATOM     48  F5  UNL A   1       5.241   5.750  23.058  1.00  0.00    +0.000 F 
ENDBRANCH   37   38
BRANCH   54   55
ATOM     65  F10 UNL A   1      11.100  11.394  19.400  1.00  0.00    +0.000 F 
ATOM     55  C41 UNL A   1       9.164  10.597  18.270  1.00  0.00    +0.000 C 
ATOM     56  C42 UNL A   1       8.087  10.898  17.423  1.00  0.00    +0.000 C 
ATOM     57  F6  UNL A   1       7.217   9.939  17.073  1.00  0.00    +0.000 F 
ATOM     58  C43 UNL A   1       7.924  12.178  16.902  1.00  0.00    +0.000 C 
ATOM     59  F7  UNL A   1       6.912  12.432  16.061  1.00  0.00    +0.000 F 
ATOM     60  C44 UNL A   1       8.812  13.187  17.242  1.00  0.00    +0.000 C 
ATOM     61  F8  UNL A   1       8.649  14.421  16.744  1.00  0.00    +0.000 F 
ATOM     62  C45 UNL A   1       9.875  12.915  18.089  1.00  0.00    +0.000 C 
ATOM     63  F9  UNL A   1      10.729  13.892  18.427  1.00  0.00    +0.000 F 
ATOM     64  C46 UNL A   1      10.057  11.630  18.591  1.00  0.00    +0.000 C 
ENDBRANCH   54   55
BRANCH   69   70
ATOM     70  C50 UNL A   1      12.732   5.011  16.133  1.00  0.00    +0.000 C 
ATOM     71  C51 UNL A   1      14.083   5.382  16.093  1.00  0.00    +0.000 C 
ATOM     72  F11 UNL A   1      14.635   6.017  17.138  1.00  0.00    +0.000 F 
ATOM     73  C52 UNL A   1      14.861   5.139  14.964  1.00  0.00    +0.000 C 
ATOM     74  F12 UNL A   1      16.140   5.541  14.935  1.00  0.00    +0.000 F 
ATOM     75  C53 UNL A   1      14.312   4.496  13.865  1.00  0.00    +0.000 C 
ATOM     76  F13 UNL A   1      15.062   4.259  12.780  1.00  0.00    +0.000 F 
ATOM     77  C54 UNL A   1      12.982   4.106  13.889  1.00  0.00    +0.000 C 
ATOM     78  F14 UNL A   1      12.450   3.474  12.834  1.00  0.00    +0.000 F 
ATOM     79  C55 UNL A   1      12.195   4.371  15.008  1.00  0.00    +0.000 C 
ATOM     80  F15 UNL A   1      10.908   3.994  14.999  1.00  0.00    +0.000 F 
ENDBRANCH   69   70
TORSDOF 18
ENDMDL
MODEL 3
REMARK VINA RESULT:     -11.4     40.672     48.334
ROOT
ATOM     33  C26 UNL A   1      25.736  34.757  46.184  1.00  0.00    +0.000 C 
ATOM     34  C27 UNL A   1      25.462  35.909  47.109  1.00  0.00    +0.000 C 
ATOM     35  N4  UNL A   1      26.201  36.960  47.365  1.00  0.00    +0.000 N 
ATOM     36  C28 UNL A   1      25.464  37.732  48.251  1.00  0.00    +0.000 C 
ATOM     37  C29 UNL A   1      25.817  38.892  48.857  1.00  0.00    +0.000 C 
ATOM     49  C36 UNL A   1      27.084  39.551  48.676  1.00  0.00    +0.000 C 
ATOM     50  C37 UNL A   1      27.558  40.695  49.295  1.00  0.00    +0.000 C 
ATOM     51  C38 UNL A   1      28.825  40.981  48.773  1.00  0.00    +0.000 C 
ATOM     52  C39 UNL A   1      29.158  39.992  47.862  1.00  0.00    +0.000 C 
ATOM     53  N5  UNL A   1      28.079  39.123  47.809  1.00  0.00    +0.000 N 
ATOM     54  C40 UNL A   1      30.367  39.850  47.093  1.00  0.00    +0.000 C 
ATOM     66  C47 UNL A   1      30.622  38.839  46.226  1.00  0.00    +0.000 C 
ATOM     67  N6  UNL A   1      29.824  37.752  45.896  1.00  0.00    +0.000 N 
ATOM     68  C48 UNL A   1      30.501  37.063  45.011  1.00  0.00    +0.000 C 
ATOM     69  C49 UNL A   1      30.135  35.775  44.326  1.00  0.00    +0.000 C 
ATOM     81  C56 UNL A   1      28.965  35.179  44.624  1.00  0.00    +0.000 C 
ATOM     82  C57 UNL A   1      28.480  33.931  44.042  1.00  0.00    +0.000 C 
ATOM     83  C58 UNL A   1      27.259  33.664  44.536  1.00  0.00    +0.000 C 
ATOM     84  C59 UNL A   1      26.892  34.705  45.496  1.00  0.00    +0.000 C 
ATOM     85  N7  UNL A   1      27.968  35.558  45.489  1.00  0.00    +0.000 N 
ATOM     86  C60 UNL A   1      31.799  37.656  44.657  1.00  0.00    +0.000 C 
ATOM     87  C61 UNL A   1      31.840  38.714  45.454  1.00  0.00    +0.000 C 
ATOM     88  C62 UNL A   1      24.202  37.055  48.455  1.00  0.00    +0.000 C 
ATOM     89  C63 UNL A   1      24.176  35.891  47.822  1.00  0.00    +0.000 C 
ATOM    118  H27 UNL A   1      27.065  41.241  50.016  1.00  0.00    +0.000 H 
ATOM    119  H28 UNL A   1      29.412  41.792  49.025  1.00  0.00    +0.000 H 
ATOM    120  H29 UNL A   1      28.027  38.321  47.242  1.00  0.00    +0.000 H 
ATOM    121  H30 UNL A   1      28.991  33.348  43.362  1.00  0.00    +0.000 H 
ATOM    122  H31 UNL A   1      26.674  32.853  44.280  1.00  0.00    +0.000 H 
ATOM    123  H32 UNL A   1      28.019  36.365  46.050  1.00  0.00    +0.000 H 
ATOM    124  H33 UNL A   1      32.496  37.333  43.967  1.00  0.00    +0.000 H 
ATOM    125  H34 UNL A   1      32.638  39.366  45.516  1.00  0.00    +0.000 H 
ATOM    126  H35 UNL A   1      23.423  37.429  49.020  1.00  0.00    +0.000 H 
ATOM    127  H36 UNL A   1      23.445  35.163  47.827  1.00  0.00    +0.000 H 
ENDROOT
BRANCH   33   32
ATOM    129  H38 UNL A   1      22.121  32.992  43.942  1.00  0.00    +0.000 H 
ATOM    128  H37 UNL A   1      23.842  34.664  44.290  1.00  0.00    +0.000 H 
ATOM    116  H25 UNL A   1      23.664  30.731  47.138  1.00  0.00    +0.000 H 
ATOM    117  H26 UNL A   1      25.258  32.500  47.615  1.00  0.00    +0.000 H 
ATOM     90  C64 UNL A   1      23.796  33.838  44.906  1.00  0.00    +0.000 C 
ATOM     91  C65 UNL A   1      22.831  32.857  44.680  1.00  0.00    +0.000 C 
ATOM     29  C22 UNL A   1      22.826  31.693  45.454  1.00  0.00    +0.000 C 
ATOM     30  C23 UNL A   1      23.702  31.570  46.536  1.00  0.00    +0.000 C 
ATOM     31  C24 UNL A   1      24.627  32.581  46.801  1.00  0.00    +0.000 C 
ATOM     32  C25 UNL A   1      24.705  33.708  45.968  1.00  0.00    +0.000 C 
BRANCH   29   27
ATOM     27  C21 UNL A   1      21.896  30.579  45.159  1.00  0.00    +0.000 C 
ATOM     28  O2  UNL A   1      22.157  29.449  45.563  1.00  0.00    +0.000 O 
BRANCH   27   26
ATOM     26  N3  UNL A   1      20.764  30.801  44.416  1.00  0.00    +0.000 N 
ATOM    115  H24 UNL A   1      20.920  31.040  43.474  1.00  0.00    +0.000 H 
BRANCH   26   25
ATOM     25  C20 UNL A   1      19.367  30.737  44.815  1.00  0.00    +0.000 C 
ATOM    114  H23 UNL A   1      18.918  31.678  44.569  1.00  0.00    +0.000 H 
ATOM    113  H22 UNL A   1      19.320  30.538  45.866  1.00  0.00    +0.000 H 
BRANCH   25   24
ATOM    112  H21 UNL A   1      18.568  28.806  44.732  1.00  0.00    +0.000 H 
ATOM    111  H20 UNL A   1      19.086  29.463  43.148  1.00  0.00    +0.000 H 
ATOM     24  C19 UNL A   1      18.589  29.652  44.077  1.00  0.00    +0.000 C 
BRANCH   24   23
ATOM    109  H18 UNL A   1      17.070  30.322  42.758  1.00  0.00    +0.000 H 
ATOM    110  H19 UNL A   1      16.575  29.087  43.959  1.00  0.00    +0.000 H 
ATOM     23  C18 UNL A   1      17.128  29.985  43.771  1.00  0.00    +0.000 C 
BRANCH   23   22
ATOM    107  H16 UNL A   1      15.890  30.568  45.393  1.00  0.00    +0.000 H 
ATOM    108  H17 UNL A   1      17.314  31.611  45.078  1.00  0.00    +0.000 H 
ATOM     22  C17 UNL A   1      16.497  31.060  44.661  1.00  0.00    +0.000 C 
BRANCH   22   21
ATOM    105  H14 UNL A   1      15.757  31.959  42.883  1.00  0.00    +0.000 H 
ATOM    106  H15 UNL A   1      14.617  31.912  44.259  1.00  0.00    +0.000 H 
ATOM     21  C16 UNL A   1      15.621  32.090  43.936  1.00  0.00    +0.000 C 
BRANCH   21   20
ATOM     20  C15 UNL A   1      15.929  33.548  44.276  1.00  0.00    +0.000 C 
ATOM    103  H12 UNL A   1      15.469  34.181  43.547  1.00  0.00    +0.000 H 
ATOM    104  H13 UNL A   1      15.545  33.755  45.254  1.00  0.00    +0.000 H 
BRANCH   20   19
ATOM     19  N2  UNL A   1      17.355  33.796  44.284  1.00  0.00    +0.000 N 
ATOM    102  H11 UNL A   1      17.932  33.236  43.715  1.00  0.00    +0.000 H 
BRANCH   19    2
ATOM      1  O1  UNL A   1      17.401  35.848  45.316  1.00  0.00    +0.000 O 
ATOM      2  C1  UNL A   1      17.943  34.779  45.049  1.00  0.00    +0.000 C 
BRANCH    2    3
ATOM      3  C2  UNL A   1      19.344  34.448  45.536  1.00  0.00    +0.000 C 
ATOM     92  H1  UNL A   1      19.711  33.610  44.980  1.00  0.00    +0.000 H 
ATOM     93  H2  UNL A   1      19.281  34.232  46.581  1.00  0.00    +0.000 H 
BRANCH    3    4
ATOM     97  H6  UNL A   1      21.813  38.124  46.983  1.00  0.00    +0.000 H 
ATOM      4  C3  UNL A   1      20.309  35.603  45.365  1.00  0.00    +0.000 C 
ATOM      5  C4  UNL A   1      20.918  35.789  44.109  1.00  0.00    +0.000 C 
ATOM      6  C5  UNL A   1      21.843  36.809  43.911  1.00  0.00    +0.000 C 
ATOM      7  C6  UNL A   1      22.171  37.654  44.964  1.00  0.00    +0.000 C 
ATOM      8  C7  UNL A   1      21.567  37.484  46.212  1.00  0.00    +0.000 C 
ATOM      9  C8  UNL A   1      20.630  36.464  46.440  1.00  0.00    +0.000 C 
ATOM     94  H3  UNL A   1      20.673  35.162  43.326  1.00  0.00    +0.000 H 
ATOM     95  H4  UNL A   1      22.283  36.939  42.987  1.00  0.00    +0.000 H 
ATOM     96  H5  UNL A   1      22.862  38.407  44.824  1.00  0.00    +0.000 H 
BRANCH    9   10
ATOM     10  N1  UNL A   1      19.958  36.323  47.682  1.00  0.00    +0.000 N 
ATOM     98  H7  UNL A   1      18.979  36.228  47.633  1.00  0.00    +0.000 H 
BRANCH   10   11
ATOM     99  H8  UNL A   1      21.973  34.134  51.136  1.00  0.00    +0.000 H 
ATOM    100  H9  UNL A   1      22.233  36.158  52.449  1.00  0.00    +0.000 H 
ATOM    101  H10 UNL A   1      21.386  38.264  51.597  1.00  0.00    +0.000 H 
ATOM     11  C9  UNL A   1      20.518  36.305  48.989  1.00  0.00    +0.000 C 
ATOM     12  C10 UNL A   1      21.012  35.092  49.515  1.00  0.00    +0.000 C 
ATOM     13 Cl1  UNL A   1      20.882  33.618  48.614  1.00  0.00    +0.000 Cl
ATOM     14  C11 UNL A   1      21.627  35.035  50.771  1.00  0.00    +0.000 C 
ATOM     15  C12 UNL A   1      21.769  36.193  51.527  1.00  0.00    +0.000 C 
ATOM     16  C13 UNL A   1      21.284  37.404  51.035  1.00  0.00    +0.000 C 
ATOM     17  C14 UNL A   1      20.660  37.462  49.782  1.00  0.00    +0.000 C 
ATOM     18 Cl2  UNL A   1      20.008  38.994  49.304  1.00  0.00    +0.000 Cl
ENDBRANCH   10   11
ENDBRANCH    9   10
ENDBRANCH    3    4
ENDBRANCH    2    3
ENDBRANCH   19    2
ENDBRANCH   20   19
ENDBRANCH   21   20
ENDBRANCH   22   21
ENDBRANCH   23   22
ENDBRANCH   24   23
ENDBRANCH   25   24
ENDBRANCH   26   25
ENDBRANCH   27   26
ENDBRANCH   29   27
ENDBRANCH   33   32
BRANCH   37   38
ATOM     38  C30 UNL A   1      24.815  39.524  49.778  1.00  0.00    +0.000 C 
ATOM     39  C31 UNL A   1      23.835  40.409  49.304  1.00  0.00    +0.000 C 
ATOM     40  F1  UNL A   1      23.802  40.744  48.004  1.00  0.00    +0.000 F 
ATOM     41  C32 UNL A   1      22.909  40.985  50.169  1.00  0.00    +0.000 C 
ATOM     42  F2  UNL A   1      22.014  41.865  49.700  1.00  0.00    +0.000 F 
ATOM     43  C33 UNL A   1      22.921  40.661  51.517  1.00  0.00    +0.000 C 
ATOM     44  F3  UNL A   1      22.027  41.213  52.348  1.00  0.00    +0.000 F 
ATOM     45  C34 UNL A   1      23.866  39.771  52.005  1.00  0.00    +0.000 C 
ATOM     46  F4  UNL A   1      23.871  39.448  53.306  1.00  0.00    +0.000 F 
ATOM     47  C35 UNL A   1      24.811  39.215  51.147  1.00  0.00    +0.000 C 
ATOM     48  F5  UNL A   1      25.722  38.369  51.653  1.00  0.00    +0.000 F 
ENDBRANCH   37   38
BRANCH   54   55
ATOM     65  F10 UNL A   1      30.338  42.372  45.786  1.00  0.00    +0.000 F 
ATOM     55  C41 UNL A   1      31.440  40.882  47.279  1.00  0.00    +0.000 C 
ATOM     56  C42 UNL A   1      32.548  40.649  48.107  1.00  0.00    +0.000 C 
ATOM     57  F6  UNL A   1      32.645  39.503  48.797  1.00  0.00    +0.000 F 
ATOM     58  C43 UNL A   1      33.543  41.612  48.256  1.00  0.00    +0.000 C 
ATOM     59  F7  UNL A   1      34.571  41.385  49.085  1.00  0.00    +0.000 F 
ATOM     60  C44 UNL A   1      33.465  42.808  47.559  1.00  0.00    +0.000 C 
ATOM     61  F8  UNL A   1      34.427  43.731  47.700  1.00  0.00    +0.000 F 
ATOM     62  C45 UNL A   1      32.385  43.053  46.724  1.00  0.00    +0.000 C 
ATOM     63  F9  UNL A   1      32.314  44.204  46.042  1.00  0.00    +0.000 F 
ATOM     64  C46 UNL A   1      31.376  42.104  46.593  1.00  0.00    +0.000 C 
ENDBRANCH   54   55
BRANCH   69   70
ATOM     70  C50 UNL A   1      31.063  35.142  43.354  1.00  0.00    +0.000 C 
ATOM     71  C51 UNL A   1      31.179  35.638  42.049  1.00  0.00    +0.000 C 
ATOM     72  F11 UNL A   1      30.431  36.682  41.660  1.00  0.00    +0.000 F 
ATOM     73  C52 UNL A   1      32.031  35.038  41.124  1.00  0.00    +0.000 C 
ATOM     74  F12 UNL A   1      32.091  35.506  39.870  1.00  0.00    +0.000 F 
ATOM     75  C53 UNL A   1      32.805  33.950  41.496  1.00  0.00    +0.000 C 
ATOM     76  F13 UNL A   1      33.628  33.375  40.608  1.00  0.00    +0.000 F 
ATOM     77  C54 UNL A   1      32.720  33.453  42.787  1.00  0.00    +0.000 C 
ATOM     78  F14 UNL A   1      33.475  32.408  43.154  1.00  0.00    +0.000 F 
ATOM     79  C55 UNL A   1      31.849  34.035  43.705  1.00  0.00    +0.000 C 
ATOM     80  F15 UNL A   1      31.777  33.526  44.944  1.00  0.00    +0.000 F 
ENDBRANCH   69   70
TORSDOF 18
ENDMDL
MODEL 4
REMARK VINA RESULT:     -11.3     45.353     50.512
ROOT
ATOM     33  C26 UNL A   1      13.730  53.661   5.512  1.00  0.00    +0.000 C 
ATOM     34  C27 UNL A   1      14.685  54.143   4.457  1.00  0.00    +0.000 C 
ATOM     35  N4  UNL A   1      15.200  53.491   3.445  1.00  0.00    +0.000 N 
ATOM     36  C28 UNL A   1      15.978  54.412   2.759  1.00  0.00    +0.000 C 
ATOM     37  C29 UNL A   1      16.760  54.214   1.670  1.00  0.00    +0.000 C 
ATOM     49  C36 UNL A   1      16.928  52.946   1.009  1.00  0.00    +0.000 C 
ATOM     50  C37 UNL A   1      17.747  52.632  -0.061  1.00  0.00    +0.000 C 
ATOM     51  C38 UNL A   1      17.546  51.286  -0.386  1.00  0.00    +0.000 C 
ATOM     52  C39 UNL A   1      16.634  50.751   0.509  1.00  0.00    +0.000 C 
ATOM     53  N5  UNL A   1      16.260  51.781   1.358  1.00  0.00    +0.000 N 
ATOM     54  C40 UNL A   1      16.137  49.401   0.585  1.00  0.00    +0.000 C 
ATOM     66  C47 UNL A   1      15.249  48.952   1.506  1.00  0.00    +0.000 C 
ATOM     67  N6  UNL A   1      14.644  49.644   2.545  1.00  0.00    +0.000 N 
ATOM     68  C48 UNL A   1      13.863  48.783   3.147  1.00  0.00    +0.000 C 
ATOM     69  C49 UNL A   1      12.989  48.975   4.356  1.00  0.00    +0.000 C 
ATOM     81  C56 UNL A   1      12.962  50.175   4.967  1.00  0.00    +0.000 C 
ATOM     82  C57 UNL A   1      12.165  50.506   6.145  1.00  0.00    +0.000 C 
ATOM     83  C58 UNL A   1      12.352  51.802   6.448  1.00  0.00    +0.000 C 
ATOM     84  C59 UNL A   1      13.309  52.382   5.506  1.00  0.00    +0.000 C 
ATOM     85  N7  UNL A   1      13.622  51.341   4.667  1.00  0.00    +0.000 N 
ATOM     86  C60 UNL A   1      13.862  47.446   2.535  1.00  0.00    +0.000 C 
ATOM     87  C61 UNL A   1      14.752  47.593   1.564  1.00  0.00    +0.000 C 
ATOM     88  C62 UNL A   1      15.833  55.680   3.440  1.00  0.00    +0.000 C 
ATOM     89  C63 UNL A   1      15.095  55.553   4.534  1.00  0.00    +0.000 C 
ATOM    118  H27 UNL A   1      18.395  53.278  -0.537  1.00  0.00    +0.000 H 
ATOM    119  H28 UNL A   1      18.000  50.778  -1.161  1.00  0.00    +0.000 H 
ATOM    120  H29 UNL A   1      15.616  51.699   2.097  1.00  0.00    +0.000 H 
ATOM    121  H30 UNL A   1      11.558  49.852   6.661  1.00  0.00    +0.000 H 
ATOM    122  H31 UNL A   1      11.894  52.307   7.223  1.00  0.00    +0.000 H 
ATOM    123  H32 UNL A   1      14.260  51.423   3.922  1.00  0.00    +0.000 H 
ATOM    124  H33 UNL A   1      13.311  46.612   2.794  1.00  0.00    +0.000 H 
ATOM    125  H34 UNL A   1      15.051  46.836   0.930  1.00  0.00    +0.000 H 
ATOM    126  H35 UNL A   1      16.249  56.568   3.118  1.00  0.00    +0.000 H 
ATOM    127  H36 UNL A   1      14.867  56.259   5.251  1.00  0.00    +0.000 H 
ENDROOT
BRANCH   33   32
ATOM    129  H38 UNL A   1      13.802  55.692   9.645  1.00  0.00    +0.000 H 
ATOM    128  H37 UNL A   1      14.687  54.191   7.958  1.00  0.00    +0.000 H 
ATOM    116  H25 UNL A   1      10.760  56.884   6.994  1.00  0.00    +0.000 H 
ATOM    117  H26 UNL A   1      11.523  55.235   5.383  1.00  0.00    +0.000 H 
ATOM     90  C64 UNL A   1      13.843  54.750   7.758  1.00  0.00    +0.000 C 
ATOM     91  C65 UNL A   1      13.359  55.642   8.713  1.00  0.00    +0.000 C 
ATOM     29  C22 UNL A   1      12.273  56.467   8.409  1.00  0.00    +0.000 C 
ATOM     30  C23 UNL A   1      11.592  56.308   7.198  1.00  0.00    +0.000 C 
ATOM     31  C24 UNL A   1      12.040  55.370   6.266  1.00  0.00    +0.000 C 
ATOM     32  C25 UNL A   1      13.190  54.606   6.523  1.00  0.00    +0.000 C 
BRANCH   29   27
ATOM     27  C21 UNL A   1      11.812  57.511   9.353  1.00  0.00    +0.000 C 
ATOM     28  O2  UNL A   1      11.991  58.695   9.080  1.00  0.00    +0.000 O 
BRANCH   27   26
ATOM     26  N3  UNL A   1      11.216  57.158  10.537  1.00  0.00    +0.000 N 
ATOM    115  H24 UNL A   1      11.699  57.434  11.349  1.00  0.00    +0.000 H 
BRANCH   26   25
ATOM     25  C20 UNL A   1       9.976  56.434  10.770  1.00  0.00    +0.000 C 
ATOM    114  H23 UNL A   1       9.326  56.636   9.943  1.00  0.00    +0.000 H 
ATOM    113  H22 UNL A   1       9.554  56.767  11.696  1.00  0.00    +0.000 H 
BRANCH   25   24
ATOM    112  H21 UNL A   1       9.683  54.601  11.733  1.00  0.00    +0.000 H 
ATOM    111  H20 UNL A   1      11.228  54.729  10.833  1.00  0.00    +0.000 H 
ATOM     24  C19 UNL A   1      10.175  54.923  10.839  1.00  0.00    +0.000 C 
BRANCH   24   23
ATOM    109  H18 UNL A   1       8.594  53.762  10.034  1.00  0.00    +0.000 H 
ATOM    110  H19 UNL A   1       9.475  54.800   8.869  1.00  0.00    +0.000 H 
ATOM     23  C18 UNL A   1       9.542  54.126   9.698  1.00  0.00    +0.000 C 
BRANCH   23   22
ATOM    107  H16 UNL A   1       9.688  52.259   8.699  1.00  0.00    +0.000 H 
ATOM    108  H17 UNL A   1      11.117  53.334   8.566  1.00  0.00    +0.000 H 
ATOM     22  C17 UNL A   1      10.356  52.927   9.200  1.00  0.00    +0.000 C 
BRANCH   22   21
ATOM    105  H14 UNL A   1      11.853  51.548   9.810  1.00  0.00    +0.000 H 
ATOM    106  H15 UNL A   1      11.483  52.853  10.974  1.00  0.00    +0.000 H 
ATOM     21  C16 UNL A   1      11.094  52.132  10.285  1.00  0.00    +0.000 C 
BRANCH   21   20
ATOM     20  C15 UNL A   1      10.212  51.189  11.102  1.00  0.00    +0.000 C 
ATOM    103  H12 UNL A   1       9.664  51.759  11.823  1.00  0.00    +0.000 H 
ATOM    104  H13 UNL A   1       9.545  50.686  10.432  1.00  0.00    +0.000 H 
BRANCH   20   19
ATOM     19  N2  UNL A   1      11.004  50.192  11.791  1.00  0.00    +0.000 N 
ATOM    102  H11 UNL A   1      11.409  49.468  11.262  1.00  0.00    +0.000 H 
BRANCH   19    2
ATOM      1  O1  UNL A   1      10.320  50.094  13.982  1.00  0.00    +0.000 O 
ATOM      2  C1  UNL A   1      11.217  50.210  13.151  1.00  0.00    +0.000 C 
BRANCH    2    3
ATOM      3  C2  UNL A   1      12.668  50.404  13.561  1.00  0.00    +0.000 C 
ATOM     92  H1  UNL A   1      13.244  49.587  13.179  1.00  0.00    +0.000 H 
ATOM     93  H2  UNL A   1      12.699  50.444  14.629  1.00  0.00    +0.000 H 
BRANCH    3    4
ATOM     97  H6  UNL A   1      15.388  52.979  10.790  1.00  0.00    +0.000 H 
ATOM      4  C3  UNL A   1      13.255  51.698  13.036  1.00  0.00    +0.000 C 
ATOM      5  C4  UNL A   1      12.794  52.912  13.579  1.00  0.00    +0.000 C 
ATOM      6  C5  UNL A   1      13.270  54.130  13.104  1.00  0.00    +0.000 C 
ATOM      7  C6  UNL A   1      14.211  54.149  12.083  1.00  0.00    +0.000 C 
ATOM      8  C7  UNL A   1      14.682  52.950  11.543  1.00  0.00    +0.000 C 
ATOM      9  C8  UNL A   1      14.220  51.707  12.003  1.00  0.00    +0.000 C 
ATOM     94  H3  UNL A   1      12.095  52.898  14.339  1.00  0.00    +0.000 H 
ATOM     95  H4  UNL A   1      12.926  55.015  13.509  1.00  0.00    +0.000 H 
ATOM     96  H5  UNL A   1      14.561  55.050  11.721  1.00  0.00    +0.000 H 
BRANCH    9   10
ATOM     10  N1  UNL A   1      14.741  50.482  11.512  1.00  0.00    +0.000 N 
ATOM     98  H7  UNL A   1      14.548  49.684  12.056  1.00  0.00    +0.000 H 
BRANCH   10   11
ATOM     99  H8  UNL A   1      15.073  49.309   7.119  1.00  0.00    +0.000 H 
ATOM    100  H9  UNL A   1      17.448  49.800   7.025  1.00  0.00    +0.000 H 
ATOM    101  H10 UNL A   1      18.602  50.551   9.020  1.00  0.00    +0.000 H 
ATOM     11  C9  UNL A   1      15.508  50.260  10.335  1.00  0.00    +0.000 C 
ATOM     12  C10 UNL A   1      14.865  49.816   9.160  1.00  0.00    +0.000 C 
ATOM     13 Cl1  UNL A   1      13.166  49.475   9.157  1.00  0.00    +0.000 Cl
ATOM     14  C11 UNL A   1      15.566  49.641   7.962  1.00  0.00    +0.000 C 
ATOM     15  C12 UNL A   1      16.928  49.916   7.909  1.00  0.00    +0.000 C 
ATOM     16  C13 UNL A   1      17.591  50.350   9.057  1.00  0.00    +0.000 C 
ATOM     17  C14 UNL A   1      16.892  50.517  10.260  1.00  0.00    +0.000 C 
ATOM     18 Cl2  UNL A   1      17.825  50.967  11.649  1.00  0.00    +0.000 Cl
ENDBRANCH   10   11
ENDBRANCH    9   10
ENDBRANCH    3    4
ENDBRANCH    2    3
ENDBRANCH   19    2
ENDBRANCH   20   19
ENDBRANCH   21   20
ENDBRANCH   22   21
ENDBRANCH   23   22
ENDBRANCH   24   23
ENDBRANCH   25   24
ENDBRANCH   26   25
ENDBRANCH   27   26
ENDBRANCH   29   27
ENDBRANCH   33   32
BRANCH   37   38
ATOM     38  C30 UNL A   1      17.500  55.401   1.125  1.00  0.00    +0.000 C 
ATOM     39  C31 UNL A   1      18.787  55.734   1.573  1.00  0.00    +0.000 C 
ATOM     40  F1  UNL A   1      19.372  55.012   2.542  1.00  0.00    +0.000 F 
ATOM     41  C32 UNL A   1      19.464  56.836   1.056  1.00  0.00    +0.000 C 
ATOM     42  F2  UNL A   1      20.672  57.163   1.535  1.00  0.00    +0.000 F 
ATOM     43  C33 UNL A   1      18.883  57.603   0.058  1.00  0.00    +0.000 C 
ATOM     44  F3  UNL A   1      19.537  58.661  -0.442  1.00  0.00    +0.000 F 
ATOM     45  C34 UNL A   1      17.621  57.279  -0.417  1.00  0.00    +0.000 C 
ATOM     46  F4  UNL A   1      17.064  58.013  -1.390  1.00  0.00    +0.000 F 
ATOM     47  C35 UNL A   1      16.930  56.195   0.118  1.00  0.00    +0.000 C 
ATOM     48  F5  UNL A   1      15.705  55.916  -0.352  1.00  0.00    +0.000 F 
ENDBRANCH   37   38
BRANCH   54   55
ATOM     65  F10 UNL A   1      14.627  48.513  -1.652  1.00  0.00    +0.000 F 
ATOM     55  C41 UNL A   1      16.655  48.407  -0.412  1.00  0.00    +0.000 C 
ATOM     56  C42 UNL A   1      17.929  47.834  -0.284  1.00  0.00    +0.000 C 
ATOM     57  F6  UNL A   1      18.738  48.207   0.718  1.00  0.00    +0.000 F 
ATOM     58  C43 UNL A   1      18.388  46.901  -1.210  1.00  0.00    +0.000 C 
ATOM     59  F7  UNL A   1      19.625  46.398  -1.092  1.00  0.00    +0.000 F 
ATOM     60  C44 UNL A   1      17.575  46.502  -2.259  1.00  0.00    +0.000 C 
ATOM     61  F8  UNL A   1      18.018  45.600  -3.146  1.00  0.00    +0.000 F 
ATOM     62  C45 UNL A   1      16.307  47.045  -2.396  1.00  0.00    +0.000 C 
ATOM     63  F9  UNL A   1      15.516  46.652  -3.404  1.00  0.00    +0.000 F 
ATOM     64  C46 UNL A   1      15.854  47.997  -1.488  1.00  0.00    +0.000 C 
ENDBRANCH   54   55
BRANCH   69   70
ATOM     70  C50 UNL A   1      12.183  47.850   4.897  1.00  0.00    +0.000 C 
ATOM     71  C51 UNL A   1      12.664  47.071   5.958  1.00  0.00    +0.000 C 
ATOM     72  F11 UNL A   1      13.873  47.327   6.482  1.00  0.00    +0.000 F 
ATOM     73  C52 UNL A   1      11.925  46.001   6.458  1.00  0.00    +0.000 C 
ATOM     74  F12 UNL A   1      12.427  45.247   7.445  1.00  0.00    +0.000 F 
ATOM     75  C53 UNL A   1      10.679  45.708   5.925  1.00  0.00    +0.000 C 
ATOM     76  F13 UNL A   1       9.967  44.681   6.409  1.00  0.00    +0.000 F 
ATOM     77  C54 UNL A   1      10.176  46.475   4.886  1.00  0.00    +0.000 C 
ATOM     78  F14 UNL A   1       8.967  46.201   4.376  1.00  0.00    +0.000 F 
ATOM     79  C55 UNL A   1      10.926  47.529   4.368  1.00  0.00    +0.000 C 
ATOM     80  F15 UNL A   1      10.420  48.247   3.354  1.00  0.00    +0.000 F 
ENDBRANCH   69   70
TORSDOF 18
ENDMDL
MODEL 5
REMARK VINA RESULT:     -11.3     19.369     23.871
ROOT
ATOM     33  C26 UNL A   1      39.809  28.825  29.347  1.00  0.00    +0.000 C 
ATOM     34  C27 UNL A   1      40.620  29.735  30.225  1.00  0.00    +0.000 C 
ATOM     35  N4  UNL A   1      41.860  29.609  30.629  1.00  0.00    +0.000 N 
ATOM     36  C28 UNL A   1      42.130  30.745  31.378  1.00  0.00    +0.000 C 
ATOM     37  C29 UNL A   1      43.259  31.061  32.057  1.00  0.00    +0.000 C 
ATOM     49  C36 UNL A   1      44.430  30.225  32.122  1.00  0.00    +0.000 C 
ATOM     50  C37 UNL A   1      45.598  30.430  32.836  1.00  0.00    +0.000 C 
ATOM     51  C38 UNL A   1      46.470  29.371  32.559  1.00  0.00    +0.000 C 
ATOM     52  C39 UNL A   1      45.829  28.486  31.708  1.00  0.00    +0.000 C 
ATOM     53  N5  UNL A   1      44.579  29.024  31.444  1.00  0.00    +0.000 N 
ATOM     54  C40 UNL A   1      46.320  27.243  31.170  1.00  0.00    +0.000 C 
ATOM     66  C47 UNL A   1      45.620  26.423  30.348  1.00  0.00    +0.000 C 
ATOM     67  N6  UNL A   1      44.329  26.572  29.860  1.00  0.00    +0.000 N 
ATOM     68  C48 UNL A   1      44.107  25.527  29.102  1.00  0.00    +0.000 C 
ATOM     69  C49 UNL A   1      42.865  25.152  28.341  1.00  0.00    +0.000 C 
ATOM     81  C56 UNL A   1      41.783  25.950  28.410  1.00  0.00    +0.000 C 
ATOM     82  C57 UNL A   1      40.513  25.713  27.728  1.00  0.00    +0.000 C 
ATOM     83  C58 UNL A   1      39.681  26.736  27.986  1.00  0.00    +0.000 C 
ATOM     84  C59 UNL A   1      40.348  27.682  28.881  1.00  0.00    +0.000 C 
ATOM     85  N7  UNL A   1      41.589  27.130  29.084  1.00  0.00    +0.000 N 
ATOM     86  C60 UNL A   1      45.249  24.607  29.000  1.00  0.00    +0.000 C 
ATOM     87  C61 UNL A   1      46.130  25.180  29.809  1.00  0.00    +0.000 C 
ATOM     88  C62 UNL A   1      40.943  31.572  31.337  1.00  0.00    +0.000 C 
ATOM     89  C63 UNL A   1      39.959  30.963  30.690  1.00  0.00    +0.000 C 
ATOM    118  H27 UNL A   1      45.792  31.224  33.464  1.00  0.00    +0.000 H 
ATOM    119  H28 UNL A   1      47.429  29.268  32.927  1.00  0.00    +0.000 H 
ATOM    120  H29 UNL A   1      43.899  28.615  30.864  1.00  0.00    +0.000 H 
ATOM    121  H30 UNL A   1      40.290  24.892  27.143  1.00  0.00    +0.000 H 
ATOM    122  H31 UNL A   1      38.724  26.837  27.614  1.00  0.00    +0.000 H 
ATOM    123  H32 UNL A   1      42.274  27.541  29.658  1.00  0.00    +0.000 H 
ATOM    124  H33 UNL A   1      45.342  23.742  28.444  1.00  0.00    +0.000 H 
ATOM    125  H34 UNL A   1      47.060  24.789  30.026  1.00  0.00    +0.000 H 
ATOM    126  H35 UNL A   1      40.872  32.512  31.756  1.00  0.00    +0.000 H 
ATOM    127  H36 UNL A   1      38.984  31.271  30.550  1.00  0.00    +0.000 H 
ENDROOT
BRANCH   33   32
ATOM    129  H38 UNL A   1      35.284  29.243  30.092  1.00  0.00    +0.000 H 
ATOM    128  H37 UNL A   1      37.541  28.661  30.763  1.00  0.00    +0.000 H 
ATOM    116  H25 UNL A   1      36.730  30.588  26.377  1.00  0.00    +0.000 H 
ATOM    117  H26 UNL A   1      38.956  29.819  26.969  1.00  0.00    +0.000 H 
ATOM     90  C64 UNL A   1      37.368  29.055  29.825  1.00  0.00    +0.000 C 
ATOM     91  C65 UNL A   1      36.076  29.426  29.456  1.00  0.00    +0.000 C 
ATOM     29  C22 UNL A   1      35.855  30.046  28.223  1.00  0.00    +0.000 C 
ATOM     30  C23 UNL A   1      36.905  30.175  27.307  1.00  0.00    +0.000 C 
ATOM     31  C24 UNL A   1      38.187  29.746  27.654  1.00  0.00    +0.000 C 
ATOM     32  C25 UNL A   1      38.437  29.213  28.929  1.00  0.00    +0.000 C 
BRANCH   29   27
ATOM     27  C21 UNL A   1      34.519  30.565  27.852  1.00  0.00    +0.000 C 
ATOM     28  O2  UNL A   1      34.138  31.639  28.310  1.00  0.00    +0.000 O 
BRANCH   27   26
ATOM     26  N3  UNL A   1      33.699  29.837  27.026  1.00  0.00    +0.000 N 
ATOM    115  H24 UNL A   1      34.154  29.370  26.289  1.00  0.00    +0.000 H 
BRANCH   26   25
ATOM     25  C20 UNL A   1      32.257  29.655  27.079  1.00  0.00    +0.000 C 
ATOM    114  H23 UNL A   1      31.887  29.725  26.077  1.00  0.00    +0.000 H 
ATOM    113  H22 UNL A   1      31.840  30.413  27.709  1.00  0.00    +0.000 H 
BRANCH   25   24
ATOM    112  H21 UNL A   1      31.162  28.481  28.420  1.00  0.00    +0.000 H 
ATOM    111  H20 UNL A   1      32.740  27.782  27.938  1.00  0.00    +0.000 H 
ATOM     24  C19 UNL A   1      31.852  28.289  27.624  1.00  0.00    +0.000 C 
BRANCH   24   23
ATOM    109  H18 UNL A   1      30.072  27.421  26.867  1.00  0.00    +0.000 H 
ATOM    110  H19 UNL A   1      31.355  27.752  25.661  1.00  0.00    +0.000 H 
ATOM     23  C18 UNL A   1      31.115  27.382  26.637  1.00  0.00    +0.000 C 
BRANCH   23   22
ATOM    107  H16 UNL A   1      32.517  25.849  26.203  1.00  0.00    +0.000 H 
ATOM    108  H17 UNL A   1      31.518  25.606  27.672  1.00  0.00    +0.000 H 
ATOM     22  C17 UNL A   1      31.545  25.912  26.646  1.00  0.00    +0.000 C 
BRANCH   22   21
ATOM    105  H14 UNL A   1      29.677  25.433  25.752  1.00  0.00    +0.000 H 
ATOM    106  H15 UNL A   1      31.116  24.707  24.978  1.00  0.00    +0.000 H 
ATOM     21  C16 UNL A   1      30.619  24.946  25.895  1.00  0.00    +0.000 C 
BRANCH   21   20
ATOM     20  C15 UNL A   1      30.364  23.618  26.605  1.00  0.00    +0.000 C 
ATOM    103  H12 UNL A   1      30.844  23.634  27.560  1.00  0.00    +0.000 H 
ATOM    104  H13 UNL A   1      29.306  23.493  26.716  1.00  0.00    +0.000 H 
BRANCH   20   19
ATOM     19  N2  UNL A   1      30.877  22.503  25.837  1.00  0.00    +0.000 N 
ATOM    102  H11 UNL A   1      30.250  21.995  25.273  1.00  0.00    +0.000 H 
BRANCH   19    2
ATOM      1  O1  UNL A   1      32.937  22.275  26.826  1.00  0.00    +0.000 O 
ATOM      2  C1  UNL A   1      32.199  22.122  25.856  1.00  0.00    +0.000 C 
BRANCH    2    3
ATOM      3  C2  UNL A   1      32.697  21.500  24.562  1.00  0.00    +0.000 C 
ATOM     92  H1  UNL A   1      32.144  21.917  23.746  1.00  0.00    +0.000 H 
ATOM     93  H2  UNL A   1      32.555  20.442  24.636  1.00  0.00    +0.000 H 
BRANCH    3    4
ATOM     97  H6  UNL A   1      36.368  23.921  23.024  1.00  0.00    +0.000 H 
ATOM      4  C3  UNL A   1      34.172  21.748  24.324  1.00  0.00    +0.000 C 
ATOM      5  C4  UNL A   1      35.098  20.810  24.818  1.00  0.00    +0.000 C 
ATOM      6  C5  UNL A   1      36.466  21.011  24.663  1.00  0.00    +0.000 C 
ATOM      7  C6  UNL A   1      36.925  22.150  24.014  1.00  0.00    +0.000 C 
ATOM      8  C7  UNL A   1      36.014  23.084  23.512  1.00  0.00    +0.000 C 
ATOM      9  C8  UNL A   1      34.629  22.906  23.654  1.00  0.00    +0.000 C 
ATOM     94  H3  UNL A   1      34.758  19.962  25.299  1.00  0.00    +0.000 H 
ATOM     95  H4  UNL A   1      37.138  20.317  25.027  1.00  0.00    +0.000 H 
ATOM     96  H5  UNL A   1      37.938  22.308  23.903  1.00  0.00    +0.000 H 
BRANCH    9   10
ATOM     10  N1  UNL A   1      33.693  23.811  23.088  1.00  0.00    +0.000 N 
ATOM     98  H7  UNL A   1      32.950  23.403  22.587  1.00  0.00    +0.000 H 
BRANCH   10   11
ATOM     99  H8  UNL A   1      32.908  27.896  21.225  1.00  0.00    +0.000 H 
ATOM    100  H9  UNL A   1      33.468  29.087  23.263  1.00  0.00    +0.000 H 
ATOM    101  H10 UNL A   1      34.197  27.853  25.218  1.00  0.00    +0.000 H 
ATOM     11  C9  UNL A   1      33.692  25.232  23.153  1.00  0.00    +0.000 C 
ATOM     12  C10 UNL A   1      33.280  25.977  22.028  1.00  0.00    +0.000 C 
ATOM     13 Cl1  UNL A   1      32.841  25.183  20.552  1.00  0.00    +0.000 Cl
ATOM     14  C11 UNL A   1      33.206  27.374  22.063  1.00  0.00    +0.000 C 
ATOM     15  C12 UNL A   1      33.533  28.058  23.229  1.00  0.00    +0.000 C 
ATOM     16  C13 UNL A   1      33.950  27.346  24.354  1.00  0.00    +0.000 C 
ATOM     17  C14 UNL A   1      34.034  25.948  24.317  1.00  0.00    +0.000 C 
ATOM     18 Cl2  UNL A   1      34.653  25.167  25.735  1.00  0.00    +0.000 Cl
ENDBRANCH   10   11
ENDBRANCH    9   10
ENDBRANCH    3    4
ENDBRANCH    2    3
ENDBRANCH   19    2
ENDBRANCH   20   19
ENDBRANCH   21   20
ENDBRANCH   22   21
ENDBRANCH   23   22
ENDBRANCH   24   23
ENDBRANCH   25   24
ENDBRANCH   26   25
ENDBRANCH   27   26
ENDBRANCH   29   27
ENDBRANCH   33   32
BRANCH   37   38
ATOM     38  C30 UNL A   1      43.282  32.371  32.791  1.00  0.00    +0.000 C 
ATOM     39  C31 UNL A   1      42.864  32.473  34.126  1.00  0.00    +0.000 C 
ATOM     40  F1  UNL A   1      42.390  31.394  34.769  1.00  0.00    +0.000 F 
ATOM     41  C32 UNL A   1      42.894  33.693  34.795  1.00  0.00    +0.000 C 
ATOM     42  F2  UNL A   1      42.444  33.775  36.055  1.00  0.00    +0.000 F 
ATOM     43  C33 UNL A   1      43.374  34.826  34.156  1.00  0.00    +0.000 C 
ATOM     44  F3  UNL A   1      43.405  35.999  34.803  1.00  0.00    +0.000 F 
ATOM     45  C34 UNL A   1      43.814  34.745  32.843  1.00  0.00    +0.000 C 
ATOM     46  F4  UNL A   1      44.289  35.836  32.229  1.00  0.00    +0.000 F 
ATOM     47  C35 UNL A   1      43.759  33.531  32.162  1.00  0.00    +0.000 C 
ATOM     48  F5  UNL A   1      44.177  33.488  30.888  1.00  0.00    +0.000 F 
ENDBRANCH   37   38
BRANCH   54   55
ATOM     65  F10 UNL A   1      48.669  28.109  29.827  1.00  0.00    +0.000 F 
ATOM     55  C41 UNL A   1      47.699  26.805  31.566  1.00  0.00    +0.000 C 
ATOM     56  C42 UNL A   1      47.911  25.912  32.626  1.00  0.00    +0.000 C 
ATOM     57  F6  UNL A   1      46.873  25.466  33.349  1.00  0.00    +0.000 F 
ATOM     58  C43 UNL A   1      49.196  25.503  32.970  1.00  0.00    +0.000 C 
ATOM     59  F7  UNL A   1      49.379  24.683  34.014  1.00  0.00    +0.000 F 
ATOM     60  C44 UNL A   1      50.288  25.954  32.245  1.00  0.00    +0.000 C 
ATOM     61  F8  UNL A   1      51.524  25.555  32.574  1.00  0.00    +0.000 F 
ATOM     62  C45 UNL A   1      50.100  26.826  31.183  1.00  0.00    +0.000 C 
ATOM     63  F9  UNL A   1      51.154  27.254  30.474  1.00  0.00    +0.000 F 
ATOM     64  C46 UNL A   1      48.819  27.257  30.852  1.00  0.00    +0.000 C 
ENDBRANCH   54   55
BRANCH   69   70
ATOM     70  C50 UNL A   1      42.813  23.899  27.544  1.00  0.00    +0.000 C 
ATOM     71  C51 UNL A   1      43.174  23.897  26.190  1.00  0.00    +0.000 C 
ATOM     72  F11 UNL A   1      43.551  25.039  25.595  1.00  0.00    +0.000 F 
ATOM     73  C52 UNL A   1      43.109  22.731  25.430  1.00  0.00    +0.000 C 
ATOM     74  F12 UNL A   1      43.419  22.766  24.126  1.00  0.00    +0.000 F 
ATOM     75  C53 UNL A   1      42.710  21.540  26.017  1.00  0.00    +0.000 C 
ATOM     76  F13 UNL A   1      42.651  20.418  25.286  1.00  0.00    +0.000 F 
ATOM     77  C54 UNL A   1      42.365  21.515  27.359  1.00  0.00    +0.000 C 
ATOM     78  F14 UNL A   1      41.990  20.363  27.932  1.00  0.00    +0.000 F 
ATOM     79  C55 UNL A   1      42.404  22.685  28.113  1.00  0.00    +0.000 C 
ATOM     80  F15 UNL A   1      42.053  22.635  29.407  1.00  0.00    +0.000 F 
ENDBRANCH   69   70
TORSDOF 18
ENDMDL
MODEL 6
REMARK VINA RESULT:     -11.3      0.935      2.146
ROOT
ATOM     33  C26 UNL A   1      53.418  19.792  11.665  1.00  0.00    +0.000 C 
ATOM     34  C27 UNL A   1      54.782  19.182  11.509  1.00  0.00    +0.000 C 
ATOM     35  N4  UNL A   1      55.772  19.136  12.366  1.00  0.00    +0.000 N 
ATOM     36  C28 UNL A   1      56.782  18.421  11.737  1.00  0.00    +0.000 C 
ATOM     37  C29 UNL A   1      58.030  18.147  12.188  1.00  0.00    +0.000 C 
ATOM     49  C36 UNL A   1      58.547  18.578  13.461  1.00  0.00    +0.000 C 
ATOM     50  C37 UNL A   1      59.819  18.404  13.979  1.00  0.00    +0.000 C 
ATOM     51  C38 UNL A   1      59.846  18.954  15.266  1.00  0.00    +0.000 C 
ATOM     52  C39 UNL A   1      58.605  19.508  15.531  1.00  0.00    +0.000 C 
ATOM     53  N5  UNL A   1      57.816  19.267  14.417  1.00  0.00    +0.000 N 
ATOM     54  C40 UNL A   1      58.167  20.204  16.714  1.00  0.00    +0.000 C 
ATOM     66  C47 UNL A   1      56.930  20.731  16.892  1.00  0.00    +0.000 C 
ATOM     67  N6  UNL A   1      55.850  20.734  16.020  1.00  0.00    +0.000 N 
ATOM     68  C48 UNL A   1      54.882  21.354  16.647  1.00  0.00    +0.000 C 
ATOM     69  C49 UNL A   1      53.491  21.673  16.171  1.00  0.00    +0.000 C 
ATOM     81  C56 UNL A   1      53.121  21.311  14.928  1.00  0.00    +0.000 C 
ATOM     82  C57 UNL A   1      51.810  21.554  14.332  1.00  0.00    +0.000 C 
ATOM     83  C58 UNL A   1      51.783  21.015  13.102  1.00  0.00    +0.000 C 
ATOM     84  C59 UNL A   1      53.087  20.420  12.810  1.00  0.00    +0.000 C 
ATOM     85  N7  UNL A   1      53.820  20.649  13.948  1.00  0.00    +0.000 N 
ATOM     86  C60 UNL A   1      55.232  21.791  18.007  1.00  0.00    +0.000 C 
ATOM     87  C61 UNL A   1      56.503  21.421  18.091  1.00  0.00    +0.000 C 
ATOM     88  C62 UNL A   1      56.271  18.014  10.447  1.00  0.00    +0.000 C 
ATOM     89  C63 UNL A   1      55.063  18.514  10.230  1.00  0.00    +0.000 C 
ATOM    118  H27 UNL A   1      60.611  17.949  13.500  1.00  0.00    +0.000 H 
ATOM    119  H28 UNL A   1      60.654  18.948  15.907  1.00  0.00    +0.000 H 
ATOM    120  H29 UNL A   1      56.877  19.544  14.319  1.00  0.00    +0.000 H 
ATOM    121  H30 UNL A   1      51.031  22.058  14.783  1.00  0.00    +0.000 H 
ATOM    122  H31 UNL A   1      50.972  21.021  12.464  1.00  0.00    +0.000 H 
ATOM    123  H32 UNL A   1      54.757  20.367  14.052  1.00  0.00    +0.000 H 
ATOM    124  H33 UNL A   1      54.643  22.261  18.712  1.00  0.00    +0.000 H 
ATOM    125  H34 UNL A   1      57.108  21.602  18.906  1.00  0.00    +0.000 H 
ATOM    126  H35 UNL A   1      56.782  17.413   9.780  1.00  0.00    +0.000 H 
ATOM    127  H36 UNL A   1      54.474  18.449   9.386  1.00  0.00    +0.000 H 
ENDROOT
BRANCH   33   32
ATOM    129  H38 UNL A   1      50.183  17.411   9.412  1.00  0.00    +0.000 H 
ATOM    128  H37 UNL A   1      51.812  17.701  11.184  1.00  0.00    +0.000 H 
ATOM    116  H25 UNL A   1      50.983  21.305   8.033  1.00  0.00    +0.000 H 
ATOM    117  H26 UNL A   1      52.757  21.519   9.679  1.00  0.00    +0.000 H 
ATOM     90  C64 UNL A   1      51.650  18.461  10.506  1.00  0.00    +0.000 C 
ATOM     91  C65 UNL A   1      50.684  18.309   9.512  1.00  0.00    +0.000 C 
ATOM     29  C22 UNL A   1      50.396  19.372   8.652  1.00  0.00    +0.000 C 
ATOM     30  C23 UNL A   1      51.164  20.539   8.702  1.00  0.00    +0.000 C 
ATOM     31  C24 UNL A   1      52.174  20.667   9.658  1.00  0.00    +0.000 C 
ATOM     32  C25 UNL A   1      52.403  19.643  10.590  1.00  0.00    +0.000 C 
BRANCH   29   27
ATOM     27  C21 UNL A   1      49.292  19.287   7.669  1.00  0.00    +0.000 C 
ATOM     28  O2  UNL A   1      48.432  20.164   7.647  1.00  0.00    +0.000 O 
BRANCH   27   26
ATOM     26  N3  UNL A   1      49.214  18.222   6.807  1.00  0.00    +0.000 N 
ATOM    115  H24 UNL A   1      50.030  17.676   6.739  1.00  0.00    +0.000 H 
BRANCH   26   25
ATOM     25  C20 UNL A   1      48.103  17.782   5.977  1.00  0.00    +0.000 C 
ATOM    114  H23 UNL A   1      47.209  17.879   6.559  1.00  0.00    +0.000 H 
ATOM    113  H22 UNL A   1      48.277  16.768   5.682  1.00  0.00    +0.000 H 
BRANCH   25   24
ATOM    112  H21 UNL A   1      48.115  17.980   3.895  1.00  0.00    +0.000 H 
ATOM    111  H20 UNL A   1      48.609  19.456   4.783  1.00  0.00    +0.000 H 
ATOM     24  C19 UNL A   1      47.927  18.632   4.722  1.00  0.00    +0.000 C 
BRANCH   24   23
ATOM    109  H18 UNL A   1      46.251  19.753   5.377  1.00  0.00    +0.000 H 
ATOM    110  H19 UNL A   1      46.579  19.791   3.616  1.00  0.00    +0.000 H 
ATOM     23  C18 UNL A   1      46.523  19.197   4.504  1.00  0.00    +0.000 C 
BRANCH   23   22
ATOM    107  H16 UNL A   1      45.841  17.189   4.433  1.00  0.00    +0.000 H 
ATOM    108  H17 UNL A   1      44.620  18.416   4.900  1.00  0.00    +0.000 H 
ATOM     22  C17 UNL A   1      45.427  18.158   4.247  1.00  0.00    +0.000 C 
BRANCH   22   21
ATOM    105  H14 UNL A   1      45.284  17.351   2.286  1.00  0.00    +0.000 H 
ATOM    106  H15 UNL A   1      43.778  18.052   2.946  1.00  0.00    +0.000 H 
ATOM     21  C16 UNL A   1      44.837  18.156   2.831  1.00  0.00    +0.000 C 
BRANCH   21   20
ATOM     20  C15 UNL A   1      45.059  19.444   2.040  1.00  0.00    +0.000 C 
ATOM    103  H12 UNL A   1      45.242  20.247   2.723  1.00  0.00    +0.000 H 
ATOM    104  H13 UNL A   1      45.899  19.301   1.391  1.00  0.00    +0.000 H 
BRANCH   20   19
ATOM     19  N2  UNL A   1      43.905  19.768   1.227  1.00  0.00    +0.000 N 
ATOM    102  H11 UNL A   1      43.666  19.161   0.490  1.00  0.00    +0.000 H 
BRANCH   19    2
ATOM      1  O1  UNL A   1      43.526  21.892   2.015  1.00  0.00    +0.000 O 
ATOM      2  C1  UNL A   1      43.127  20.884   1.438  1.00  0.00    +0.000 C 
BRANCH    2    3
ATOM      3  C2  UNL A   1      41.707  20.774   0.909  1.00  0.00    +0.000 C 
ATOM     92  H1  UNL A   1      41.729  20.256  -0.028  1.00  0.00    +0.000 H 
ATOM     93  H2  UNL A   1      41.323  21.767   0.802  1.00  0.00    +0.000 H 
BRANCH    3    4
ATOM     97  H6  UNL A   1      37.654  19.902   3.033  1.00  0.00    +0.000 H 
ATOM      4  C3  UNL A   1      40.788  20.027   1.854  1.00  0.00    +0.000 C 
ATOM      5  C4  UNL A   1      41.298  18.909   2.541  1.00  0.00    +0.000 C 
ATOM      6  C5  UNL A   1      40.485  18.164   3.389  1.00  0.00    +0.000 C 
ATOM      7  C6  UNL A   1      39.155  18.526   3.561  1.00  0.00    +0.000 C 
ATOM      8  C7  UNL A   1      38.641  19.639   2.891  1.00  0.00    +0.000 C 
ATOM      9  C8  UNL A   1      39.438  20.409   2.029  1.00  0.00    +0.000 C 
ATOM     94  H3  UNL A   1      42.287  18.640   2.415  1.00  0.00    +0.000 H 
ATOM     95  H4  UNL A   1      40.868  17.346   3.890  1.00  0.00    +0.000 H 
ATOM     96  H5  UNL A   1      38.546  17.972   4.182  1.00  0.00    +0.000 H 
BRANCH    9   10
ATOM     10  N1  UNL A   1      38.948  21.581   1.397  1.00  0.00    +0.000 N 
ATOM     98  H7  UNL A   1      39.500  22.390   1.504  1.00  0.00    +0.000 H 
BRANCH   10   11
ATOM     99  H8  UNL A   1      36.779  21.868  -2.602  1.00  0.00    +0.000 H 
ATOM    100  H9  UNL A   1      34.588  21.966  -1.564  1.00  0.00    +0.000 H 
ATOM    101  H10 UNL A   1      34.399  21.951   0.853  1.00  0.00    +0.000 H 
ATOM     11  C9  UNL A   1      37.760  21.737   0.631  1.00  0.00    +0.000 C 
ATOM     12  C10 UNL A   1      37.839  21.757  -0.777  1.00  0.00    +0.000 C 
ATOM     13 Cl1  UNL A   1      39.373  21.662  -1.578  1.00  0.00    +0.000 Cl
ATOM     14  C11 UNL A   1      36.693  21.848  -1.575  1.00  0.00    +0.000 C 
ATOM     15  C12 UNL A   1      35.437  21.911  -0.980  1.00  0.00    +0.000 C 
ATOM     16  C13 UNL A   1      35.330  21.899   0.410  1.00  0.00    +0.000 C 
ATOM     17  C14 UNL A   1      36.477  21.818   1.210  1.00  0.00    +0.000 C 
ATOM     18 Cl2  UNL A   1      36.242  21.907   2.924  1.00  0.00    +0.000 Cl
ENDBRANCH   10   11
ENDBRANCH    9   10
ENDBRANCH    3    4
ENDBRANCH    2    3
ENDBRANCH   19    2
ENDBRANCH   20   19
ENDBRANCH   21   20
ENDBRANCH   22   21
ENDBRANCH   23   22
ENDBRANCH   24   23
ENDBRANCH   25   24
ENDBRANCH   26   25
ENDBRANCH   27   26
ENDBRANCH   29   27
ENDBRANCH   33   32
BRANCH   37   38
ATOM     38  C30 UNL A   1      58.927  17.343  11.293  1.00  0.00    +0.000 C 
ATOM     39  C31 UNL A   1      58.967  15.942  11.358  1.00  0.00    +0.000 C 
ATOM     40  F1  UNL A   1      58.222  15.288  12.262  1.00  0.00    +0.000 F 
ATOM     41  C32 UNL A   1      59.801  15.209  10.519  1.00  0.00    +0.000 C 
ATOM     42  F2  UNL A   1      59.858  13.875  10.632  1.00  0.00    +0.000 F 
ATOM     43  C33 UNL A   1      60.586  15.858   9.577  1.00  0.00    +0.000 C 
ATOM     44  F3  UNL A   1      61.385  15.150   8.768  1.00  0.00    +0.000 F 
ATOM     45  C34 UNL A   1      60.546  17.240   9.479  1.00  0.00    +0.000 C 
ATOM     46  F4  UNL A   1      61.294  17.867   8.562  1.00  0.00    +0.000 F 
ATOM     47  C35 UNL A   1      59.734  17.979  10.336  1.00  0.00    +0.000 C 
ATOM     48  F5  UNL A   1      59.729  19.316  10.227  1.00  0.00    +0.000 F 
ENDBRANCH   37   38
BRANCH   54   55
ATOM     65  F10 UNL A   1      58.791  18.157  18.582  1.00  0.00    +0.000 F 
ATOM     55  C41 UNL A   1      59.157  20.384  17.827  1.00  0.00    +0.000 C 
ATOM     56  C42 UNL A   1      59.827  21.599  18.025  1.00  0.00    +0.000 C 
ATOM     57  F6  UNL A   1      59.631  22.623  17.181  1.00  0.00    +0.000 F 
ATOM     58  C43 UNL A   1      60.731  21.754  19.073  1.00  0.00    +0.000 C 
ATOM     59  F7  UNL A   1      61.392  22.910  19.218  1.00  0.00    +0.000 F 
ATOM     60  C44 UNL A   1      60.958  20.711  19.957  1.00  0.00    +0.000 C 
ATOM     61  F8  UNL A   1      61.825  20.864  20.968  1.00  0.00    +0.000 F 
ATOM     62  C45 UNL A   1      60.295  19.505  19.788  1.00  0.00    +0.000 C 
ATOM     63  F9  UNL A   1      60.505  18.499  20.649  1.00  0.00    +0.000 F 
ATOM     64  C46 UNL A   1      59.410  19.337  18.727  1.00  0.00    +0.000 C 
ENDBRANCH   54   55
BRANCH   69   70
ATOM     70  C50 UNL A   1      52.540  22.408  17.043  1.00  0.00    +0.000 C 
ATOM     71  C51 UNL A   1      52.381  23.795  16.919  1.00  0.00    +0.000 C 
ATOM     72  F11 UNL A   1      53.108  24.475  16.019  1.00  0.00    +0.000 F 
ATOM     73  C52 UNL A   1      51.507  24.496  17.747  1.00  0.00    +0.000 C 
ATOM     74  F12 UNL A   1      51.405  25.828  17.636  1.00  0.00    +0.000 F 
ATOM     75  C53 UNL A   1      50.754  23.819  18.695  1.00  0.00    +0.000 C 
ATOM     76  F13 UNL A   1      49.910  24.493  19.488  1.00  0.00    +0.000 F 
ATOM     77  C54 UNL A   1      50.883  22.445  18.824  1.00  0.00    +0.000 C 
ATOM     78  F14 UNL A   1      50.148  21.786  19.731  1.00  0.00    +0.000 F 
ATOM     79  C55 UNL A   1      51.776  21.747  18.015  1.00  0.00    +0.000 C 
ATOM     80  F15 UNL A   1      51.890  20.419  18.169  1.00  0.00    +0.000 F 
ENDBRANCH   69   70
TORSDOF 18
ENDMDL
MODEL 7
REMARK VINA RESULT:     -11.3     40.763     48.445
ROOT
ATOM     33  C26 UNL A   1      25.683  34.838  46.208  1.00  0.00    +0.000 C 
ATOM     34  C27 UNL A   1      25.402  35.996  47.123  1.00  0.00    +0.000 C 
ATOM     35  N4  UNL A   1      26.144  37.045  47.383  1.00  0.00    +0.000 N 
ATOM     36  C28 UNL A   1      25.399  37.826  48.256  1.00  0.00    +0.000 C 
ATOM     37  C29 UNL A   1      25.749  38.987  48.860  1.00  0.00    +0.000 C 
ATOM     49  C36 UNL A   1      27.023  39.638  48.694  1.00  0.00    +0.000 C 
ATOM     50  C37 UNL A   1      27.495  40.782  49.313  1.00  0.00    +0.000 C 
ATOM     51  C38 UNL A   1      28.770  41.059  48.808  1.00  0.00    +0.000 C 
ATOM     52  C39 UNL A   1      29.110  40.063  47.907  1.00  0.00    +0.000 C 
ATOM     53  N5  UNL A   1      28.027  39.200  47.843  1.00  0.00    +0.000 N 
ATOM     54  C40 UNL A   1      30.329  39.910  47.155  1.00  0.00    +0.000 C 
ATOM     66  C47 UNL A   1      30.590  38.893  46.297  1.00  0.00    +0.000 C 
ATOM     67  N6  UNL A   1      29.792  37.809  45.961  1.00  0.00    +0.000 N 
ATOM     68  C48 UNL A   1      30.477  37.112  45.090  1.00  0.00    +0.000 C 
ATOM     69  C49 UNL A   1      30.113  35.822  44.406  1.00  0.00    +0.000 C 
ATOM     81  C56 UNL A   1      28.936  35.235  44.691  1.00  0.00    +0.000 C 
ATOM     82  C57 UNL A   1      28.452  33.986  44.109  1.00  0.00    +0.000 C 
ATOM     83  C58 UNL A   1      27.223  33.728  44.586  1.00  0.00    +0.000 C 
ATOM     84  C59 UNL A   1      26.849  34.776  45.536  1.00  0.00    +0.000 C 
ATOM     85  N7  UNL A   1      27.928  35.624  45.539  1.00  0.00    +0.000 N 
ATOM     86  C60 UNL A   1      31.783  37.696  44.750  1.00  0.00    +0.000 C 
ATOM     87  C61 UNL A   1      31.818  38.758  45.543  1.00  0.00    +0.000 C 
ATOM     88  C62 UNL A   1      24.130  37.156  48.445  1.00  0.00    +0.000 C 
ATOM     89  C63 UNL A   1      24.107  35.989  47.818  1.00  0.00    +0.000 C 
ATOM    118  H27 UNL A   1      26.994  41.335  50.025  1.00  0.00    +0.000 H 
ATOM    119  H28 UNL A   1      29.357  41.868  49.063  1.00  0.00    +0.000 H 
ATOM    120  H29 UNL A   1      27.979  38.395  47.279  1.00  0.00    +0.000 H 
ATOM    121  H30 UNL A   1      28.970  33.396  43.439  1.00  0.00    +0.000 H 
ATOM    122  H31 UNL A   1      26.637  32.919  44.326  1.00  0.00    +0.000 H 
ATOM    123  H32 UNL A   1      27.977  36.433  46.097  1.00  0.00    +0.000 H 
ATOM    124  H33 UNL A   1      32.488  37.365  44.072  1.00  0.00    +0.000 H 
ATOM    125  H34 UNL A   1      32.619  39.406  45.612  1.00  0.00    +0.000 H 
ATOM    126  H35 UNL A   1      23.346  37.538  48.997  1.00  0.00    +0.000 H 
ATOM    127  H36 UNL A   1      23.372  35.266  47.816  1.00  0.00    +0.000 H 
ENDROOT
BRANCH   33   32
ATOM    129  H38 UNL A   1      22.283  32.925  43.760  1.00  0.00    +0.000 H 
ATOM    128  H37 UNL A   1      24.008  34.589  44.131  1.00  0.00    +0.000 H 
ATOM    116  H25 UNL A   1      23.392  30.975  47.319  1.00  0.00    +0.000 H 
ATOM    117  H26 UNL A   1      24.978  32.751  47.794  1.00  0.00    +0.000 H 
ATOM     90  C64 UNL A   1      23.867  33.832  44.818  1.00  0.00    +0.000 C 
ATOM     91  C65 UNL A   1      22.903  32.853  44.583  1.00  0.00    +0.000 C 
ATOM     29  C22 UNL A   1      22.775  31.775  45.464  1.00  0.00    +0.000 C 
ATOM     30  C23 UNL A   1      23.522  31.746  46.645  1.00  0.00    +0.000 C 
ATOM     31  C24 UNL A   1      24.445  32.760  46.910  1.00  0.00    +0.000 C 
ATOM     32  C25 UNL A   1      24.650  33.794  45.983  1.00  0.00    +0.000 C 
BRANCH   29   27
ATOM     27  C21 UNL A   1      21.849  30.656  45.179  1.00  0.00    +0.000 C 
ATOM     28  O2  UNL A   1      22.143  29.520  45.540  1.00  0.00    +0.000 O 
BRANCH   27   26
ATOM     26  N3  UNL A   1      20.683  30.881  44.491  1.00  0.00    +0.000 N 
ATOM    115  H24 UNL A   1      20.795  31.174  43.558  1.00  0.00    +0.000 H 
BRANCH   26   25
ATOM     25  C20 UNL A   1      19.304  30.752  44.937  1.00  0.00    +0.000 C 
ATOM    114  H23 UNL A   1      18.796  31.658  44.678  1.00  0.00    +0.000 H 
ATOM    113  H22 UNL A   1      19.302  30.583  45.994  1.00  0.00    +0.000 H 
BRANCH   25   24
ATOM    112  H21 UNL A   1      18.541  28.805  44.971  1.00  0.00    +0.000 H 
ATOM    111  H20 UNL A   1      19.095  29.356  43.359  1.00  0.00    +0.000 H 
ATOM     24  C19 UNL A   1      18.567  29.602  44.258  1.00  0.00    +0.000 C 
BRANCH   24   23
ATOM    109  H18 UNL A   1      17.070  30.092  42.839  1.00  0.00    +0.000 H 
ATOM    110  H19 UNL A   1      16.558  29.015  44.176  1.00  0.00    +0.000 H 
ATOM     23  C18 UNL A   1      17.110  29.885  43.887  1.00  0.00    +0.000 C 
BRANCH   23   22
ATOM    107  H16 UNL A   1      15.717  30.664  45.285  1.00  0.00    +0.000 H 
ATOM    108  H17 UNL A   1      17.256  31.569  45.125  1.00  0.00    +0.000 H 
ATOM     22  C17 UNL A   1      16.459  31.060  44.624  1.00  0.00    +0.000 C 
BRANCH   22   21
ATOM    105  H14 UNL A   1      16.211  32.036  42.752  1.00  0.00    +0.000 H 
ATOM    106  H15 UNL A   1      14.738  31.898  43.755  1.00  0.00    +0.000 H 
ATOM     21  C16 UNL A   1      15.786  32.110  43.731  1.00  0.00    +0.000 C 
BRANCH   21   20
ATOM     20  C15 UNL A   1      15.943  33.554  44.207  1.00  0.00    +0.000 C 
ATOM    103  H12 UNL A   1      15.456  34.206  43.513  1.00  0.00    +0.000 H 
ATOM    104  H13 UNL A   1      15.502  33.638  45.179  1.00  0.00    +0.000 H 
BRANCH   20   19
ATOM     19  N2  UNL A   1      17.339  33.927  44.305  1.00  0.00    +0.000 N 
ATOM    102  H11 UNL A   1      17.969  33.560  43.644  1.00  0.00    +0.000 H 
BRANCH   19    2
ATOM      1  O1  UNL A   1      17.187  35.713  45.741  1.00  0.00    +0.000 O 
ATOM      2  C1  UNL A   1      17.825  34.771  45.278  1.00  0.00    +0.000 C 
BRANCH    2    3
ATOM      3  C2  UNL A   1      19.239  34.459  45.737  1.00  0.00    +0.000 C 
ATOM     92  H1  UNL A   1      19.582  33.586  45.221  1.00  0.00    +0.000 H 
ATOM     93  H2  UNL A   1      19.210  34.307  46.796  1.00  0.00    +0.000 H 
BRANCH    3    4
ATOM     97  H6  UNL A   1      21.761  38.209  46.870  1.00  0.00    +0.000 H 
ATOM      4  C3  UNL A   1      20.205  35.593  45.465  1.00  0.00    +0.000 C 
ATOM      5  C4  UNL A   1      20.782  35.691  44.184  1.00  0.00    +0.000 C 
ATOM      6  C5  UNL A   1      21.707  36.689  43.894  1.00  0.00    +0.000 C 
ATOM      7  C6  UNL A   1      22.065  37.601  44.879  1.00  0.00    +0.000 C 
ATOM      8  C7  UNL A   1      21.492  37.520  46.150  1.00  0.00    +0.000 C 
ATOM      9  C8  UNL A   1      20.557  36.523  46.471  1.00  0.00    +0.000 C 
ATOM     94  H3  UNL A   1      20.515  35.014  43.452  1.00  0.00    +0.000 H 
ATOM     95  H4  UNL A   1      22.123  36.753  42.952  1.00  0.00    +0.000 H 
ATOM     96  H5  UNL A   1      22.756  38.339  44.671  1.00  0.00    +0.000 H 
BRANCH    9   10
ATOM     10  N1  UNL A   1      19.916  36.471  47.736  1.00  0.00    +0.000 N 
ATOM     98  H7  UNL A   1      18.932  36.498  47.720  1.00  0.00    +0.000 H 
BRANCH   10   11
ATOM     99  H8  UNL A   1      21.258  38.381  51.651  1.00  0.00    +0.000 H 
ATOM    100  H9  UNL A   1      21.954  36.261  52.607  1.00  0.00    +0.000 H 
ATOM    101  H10 UNL A   1      21.771  34.231  51.295  1.00  0.00    +0.000 H 
ATOM     11  C9  UNL A   1      20.515  36.387  49.023  1.00  0.00    +0.000 C 
ATOM     12  C10 UNL A   1      20.642  37.554  49.807  1.00  0.00    +0.000 C 
ATOM     13 Cl1  UNL A   1      20.138  39.093  49.191  1.00  0.00    +0.000 Cl
ATOM     14  C11 UNL A   1      21.170  37.513  51.102  1.00  0.00    +0.000 C 
ATOM     15  C12 UNL A   1      21.575  36.299  51.648  1.00  0.00    +0.000 C 
ATOM     16  C13 UNL A   1      21.467  35.131  50.893  1.00  0.00    +0.000 C 
ATOM     17  C14 UNL A   1      20.948  35.173  49.593  1.00  0.00    +0.000 C 
ATOM     18 Cl2  UNL A   1      20.944  33.684  48.706  1.00  0.00    +0.000 Cl
ENDBRANCH   10   11
ENDBRANCH    9   10
ENDBRANCH    3    4
ENDBRANCH    2    3
ENDBRANCH   19    2
ENDBRANCH   20   19
ENDBRANCH   21   20
ENDBRANCH   22   21
ENDBRANCH   23   22
ENDBRANCH   24   23
ENDBRANCH   25   24
ENDBRANCH   26   25
ENDBRANCH   27   26
ENDBRANCH   29   27
ENDBRANCH   33   32
BRANCH   37   38
ATOM     38  C30 UNL A   1      24.738  39.629  49.764  1.00  0.00    +0.000 C 
ATOM     39  C31 UNL A   1      24.722  39.379  51.145  1.00  0.00    +0.000 C 
ATOM     40  F1  UNL A   1      25.599  38.517  51.684  1.00  0.00    +0.000 F 
ATOM     41  C32 UNL A   1      23.781  39.984  51.972  1.00  0.00    +0.000 C 
ATOM     42  F2  UNL A   1      23.755  39.692  53.280  1.00  0.00    +0.000 F 
ATOM     43  C33 UNL A   1      22.860  40.876  51.444  1.00  0.00    +0.000 C 
ATOM     44  F3  UNL A   1      21.957  41.461  52.242  1.00  0.00    +0.000 F 
ATOM     45  C34 UNL A   1      22.871  41.156  50.085  1.00  0.00    +0.000 C 
ATOM     46  F4  UNL A   1      21.990  42.027  49.575  1.00  0.00    +0.000 F 
ATOM     47  C35 UNL A   1      23.794  40.531  49.250  1.00  0.00    +0.000 C 
ATOM     48  F5  UNL A   1      23.769  40.810  47.938  1.00  0.00    +0.000 F 
ENDBRANCH   37   38
BRANCH   54   55
ATOM     65  F10 UNL A   1      32.488  39.571  48.970  1.00  0.00    +0.000 F 
ATOM     55  C41 UNL A   1      31.405  40.937  47.351  1.00  0.00    +0.000 C 
ATOM     56  C42 UNL A   1      31.396  42.154  46.652  1.00  0.00    +0.000 C 
ATOM     57  F6  UNL A   1      30.439  42.404  45.746  1.00  0.00    +0.000 F 
ATOM     58  C43 UNL A   1      32.394  43.102  46.858  1.00  0.00    +0.000 C 
ATOM     59  F7  UNL A   1      32.389  44.239  46.148  1.00  0.00    +0.000 F 
ATOM     60  C44 UNL A   1      33.399  42.868  47.783  1.00  0.00    +0.000 C 
ATOM     61  F8  UNL A   1      34.355  43.786  47.983  1.00  0.00    +0.000 F 
ATOM     62  C45 UNL A   1      33.418  41.679  48.496  1.00  0.00    +0.000 C 
ATOM     63  F9  UNL A   1      34.383  41.455  49.399  1.00  0.00    +0.000 F 
ATOM     64  C46 UNL A   1      32.437  40.716  48.275  1.00  0.00    +0.000 C 
ENDBRANCH   54   55
BRANCH   69   70
ATOM     70  C50 UNL A   1      31.051  35.179  43.451  1.00  0.00    +0.000 C 
ATOM     71  C51 UNL A   1      31.842  34.092  43.847  1.00  0.00    +0.000 C 
ATOM     72  F11 UNL A   1      31.771  33.636  45.106  1.00  0.00    +0.000 F 
ATOM     73  C52 UNL A   1      32.740  33.496  42.963  1.00  0.00    +0.000 C 
ATOM     74  F12 UNL A   1      33.514  32.485  43.380  1.00  0.00    +0.000 F 
ATOM     75  C53 UNL A   1      32.842  33.957  41.660  1.00  0.00    +0.000 C 
ATOM     76  F13 UNL A   1      33.703  33.381  40.809  1.00  0.00    +0.000 F 
ATOM     77  C54 UNL A   1      32.058  35.021  41.241  1.00  0.00    +0.000 C 
ATOM     78  F14 UNL A   1      32.146  35.461  39.979  1.00  0.00    +0.000 F 
ATOM     79  C55 UNL A   1      31.179  35.634  42.131  1.00  0.00    +0.000 C 
ATOM     80  F15 UNL A   1      30.441  36.670  41.703  1.00  0.00    +0.000 F 
ENDBRANCH   69   70
TORSDOF 18
ENDMDL
MODEL 8
REMARK VINA RESULT:     -11.3     19.425     23.832
ROOT
ATOM     33  C26 UNL A   1      39.912  28.803  29.357  1.00  0.00    +0.000 C 
ATOM     34  C27 UNL A   1      40.751  29.702  30.220  1.00  0.00    +0.000 C 
ATOM     35  N4  UNL A   1      41.996  29.557  30.604  1.00  0.00    +0.000 N 
ATOM     36  C28 UNL A   1      42.296  30.690  31.346  1.00  0.00    +0.000 C 
ATOM     37  C29 UNL A   1      43.441  30.989  32.005  1.00  0.00    +0.000 C 
ATOM     49  C36 UNL A   1      44.599  30.135  32.053  1.00  0.00    +0.000 C 
ATOM     50  C37 UNL A   1      45.782  30.322  32.747  1.00  0.00    +0.000 C 
ATOM     51  C38 UNL A   1      46.633  29.248  32.458  1.00  0.00    +0.000 C 
ATOM     52  C39 UNL A   1      45.964  28.372  31.620  1.00  0.00    +0.000 C 
ATOM     53  N5  UNL A   1      44.718  28.930  31.376  1.00  0.00    +0.000 N 
ATOM     54  C40 UNL A   1      46.425  27.120  31.078  1.00  0.00    +0.000 C 
ATOM     66  C47 UNL A   1      45.699  26.310  30.269  1.00  0.00    +0.000 C 
ATOM     67  N6  UNL A   1      44.403  26.479  29.802  1.00  0.00    +0.000 N 
ATOM     68  C48 UNL A   1      44.152  25.436  29.050  1.00  0.00    +0.000 C 
ATOM     69  C49 UNL A   1      42.891  25.079  28.310  1.00  0.00    +0.000 C 
ATOM     81  C56 UNL A   1      41.823  25.894  28.395  1.00  0.00    +0.000 C 
ATOM     82  C57 UNL A   1      40.539  25.676  27.736  1.00  0.00    +0.000 C 
ATOM     83  C58 UNL A   1      39.728  26.713  28.005  1.00  0.00    +0.000 C 
ATOM     84  C59 UNL A   1      40.425  27.650  28.886  1.00  0.00    +0.000 C 
ATOM     85  N7  UNL A   1      41.659  27.079  29.069  1.00  0.00    +0.000 N 
ATOM     86  C60 UNL A   1      45.277  24.497  28.932  1.00  0.00    +0.000 C 
ATOM     87  C61 UNL A   1      46.180  25.057  29.725  1.00  0.00    +0.000 C 
ATOM     88  C62 UNL A   1      41.122  31.535  31.322  1.00  0.00    +0.000 C 
ATOM     89  C63 UNL A   1      40.118  30.941  30.693  1.00  0.00    +0.000 C 
ATOM    118  H27 UNL A   1      46.000  31.114  33.370  1.00  0.00    +0.000 H 
ATOM    119  H28 UNL A   1      47.595  29.131  32.811  1.00  0.00    +0.000 H 
ATOM    120  H29 UNL A   1      44.022  28.530  30.808  1.00  0.00    +0.000 H 
ATOM    121  H30 UNL A   1      40.293  24.858  27.156  1.00  0.00    +0.000 H 
ATOM    122  H31 UNL A   1      38.766  26.828  27.648  1.00  0.00    +0.000 H 
ATOM    123  H32 UNL A   1      42.360  27.480  29.632  1.00  0.00    +0.000 H 
ATOM    124  H33 UNL A   1      45.346  23.630  28.376  1.00  0.00    +0.000 H 
ATOM    125  H34 UNL A   1      47.107  24.652  29.927  1.00  0.00    +0.000 H 
ATOM    126  H35 UNL A   1      41.073  32.478  31.740  1.00  0.00    +0.000 H 
ATOM    127  H36 UNL A   1      39.146  31.265  30.568  1.00  0.00    +0.000 H 
ENDROOT
BRANCH   33   32
ATOM    129  H38 UNL A   1      35.408  29.302  30.179  1.00  0.00    +0.000 H 
ATOM    128  H37 UNL A   1      37.666  28.686  30.814  1.00  0.00    +0.000 H 
ATOM    116  H25 UNL A   1      36.812  30.602  26.432  1.00  0.00    +0.000 H 
ATOM    117  H26 UNL A   1      39.034  29.799  26.990  1.00  0.00    +0.000 H 
ATOM     90  C64 UNL A   1      37.484  29.077  29.877  1.00  0.00    +0.000 C 
ATOM     91  C65 UNL A   1      36.192  29.468  29.528  1.00  0.00    +0.000 C 
ATOM     29  C22 UNL A   1      35.960  30.085  28.295  1.00  0.00    +0.000 C 
ATOM     30  C23 UNL A   1      36.995  30.192  27.361  1.00  0.00    +0.000 C 
ATOM     31  C24 UNL A   1      38.276  29.742  27.688  1.00  0.00    +0.000 C 
ATOM     32  C25 UNL A   1      38.539  29.212  28.961  1.00  0.00    +0.000 C 
BRANCH   29   27
ATOM     27  C21 UNL A   1      34.626  30.624  27.945  1.00  0.00    +0.000 C 
ATOM     28  O2  UNL A   1      34.184  31.591  28.560  1.00  0.00    +0.000 O 
BRANCH   27   26
ATOM     26  N3  UNL A   1      33.878  30.032  26.960  1.00  0.00    +0.000 N 
ATOM    115  H24 UNL A   1      34.374  29.784  26.146  1.00  0.00    +0.000 H 
BRANCH   26   25
ATOM     25  C20 UNL A   1      32.458  29.716  26.939  1.00  0.00    +0.000 C 
ATOM    114  H23 UNL A   1      32.144  29.711  25.915  1.00  0.00    +0.000 H 
ATOM    113  H22 UNL A   1      31.935  30.455  27.510  1.00  0.00    +0.000 H 
BRANCH   25   24
ATOM    112  H21 UNL A   1      31.162  28.409  27.932  1.00  0.00    +0.000 H 
ATOM    111  H20 UNL A   1      32.901  28.112  28.247  1.00  0.00    +0.000 H 
ATOM     24  C19 UNL A   1      32.148  28.341  27.521  1.00  0.00    +0.000 C 
BRANCH   24   23
ATOM    109  H18 UNL A   1      31.504  26.412  26.921  1.00  0.00    +0.000 H 
ATOM    110  H19 UNL A   1      31.708  27.613  25.607  1.00  0.00    +0.000 H 
ATOM     23  C18 UNL A   1      32.105  27.195  26.509  1.00  0.00    +0.000 C 
BRANCH   23   22
ATOM    107  H16 UNL A   1      34.215  27.330  26.339  1.00  0.00    +0.000 H 
ATOM    108  H17 UNL A   1      33.561  25.703  26.712  1.00  0.00    +0.000 H 
ATOM     22  C17 UNL A   1      33.464  26.597  26.132  1.00  0.00    +0.000 C 
BRANCH   22   21
ATOM    105  H14 UNL A   1      34.603  26.418  24.347  1.00  0.00    +0.000 H 
ATOM    106  H15 UNL A   1      33.416  25.115  24.641  1.00  0.00    +0.000 H 
ATOM     21  C16 UNL A   1      33.615  26.166  24.667  1.00  0.00    +0.000 C 
BRANCH   21   20
ATOM     20  C15 UNL A   1      32.624  26.814  23.702  1.00  0.00    +0.000 C 
ATOM    103  H12 UNL A   1      32.043  27.540  24.231  1.00  0.00    +0.000 H 
ATOM    104  H13 UNL A   1      33.177  27.277  22.911  1.00  0.00    +0.000 H 
BRANCH   20   19
ATOM     19  N2  UNL A   1      31.734  25.831  23.121  1.00  0.00    +0.000 N 
ATOM    102  H11 UNL A   1      30.774  26.041  23.068  1.00  0.00    +0.000 H 
BRANCH   19    2
ATOM      1  O1  UNL A   1      33.061  24.497  21.804  1.00  0.00    +0.000 O 
ATOM      2  C1  UNL A   1      32.168  24.617  22.639  1.00  0.00    +0.000 C 
BRANCH    2    3
ATOM      3  C2  UNL A   1      31.440  23.412  23.211  1.00  0.00    +0.000 C 
ATOM     92  H1  UNL A   1      31.743  22.539  22.670  1.00  0.00    +0.000 H 
ATOM     93  H2  UNL A   1      30.390  23.592  23.113  1.00  0.00    +0.000 H 
BRANCH    3    4
ATOM     97  H6  UNL A   1      33.968  21.927  26.831  1.00  0.00    +0.000 H 
ATOM      4  C3  UNL A   1      31.732  23.197  24.682  1.00  0.00    +0.000 C 
ATOM      5  C4  UNL A   1      30.823  23.708  25.628  1.00  0.00    +0.000 C 
ATOM      6  C5  UNL A   1      31.065  23.574  26.991  1.00  0.00    +0.000 C 
ATOM      7  C6  UNL A   1      32.216  22.930  27.425  1.00  0.00    +0.000 C 
ATOM      8  C7  UNL A   1      33.121  22.411  26.495  1.00  0.00    +0.000 C 
ATOM      9  C8  UNL A   1      32.902  22.531  25.114  1.00  0.00    +0.000 C 
ATOM     94  H3  UNL A   1      29.966  24.186  25.305  1.00  0.00    +0.000 H 
ATOM     95  H4  UNL A   1      30.392  23.951  27.677  1.00  0.00    +0.000 H 
ATOM     96  H5  UNL A   1      32.405  22.835  28.435  1.00  0.00    +0.000 H 
BRANCH    9   10
ATOM     10  N1  UNL A   1      33.776  21.948  24.160  1.00  0.00    +0.000 N 
ATOM     98  H7  UNL A   1      33.480  21.992  23.222  1.00  0.00    +0.000 H 
BRANCH   10   11
ATOM     99  H8  UNL A   1      38.303  22.085  24.675  1.00  0.00    +0.000 H 
ATOM    100  H9  UNL A   1      38.457  19.716  25.177  1.00  0.00    +0.000 H 
ATOM    101  H10 UNL A   1      36.456  18.348  25.152  1.00  0.00    +0.000 H 
ATOM     11  C9  UNL A   1      35.025  21.307  24.387  1.00  0.00    +0.000 C 
ATOM     12  C10 UNL A   1      36.208  22.077  24.400  1.00  0.00    +0.000 C 
ATOM     13 Cl1  UNL A   1      36.161  23.778  24.076  1.00  0.00    +0.000 Cl
ATOM     14  C11 UNL A   1      37.453  21.502  24.678  1.00  0.00    +0.000 C 
ATOM     15  C12 UNL A   1      37.542  20.142  24.959  1.00  0.00    +0.000 C 
ATOM     16  C13 UNL A   1      36.390  19.357  24.947  1.00  0.00    +0.000 C 
ATOM     17  C14 UNL A   1      35.144  19.930  24.659  1.00  0.00    +0.000 C 
ATOM     18 Cl2  UNL A   1      33.791  18.851  24.575  1.00  0.00    +0.000 Cl
ENDBRANCH   10   11
ENDBRANCH    9   10
ENDBRANCH    3    4
ENDBRANCH    2    3
ENDBRANCH   19    2
ENDBRANCH   20   19
ENDBRANCH   21   20
ENDBRANCH   22   21
ENDBRANCH   23   22
ENDBRANCH   24   23
ENDBRANCH   25   24
ENDBRANCH   26   25
ENDBRANCH   27   26
ENDBRANCH   29   27
ENDBRANCH   33   32
BRANCH   37   38
ATOM     38  C30 UNL A   1      43.497  32.300  32.735  1.00  0.00    +0.000 C 
ATOM     39  C31 UNL A   1      43.955  33.470  32.111  1.00  0.00    +0.000 C 
ATOM     40  F1  UNL A   1      44.396  33.430  30.844  1.00  0.00    +0.000 F 
ATOM     41  C32 UNL A   1      43.998  34.680  32.798  1.00  0.00    +0.000 C 
ATOM     42  F2  UNL A   1      44.485  35.773  32.196  1.00  0.00    +0.000 F 
ATOM     43  C33 UNL A   1      43.552  34.752  34.109  1.00  0.00    +0.000 C 
ATOM     44  F3  UNL A   1      43.591  35.917  34.768  1.00  0.00    +0.000 F 
ATOM     45  C34 UNL A   1      43.074  33.613  34.740  1.00  0.00    +0.000 C 
ATOM     46  F4  UNL A   1      42.632  33.683  36.002  1.00  0.00    +0.000 F 
ATOM     47  C35 UNL A   1      43.056  32.395  34.064  1.00  0.00    +0.000 C 
ATOM     48  F5  UNL A   1      42.603  31.308  34.706  1.00  0.00    +0.000 F 
ENDBRANCH   37   38
BRANCH   54   55
ATOM     65  F10 UNL A   1      48.752  27.841  29.615  1.00  0.00    +0.000 F 
ATOM     55  C41 UNL A   1      47.803  26.661  31.452  1.00  0.00    +0.000 C 
ATOM     56  C42 UNL A   1      48.025  25.819  32.551  1.00  0.00    +0.000 C 
ATOM     57  F6  UNL A   1      46.999  25.444  33.330  1.00  0.00    +0.000 F 
ATOM     58  C43 UNL A   1      49.308  25.389  32.875  1.00  0.00    +0.000 C 
ATOM     59  F7  UNL A   1      49.502  24.619  33.955  1.00  0.00    +0.000 F 
ATOM     60  C44 UNL A   1      50.388  25.767  32.091  1.00  0.00    +0.000 C 
ATOM     61  F8  UNL A   1      51.622  25.347  32.402  1.00  0.00    +0.000 F 
ATOM     62  C45 UNL A   1      50.190  26.587  30.991  1.00  0.00    +0.000 C 
ATOM     63  F9  UNL A   1      51.232  26.944  30.226  1.00  0.00    +0.000 F 
ATOM     64  C46 UNL A   1      48.912  27.040  30.679  1.00  0.00    +0.000 C 
ENDBRANCH   54   55
BRANCH   69   70
ATOM     70  C50 UNL A   1      42.806  23.825  27.518  1.00  0.00    +0.000 C 
ATOM     71  C51 UNL A   1      43.164  23.810  26.163  1.00  0.00    +0.000 C 
ATOM     72  F11 UNL A   1      43.570  24.940  25.565  1.00  0.00    +0.000 F 
ATOM     73  C52 UNL A   1      43.068  22.643  25.407  1.00  0.00    +0.000 C 
ATOM     74  F12 UNL A   1      43.377  22.666  24.103  1.00  0.00    +0.000 F 
ATOM     75  C53 UNL A   1      42.640  21.465  25.998  1.00  0.00    +0.000 C 
ATOM     76  F13 UNL A   1      42.551  20.342  25.272  1.00  0.00    +0.000 F 
ATOM     77  C54 UNL A   1      42.296  21.453  27.341  1.00  0.00    +0.000 C 
ATOM     78  F14 UNL A   1      41.892  20.313  27.919  1.00  0.00    +0.000 F 
ATOM     79  C55 UNL A   1      42.367  22.624  28.092  1.00  0.00    +0.000 C 
ATOM     80  F15 UNL A   1      42.016  22.587  29.386  1.00  0.00    +0.000 F 
ENDBRANCH   69   70
TORSDOF 18
ENDMDL
MODEL 9
REMARK VINA RESULT:     -11.3      5.940      8.427
ROOT
ATOM     33  C26 UNL A   1      52.947  19.829  11.433  1.00  0.00    +0.000 C 
ATOM     34  C27 UNL A   1      54.277  19.159  11.231  1.00  0.00    +0.000 C 
ATOM     35  N4  UNL A   1      55.301  19.088  12.044  1.00  0.00    +0.000 N 
ATOM     36  C28 UNL A   1      56.251  18.320  11.388  1.00  0.00    +0.000 C 
ATOM     37  C29 UNL A   1      57.506  18.002  11.790  1.00  0.00    +0.000 C 
ATOM     49  C36 UNL A   1      58.097  18.436  13.029  1.00  0.00    +0.000 C 
ATOM     50  C37 UNL A   1      59.382  18.219  13.495  1.00  0.00    +0.000 C 
ATOM     51  C38 UNL A   1      59.489  18.794  14.767  1.00  0.00    +0.000 C 
ATOM     52  C39 UNL A   1      58.285  19.405  15.074  1.00  0.00    +0.000 C 
ATOM     53  N5  UNL A   1      57.438  19.175  14.001  1.00  0.00    +0.000 N 
ATOM     54  C40 UNL A   1      57.929  20.143  16.259  1.00  0.00    +0.000 C 
ATOM     66  C47 UNL A   1      56.725  20.725  16.479  1.00  0.00    +0.000 C 
ATOM     67  N6  UNL A   1      55.608  20.756  15.655  1.00  0.00    +0.000 N 
ATOM     68  C48 UNL A   1      54.695  21.429  16.310  1.00  0.00    +0.000 C 
ATOM     69  C49 UNL A   1      53.299  21.796  15.888  1.00  0.00    +0.000 C 
ATOM     81  C56 UNL A   1      52.859  21.425  14.671  1.00  0.00    +0.000 C 
ATOM     82  C57 UNL A   1      51.534  21.711  14.127  1.00  0.00    +0.000 C 
ATOM     83  C58 UNL A   1      51.429  21.149  12.912  1.00  0.00    +0.000 C 
ATOM     84  C59 UNL A   1      52.694  20.494  12.576  1.00  0.00    +0.000 C 
ATOM     85  N7  UNL A   1      53.485  20.715  13.676  1.00  0.00    +0.000 N 
ATOM     86  C60 UNL A   1      55.123  21.878  17.643  1.00  0.00    +0.000 C 
ATOM     87  C61 UNL A   1      56.380  21.457  17.679  1.00  0.00    +0.000 C 
ATOM     88  C62 UNL A   1      55.668  17.908  10.130  1.00  0.00    +0.000 C 
ATOM     89  C63 UNL A   1      54.472  18.454   9.956  1.00  0.00    +0.000 C 
ATOM    118  H27 UNL A   1      60.133  17.722  12.992  1.00  0.00    +0.000 H 
ATOM    119  H28 UNL A   1      60.324  18.767  15.372  1.00  0.00    +0.000 H 
ATOM    120  H29 UNL A   1      56.508  19.489  13.937  1.00  0.00    +0.000 H 
ATOM    121  H30 UNL A   1      50.797  22.256  14.600  1.00  0.00    +0.000 H 
ATOM    122  H31 UNL A   1      50.592  21.176  12.310  1.00  0.00    +0.000 H 
ATOM    123  H32 UNL A   1      54.414  20.396  13.745  1.00  0.00    +0.000 H 
ATOM    124  H33 UNL A   1      54.585  22.387  18.363  1.00  0.00    +0.000 H 
ATOM    125  H34 UNL A   1      57.028  21.628  18.463  1.00  0.00    +0.000 H 
ATOM    126  H35 UNL A   1      56.123  17.272   9.455  1.00  0.00    +0.000 H 
ATOM    127  H36 UNL A   1      53.844  18.397   9.140  1.00  0.00    +0.000 H 
ENDROOT
BRANCH   33   32
ATOM    129  H38 UNL A   1      50.188  21.567   8.181  1.00  0.00    +0.000 H 
ATOM    128  H37 UNL A   1      51.958  21.735   9.830  1.00  0.00    +0.000 H 
ATOM    116  H25 UNL A   1      49.854  17.444   8.952  1.00  0.00    +0.000 H 
ATOM    117  H26 UNL A   1      51.481  17.651  10.743  1.00  0.00    +0.000 H 
ATOM     90  C64 UNL A   1      51.501  20.826   9.657  1.00  0.00    +0.000 C 
ATOM     91  C65 UNL A   1      50.511  20.722   8.680  1.00  0.00    +0.000 C 
ATOM     29  C22 UNL A   1      49.958  19.475   8.379  1.00  0.00    +0.000 C 
ATOM     30  C23 UNL A   1      50.300  18.355   9.143  1.00  0.00    +0.000 C 
ATOM     31  C24 UNL A   1      51.246  18.472  10.163  1.00  0.00    +0.000 C 
ATOM     32  C25 UNL A   1      51.880  19.701  10.406  1.00  0.00    +0.000 C 
BRANCH   29   27
ATOM     27  C21 UNL A   1      48.997  19.310   7.264  1.00  0.00    +0.000 C 
ATOM     28  O2  UNL A   1      48.062  20.098   7.149  1.00  0.00    +0.000 O 
BRANCH   27   26
ATOM     26  N3  UNL A   1      49.133  18.267   6.382  1.00  0.00    +0.000 N 
ATOM    115  H24 UNL A   1      48.426  17.584   6.427  1.00  0.00    +0.000 H 
BRANCH   26   25
ATOM     25  C20 UNL A   1      50.169  18.023   5.391  1.00  0.00    +0.000 C 
ATOM    114  H23 UNL A   1      49.701  17.572   4.540  1.00  0.00    +0.000 H 
ATOM    113  H22 UNL A   1      50.910  17.382   5.821  1.00  0.00    +0.000 H 
BRANCH   25   24
ATOM    112  H21 UNL A   1      50.504  20.080   5.566  1.00  0.00    +0.000 H 
ATOM    111  H20 UNL A   1      50.584  19.456   3.889  1.00  0.00    +0.000 H 
ATOM     24  C19 UNL A   1      50.848  19.303   4.915  1.00  0.00    +0.000 C 
BRANCH   24   23
ATOM    109  H18 UNL A   1      52.753  18.547   4.373  1.00  0.00    +0.000 H 
ATOM    110  H19 UNL A   1      52.682  20.300   4.739  1.00  0.00    +0.000 H 
ATOM     23  C18 UNL A   1      52.375  19.313   5.016  1.00  0.00    +0.000 C 
BRANCH   23   22
ATOM    107  H16 UNL A   1      52.141  19.165   7.120  1.00  0.00    +0.000 H 
ATOM    108  H17 UNL A   1      53.385  18.099   6.392  1.00  0.00    +0.000 H 
ATOM     22  C17 UNL A   1      52.943  19.073   6.418  1.00  0.00    +0.000 C 
BRANCH   22   21
ATOM    105  H14 UNL A   1      53.685  21.030   6.791  1.00  0.00    +0.000 H 
ATOM    106  H15 UNL A   1      54.337  19.741   7.845  1.00  0.00    +0.000 H 
ATOM     21  C16 UNL A   1      54.061  20.030   6.852  1.00  0.00    +0.000 C 
BRANCH   21   20
ATOM     20  C15 UNL A   1      55.336  19.952   6.012  1.00  0.00    +0.000 C 
ATOM    103  H12 UNL A   1      55.175  19.280   5.195  1.00  0.00    +0.000 H 
ATOM    104  H13 UNL A   1      55.565  20.935   5.655  1.00  0.00    +0.000 H 
BRANCH   20   19
ATOM     19  N2  UNL A   1      56.456  19.479   6.798  1.00  0.00    +0.000 N 
ATOM    102  H11 UNL A   1      56.628  19.903   7.670  1.00  0.00    +0.000 H 
BRANCH   19    2
ATOM      1  O1  UNL A   1      58.311  18.650   5.728  1.00  0.00    +0.000 O 
ATOM      2  C1  UNL A   1      57.290  18.466   6.385  1.00  0.00    +0.000 C 
BRANCH    2    3
ATOM      3  C2  UNL A   1      56.842  17.072   6.793  1.00  0.00    +0.000 C 
ATOM     92  H1  UNL A   1      55.787  17.090   6.974  1.00  0.00    +0.000 H 
ATOM     93  H2  UNL A   1      57.389  16.800   7.671  1.00  0.00    +0.000 H 
BRANCH    3    4
ATOM     97  H6  UNL A   1      55.944  14.625   2.931  1.00  0.00    +0.000 H 
ATOM      4  C3  UNL A   1      57.134  16.031   5.732  1.00  0.00    +0.000 C 
ATOM      5  C4  UNL A   1      58.355  15.333   5.794  1.00  0.00    +0.000 C 
ATOM      6  C5  UNL A   1      58.690  14.396   4.821  1.00  0.00    +0.000 C 
ATOM      7  C6  UNL A   1      57.810  14.146   3.776  1.00  0.00    +0.000 C 
ATOM      8  C7  UNL A   1      56.591  14.826   3.709  1.00  0.00    +0.000 C 
ATOM      9  C8  UNL A   1      56.227  15.776   4.677  1.00  0.00    +0.000 C 
ATOM     94  H3  UNL A   1      59.008  15.517   6.572  1.00  0.00    +0.000 H 
ATOM     95  H4  UNL A   1      59.587  13.889   4.876  1.00  0.00    +0.000 H 
ATOM     96  H5  UNL A   1      58.057  13.458   3.047  1.00  0.00    +0.000 H 
BRANCH    9   10
ATOM     10  N1  UNL A   1      54.964  16.423   4.659  1.00  0.00    +0.000 N 
ATOM     98  H7  UNL A   1      54.986  17.407   4.639  1.00  0.00    +0.000 H 
BRANCH   10   11
ATOM     99  H8  UNL A   1      51.315  14.762   2.490  1.00  0.00    +0.000 H 
ATOM    100  H9  UNL A   1      50.242  14.054   4.549  1.00  0.00    +0.000 H 
ATOM    101  H10 UNL A   1      51.315  14.492   6.678  1.00  0.00    +0.000 H 
ATOM     11  C9  UNL A   1      53.671  15.830   4.667  1.00  0.00    +0.000 C 
ATOM     12  C10 UNL A   1      53.019  15.570   3.443  1.00  0.00    +0.000 C 
ATOM     13 Cl1  UNL A   1      53.746  16.026   1.938  1.00  0.00    +0.000 Cl
ATOM     14  C11 UNL A   1      51.774  14.934   3.397  1.00  0.00    +0.000 C 
ATOM     15  C12 UNL A   1      51.155  14.534   4.578  1.00  0.00    +0.000 C 
ATOM     16  C13 UNL A   1      51.774  14.784   5.802  1.00  0.00    +0.000 C 
ATOM     17  C14 UNL A   1      53.017  15.429   5.849  1.00  0.00    +0.000 C 
ATOM     18 Cl2  UNL A   1      53.656  15.778   7.422  1.00  0.00    +0.000 Cl
ENDBRANCH   10   11
ENDBRANCH    9   10
ENDBRANCH    3    4
ENDBRANCH    2    3
ENDBRANCH   19    2
ENDBRANCH   20   19
ENDBRANCH   21   20
ENDBRANCH   22   21
ENDBRANCH   23   22
ENDBRANCH   24   23
ENDBRANCH   25   24
ENDBRANCH   26   25
ENDBRANCH   27   26
ENDBRANCH   29   27
ENDBRANCH   33   32
BRANCH   37   38
ATOM     38  C30 UNL A   1      58.329  17.143  10.875  1.00  0.00    +0.000 C 
ATOM     39  C31 UNL A   1      59.024  17.687   9.784  1.00  0.00    +0.000 C 
ATOM     40  F1  UNL A   1      58.932  18.998   9.511  1.00  0.00    +0.000 F 
ATOM     41  C32 UNL A   1      59.787  16.879   8.945  1.00  0.00    +0.000 C 
ATOM     42  F2  UNL A   1      60.403  17.414   7.882  1.00  0.00    +0.000 F 
ATOM     43  C33 UNL A   1      59.898  15.520   9.199  1.00  0.00    +0.000 C 
ATOM     44  F3  UNL A   1      60.636  14.745   8.393  1.00  0.00    +0.000 F 
ATOM     45  C34 UNL A   1      59.238  14.965  10.285  1.00  0.00    +0.000 C 
ATOM     46  F4  UNL A   1      59.355  13.654  10.538  1.00  0.00    +0.000 F 
ATOM     47  C35 UNL A   1      58.452  15.765  11.109  1.00  0.00    +0.000 C 
ATOM     48  F5  UNL A   1      57.813  15.195  12.142  1.00  0.00    +0.000 F 
ENDBRANCH   37   38
BRANCH   54   55
ATOM     65  F10 UNL A   1      58.470  18.155  18.215  1.00  0.00    +0.000 F 
ATOM     55  C41 UNL A   1      58.974  20.303  17.323  1.00  0.00    +0.000 C 
ATOM     56  C42 UNL A   1      59.743  21.471  17.428  1.00  0.00    +0.000 C 
ATOM     57  F6  UNL A   1      59.592  22.461  16.536  1.00  0.00    +0.000 F 
ATOM     58  C43 UNL A   1      60.698  21.610  18.432  1.00  0.00    +0.000 C 
ATOM     59  F7  UNL A   1      61.451  22.717  18.488  1.00  0.00    +0.000 F 
ATOM     60  C44 UNL A   1      60.880  20.600  19.365  1.00  0.00    +0.000 C 
ATOM     61  F8  UNL A   1      61.796  20.739  20.333  1.00  0.00    +0.000 F 
ATOM     62  C45 UNL A   1      60.120  19.443  19.288  1.00  0.00    +0.000 C 
ATOM     63  F9  UNL A   1      60.288  18.471  20.196  1.00  0.00    +0.000 F 
ATOM     64  C46 UNL A   1      59.183  19.289  18.271  1.00  0.00    +0.000 C 
ENDBRANCH   54   55
BRANCH   69   70
ATOM     70  C50 UNL A   1      52.419  22.589  16.785  1.00  0.00    +0.000 C 
ATOM     71  C51 UNL A   1      52.303  23.977  16.630  1.00  0.00    +0.000 C 
ATOM     72  F11 UNL A   1      53.008  24.605  15.677  1.00  0.00    +0.000 F 
ATOM     73  C52 UNL A   1      51.496  24.731  17.479  1.00  0.00    +0.000 C 
ATOM     74  F12 UNL A   1      51.436  26.062  17.336  1.00  0.00    +0.000 F 
ATOM     75  C53 UNL A   1      50.768  24.107  18.481  1.00  0.00    +0.000 C 
ATOM     76  F13 UNL A   1      49.988  24.832  19.295  1.00  0.00    +0.000 F 
ATOM     77  C54 UNL A   1      50.853  22.733  18.642  1.00  0.00    +0.000 C 
ATOM     78  F14 UNL A   1      50.142  22.125  19.601  1.00  0.00    +0.000 F 
ATOM     79  C55 UNL A   1      51.680  21.981  17.810  1.00  0.00    +0.000 C 
ATOM     80  F15 UNL A   1      51.754  20.655  17.996  1.00  0.00    +0.000 F 
ENDBRANCH   69   70
TORSDOF 18
ENDMDL
MODEL 10
REMARK VINA RESULT:     -11.2     19.612     24.257
ROOT
ATOM     33  C26 UNL A   1      39.633  28.867  29.564  1.00  0.00    +0.000 C 
ATOM     34  C27 UNL A   1      40.407  29.721  30.529  1.00  0.00    +0.000 C 
ATOM     35  N4  UNL A   1      41.623  29.559  30.988  1.00  0.00    +0.000 N 
ATOM     36  C28 UNL A   1      41.864  30.651  31.809  1.00  0.00    +0.000 C 
ATOM     37  C29 UNL A   1      42.960  30.918  32.560  1.00  0.00    +0.000 C 
ATOM     49  C36 UNL A   1      44.118  30.066  32.640  1.00  0.00    +0.000 C 
ATOM     50  C37 UNL A   1      45.250  30.219  33.422  1.00  0.00    +0.000 C 
ATOM     51  C38 UNL A   1      46.126  29.165  33.134  1.00  0.00    +0.000 C 
ATOM     52  C39 UNL A   1      45.521  28.334  32.206  1.00  0.00    +0.000 C 
ATOM     53  N5  UNL A   1      44.291  28.900  31.909  1.00  0.00    +0.000 N 
ATOM     54  C40 UNL A   1      46.027  27.115  31.629  1.00  0.00    +0.000 C 
ATOM     66  C47 UNL A   1      45.363  26.347  30.730  1.00  0.00    +0.000 C 
ATOM     67  N6  UNL A   1      44.101  26.537  30.186  1.00  0.00    +0.000 N 
ATOM     68  C48 UNL A   1      43.908  25.536  29.364  1.00  0.00    +0.000 C 
ATOM     69  C49 UNL A   1      42.703  25.216  28.522  1.00  0.00    +0.000 C 
ATOM     81  C56 UNL A   1      41.626  26.022  28.578  1.00  0.00    +0.000 C 
ATOM     82  C57 UNL A   1      40.391  25.836  27.821  1.00  0.00    +0.000 C 
ATOM     83  C58 UNL A   1      39.556  26.854  28.090  1.00  0.00    +0.000 C 
ATOM     84  C59 UNL A   1      40.185  27.744  29.066  1.00  0.00    +0.000 C 
ATOM     85  N7  UNL A   1      41.409  27.168  29.302  1.00  0.00    +0.000 N 
ATOM     86  C60 UNL A   1      45.045  24.609  29.271  1.00  0.00    +0.000 C 
ATOM     87  C61 UNL A   1      45.889  25.128  30.153  1.00  0.00    +0.000 C 
ATOM     88  C62 UNL A   1      40.689  31.492  31.751  1.00  0.00    +0.000 C 
ATOM     89  C63 UNL A   1      39.733  30.930  31.025  1.00  0.00    +0.000 C 
ATOM    118  H27 UNL A   1      45.419  30.977  34.100  1.00  0.00    +0.000 H 
ATOM    119  H28 UNL A   1      47.063  29.032  33.544  1.00  0.00    +0.000 H 
ATOM    120  H29 UNL A   1      43.638  28.530  31.273  1.00  0.00    +0.000 H 
ATOM    121  H30 UNL A   1      40.191  25.050  27.183  1.00  0.00    +0.000 H 
ATOM    122  H31 UNL A   1      38.620  26.985  27.676  1.00  0.00    +0.000 H 
ATOM    123  H32 UNL A   1      42.067  27.540  29.932  1.00  0.00    +0.000 H 
ATOM    124  H33 UNL A   1      45.158  23.774  28.676  1.00  0.00    +0.000 H 
ATOM    125  H34 UNL A   1      46.803  24.716  30.396  1.00  0.00    +0.000 H 
ATOM    126  H35 UNL A   1      40.605  32.411  32.216  1.00  0.00    +0.000 H 
ATOM    127  H36 UNL A   1      38.770  31.257  30.851  1.00  0.00    +0.000 H 
ENDROOT
BRANCH   33   32
ATOM    129  H38 UNL A   1      36.776  30.611  26.401  1.00  0.00    +0.000 H 
ATOM    128  H37 UNL A   1      38.951  29.865  27.173  1.00  0.00    +0.000 H 
ATOM    116  H25 UNL A   1      35.070  29.442  30.065  1.00  0.00    +0.000 H 
ATOM    117  H26 UNL A   1      37.277  28.885  30.911  1.00  0.00    +0.000 H 
ATOM     90  C64 UNL A   1      38.131  29.790  27.794  1.00  0.00    +0.000 C 
ATOM     91  C65 UNL A   1      36.874  30.182  27.335  1.00  0.00    +0.000 C 
ATOM     29  C22 UNL A   1      35.748  29.993  28.141  1.00  0.00    +0.000 C 
ATOM     30  C23 UNL A   1      35.897  29.534  29.454  1.00  0.00    +0.000 C 
ATOM     31  C24 UNL A   1      37.165  29.201  29.935  1.00  0.00    +0.000 C 
ATOM     32  C25 UNL A   1      38.288  29.293  29.098  1.00  0.00    +0.000 C 
BRANCH   29   27
ATOM     27  C21 UNL A   1      34.386  30.282  27.638  1.00  0.00    +0.000 C 
ATOM     28  O2  UNL A   1      33.982  31.442  27.615  1.00  0.00    +0.000 O 
BRANCH   27   26
ATOM     26  N3  UNL A   1      33.569  29.259  27.227  1.00  0.00    +0.000 N 
ATOM    115  H24 UNL A   1      32.620  29.356  27.468  1.00  0.00    +0.000 H 
BRANCH   26   25
ATOM     25  C20 UNL A   1      33.899  28.050  26.487  1.00  0.00    +0.000 C 
ATOM    114  H23 UNL A   1      33.444  27.227  26.997  1.00  0.00    +0.000 H 
ATOM    113  H22 UNL A   1      34.964  27.953  26.449  1.00  0.00    +0.000 H 
BRANCH   25   24
ATOM    112  H21 UNL A   1      34.189  28.309  24.432  1.00  0.00    +0.000 H 
ATOM    111  H20 UNL A   1      32.560  28.773  25.016  1.00  0.00    +0.000 H 
ATOM     24  C19 UNL A   1      33.359  28.062  25.061  1.00  0.00    +0.000 C 
BRANCH   24   23
ATOM    109  H18 UNL A   1      33.008  26.673  23.498  1.00  0.00    +0.000 H 
ATOM    110  H19 UNL A   1      33.339  25.969  25.112  1.00  0.00    +0.000 H 
ATOM     23  C18 UNL A   1      32.826  26.722  24.550  1.00  0.00    +0.000 C 
BRANCH   23   22
ATOM    107  H16 UNL A   1      30.875  27.415  25.011  1.00  0.00    +0.000 H 
ATOM    108  H17 UNL A   1      30.967  26.025  23.882  1.00  0.00    +0.000 H 
ATOM     22  C17 UNL A   1      31.332  26.475  24.782  1.00  0.00    +0.000 C 
BRANCH   22   21
ATOM    105  H14 UNL A   1      30.470  26.034  26.674  1.00  0.00    +0.000 H 
ATOM    106  H15 UNL A   1      30.404  24.717  25.467  1.00  0.00    +0.000 H 
ATOM     21  C16 UNL A   1      30.990  25.494  25.911  1.00  0.00    +0.000 C 
BRANCH   21   20
ATOM     20  C15 UNL A   1      32.196  24.809  26.553  1.00  0.00    +0.000 C 
ATOM    103  H12 UNL A   1      32.962  24.688  25.817  1.00  0.00    +0.000 H 
ATOM    104  H13 UNL A   1      32.541  25.422  27.361  1.00  0.00    +0.000 H 
BRANCH   20   19
ATOM     19  N2  UNL A   1      31.841  23.511  27.086  1.00  0.00    +0.000 N 
ATOM    102  H11 UNL A   1      32.094  23.299  28.013  1.00  0.00    +0.000 H 
BRANCH   19    2
ATOM      1  O1  UNL A   1      29.943  22.440  26.360  1.00  0.00    +0.000 O 
ATOM      2  C1  UNL A   1      31.165  22.558  26.356  1.00  0.00    +0.000 C 
BRANCH    2    3
ATOM      3  C2  UNL A   1      32.057  21.635  25.543  1.00  0.00    +0.000 C 
ATOM     92  H1  UNL A   1      31.466  20.820  25.180  1.00  0.00    +0.000 H 
ATOM     93  H2  UNL A   1      32.844  21.297  26.184  1.00  0.00    +0.000 H 
BRANCH    3    4
ATOM     97  H6  UNL A   1      35.635  23.022  22.901  1.00  0.00    +0.000 H 
ATOM      4  C3  UNL A   1      32.697  22.333  24.361  1.00  0.00    +0.000 C 
ATOM      5  C4  UNL A   1      31.860  22.936  23.404  1.00  0.00    +0.000 C 
ATOM      6  C5  UNL A   1      32.395  23.554  22.278  1.00  0.00    +0.000 C 
ATOM      7  C6  UNL A   1      33.772  23.577  22.096  1.00  0.00    +0.000 C 
ATOM      8  C7  UNL A   1      34.614  22.990  23.045  1.00  0.00    +0.000 C 
ATOM      9  C8  UNL A   1      34.101  22.360  24.189  1.00  0.00    +0.000 C 
ATOM     94  H3  UNL A   1      30.836  22.920  23.539  1.00  0.00    +0.000 H 
ATOM     95  H4  UNL A   1      31.773  23.994  21.582  1.00  0.00    +0.000 H 
ATOM     96  H5  UNL A   1      34.174  24.027  21.259  1.00  0.00    +0.000 H 
BRANCH    9   10
ATOM     10  N1  UNL A   1      34.946  21.821  25.194  1.00  0.00    +0.000 N 
ATOM     98  H7  UNL A   1      34.536  21.149  25.785  1.00  0.00    +0.000 H 
BRANCH   10   11
ATOM     99  H8  UNL A   1      38.213  24.751  26.427  1.00  0.00    +0.000 H 
ATOM    100  H9  UNL A   1      39.947  23.053  26.376  1.00  0.00    +0.000 H 
ATOM    101  H10 UNL A   1      39.394  20.787  25.718  1.00  0.00    +0.000 H 
ATOM     11  C9  UNL A   1      36.309  22.131  25.457  1.00  0.00    +0.000 C 
ATOM     12  C10 UNL A   1      36.662  23.444  25.834  1.00  0.00    +0.000 C 
ATOM     13 Cl1  UNL A   1      35.465  24.693  25.916  1.00  0.00    +0.000 Cl
ATOM     14  C11 UNL A   1      37.980  23.782  26.161  1.00  0.00    +0.000 C 
ATOM     15  C12 UNL A   1      38.976  22.811  26.125  1.00  0.00    +0.000 C 
ATOM     16  C13 UNL A   1      38.655  21.507  25.749  1.00  0.00    +0.000 C 
ATOM     17  C14 UNL A   1      37.338  21.169  25.413  1.00  0.00    +0.000 C 
ATOM     18 Cl2  UNL A   1      37.064  19.547  24.867  1.00  0.00    +0.000 Cl
ENDBRANCH   10   11
ENDBRANCH    9   10
ENDBRANCH    3    4
ENDBRANCH    2    3
ENDBRANCH   19    2
ENDBRANCH   20   19
ENDBRANCH   21   20
ENDBRANCH   22   21
ENDBRANCH   23   22
ENDBRANCH   24   23
ENDBRANCH   25   24
ENDBRANCH   26   25
ENDBRANCH   27   26
ENDBRANCH   29   27
ENDBRANCH   33   32
BRANCH   37   38
ATOM     38  C30 UNL A   1      42.957  32.187  33.362  1.00  0.00    +0.000 C 
ATOM     39  C31 UNL A   1      42.459  32.227  34.673  1.00  0.00    +0.000 C 
ATOM     40  F1  UNL A   1      41.931  31.125  35.228  1.00  0.00    +0.000 F 
ATOM     41  C32 UNL A   1      42.466  33.410  35.407  1.00  0.00    +0.000 C 
ATOM     42  F2  UNL A   1      41.941  33.435  36.639  1.00  0.00    +0.000 F 
ATOM     43  C33 UNL A   1      43.001  34.566  34.859  1.00  0.00    +0.000 C 
ATOM     44  F3  UNL A   1      43.011  35.703  35.568  1.00  0.00    +0.000 F 
ATOM     45  C34 UNL A   1      43.520  34.545  33.573  1.00  0.00    +0.000 C 
ATOM     46  F4  UNL A   1      44.049  35.658  33.047  1.00  0.00    +0.000 F 
ATOM     47  C35 UNL A   1      43.489  33.370  32.826  1.00  0.00    +0.000 C 
ATOM     48  F5  UNL A   1      43.985  33.385  31.579  1.00  0.00    +0.000 F 
ENDBRANCH   37   38
BRANCH   54   55
ATOM     65  F10 UNL A   1      46.407  25.261  33.748  1.00  0.00    +0.000 F 
ATOM     55  C41 UNL A   1      47.380  26.641  32.071  1.00  0.00    +0.000 C 
ATOM     56  C42 UNL A   1      48.556  27.109  31.467  1.00  0.00    +0.000 C 
ATOM     57  F6  UNL A   1      48.491  27.963  30.435  1.00  0.00    +0.000 F 
ATOM     58  C43 UNL A   1      49.805  26.670  31.900  1.00  0.00    +0.000 C 
ATOM     59  F7  UNL A   1      50.913  27.097  31.280  1.00  0.00    +0.000 F 
ATOM     60  C44 UNL A   1      49.902  25.782  32.960  1.00  0.00    +0.000 C 
ATOM     61  F8  UNL A   1      51.106  25.366  33.378  1.00  0.00    +0.000 F 
ATOM     62  C45 UNL A   1      48.753  25.319  33.581  1.00  0.00    +0.000 C 
ATOM     63  F9  UNL A   1      48.846  24.469  34.614  1.00  0.00    +0.000 F 
ATOM     64  C46 UNL A   1      47.502  25.734  33.135  1.00  0.00    +0.000 C 
ENDBRANCH   54   55
BRANCH   69   70
ATOM     70  C50 UNL A   1      42.681  24.007  27.658  1.00  0.00    +0.000 C 
ATOM     71  C51 UNL A   1      42.320  22.759  28.184  1.00  0.00    +0.000 C 
ATOM     72  F11 UNL A   1      42.011  22.645  29.485  1.00  0.00    +0.000 F 
ATOM     73  C52 UNL A   1      42.316  21.616  27.387  1.00  0.00    +0.000 C 
ATOM     74  F12 UNL A   1      42.008  20.428  27.925  1.00  0.00    +0.000 F 
ATOM     75  C53 UNL A   1      42.645  21.705  26.043  1.00  0.00    +0.000 C 
ATOM     76  F13 UNL A   1      42.637  20.607  25.276  1.00  0.00    +0.000 F 
ATOM     77  C54 UNL A   1      42.989  22.932  25.497  1.00  0.00    +0.000 C 
ATOM     78  F14 UNL A   1      43.296  23.024  24.196  1.00  0.00    +0.000 F 
ATOM     79  C55 UNL A   1      43.019  24.071  26.299  1.00  0.00    +0.000 C 
ATOM     80  F15 UNL A   1      43.367  25.243  25.748  1.00  0.00    +0.000 F 
ENDBRANCH   69   70
TORSDOF 18
ENDMDL
