MODEL 1
REMARK VINA RESULT:     -12.3      0.000      0.000
ROOT
ATOM     34  C26 UNL A   1      52.934  20.013  11.587  1.00  0.00    +0.000 C 
ATOM     35  C27 UNL A   1      54.278  19.388  11.340  1.00  0.00    +0.000 C 
ATOM     36  N4  UNL A   1      55.309  19.310  12.144  1.00  0.00    +0.000 N 
ATOM     37  C28 UNL A   1      56.291  18.622  11.444  1.00  0.00    +0.000 C 
ATOM     38  C29 UNL A   1      57.552  18.317  11.838  1.00  0.00    +0.000 C 
ATOM     50  C36 UNL A   1      58.115  18.670  13.117  1.00  0.00    +0.000 C 
ATOM     51  C37 UNL A   1      59.384  18.412  13.606  1.00  0.00    +0.000 C 
ATOM     52  C38 UNL A   1      59.468  18.922  14.906  1.00  0.00    +0.000 C 
ATOM     53  C39 UNL A   1      58.266  19.536  15.213  1.00  0.00    +0.000 C 
ATOM     54  N5  UNL A   1      57.441  19.366  14.111  1.00  0.00    +0.000 N 
ATOM     55  C40 UNL A   1      57.896  20.230  16.419  1.00  0.00    +0.000 C 
ATOM     67  C47 UNL A   1      56.696  20.818  16.644  1.00  0.00    +0.000 C 
ATOM     68  N6  UNL A   1      55.581  20.864  15.821  1.00  0.00    +0.000 N 
ATOM     69  C48 UNL A   1      54.658  21.496  16.505  1.00  0.00    +0.000 C 
ATOM     70  C49 UNL A   1      53.251  21.832  16.106  1.00  0.00    +0.000 C 
ATOM     82  C56 UNL A   1      52.806  21.444  14.897  1.00  0.00    +0.000 C 
ATOM     83  C57 UNL A   1      51.473  21.715  14.369  1.00  0.00    +0.000 C 
ATOM     84  C58 UNL A   1      51.373  21.174  13.147  1.00  0.00    +0.000 C 
ATOM     85  C59 UNL A   1      52.655  20.564  12.785  1.00  0.00    +0.000 C 
ATOM     86  N7  UNL A   1      53.432  20.735  13.901  1.00  0.00    +0.000 N 
ATOM     87  C60 UNL A   1      55.087  21.929  17.841  1.00  0.00    +0.000 C 
ATOM     88  C61 UNL A   1      56.348  21.524  17.861  1.00  0.00    +0.000 C 
ATOM     89  C62 UNL A   1      55.724  18.277  10.158  1.00  0.00    +0.000 C 
ATOM     90  C63 UNL A   1      54.495  18.760  10.028  1.00  0.00    +0.000 C 
ATOM    118  H26 UNL A   1      60.140  17.925  13.097  1.00  0.00    +0.000 H 
ATOM    119  H27 UNL A   1      60.288  18.853  15.530  1.00  0.00    +0.000 H 
ATOM    120  H28 UNL A   1      56.514  19.690  14.044  1.00  0.00    +0.000 H 
ATOM    121  H29 UNL A   1      50.730  22.239  14.857  1.00  0.00    +0.000 H 
ATOM    122  H30 UNL A   1      50.527  21.185  12.556  1.00  0.00    +0.000 H 
ATOM    123  H31 UNL A   1      54.348  20.385  13.981  1.00  0.00    +0.000 H 
ATOM    124  H32 UNL A   1      54.547  22.419  18.572  1.00  0.00    +0.000 H 
ATOM    125  H33 UNL A   1      57.000  21.691  18.642  1.00  0.00    +0.000 H 
ATOM    126  H34 UNL A   1      56.212  17.725   9.435  1.00  0.00    +0.000 H 
ATOM    127  H35 UNL A   1      53.858  18.709   9.217  1.00  0.00    +0.000 H 
ENDROOT
BRANCH   34   33
ATOM    129  H37 UNL A   1      50.736  22.098   8.074  1.00  0.00    +0.000 H 
ATOM     33  C25 UNL A   1      51.908  20.107  10.517  1.00  0.00    +0.000 C 
ATOM    116  H24 UNL A   1      49.598  18.166   9.039  1.00  0.00    +0.000 H 
ATOM    117  H25 UNL A   1      51.105  18.194  10.933  1.00  0.00    +0.000 H 
ATOM     91  C64 UNL A   1      51.809  21.222   9.671  1.00  0.00    +0.000 C 
ATOM     92  C65 UNL A   1      50.830  21.262   8.672  1.00  0.00    +0.000 C 
ATOM    128  H36 UNL A   1      52.459  22.015   9.786  1.00  0.00    +0.000 H 
ATOM     30  C22 UNL A   1      49.979  20.167   8.484  1.00  0.00    +0.000 C 
ATOM     31  C23 UNL A   1      50.147  19.013   9.252  1.00  0.00    +0.000 C 
ATOM     32  C24 UNL A   1      51.056  19.010  10.303  1.00  0.00    +0.000 C 
BRANCH   30    2
ATOM      1  O1  UNL A   1      48.274  21.301   7.339  1.00  0.00    +0.000 O 
ATOM      2  C1  UNL A   1      48.899  20.253   7.476  1.00  0.00    +0.000 C 
BRANCH    2    3
ATOM      3  N1  UNL A   1      48.578  19.147   6.724  1.00  0.00    +0.000 N 
ATOM     93  H1  UNL A   1      49.341  18.625   6.386  1.00  0.00    +0.000 H 
BRANCH    3    4
ATOM      4  C2  UNL A   1      47.263  18.643   6.360  1.00  0.00    +0.000 C 
ATOM     94  H2  UNL A   1      46.570  19.458   6.388  1.00  0.00    +0.000 H 
ATOM     95  H3  UNL A   1      47.015  17.876   7.063  1.00  0.00    +0.000 H 
BRANCH    4    5
ATOM     97  H5  UNL A   1      48.216  18.059   4.599  1.00  0.00    +0.000 H 
ATOM      5  C3  UNL A   1      47.215  18.015   4.976  1.00  0.00    +0.000 C 
ATOM     96  H4  UNL A   1      46.836  17.020   5.079  1.00  0.00    +0.000 H 
BRANCH    5    6
ATOM     98  H6  UNL A   1      45.460  18.168   3.806  1.00  0.00    +0.000 H 
ATOM     99  H7  UNL A   1      46.958  18.839   3.075  1.00  0.00    +0.000 H 
ATOM      6  C4  UNL A   1      46.350  18.743   3.950  1.00  0.00    +0.000 C 
BRANCH    6    7
ATOM    100  H8  UNL A   1      46.744  20.821   4.071  1.00  0.00    +0.000 H 
ATOM    101  H9  UNL A   1      45.687  20.136   5.358  1.00  0.00    +0.000 H 
ATOM      7  C5  UNL A   1      45.930  20.170   4.316  1.00  0.00    +0.000 C 
BRANCH    7    8
ATOM    102  H10 UNL A   1      44.570  21.744   3.895  1.00  0.00    +0.000 H 
ATOM    103  H11 UNL A   1      43.869  20.091   3.956  1.00  0.00    +0.000 H 
ATOM      8  C6  UNL A   1      44.674  20.714   3.624  1.00  0.00    +0.000 C 
BRANCH    8    9
ATOM      9  C7  UNL A   1      44.661  20.628   2.100  1.00  0.00    +0.000 C 
ATOM    105  H13 UNL A   1      45.389  21.319   1.729  1.00  0.00    +0.000 H 
ATOM    104  H12 UNL A   1      44.890  19.623   1.810  1.00  0.00    +0.000 H 
BRANCH    9   10
ATOM     10  N2  UNL A   1      43.376  20.993   1.534  1.00  0.00    +0.000 N 
ATOM    106  H14 UNL A   1      43.170  21.956   1.532  1.00  0.00    +0.000 H 
BRANCH   10   11
ATOM     11  C8  UNL A   1      42.410  20.180   1.000  1.00  0.00    +0.000 C 
ATOM     12  O2  UNL A   1      42.584  19.657  -0.096  1.00  0.00    +0.000 O 
BRANCH   11   13
ATOM    107  H15 UNL A   1      42.116  18.359   2.842  1.00  0.00    +0.000 H 
ATOM    108  H16 UNL A   1      40.154  17.778   4.144  1.00  0.00    +0.000 H 
ATOM     13  C9  UNL A   1      41.166  19.902   1.747  1.00  0.00    +0.000 C 
ATOM     14  C10 UNL A   1      41.231  18.870   2.696  1.00  0.00    +0.000 C 
ATOM     15  C11 UNL A   1      40.105  18.533   3.443  1.00  0.00    +0.000 C 
ATOM    110  H18 UNL A   1      37.954  20.742   2.142  1.00  0.00    +0.000 H 
ATOM     17  C13 UNL A   1      38.845  20.237   2.278  1.00  0.00    +0.000 C 
ATOM     18  C14 UNL A   1      39.959  20.588   1.498  1.00  0.00    +0.000 C 
ATOM     16  C12 UNL A   1      38.913  19.221   3.237  1.00  0.00    +0.000 C 
ATOM    109  H17 UNL A   1      38.079  18.980   3.793  1.00  0.00    +0.000 H 
BRANCH   18   19
ATOM     19  N3  UNL A   1      39.875  21.614   0.533  1.00  0.00    +0.000 N 
ATOM    111  H19 UNL A   1      40.567  22.310   0.619  1.00  0.00    +0.000 H 
BRANCH   19   20
ATOM    112  H20 UNL A   1      40.387  21.307  -2.013  1.00  0.00    +0.000 H 
ATOM    113  H21 UNL A   1      38.864  21.538  -3.880  1.00  0.00    +0.000 H 
ATOM    114  H22 UNL A   1      36.562  22.191  -3.499  1.00  0.00    +0.000 H 
ATOM    115  H23 UNL A   1      37.307  22.354   0.638  1.00  0.00    +0.000 H 
ATOM     20  C15 UNL A   1      38.978  21.818  -0.528  1.00  0.00    +0.000 C 
ATOM     21  C16 UNL A   1      39.408  21.583  -1.841  1.00  0.00    +0.000 C 
ATOM     22  C17 UNL A   1      38.531  21.718  -2.919  1.00  0.00    +0.000 C 
ATOM     23  C18 UNL A   1      37.208  22.094  -2.700  1.00  0.00    +0.000 C 
ATOM     24  C19 UNL A   1      36.751  22.343  -1.399  1.00  0.00    +0.000 C 
ATOM     25  C20 UNL A   1      35.317  22.751  -1.166  1.00  0.00    +0.000 C 
ATOM     26  F1  UNL A   1      34.934  23.786  -1.963  1.00  0.00    +0.000 F 
ATOM     27  F2  UNL A   1      34.441  21.740  -1.415  1.00  0.00    +0.000 F 
ATOM     28  F3  UNL A   1      35.069  23.156   0.111  1.00  0.00    +0.000 F 
ATOM     29  C21 UNL A   1      37.643  22.189  -0.324  1.00  0.00    +0.000 C 
ENDBRANCH   19   20
ENDBRANCH   18   19
ENDBRANCH   11   13
ENDBRANCH   10   11
ENDBRANCH    9   10
ENDBRANCH    8    9
ENDBRANCH    7    8
ENDBRANCH    6    7
ENDBRANCH    5    6
ENDBRANCH    4    5
ENDBRANCH    3    4
ENDBRANCH    2    3
ENDBRANCH   30    2
ENDBRANCH   34   33
BRANCH   38   39
ATOM     39  C30 UNL A   1      58.420  17.558  10.876  1.00  0.00    +0.000 C 
ATOM     40  C31 UNL A   1      59.237  18.218   9.948  1.00  0.00    +0.000 C 
ATOM     41  F4  UNL A   1      59.201  19.555   9.849  1.00  0.00    +0.000 F 
ATOM     42  C32 UNL A   1      60.079  17.505   9.097  1.00  0.00    +0.000 C 
ATOM     43  F5  UNL A   1      60.827  18.156   8.197  1.00  0.00    +0.000 F 
ATOM     44  C33 UNL A   1      60.141  16.121   9.177  1.00  0.00    +0.000 C 
ATOM     45  F6  UNL A   1      60.961  15.438   8.368  1.00  0.00    +0.000 F 
ATOM     46  C34 UNL A   1      59.348  15.447  10.095  1.00  0.00    +0.000 C 
ATOM     47  F7  UNL A   1      59.416  14.111  10.181  1.00  0.00    +0.000 F 
ATOM     48  C35 UNL A   1      58.488  16.156  10.930  1.00  0.00    +0.000 C 
ATOM     49  F8  UNL A   1      57.732  15.476  11.804  1.00  0.00    +0.000 F 
ENDBRANCH   38   39
BRANCH   55   56
ATOM     65  C46 UNL A   1      59.713  21.475  17.647  1.00  0.00    +0.000 C 
ATOM     66  F13 UNL A   1      59.583  22.493  16.784  1.00  0.00    +0.000 F 
ATOM     56  C41 UNL A   1      58.912  20.332  17.518  1.00  0.00    +0.000 C 
ATOM     57  C42 UNL A   1      59.089  19.293  18.444  1.00  0.00    +0.000 C 
ATOM     58  F9  UNL A   1      58.333  18.187  18.372  1.00  0.00    +0.000 F 
ATOM     59  C43 UNL A   1      60.010  19.410  19.481  1.00  0.00    +0.000 C 
ATOM     60  F10 UNL A   1      60.123  18.430  20.388  1.00  0.00    +0.000 F 
ATOM     61  C44 UNL A   1      60.792  20.549  19.591  1.00  0.00    +0.000 C 
ATOM     62  F11 UNL A   1      61.674  20.664  20.593  1.00  0.00    +0.000 F 
ATOM     63  C45 UNL A   1      60.652  21.577  18.670  1.00  0.00    +0.000 C 
ATOM     64  F12 UNL A   1      61.412  22.676  18.771  1.00  0.00    +0.000 F 
ENDBRANCH   55   56
BRANCH   70   71
ATOM     71  C50 UNL A   1      52.346  22.573  17.021  1.00  0.00    +0.000 C 
ATOM     72  C51 UNL A   1      52.190  23.961  16.920  1.00  0.00    +0.000 C 
ATOM     73  F14 UNL A   1      52.889  24.650  16.006  1.00  0.00    +0.000 F 
ATOM     74  C52 UNL A   1      51.339  24.651  17.781  1.00  0.00    +0.000 C 
ATOM     75  F15 UNL A   1      51.238  25.984  17.692  1.00  0.00    +0.000 F 
ATOM     76  C53 UNL A   1      50.606  23.964  18.736  1.00  0.00    +0.000 C 
ATOM     77  F16 UNL A   1      49.780  24.628  19.557  1.00  0.00    +0.000 F 
ATOM     78  C54 UNL A   1      50.733  22.587  18.844  1.00  0.00    +0.000 C 
ATOM     79  F17 UNL A   1      50.013  21.916  19.753  1.00  0.00    +0.000 F 
ATOM     80  C55 UNL A   1      51.606  21.900  18.006  1.00  0.00    +0.000 C 
ATOM     81  F18 UNL A   1      51.716  20.571  18.138  1.00  0.00    +0.000 F 
ENDBRANCH   70   71
TORSDOF 17
ENDMDL
MODEL 2
REMARK VINA RESULT:     -12.1     44.992     49.005
ROOT
ATOM     34  C26 UNL A   1       7.065   3.306  26.024  1.00  0.00    +0.000 C 
ATOM     35  C27 UNL A   1       8.253   3.570  26.906  1.00  0.00    +0.000 C 
ATOM     36  N4  UNL A   1       8.787   4.717  27.245  1.00  0.00    +0.000 N 
ATOM     37  C28 UNL A   1       9.849   4.412  28.086  1.00  0.00    +0.000 C 
ATOM     38  C29 UNL A   1      10.731   5.257  28.673  1.00  0.00    +0.000 C 
ATOM     50  C36 UNL A   1      10.713   6.690  28.519  1.00  0.00    +0.000 C 
ATOM     51  C37 UNL A   1      11.567   7.631  29.069  1.00  0.00    +0.000 C 
ATOM     52  C38 UNL A   1      11.144   8.902  28.661  1.00  0.00    +0.000 C 
ATOM     53  C39 UNL A   1      10.052   8.751  27.824  1.00  0.00    +0.000 C 
ATOM     54  N5  UNL A   1       9.791   7.391  27.753  1.00  0.00    +0.000 N 
ATOM     55  C40 UNL A   1       9.304   9.770  27.135  1.00  0.00    +0.000 C 
ATOM     67  C47 UNL A   1       8.246   9.543  26.319  1.00  0.00    +0.000 C 
ATOM     68  N6  UNL A   1       7.641   8.339  25.991  1.00  0.00    +0.000 N 
ATOM     69  C48 UNL A   1       6.629   8.647  25.217  1.00  0.00    +0.000 C 
ATOM     70  C49 UNL A   1       5.626   7.739  24.568  1.00  0.00    +0.000 C 
ATOM     82  C56 UNL A   1       5.711   6.414  24.785  1.00  0.00    +0.000 C 
ATOM     83  C57 UNL A   1       4.821   5.412  24.208  1.00  0.00    +0.000 C 
ATOM     84  C58 UNL A   1       5.189   4.200  24.646  1.00  0.00    +0.000 C 
ATOM     85  C59 UNL A   1       6.376   4.336  25.493  1.00  0.00    +0.000 C 
ATOM     86  N7  UNL A   1       6.589   5.689  25.553  1.00  0.00    +0.000 N 
ATOM     87  C60 UNL A   1       6.480  10.085  24.959  1.00  0.00    +0.000 C 
ATOM     88  C61 UNL A   1       7.513  10.582  25.623  1.00  0.00    +0.000 C 
ATOM     89  C62 UNL A   1       9.868   2.971  28.231  1.00  0.00    +0.000 C 
ATOM     90  C63 UNL A   1       8.926   2.401  27.491  1.00  0.00    +0.000 C 
ATOM    118  H26 UNL A   1      12.378   7.430  29.676  1.00  0.00    +0.000 H 
ATOM    119  H27 UNL A   1      11.575   9.799  28.938  1.00  0.00    +0.000 H 
ATOM    120  H28 UNL A   1       9.060   6.982  27.236  1.00  0.00    +0.000 H 
ATOM    121  H29 UNL A   1       4.036   5.606  23.565  1.00  0.00    +0.000 H 
ATOM    122  H30 UNL A   1       4.711   3.314  24.423  1.00  0.00    +0.000 H 
ATOM    123  H31 UNL A   1       7.300   6.102  26.094  1.00  0.00    +0.000 H 
ATOM    124  H32 UNL A   1       5.761  10.578  24.407  1.00  0.00    +0.000 H 
ATOM    125  H33 UNL A   1       7.765  11.583  25.643  1.00  0.00    +0.000 H 
ATOM    126  H34 UNL A   1      10.529   2.455  28.832  1.00  0.00    +0.000 H 
ATOM    127  H35 UNL A   1       8.720   1.398  27.360  1.00  0.00    +0.000 H 
ENDROOT
BRANCH   34   33
ATOM    129  H37 UNL A   1       4.573  -0.579  26.479  1.00  0.00    +0.000 H 
ATOM     33  C25 UNL A   1       6.657   1.927  25.654  1.00  0.00    +0.000 C 
ATOM    116  H24 UNL A   1       7.211  -0.315  23.214  1.00  0.00    +0.000 H 
ATOM    117  H25 UNL A   1       8.016   1.815  24.036  1.00  0.00    +0.000 H 
ATOM     91  C64 UNL A   1       5.647   1.236  26.341  1.00  0.00    +0.000 C 
ATOM     92  C65 UNL A   1       5.292  -0.060  25.951  1.00  0.00    +0.000 C 
ATOM    128  H36 UNL A   1       5.165   1.685  27.135  1.00  0.00    +0.000 H 
ATOM     30  C22 UNL A   1       5.912  -0.651  24.844  1.00  0.00    +0.000 C 
ATOM     31  C23 UNL A   1       6.838   0.075  24.094  1.00  0.00    +0.000 C 
ATOM     32  C24 UNL A   1       7.257   1.324  24.536  1.00  0.00    +0.000 C 
BRANCH   30    2
ATOM      1  O1  UNL A   1       4.689  -2.280  23.681  1.00  0.00    +0.000 O 
ATOM      2  C1  UNL A   1       5.583  -2.050  24.490  1.00  0.00    +0.000 C 
BRANCH    2    3
ATOM      3  N1  UNL A   1       6.256  -3.084  25.098  1.00  0.00    +0.000 N 
ATOM     93  H1  UNL A   1       5.798  -3.955  25.090  1.00  0.00    +0.000 H 
BRANCH    3    4
ATOM      4  C2  UNL A   1       7.555  -3.065  25.751  1.00  0.00    +0.000 C 
ATOM     94  H2  UNL A   1       8.184  -2.373  25.231  1.00  0.00    +0.000 H 
ATOM     95  H3  UNL A   1       7.938  -4.064  25.718  1.00  0.00    +0.000 H 
BRANCH    4    5
ATOM     97  H5  UNL A   1       6.467  -2.423  27.410  1.00  0.00    +0.000 H 
ATOM      5  C3  UNL A   1       7.493  -2.657  27.214  1.00  0.00    +0.000 C 
ATOM     96  H4  UNL A   1       7.870  -3.470  27.799  1.00  0.00    +0.000 H 
BRANCH    5    6
ATOM     98  H6  UNL A   1       8.520  -1.464  28.627  1.00  0.00    +0.000 H 
ATOM     99  H7  UNL A   1       7.659  -0.578  27.321  1.00  0.00    +0.000 H 
ATOM      6  C4  UNL A   1       8.285  -1.405  27.585  1.00  0.00    +0.000 C 
BRANCH    6    7
ATOM    100  H8  UNL A   1       9.819  -0.141  26.852  1.00  0.00    +0.000 H 
ATOM    101  H9  UNL A   1       9.420  -1.577  25.840  1.00  0.00    +0.000 H 
ATOM      7  C5  UNL A   1       9.595  -1.188  26.822  1.00  0.00    +0.000 C 
BRANCH    7    8
ATOM    102  H10 UNL A   1      10.528  -2.491  28.213  1.00  0.00    +0.000 H 
ATOM    103  H11 UNL A   1      11.565  -1.193  27.531  1.00  0.00    +0.000 H 
ATOM      8  C6  UNL A   1      10.825  -1.942  27.344  1.00  0.00    +0.000 C 
BRANCH    8    9
ATOM      9  C7  UNL A   1      11.469  -2.925  26.368  1.00  0.00    +0.000 C 
ATOM    105  H13 UNL A   1      12.476  -3.088  26.688  1.00  0.00    +0.000 H 
ATOM    104  H12 UNL A   1      10.903  -3.834  26.373  1.00  0.00    +0.000 H 
BRANCH    9   10
ATOM     10  N2  UNL A   1      11.512  -2.412  25.012  1.00  0.00    +0.000 N 
ATOM    106  H14 UNL A   1      10.719  -2.602  24.460  1.00  0.00    +0.000 H 
BRANCH   10   11
ATOM     11  C8  UNL A   1      12.506  -1.697  24.395  1.00  0.00    +0.000 C 
ATOM     12  O2  UNL A   1      12.820  -1.956  23.237  1.00  0.00    +0.000 O 
BRANCH   11   13
ATOM    107  H15 UNL A   1      14.797  -1.864  25.626  1.00  0.00    +0.000 H 
ATOM    108  H16 UNL A   1      16.035  -0.159  26.829  1.00  0.00    +0.000 H 
ATOM     13  C9  UNL A   1      13.188  -0.593  25.101  1.00  0.00    +0.000 C 
ATOM     14  C10 UNL A   1      14.418  -0.907  25.700  1.00  0.00    +0.000 C 
ATOM     15  C11 UNL A   1      15.128   0.070  26.393  1.00  0.00    +0.000 C 
ATOM    110  H18 UNL A   1      13.003   2.624  25.991  1.00  0.00    +0.000 H 
ATOM     17  C13 UNL A   1      13.373   1.663  25.912  1.00  0.00    +0.000 C 
ATOM     18  C14 UNL A   1      12.626   0.695  25.222  1.00  0.00    +0.000 C 
ATOM     16  C12 UNL A   1      14.608   1.356  26.494  1.00  0.00    +0.000 C 
ATOM    109  H17 UNL A   1      15.134   2.085  27.000  1.00  0.00    +0.000 H 
BRANCH   18   19
ATOM     19  N3  UNL A   1      11.381   1.017  24.641  1.00  0.00    +0.000 N 
ATOM    111  H19 UNL A   1      10.600   0.689  25.146  1.00  0.00    +0.000 H 
BRANCH   19   20
ATOM    112  H20 UNL A   1      12.182   0.452  22.217  1.00  0.00    +0.000 H 
ATOM    113  H21 UNL A   1      11.579   1.559  20.151  1.00  0.00    +0.000 H 
ATOM    114  H22 UNL A   1      10.108   3.484  20.185  1.00  0.00    +0.000 H 
ATOM    115  H23 UNL A   1       9.821   3.173  24.370  1.00  0.00    +0.000 H 
ATOM     20  C15 UNL A   1      11.058   1.723  23.471  1.00  0.00    +0.000 C 
ATOM     21  C16 UNL A   1      11.552   1.270  22.241  1.00  0.00    +0.000 C 
ATOM     22  C17 UNL A   1      11.207   1.908  21.049  1.00  0.00    +0.000 C 
ATOM     23  C18 UNL A   1      10.363   3.016  21.068  1.00  0.00    +0.000 C 
ATOM     24  C19 UNL A   1       9.858   3.497  22.284  1.00  0.00    +0.000 C 
ATOM     25  C20 UNL A   1       8.943   4.697  22.301  1.00  0.00    +0.000 C 
ATOM     26  F1  UNL A   1       9.450   5.747  21.599  1.00  0.00    +0.000 F 
ATOM     27  F2  UNL A   1       7.726   4.431  21.757  1.00  0.00    +0.000 F 
ATOM     28  F3  UNL A   1       8.698   5.174  23.553  1.00  0.00    +0.000 F 
ATOM     29  C21 UNL A   1      10.204   2.834  23.474  1.00  0.00    +0.000 C 
ENDBRANCH   19   20
ENDBRANCH   18   19
ENDBRANCH   11   13
ENDBRANCH   10   11
ENDBRANCH    9   10
ENDBRANCH    8    9
ENDBRANCH    7    8
ENDBRANCH    6    7
ENDBRANCH    5    6
ENDBRANCH    4    5
ENDBRANCH    3    4
ENDBRANCH    2    3
ENDBRANCH   30    2
ENDBRANCH   34   33
BRANCH   38   39
ATOM     39  C30 UNL A   1      11.797   4.660  29.546  1.00  0.00    +0.000 C 
ATOM     40  C31 UNL A   1      12.993   4.166  29.006  1.00  0.00    +0.000 C 
ATOM     41  F4  UNL A   1      13.178   4.149  27.677  1.00  0.00    +0.000 F 
ATOM     42  C32 UNL A   1      13.999   3.664  29.829  1.00  0.00    +0.000 C 
ATOM     43  F5  UNL A   1      15.120   3.168  29.289  1.00  0.00    +0.000 F 
ATOM     44  C33 UNL A   1      13.840   3.671  31.207  1.00  0.00    +0.000 C 
ATOM     45  F6  UNL A   1      14.813   3.200  31.998  1.00  0.00    +0.000 F 
ATOM     46  C34 UNL A   1      12.669   4.164  31.764  1.00  0.00    +0.000 C 
ATOM     47  F7  UNL A   1      12.518   4.182  33.096  1.00  0.00    +0.000 F 
ATOM     48  C35 UNL A   1      11.652   4.644  30.942  1.00  0.00    +0.000 C 
ATOM     49  F8  UNL A   1      10.530   5.111  31.510  1.00  0.00    +0.000 F 
ENDBRANCH   38   39
BRANCH   55   56
ATOM     65  C46 UNL A   1      10.756  11.743  26.538  1.00  0.00    +0.000 C 
ATOM     66  F13 UNL A   1      11.388  10.987  25.628  1.00  0.00    +0.000 F 
ATOM     56  C41 UNL A   1       9.722  11.199  27.313  1.00  0.00    +0.000 C 
ATOM     57  C42 UNL A   1       9.095  12.030  28.254  1.00  0.00    +0.000 C 
ATOM     58  F9  UNL A   1       8.088  11.560  29.005  1.00  0.00    +0.000 F 
ATOM     59  C43 UNL A   1       9.466  13.365  28.388  1.00  0.00    +0.000 C 
ATOM     60  F10 UNL A   1       8.816  14.155  29.253  1.00  0.00    +0.000 F 
ATOM     61  C44 UNL A   1      10.492  13.882  27.612  1.00  0.00    +0.000 C 
ATOM     62  F11 UNL A   1      10.845  15.169  27.737  1.00  0.00    +0.000 F 
ATOM     63  C45 UNL A   1      11.143  13.071  26.694  1.00  0.00    +0.000 C 
ATOM     64  F12 UNL A   1      12.139  13.569  25.948  1.00  0.00    +0.000 F 
ENDBRANCH   55   56
BRANCH   70   71
ATOM     71  C50 UNL A   1       4.544   8.276  23.703  1.00  0.00    +0.000 C 
ATOM     72  C51 UNL A   1       3.269   8.541  24.217  1.00  0.00    +0.000 C 
ATOM     73  F14 UNL A   1       2.997   8.281  25.504  1.00  0.00    +0.000 F 
ATOM     74  C52 UNL A   1       2.258   9.044  23.400  1.00  0.00    +0.000 C 
ATOM     75  F15 UNL A   1       1.034   9.252  23.905  1.00  0.00    +0.000 F 
ATOM     76  C53 UNL A   1       2.512   9.320  22.066  1.00  0.00    +0.000 C 
ATOM     77  F16 UNL A   1       1.542   9.814  21.284  1.00  0.00    +0.000 F 
ATOM     78  C54 UNL A   1       3.772   9.080  21.539  1.00  0.00    +0.000 C 
ATOM     79  F17 UNL A   1       4.029   9.363  20.255  1.00  0.00    +0.000 F 
ATOM     80  C55 UNL A   1       4.774   8.548  22.346  1.00  0.00    +0.000 C 
ATOM     81  F18 UNL A   1       5.981   8.316  21.809  1.00  0.00    +0.000 F 
ENDBRANCH   70   71
TORSDOF 17
ENDMDL
MODEL 3
REMARK VINA RESULT:     -12.1     45.550     50.273
ROOT
ATOM     34  C26 UNL A   1      13.753  53.410   5.599  1.00  0.00    +0.000 C 
ATOM     35  C27 UNL A   1      13.302  51.980   5.495  1.00  0.00    +0.000 C 
ATOM     36  N4  UNL A   1      13.634  51.076   4.607  1.00  0.00    +0.000 N 
ATOM     37  C28 UNL A   1      12.959  49.918   4.968  1.00  0.00    +0.000 C 
ATOM     38  C29 UNL A   1      12.950  48.715   4.343  1.00  0.00    +0.000 C 
ATOM     50  C36 UNL A   1      13.683  48.418   3.137  1.00  0.00    +0.000 C 
ATOM     51  C37 UNL A   1      13.734  47.232   2.425  1.00  0.00    +0.000 C 
ATOM     52  C38 UNL A   1      14.596  47.407   1.338  1.00  0.00    +0.000 C 
ATOM     53  C39 UNL A   1      15.051  48.715   1.347  1.00  0.00    +0.000 C 
ATOM     54  N5  UNL A   1      14.491  49.321   2.462  1.00  0.00    +0.000 N 
ATOM     55  C40 UNL A   1      15.927  49.366   0.408  1.00  0.00    +0.000 C 
ATOM     67  C47 UNL A   1      16.322  50.661   0.478  1.00  0.00    +0.000 C 
ATOM     68  N6  UNL A   1      16.018  51.614   1.439  1.00  0.00    +0.000 N 
ATOM     69  C48 UNL A   1      16.680  52.691   1.096  1.00  0.00    +0.000 C 
ATOM     70  C49 UNL A   1      16.725  54.028   1.775  1.00  0.00    +0.000 C 
ATOM     82  C56 UNL A   1      16.022  54.208   2.909  1.00  0.00    +0.000 C 
ATOM     83  C57 UNL A   1      15.957  55.453   3.665  1.00  0.00    +0.000 C 
ATOM     84  C58 UNL A   1      15.178  55.268   4.740  1.00  0.00    +0.000 C 
ATOM     85  C59 UNL A   1      14.646  53.903   4.717  1.00  0.00    +0.000 C 
ATOM     86  N7  UNL A   1      15.235  53.334   3.618  1.00  0.00    +0.000 N 
ATOM     87  C60 UNL A   1      17.478  52.546  -0.128  1.00  0.00    +0.000 C 
ATOM     88  C61 UNL A   1      17.194  51.302  -0.485  1.00  0.00    +0.000 C 
ATOM     89  C62 UNL A   1      12.218  50.223   6.174  1.00  0.00    +0.000 C 
ATOM     90  C63 UNL A   1      12.366  51.495   6.521  1.00  0.00    +0.000 C 
ATOM    118  H26 UNL A   1      13.222  46.365   2.657  1.00  0.00    +0.000 H 
ATOM    119  H27 UNL A   1      14.850  46.685   0.645  1.00  0.00    +0.000 H 
ATOM    120  H28 UNL A   1      14.644  50.255   2.734  1.00  0.00    +0.000 H 
ATOM    121  H29 UNL A   1      16.431  56.335   3.412  1.00  0.00    +0.000 H 
ATOM    122  H30 UNL A   1      14.984  55.973   5.467  1.00  0.00    +0.000 H 
ATOM    123  H31 UNL A   1      15.107  52.393   3.362  1.00  0.00    +0.000 H 
ATOM    124  H32 UNL A   1      18.097  53.232  -0.589  1.00  0.00    +0.000 H 
ATOM    125  H33 UNL A   1      17.549  50.847  -1.341  1.00  0.00    +0.000 H 
ATOM    126  H34 UNL A   1      11.649  49.540   6.698  1.00  0.00    +0.000 H 
ATOM    127  H35 UNL A   1      11.936  52.011   7.304  1.00  0.00    +0.000 H 
ENDROOT
BRANCH   34   33
ATOM    129  H37 UNL A   1      13.649  55.528   9.725  1.00  0.00    +0.000 H 
ATOM     33  C25 UNL A   1      13.189  54.335   6.615  1.00  0.00    +0.000 C 
ATOM    116  H24 UNL A   1      10.782  56.665   6.866  1.00  0.00    +0.000 H 
ATOM    117  H25 UNL A   1      11.592  54.945   5.368  1.00  0.00    +0.000 H 
ATOM     91  C64 UNL A   1      13.790  54.527   7.868  1.00  0.00    +0.000 C 
ATOM     92  C65 UNL A   1      13.225  55.415   8.790  1.00  0.00    +0.000 C 
ATOM    128  H36 UNL A   1      14.651  54.011   8.111  1.00  0.00    +0.000 H 
ATOM     30  C22 UNL A   1      12.086  56.149   8.444  1.00  0.00    +0.000 C 
ATOM     31  C23 UNL A   1      11.550  56.042   7.160  1.00  0.00    +0.000 C 
ATOM     32  C24 UNL A   1      12.055  55.093   6.279  1.00  0.00    +0.000 C 
BRANCH   30    2
ATOM      1  O1  UNL A   1      11.683  58.233   9.445  1.00  0.00    +0.000 O 
ATOM      2  C1  UNL A   1      11.454  57.027   9.456  1.00  0.00    +0.000 C 
BRANCH    2    3
ATOM      3  N1  UNL A   1      10.644  56.479  10.424  1.00  0.00    +0.000 N 
ATOM     93  H1  UNL A   1       9.751  56.198  10.123  1.00  0.00    +0.000 H 
BRANCH    3    4
ATOM      4  C2  UNL A   1      10.930  56.260  11.832  1.00  0.00    +0.000 C 
ATOM     94  H2  UNL A   1      10.007  56.281  12.371  1.00  0.00    +0.000 H 
ATOM     95  H3  UNL A   1      11.598  57.037  12.142  1.00  0.00    +0.000 H 
BRANCH    4    5
ATOM     97  H5  UNL A   1      10.842  54.229  12.297  1.00  0.00    +0.000 H 
ATOM      5  C3  UNL A   1      11.624  54.936  12.112  1.00  0.00    +0.000 C 
ATOM     96  H4  UNL A   1      12.230  54.696  11.263  1.00  0.00    +0.000 H 
BRANCH    5    6
ATOM     98  H6  UNL A   1      11.887  55.006  14.209  1.00  0.00    +0.000 H 
ATOM     99  H7  UNL A   1      13.215  55.707  13.222  1.00  0.00    +0.000 H 
ATOM      6  C4  UNL A   1      12.516  54.906  13.350  1.00  0.00    +0.000 C 
BRANCH    6    7
ATOM    100  H8  UNL A   1      12.711  52.801  13.474  1.00  0.00    +0.000 H 
ATOM    101  H9  UNL A   1      13.847  53.765  14.485  1.00  0.00    +0.000 H 
ATOM      7  C5  UNL A   1      13.366  53.646  13.537  1.00  0.00    +0.000 C 
BRANCH    7    8
ATOM    102  H10 UNL A   1      15.348  53.996  12.863  1.00  0.00    +0.000 H 
ATOM    103  H11 UNL A   1      14.113  53.743  11.583  1.00  0.00    +0.000 H 
ATOM      8  C6  UNL A   1      14.503  53.430  12.529  1.00  0.00    +0.000 C 
BRANCH    8    9
ATOM      9  C7  UNL A   1      14.955  51.986  12.333  1.00  0.00    +0.000 C 
ATOM    105  H13 UNL A   1      15.787  51.814  12.983  1.00  0.00    +0.000 H 
ATOM    104  H12 UNL A   1      14.136  51.335  12.561  1.00  0.00    +0.000 H 
BRANCH    9   10
ATOM     10  N2  UNL A   1      15.393  51.722  10.975  1.00  0.00    +0.000 N 
ATOM    106  H14 UNL A   1      16.357  51.839  10.808  1.00  0.00    +0.000 H 
BRANCH   10   11
ATOM     11  C8  UNL A   1      14.649  51.329   9.893  1.00  0.00    +0.000 C 
ATOM     12  O2  UNL A   1      13.458  51.619   9.828  1.00  0.00    +0.000 O 
BRANCH   11   13
ATOM    107  H15 UNL A   1      15.909  52.385   7.870  1.00  0.00    +0.000 H 
ATOM    108  H16 UNL A   1      16.976  51.305   5.977  1.00  0.00    +0.000 H 
ATOM     13  C9  UNL A   1      15.275  50.582   8.782  1.00  0.00    +0.000 C 
ATOM     14  C10 UNL A   1      15.901  51.355   7.791  1.00  0.00    +0.000 C 
ATOM     15  C11 UNL A   1      16.512  50.738   6.703  1.00  0.00    +0.000 C 
ATOM    110  H18 UNL A   1      15.850  47.553   7.491  1.00  0.00    +0.000 H 
ATOM     17  C13 UNL A   1      15.852  48.582   7.579  1.00  0.00    +0.000 C 
ATOM     18  C14 UNL A   1      15.213  49.177   8.679  1.00  0.00    +0.000 C 
ATOM     16  C12 UNL A   1      16.491  49.350   6.600  1.00  0.00    +0.000 C 
ATOM    109  H17 UNL A   1      16.949  48.888   5.800  1.00  0.00    +0.000 H 
BRANCH   18   19
ATOM     19  N3  UNL A   1      14.569  48.390   9.657  1.00  0.00    +0.000 N 
ATOM    111  H19 UNL A   1      15.102  48.241  10.473  1.00  0.00    +0.000 H 
BRANCH   19   20
ATOM    112  H20 UNL A   1      14.024  45.963  10.462  1.00  0.00    +0.000 H 
ATOM    113  H21 UNL A   1      11.858  44.894  10.617  1.00  0.00    +0.000 H 
ATOM    114  H22 UNL A   1       9.864  46.076   9.913  1.00  0.00    +0.000 H 
ATOM    115  H23 UNL A   1      12.213  49.422   8.924  1.00  0.00    +0.000 H 
ATOM     20  C15 UNL A   1      13.303  47.782   9.674  1.00  0.00    +0.000 C 
ATOM     21  C16 UNL A   1      13.180  46.476  10.163  1.00  0.00    +0.000 C 
ATOM     22  C17 UNL A   1      11.932  45.856  10.251  1.00  0.00    +0.000 C 
ATOM     23  C18 UNL A   1      10.785  46.535   9.845  1.00  0.00    +0.000 C 
ATOM     24  C19 UNL A   1      10.878  47.841   9.344  1.00  0.00    +0.000 C 
ATOM     25  C20 UNL A   1       9.634  48.574   8.906  1.00  0.00    +0.000 C 
ATOM     26  F1  UNL A   1       8.871  47.837   8.052  1.00  0.00    +0.000 F 
ATOM     27  F2  UNL A   1       8.826  48.898   9.951  1.00  0.00    +0.000 F 
ATOM     28  F3  UNL A   1       9.893  49.742   8.255  1.00  0.00    +0.000 F 
ATOM     29  C21 UNL A   1      12.141  48.454   9.276  1.00  0.00    +0.000 C 
ENDBRANCH   19   20
ENDBRANCH   18   19
ENDBRANCH   11   13
ENDBRANCH   10   11
ENDBRANCH    9   10
ENDBRANCH    8    9
ENDBRANCH    7    8
ENDBRANCH    6    7
ENDBRANCH    5    6
ENDBRANCH    4    5
ENDBRANCH    3    4
ENDBRANCH    2    3
ENDBRANCH   30    2
ENDBRANCH   34   33
BRANCH   38   39
ATOM     39  C30 UNL A   1      12.125  47.617   4.949  1.00  0.00    +0.000 C 
ATOM     40  C31 UNL A   1      12.670  46.716   5.874  1.00  0.00    +0.000 C 
ATOM     41  F4  UNL A   1      13.974  46.772   6.182  1.00  0.00    +0.000 F 
ATOM     42  C32 UNL A   1      11.881  45.734   6.471  1.00  0.00    +0.000 C 
ATOM     43  F5  UNL A   1      12.431  44.865   7.328  1.00  0.00    +0.000 F 
ATOM     44  C33 UNL A   1      10.528  45.653   6.176  1.00  0.00    +0.000 C 
ATOM     45  F6  UNL A   1       9.768  44.718   6.761  1.00  0.00    +0.000 F 
ATOM     46  C34 UNL A   1       9.965  46.541   5.270  1.00  0.00    +0.000 C 
ATOM     47  F7  UNL A   1       8.656  46.470   4.993  1.00  0.00    +0.000 F 
ATOM     48  C35 UNL A   1      10.756  47.507   4.655  1.00  0.00    +0.000 C 
ATOM     49  F8  UNL A   1      10.183  48.349   3.781  1.00  0.00    +0.000 F 
ENDBRANCH   38   39
BRANCH   55   56
ATOM     65  C46 UNL A   1      17.721  47.994  -0.713  1.00  0.00    +0.000 C 
ATOM     66  F13 UNL A   1      18.502  48.154   0.365  1.00  0.00    +0.000 F 
ATOM     56  C41 UNL A   1      16.442  48.568  -0.752  1.00  0.00    +0.000 C 
ATOM     57  C42 UNL A   1      15.666  48.373  -1.905  1.00  0.00    +0.000 C 
ATOM     58  F9  UNL A   1      14.429  48.888  -1.980  1.00  0.00    +0.000 F 
ATOM     59  C43 UNL A   1      16.138  47.603  -2.963  1.00  0.00    +0.000 C 
ATOM     60  F10 UNL A   1      15.358  47.383  -4.029  1.00  0.00    +0.000 F 
ATOM     61  C44 UNL A   1      17.406  47.043  -2.904  1.00  0.00    +0.000 C 
ATOM     62  F11 UNL A   1      17.858  46.297  -3.920  1.00  0.00    +0.000 F 
ATOM     63  C45 UNL A   1      18.200  47.246  -1.785  1.00  0.00    +0.000 C 
ATOM     64  F12 UNL A   1      19.428  46.711  -1.730  1.00  0.00    +0.000 F 
ENDBRANCH   55   56
BRANCH   70   71
ATOM     71  C50 UNL A   1      17.532  55.147   1.225  1.00  0.00    +0.000 C 
ATOM     72  C51 UNL A   1      18.804  55.442   1.732  1.00  0.00    +0.000 C 
ATOM     73  F14 UNL A   1      19.300  54.729   2.754  1.00  0.00    +0.000 F 
ATOM     74  C52 UNL A   1      19.557  56.493   1.213  1.00  0.00    +0.000 C 
ATOM     75  F15 UNL A   1      20.754  56.782   1.742  1.00  0.00    +0.000 F 
ATOM     76  C53 UNL A   1      19.066  57.247   0.157  1.00  0.00    +0.000 C 
ATOM     77  F16 UNL A   1      19.796  58.251  -0.348  1.00  0.00    +0.000 F 
ATOM     78  C54 UNL A   1      17.817  56.963  -0.371  1.00  0.00    +0.000 C 
ATOM     79  F17 UNL A   1      17.346  57.676  -1.403  1.00  0.00    +0.000 F 
ATOM     80  C55 UNL A   1      17.050  55.934   0.168  1.00  0.00    +0.000 C 
ATOM     81  F18 UNL A   1      15.841  55.686  -0.356  1.00  0.00    +0.000 F 
ENDBRANCH   70   71
TORSDOF 17
ENDMDL
MODEL 4
REMARK VINA RESULT:     -12.0     41.212     47.620
ROOT
ATOM     34  C26 UNL A   1      10.670   2.931  21.314  1.00  0.00    +0.000 C 
ATOM     35  C27 UNL A   1       9.747   3.865  22.044  1.00  0.00    +0.000 C 
ATOM     36  N4  UNL A   1       9.326   5.052  21.684  1.00  0.00    +0.000 N 
ATOM     37  C28 UNL A   1       8.481   5.483  22.698  1.00  0.00    +0.000 C 
ATOM     38  C29 UNL A   1       7.823   6.663  22.805  1.00  0.00    +0.000 C 
ATOM     50  C36 UNL A   1       7.889   7.724  21.831  1.00  0.00    +0.000 C 
ATOM     51  C37 UNL A   1       7.263   8.959  21.853  1.00  0.00    +0.000 C 
ATOM     52  C38 UNL A   1       7.601   9.645  20.681  1.00  0.00    +0.000 C 
ATOM     53  C39 UNL A   1       8.471   8.855  19.947  1.00  0.00    +0.000 C 
ATOM     54  N5  UNL A   1       8.631   7.676  20.659  1.00  0.00    +0.000 N 
ATOM     55  C40 UNL A   1       9.112   9.154  18.694  1.00  0.00    +0.000 C 
ATOM     67  C47 UNL A   1       9.964   8.329  18.038  1.00  0.00    +0.000 C 
ATOM     68  N6  UNL A   1      10.379   7.052  18.383  1.00  0.00    +0.000 N 
ATOM     69  C48 UNL A   1      11.156   6.652  17.405  1.00  0.00    +0.000 C 
ATOM     70  C49 UNL A   1      11.882   5.348  17.249  1.00  0.00    +0.000 C 
ATOM     82  C56 UNL A   1      11.746   4.408  18.202  1.00  0.00    +0.000 C 
ATOM     83  C57 UNL A   1      12.403   3.106  18.193  1.00  0.00    +0.000 C 
ATOM     84  C58 UNL A   1      12.032   2.426  19.287  1.00  0.00    +0.000 C 
ATOM     85  C59 UNL A   1      11.152   3.267  20.101  1.00  0.00    +0.000 C 
ATOM     86  N7  UNL A   1      11.003   4.410  19.358  1.00  0.00    +0.000 N 
ATOM     87  C60 UNL A   1      11.327   7.636  16.329  1.00  0.00    +0.000 C 
ATOM     88  C61 UNL A   1      10.611   8.654  16.782  1.00  0.00    +0.000 C 
ATOM     89  C62 UNL A   1       8.425   4.418  23.678  1.00  0.00    +0.000 C 
ATOM     90  C63 UNL A   1       9.219   3.411  23.339  1.00  0.00    +0.000 C 
ATOM    118  H26 UNL A   1       6.651   9.314  22.605  1.00  0.00    +0.000 H 
ATOM    119  H27 UNL A   1       7.260  10.581  20.409  1.00  0.00    +0.000 H 
ATOM    120  H28 UNL A   1       9.189   6.916  20.376  1.00  0.00    +0.000 H 
ATOM    121  H29 UNL A   1      13.050   2.765  17.465  1.00  0.00    +0.000 H 
ATOM    122  H30 UNL A   1      12.320   1.462  19.518  1.00  0.00    +0.000 H 
ATOM    123  H31 UNL A   1      10.422   5.157  19.625  1.00  0.00    +0.000 H 
ATOM    124  H32 UNL A   1      11.864   7.555  15.451  1.00  0.00    +0.000 H 
ATOM    125  H33 UNL A   1      10.524   9.563  16.302  1.00  0.00    +0.000 H 
ATOM    126  H34 UNL A   1       7.842   4.439  24.529  1.00  0.00    +0.000 H 
ATOM    127  H35 UNL A   1       9.417   2.537  23.852  1.00  0.00    +0.000 H 
ENDROOT
BRANCH   34   33
ATOM    129  H37 UNL A   1      10.358  -1.594  22.286  1.00  0.00    +0.000 H 
ATOM     33  C25 UNL A   1      11.133   1.657  21.922  1.00  0.00    +0.000 C 
ATOM    116  H24 UNL A   1      13.830   0.438  23.512  1.00  0.00    +0.000 H 
ATOM    117  H25 UNL A   1      12.883   2.525  22.734  1.00  0.00    +0.000 H 
ATOM     91  C64 UNL A   1      10.421   0.457  21.778  1.00  0.00    +0.000 C 
ATOM     92  C65 UNL A   1      10.901  -0.720  22.363  1.00  0.00    +0.000 C 
ATOM    128  H36 UNL A   1       9.540   0.442  21.239  1.00  0.00    +0.000 H 
ATOM     30  C22 UNL A   1      12.118  -0.711  23.053  1.00  0.00    +0.000 C 
ATOM     31  C23 UNL A   1      12.882   0.456  23.104  1.00  0.00    +0.000 C 
ATOM     32  C24 UNL A   1      12.362   1.644  22.604  1.00  0.00    +0.000 C 
BRANCH   30    2
ATOM      1  O1  UNL A   1      12.111  -3.031  23.403  1.00  0.00    +0.000 O 
ATOM      2  C1  UNL A   1      12.576  -1.944  23.732  1.00  0.00    +0.000 C 
BRANCH    2    3
ATOM      3  N1  UNL A   1      13.493  -1.859  24.755  1.00  0.00    +0.000 N 
ATOM     93  H1  UNL A   1      14.439  -1.868  24.481  1.00  0.00    +0.000 H 
BRANCH    3    4
ATOM      4  C2  UNL A   1      13.254  -1.758  26.185  1.00  0.00    +0.000 C 
ATOM     94  H2  UNL A   1      13.994  -2.341  26.693  1.00  0.00    +0.000 H 
ATOM     95  H3  UNL A   1      12.262  -2.117  26.364  1.00  0.00    +0.000 H 
BRANCH    4    5
ATOM     97  H5  UNL A   1      12.469   0.171  26.295  1.00  0.00    +0.000 H 
ATOM      5  C3  UNL A   1      13.317  -0.333  26.712  1.00  0.00    +0.000 C 
ATOM     96  H4  UNL A   1      13.309  -0.376  27.781  1.00  0.00    +0.000 H 
BRANCH    5    6
ATOM     98  H6  UNL A   1      14.742   0.243  25.259  1.00  0.00    +0.000 H 
ATOM     99  H7  UNL A   1      15.319   0.203  26.961  1.00  0.00    +0.000 H 
ATOM      6  C4  UNL A   1      14.538   0.477  26.283  1.00  0.00    +0.000 C 
BRANCH    6    7
ATOM    100  H8  UNL A   1      13.760   2.331  25.614  1.00  0.00    +0.000 H 
ATOM    101  H9  UNL A   1      15.410   2.374  26.335  1.00  0.00    +0.000 H 
ATOM      7  C5  UNL A   1      14.409   1.999  26.398  1.00  0.00    +0.000 C 
BRANCH    7    8
ATOM    102  H10 UNL A   1      14.241   1.932  28.512  1.00  0.00    +0.000 H 
ATOM    103  H11 UNL A   1      12.791   2.510  27.624  1.00  0.00    +0.000 H 
ATOM      8  C6  UNL A   1      13.856   2.542  27.722  1.00  0.00    +0.000 C 
BRANCH    8    9
ATOM      9  C7  UNL A   1      14.198   3.994  28.043  1.00  0.00    +0.000 C 
ATOM    105  H13 UNL A   1      14.962   4.307  27.362  1.00  0.00    +0.000 H 
ATOM    104  H12 UNL A   1      13.312   4.587  27.940  1.00  0.00    +0.000 H 
BRANCH    9   10
ATOM     10  N2  UNL A   1      14.712   4.158  29.390  1.00  0.00    +0.000 N 
ATOM    106  H14 UNL A   1      15.567   3.707  29.577  1.00  0.00    +0.000 H 
BRANCH   10   11
ATOM     11  C8  UNL A   1      14.171   4.858  30.437  1.00  0.00    +0.000 C 
ATOM     12  O2  UNL A   1      14.100   4.343  31.549  1.00  0.00    +0.000 O 
BRANCH   11   13
ATOM    107  H15 UNL A   1      15.686   6.968  30.221  1.00  0.00    +0.000 H 
ATOM    108  H16 UNL A   1      15.066   9.294  29.918  1.00  0.00    +0.000 H 
ATOM     13  C9  UNL A   1      13.697   6.245  30.249  1.00  0.00    +0.000 C 
ATOM     14  C10 UNL A   1      14.690   7.232  30.160  1.00  0.00    +0.000 C 
ATOM     15  C11 UNL A   1      14.336   8.568  29.989  1.00  0.00    +0.000 C 
ATOM    110  H18 UNL A   1      11.009   8.211  29.958  1.00  0.00    +0.000 H 
ATOM     17  C13 UNL A   1      12.002   7.935  30.021  1.00  0.00    +0.000 C 
ATOM     18  C14 UNL A   1      12.328   6.582  30.211  1.00  0.00    +0.000 C 
ATOM     16  C12 UNL A   1      12.992   8.918  29.914  1.00  0.00    +0.000 C 
ATOM    109  H17 UNL A   1      12.725   9.905  29.780  1.00  0.00    +0.000 H 
BRANCH   18   19
ATOM     19  N3  UNL A   1      11.319   5.602  30.320  1.00  0.00    +0.000 N 
ATOM    111  H19 UNL A   1      11.214   5.225  31.224  1.00  0.00    +0.000 H 
BRANCH   19   20
ATOM    112  H20 UNL A   1       9.226   6.790  29.299  1.00  0.00    +0.000 H 
ATOM    113  H21 UNL A   1       7.735   5.970  27.579  1.00  0.00    +0.000 H 
ATOM    114  H22 UNL A   1       8.062   3.761  26.636  1.00  0.00    +0.000 H 
ATOM    115  H23 UNL A   1      11.405   3.208  29.129  1.00  0.00    +0.000 H 
ATOM     20  C15 UNL A   1      10.439   5.066  29.365  1.00  0.00    +0.000 C 
ATOM     21  C16 UNL A   1       9.375   5.850  28.901  1.00  0.00    +0.000 C 
ATOM     22  C17 UNL A   1       8.513   5.377  27.911  1.00  0.00    +0.000 C 
ATOM     23  C18 UNL A   1       8.700   4.107  27.369  1.00  0.00    +0.000 C 
ATOM     24  C19 UNL A   1       9.752   3.297  27.819  1.00  0.00    +0.000 C 
ATOM     25  C20 UNL A   1       9.952   1.922  27.230  1.00  0.00    +0.000 C 
ATOM     26  F1  UNL A   1       8.807   1.184  27.232  1.00  0.00    +0.000 F 
ATOM     27  F2  UNL A   1      10.370   1.965  25.937  1.00  0.00    +0.000 F 
ATOM     28  F3  UNL A   1      10.874   1.174  27.899  1.00  0.00    +0.000 F 
ATOM     29  C21 UNL A   1      10.618   3.794  28.807  1.00  0.00    +0.000 C 
ENDBRANCH   19   20
ENDBRANCH   18   19
ENDBRANCH   11   13
ENDBRANCH   10   11
ENDBRANCH    9   10
ENDBRANCH    8    9
ENDBRANCH    7    8
ENDBRANCH    6    7
ENDBRANCH    5    6
ENDBRANCH    4    5
ENDBRANCH    3    4
ENDBRANCH    2    3
ENDBRANCH   30    2
ENDBRANCH   34   33
BRANCH   38   39
ATOM     39  C30 UNL A   1       6.966   6.879  24.019  1.00  0.00    +0.000 C 
ATOM     40  C31 UNL A   1       7.423   7.623  25.116  1.00  0.00    +0.000 C 
ATOM     41  F4  UNL A   1       8.677   8.098  25.133  1.00  0.00    +0.000 F 
ATOM     42  C32 UNL A   1       6.599   7.862  26.214  1.00  0.00    +0.000 C 
ATOM     43  F5  UNL A   1       7.068   8.549  27.264  1.00  0.00    +0.000 F 
ATOM     44  C33 UNL A   1       5.296   7.387  26.224  1.00  0.00    +0.000 C 
ATOM     45  F6  UNL A   1       4.501   7.630  27.275  1.00  0.00    +0.000 F 
ATOM     46  C34 UNL A   1       4.819   6.657  25.146  1.00  0.00    +0.000 C 
ATOM     47  F7  UNL A   1       3.557   6.207  25.150  1.00  0.00    +0.000 F 
ATOM     48  C35 UNL A   1       5.648   6.396  24.057  1.00  0.00    +0.000 C 
ATOM     49  F8  UNL A   1       5.159   5.684  23.031  1.00  0.00    +0.000 F 
ENDBRANCH   38   39
BRANCH   55   56
ATOM     65  C46 UNL A   1       9.647  11.592  18.337  1.00  0.00    +0.000 C 
ATOM     66  F13 UNL A   1      10.679  11.478  19.186  1.00  0.00    +0.000 F 
ATOM     56  C41 UNL A   1       8.837  10.483  18.055  1.00  0.00    +0.000 C 
ATOM     57  C42 UNL A   1       7.768  10.656  17.163  1.00  0.00    +0.000 C 
ATOM     58  F9  UNL A   1       6.976   9.619  16.849  1.00  0.00    +0.000 F 
ATOM     59  C43 UNL A   1       7.541  11.883  16.549  1.00  0.00    +0.000 C 
ATOM     60  F10 UNL A   1       6.549  12.011  15.658  1.00  0.00    +0.000 F 
ATOM     61  C44 UNL A   1       8.354  12.968  16.842  1.00  0.00    +0.000 C 
ATOM     62  F11 UNL A   1       8.138  14.148  16.246  1.00  0.00    +0.000 F 
ATOM     63  C45 UNL A   1       9.400  12.826  17.741  1.00  0.00    +0.000 C 
ATOM     64  F12 UNL A   1      10.183  13.875  18.030  1.00  0.00    +0.000 F 
ENDBRANCH   55   56
BRANCH   70   71
ATOM     71  C50 UNL A   1      12.736   5.078  16.065  1.00  0.00    +0.000 C 
ATOM     72  C51 UNL A   1      12.223   4.435  14.932  1.00  0.00    +0.000 C 
ATOM     73  F14 UNL A   1      10.946   4.023  14.914  1.00  0.00    +0.000 F 
ATOM     74  C52 UNL A   1      13.029   4.183  13.823  1.00  0.00    +0.000 C 
ATOM     75  F15 UNL A   1      12.526   3.530  12.767  1.00  0.00    +0.000 F 
ATOM     76  C53 UNL A   1      14.353   4.597  13.816  1.00  0.00    +0.000 C 
ATOM     77  F16 UNL A   1      15.124   4.363  12.745  1.00  0.00    +0.000 F 
ATOM     78  C54 UNL A   1      14.878   5.249  14.921  1.00  0.00    +0.000 C 
ATOM     79  F17 UNL A   1      16.150   5.667  14.912  1.00  0.00    +0.000 F 
ATOM     80  C55 UNL A   1      14.083   5.473  16.041  1.00  0.00    +0.000 C 
ATOM     81  F18 UNL A   1      14.619   6.097  17.099  1.00  0.00    +0.000 F 
ENDBRANCH   70   71
TORSDOF 17
ENDMDL
MODEL 5
REMARK VINA RESULT:     -12.0     43.013     46.663
ROOT
ATOM     34  C26 UNL A   1      28.988 -14.149  31.036  1.00  0.00    +0.000 C 
ATOM     35  C27 UNL A   1      28.753 -14.248  32.517  1.00  0.00    +0.000 C 
ATOM     36  N4  UNL A   1      27.772 -13.751  33.229  1.00  0.00    +0.000 N 
ATOM     37  C28 UNL A   1      28.013 -14.142  34.540  1.00  0.00    +0.000 C 
ATOM     38  C29 UNL A   1      27.299 -13.848  35.653  1.00  0.00    +0.000 C 
ATOM     50  C36 UNL A   1      26.103 -13.043  35.666  1.00  0.00    +0.000 C 
ATOM     51  C37 UNL A   1      25.312 -12.685  36.744  1.00  0.00    +0.000 C 
ATOM     52  C38 UNL A   1      24.242 -11.918  36.271  1.00  0.00    +0.000 C 
ATOM     53  C39 UNL A   1      24.388 -11.762  34.903  1.00  0.00    +0.000 C 
ATOM     54  N5  UNL A   1      25.528 -12.466  34.543  1.00  0.00    +0.000 N 
ATOM     55  C40 UNL A   1      23.554 -11.024  33.991  1.00  0.00    +0.000 C 
ATOM     67  C47 UNL A   1      23.768 -10.908  32.658  1.00  0.00    +0.000 C 
ATOM     68  N6  UNL A   1      24.774 -11.468  31.884  1.00  0.00    +0.000 N 
ATOM     69  C48 UNL A   1      24.518 -11.109  30.650  1.00  0.00    +0.000 C 
ATOM     70  C49 UNL A   1      25.278 -11.432  29.397  1.00  0.00    +0.000 C 
ATOM     82  C56 UNL A   1      26.373 -12.208  29.480  1.00  0.00    +0.000 C 
ATOM     83  C57 UNL A   1      27.218 -12.588  28.353  1.00  0.00    +0.000 C 
ATOM     84  C58 UNL A   1      28.209 -13.372  28.798  1.00  0.00    +0.000 C 
ATOM     85  C59 UNL A   1      28.099 -13.505  30.253  1.00  0.00    +0.000 C 
ATOM     86  N7  UNL A   1      26.956 -12.817  30.565  1.00  0.00    +0.000 N 
ATOM     87  C60 UNL A   1      23.322 -10.272  30.500  1.00  0.00    +0.000 C 
ATOM     88  C61 UNL A   1      22.924 -10.148  31.757  1.00  0.00    +0.000 C 
ATOM     89  C62 UNL A   1      29.219 -14.943  34.523  1.00  0.00    +0.000 C 
ATOM     90  C63 UNL A   1      29.737 -15.007  33.303  1.00  0.00    +0.000 C 
ATOM    118  H26 UNL A   1      25.482 -12.941  37.731  1.00  0.00    +0.000 H 
ATOM    119  H27 UNL A   1      23.474 -11.533  36.844  1.00  0.00    +0.000 H 
ATOM    120  H28 UNL A   1      25.878 -12.543  33.626  1.00  0.00    +0.000 H 
ATOM    121  H29 UNL A   1      27.076 -12.298  27.372  1.00  0.00    +0.000 H 
ATOM    122  H30 UNL A   1      28.933 -13.812  28.210  1.00  0.00    +0.000 H 
ATOM    123  H31 UNL A   1      26.588 -12.763  31.476  1.00  0.00    +0.000 H 
ATOM    124  H32 UNL A   1      22.901  -9.883  29.641  1.00  0.00    +0.000 H 
ATOM    125  H33 UNL A   1      22.115  -9.581  32.059  1.00  0.00    +0.000 H 
ATOM    126  H34 UNL A   1      29.624 -15.405  35.352  1.00  0.00    +0.000 H 
ATOM    127  H35 UNL A   1      30.605 -15.469  32.988  1.00  0.00    +0.000 H 
ENDROOT
BRANCH   34   33
ATOM    129  H37 UNL A   1      33.437 -13.971  29.735  1.00  0.00    +0.000 H 
ATOM     33  C25 UNL A   1      30.220 -14.685  30.403  1.00  0.00    +0.000 C 
ATOM    116  H24 UNL A   1      31.340 -17.555  29.062  1.00  0.00    +0.000 H 
ATOM    117  H25 UNL A   1      29.306 -16.515  29.861  1.00  0.00    +0.000 H 
ATOM     91  C64 UNL A   1      31.424 -13.966  30.382  1.00  0.00    +0.000 C 
ATOM     92  C65 UNL A   1      32.561 -14.516  29.780  1.00  0.00    +0.000 C 
ATOM    128  H36 UNL A   1      31.472 -13.028  30.812  1.00  0.00    +0.000 H 
ATOM     30  C22 UNL A   1      32.510 -15.806  29.240  1.00  0.00    +0.000 C 
ATOM     31  C23 UNL A   1      31.345 -16.566  29.357  1.00  0.00    +0.000 C 
ATOM     32  C24 UNL A   1      30.192 -15.985  29.870  1.00  0.00    +0.000 C 
BRANCH   30    2
ATOM      1  O1  UNL A   1      34.448 -17.123  29.119  1.00  0.00    +0.000 O 
ATOM      2  C1  UNL A   1      33.697 -16.345  28.538  1.00  0.00    +0.000 C 
BRANCH    2    3
ATOM      3  N1  UNL A   1      33.970 -15.942  27.251  1.00  0.00    +0.000 N 
ATOM     93  H1  UNL A   1      34.918 -15.766  27.051  1.00  0.00    +0.000 H 
BRANCH    3    4
ATOM      4  C2  UNL A   1      33.047 -15.741  26.145  1.00  0.00    +0.000 C 
ATOM     94  H2  UNL A   1      32.054 -15.927  26.497  1.00  0.00    +0.000 H 
ATOM     95  H3  UNL A   1      33.336 -16.418  25.368  1.00  0.00    +0.000 H 
BRANCH    4    5
ATOM     97  H5  UNL A   1      34.125 -14.040  25.604  1.00  0.00    +0.000 H 
ATOM      5  C3  UNL A   1      33.099 -14.339  25.559  1.00  0.00    +0.000 C 
ATOM     96  H4  UNL A   1      32.705 -14.383  24.565  1.00  0.00    +0.000 H 
BRANCH    5    6
ATOM     98  H6  UNL A   1      32.936 -12.403  26.394  1.00  0.00    +0.000 H 
ATOM     99  H7  UNL A   1      32.078 -13.716  27.270  1.00  0.00    +0.000 H 
ATOM      6  C4  UNL A   1      32.319 -13.274  26.326  1.00  0.00    +0.000 C 
BRANCH    6    7
ATOM    100  H8  UNL A   1      30.201 -13.280  26.314  1.00  0.00    +0.000 H 
ATOM    101  H9  UNL A   1      31.005 -13.200  24.704  1.00  0.00    +0.000 H 
ATOM      7  C5  UNL A   1      30.979 -12.851  25.716  1.00  0.00    +0.000 C 
BRANCH    7    8
ATOM    102  H10 UNL A   1      31.314 -10.858  26.361  1.00  0.00    +0.000 H 
ATOM    103  H11 UNL A   1      29.662 -11.225  25.760  1.00  0.00    +0.000 H 
ATOM      8  C6  UNL A   1      30.716 -11.343  25.619  1.00  0.00    +0.000 C 
BRANCH    8    9
ATOM      9  C7  UNL A   1      31.028 -10.697  24.271  1.00  0.00    +0.000 C 
ATOM    105  H13 UNL A   1      31.633 -11.381  23.715  1.00  0.00    +0.000 H 
ATOM    104  H12 UNL A   1      30.105 -10.489  23.768  1.00  0.00    +0.000 H 
BRANCH    9   10
ATOM     10  N2  UNL A   1      31.770  -9.458  24.409  1.00  0.00    +0.000 N 
ATOM    106  H14 UNL A   1      31.247  -8.680  24.708  1.00  0.00    +0.000 H 
BRANCH   10   11
ATOM     11  C8  UNL A   1      33.102  -9.224  24.181  1.00  0.00    +0.000 C 
ATOM     12  O2  UNL A   1      33.447  -8.300  23.452  1.00  0.00    +0.000 O 
BRANCH   11   13
ATOM    107  H15 UNL A   1      34.146 -11.398  23.194  1.00  0.00    +0.000 H 
ATOM    108  H16 UNL A   1      35.829 -12.871  24.133  1.00  0.00    +0.000 H 
ATOM     13  C9  UNL A   1      34.133 -10.058  24.832  1.00  0.00    +0.000 C 
ATOM     14  C10 UNL A   1      34.553 -11.192  24.120  1.00  0.00    +0.000 C 
ATOM     15  C11 UNL A   1      35.517 -12.040  24.659  1.00  0.00    +0.000 C 
ATOM    110  H18 UNL A   1      36.038 -10.442  27.552  1.00  0.00    +0.000 H 
ATOM     17  C13 UNL A   1      35.624 -10.639  26.627  1.00  0.00    +0.000 C 
ATOM     18  C14 UNL A   1      34.641  -9.775  26.117  1.00  0.00    +0.000 C 
ATOM     16  C12 UNL A   1      36.056 -11.760  25.911  1.00  0.00    +0.000 C 
ATOM    109  H17 UNL A   1      36.776 -12.381  26.310  1.00  0.00    +0.000 H 
BRANCH   18   19
ATOM     19  N3  UNL A   1      34.213  -8.649  26.852  1.00  0.00    +0.000 N 
ATOM    111  H19 UNL A   1      34.649  -7.805  26.592  1.00  0.00    +0.000 H 
BRANCH   19   20
ATOM    112  H20 UNL A   1      33.961  -6.613  28.473  1.00  0.00    +0.000 H 
ATOM    113  H21 UNL A   1      32.304  -6.281  30.206  1.00  0.00    +0.000 H 
ATOM    114  H22 UNL A   1      30.647  -7.993  30.650  1.00  0.00    +0.000 H 
ATOM    115  H23 UNL A   1      32.298 -10.364  27.592  1.00  0.00    +0.000 H 
ATOM     20  C15 UNL A   1      33.274  -8.520  27.889  1.00  0.00    +0.000 C 
ATOM     21  C16 UNL A   1      33.257  -7.346  28.653  1.00  0.00    +0.000 C 
ATOM     22  C17 UNL A   1      32.304  -7.154  29.654  1.00  0.00    +0.000 C 
ATOM     23  C18 UNL A   1      31.352  -8.138  29.910  1.00  0.00    +0.000 C 
ATOM     24  C19 UNL A   1      31.349  -9.327  29.168  1.00  0.00    +0.000 C 
ATOM     25  C20 UNL A   1      30.316 -10.391  29.448  1.00  0.00    +0.000 C 
ATOM     26  F1  UNL A   1      30.242 -10.708  30.770  1.00  0.00    +0.000 F 
ATOM     27  F2  UNL A   1      29.063 -10.010  29.080  1.00  0.00    +0.000 F 
ATOM     28  F3  UNL A   1      30.557 -11.565  28.800  1.00  0.00    +0.000 F 
ATOM     29  C21 UNL A   1      32.307  -9.498  28.154  1.00  0.00    +0.000 C 
ENDBRANCH   19   20
ENDBRANCH   18   19
ENDBRANCH   11   13
ENDBRANCH   10   11
ENDBRANCH    9   10
ENDBRANCH    8    9
ENDBRANCH    7    8
ENDBRANCH    6    7
ENDBRANCH    5    6
ENDBRANCH    4    5
ENDBRANCH    3    4
ENDBRANCH    2    3
ENDBRANCH   30    2
ENDBRANCH   34   33
BRANCH   38   39
ATOM     39  C30 UNL A   1      27.784 -14.402  36.962  1.00  0.00    +0.000 C 
ATOM     40  C31 UNL A   1      27.284 -15.607  37.478  1.00  0.00    +0.000 C 
ATOM     41  F4  UNL A   1      26.298 -16.256  36.841  1.00  0.00    +0.000 F 
ATOM     42  C32 UNL A   1      27.780 -16.139  38.666  1.00  0.00    +0.000 C 
ATOM     43  F5  UNL A   1      27.266 -17.275  39.156  1.00  0.00    +0.000 F 
ATOM     44  C33 UNL A   1      28.802 -15.493  39.346  1.00  0.00    +0.000 C 
ATOM     45  F6  UNL A   1      29.288 -16.014  40.481  1.00  0.00    +0.000 F 
ATOM     46  C34 UNL A   1      29.318 -14.306  38.849  1.00  0.00    +0.000 C 
ATOM     47  F7  UNL A   1      30.314 -13.687  39.499  1.00  0.00    +0.000 F 
ATOM     48  C35 UNL A   1      28.808 -13.759  37.674  1.00  0.00    +0.000 C 
ATOM     49  F8  UNL A   1      29.326 -12.607  37.221  1.00  0.00    +0.000 F 
ENDBRANCH   38   39
BRANCH   55   56
ATOM     65  C46 UNL A   1      21.080 -10.883  34.460  1.00  0.00    +0.000 C 
ATOM     66  F13 UNL A   1      20.914 -12.081  33.880  1.00  0.00    +0.000 F 
ATOM     56  C41 UNL A   1      22.357 -10.309  34.544  1.00  0.00    +0.000 C 
ATOM     57  C42 UNL A   1      22.477  -9.054  35.158  1.00  0.00    +0.000 C 
ATOM     58  F9  UNL A   1      23.681  -8.473  35.277  1.00  0.00    +0.000 F 
ATOM     59  C43 UNL A   1      21.367  -8.413  35.699  1.00  0.00    +0.000 C 
ATOM     60  F10 UNL A   1      21.513  -7.241  36.330  1.00  0.00    +0.000 F 
ATOM     61  C44 UNL A   1      20.113  -8.998  35.606  1.00  0.00    +0.000 C 
ATOM     62  F11 UNL A   1      19.045  -8.384  36.132  1.00  0.00    +0.000 F 
ATOM     63  C45 UNL A   1      19.968 -10.227  34.979  1.00  0.00    +0.000 C 
ATOM     64  F12 UNL A   1      18.755 -10.791  34.883  1.00  0.00    +0.000 F 
ENDBRANCH   55   56
BRANCH   70   71
ATOM     71  C50 UNL A   1      24.838 -10.919  28.074  1.00  0.00    +0.000 C 
ATOM     72  C51 UNL A   1      25.440  -9.795  27.495  1.00  0.00    +0.000 C 
ATOM     73  F14 UNL A   1      26.412  -9.143  28.150  1.00  0.00    +0.000 F 
ATOM     74  C52 UNL A   1      25.023  -9.318  26.254  1.00  0.00    +0.000 C 
ATOM     75  F15 UNL A   1      25.587  -8.217  25.739  1.00  0.00    +0.000 F 
ATOM     76  C53 UNL A   1      24.019  -9.973  25.557  1.00  0.00    +0.000 C 
ATOM     77  F16 UNL A   1      23.626  -9.518  24.359  1.00  0.00    +0.000 F 
ATOM     78  C54 UNL A   1      23.419 -11.096  26.104  1.00  0.00    +0.000 C 
ATOM     79  F17 UNL A   1      22.462 -11.744  25.426  1.00  0.00    +0.000 F 
ATOM     80  C55 UNL A   1      23.813 -11.556  27.357  1.00  0.00    +0.000 C 
ATOM     81  F18 UNL A   1      23.209 -12.639  27.867  1.00  0.00    +0.000 F 
ENDBRANCH   70   71
TORSDOF 17
ENDMDL
MODEL 6
REMARK VINA RESULT:     -12.0     45.101     50.296
ROOT
ATOM     34  C26 UNL A   1      14.060  53.991   5.384  1.00  0.00    +0.000 C 
ATOM     35  C27 UNL A   1      13.654  52.550   5.510  1.00  0.00    +0.000 C 
ATOM     36  N4  UNL A   1      13.969  51.536   4.742  1.00  0.00    +0.000 N 
ATOM     37  C28 UNL A   1      13.354  50.424   5.301  1.00  0.00    +0.000 C 
ATOM     38  C29 UNL A   1      13.354  49.145   4.854  1.00  0.00    +0.000 C 
ATOM     50  C36 UNL A   1      14.031  48.698   3.663  1.00  0.00    +0.000 C 
ATOM     51  C37 UNL A   1      14.085  47.423   3.124  1.00  0.00    +0.000 C 
ATOM     52  C38 UNL A   1      14.883  47.464   1.975  1.00  0.00    +0.000 C 
ATOM     53  C39 UNL A   1      15.292  48.771   1.772  1.00  0.00    +0.000 C 
ATOM     54  N5  UNL A   1      14.771  49.516   2.821  1.00  0.00    +0.000 N 
ATOM     55  C40 UNL A   1      16.094  49.304   0.703  1.00  0.00    +0.000 C 
ATOM     67  C47 UNL A   1      16.447  50.605   0.566  1.00  0.00    +0.000 C 
ATOM     68  N6  UNL A   1      16.161  51.678   1.397  1.00  0.00    +0.000 N 
ATOM     69  C48 UNL A   1      16.768  52.712   0.868  1.00  0.00    +0.000 C 
ATOM     70  C49 UNL A   1      16.802  54.133   1.348  1.00  0.00    +0.000 C 
ATOM     82  C56 UNL A   1      16.155  54.454   2.483  1.00  0.00    +0.000 C 
ATOM     83  C57 UNL A   1      16.086  55.793   3.057  1.00  0.00    +0.000 C 
ATOM     84  C58 UNL A   1      15.372  55.743   4.190  1.00  0.00    +0.000 C 
ATOM     85  C59 UNL A   1      14.887  54.376   4.392  1.00  0.00    +0.000 C 
ATOM     86  N7  UNL A   1      15.437  53.671   3.353  1.00  0.00    +0.000 N 
ATOM     87  C60 UNL A   1      17.504  52.414  -0.367  1.00  0.00    +0.000 C 
ATOM     88  C61 UNL A   1      17.245  51.125  -0.527  1.00  0.00    +0.000 C 
ATOM     89  C62 UNL A   1      12.669  50.880   6.492  1.00  0.00    +0.000 C 
ATOM     90  C63 UNL A   1      12.791  52.192   6.646  1.00  0.00    +0.000 C 
ATOM    118  H26 UNL A   1      13.617  46.586   3.505  1.00  0.00    +0.000 H 
ATOM    119  H27 UNL A   1      15.124  46.656   1.378  1.00  0.00    +0.000 H 
ATOM    120  H28 UNL A   1      14.906  50.483   2.948  1.00  0.00    +0.000 H 
ATOM    121  H29 UNL A   1      16.516  56.642   2.655  1.00  0.00    +0.000 H 
ATOM    122  H30 UNL A   1      15.194  56.541   4.820  1.00  0.00    +0.000 H 
ATOM    123  H31 UNL A   1      15.328  52.700   3.240  1.00  0.00    +0.000 H 
ATOM    124  H32 UNL A   1      18.074  53.043  -0.955  1.00  0.00    +0.000 H 
ATOM    125  H33 UNL A   1      17.569  50.562  -1.329  1.00  0.00    +0.000 H 
ATOM    126  H34 UNL A   1      12.152  50.264   7.139  1.00  0.00    +0.000 H 
ATOM    127  H35 UNL A   1      12.385  52.803   7.372  1.00  0.00    +0.000 H 
ENDROOT
BRANCH   34   33
ATOM    129  H37 UNL A   1      10.866  57.032   6.821  1.00  0.00    +0.000 H 
ATOM     33  C25 UNL A   1      13.519  55.036   6.290  1.00  0.00    +0.000 C 
ATOM    116  H24 UNL A   1      14.283  56.503   9.215  1.00  0.00    +0.000 H 
ATOM    117  H25 UNL A   1      15.217  55.011   7.553  1.00  0.00    +0.000 H 
ATOM     91  C64 UNL A   1      12.253  55.610   6.099  1.00  0.00    +0.000 C 
ATOM     92  C65 UNL A   1      11.783  56.587   6.983  1.00  0.00    +0.000 C 
ATOM    128  H36 UNL A   1      11.667  55.310   5.303  1.00  0.00    +0.000 H 
ATOM     30  C22 UNL A   1      12.556  56.959   8.088  1.00  0.00    +0.000 C 
ATOM     31  C23 UNL A   1      13.767  56.312   8.342  1.00  0.00    +0.000 C 
ATOM     32  C24 UNL A   1      14.275  55.410   7.414  1.00  0.00    +0.000 C 
BRANCH   30    2
ATOM      1  O1  UNL A   1      12.292  59.217   8.666  1.00  0.00    +0.000 O 
ATOM      2  C1  UNL A   1      12.082  58.048   8.972  1.00  0.00    +0.000 C 
BRANCH    2    3
ATOM      3  N1  UNL A   1      11.440  57.740  10.149  1.00  0.00    +0.000 N 
ATOM     93  H1  UNL A   1      11.882  58.055  10.971  1.00  0.00    +0.000 H 
BRANCH    3    4
ATOM      4  C2  UNL A   1      10.197  57.012  10.345  1.00  0.00    +0.000 C 
ATOM     94  H2  UNL A   1       9.519  57.287   9.565  1.00  0.00    +0.000 H 
ATOM     95  H3  UNL A   1       9.829  57.274  11.315  1.00  0.00    +0.000 H 
BRANCH    4    5
ATOM     97  H5  UNL A   1       9.492  55.100  10.789  1.00  0.00    +0.000 H 
ATOM      5  C3  UNL A   1      10.369  55.501  10.326  1.00  0.00    +0.000 C 
ATOM     96  H4  UNL A   1      10.497  55.197   9.308  1.00  0.00    +0.000 H 
BRANCH    5    6
ATOM     98  H6  UNL A   1      11.169  54.570  12.049  1.00  0.00    +0.000 H 
ATOM     99  H7  UNL A   1      12.221  55.785  11.247  1.00  0.00    +0.000 H 
ATOM      6  C4  UNL A   1      11.550  54.960  11.129  1.00  0.00    +0.000 C 
BRANCH    6    7
ATOM    100  H8  UNL A   1      12.367  54.044   9.403  1.00  0.00    +0.000 H 
ATOM    101  H9  UNL A   1      11.902  52.938  10.746  1.00  0.00    +0.000 H 
ATOM      7  C5  UNL A   1      12.371  53.856  10.457  1.00  0.00    +0.000 C 
BRANCH    7    8
ATOM    102  H10 UNL A   1      14.372  54.558  10.507  1.00  0.00    +0.000 H 
ATOM    103  H11 UNL A   1      14.162  52.774  10.528  1.00  0.00    +0.000 H 
ATOM      8  C6  UNL A   1      13.833  53.722  10.901  1.00  0.00    +0.000 C 
BRANCH    8    9
ATOM      9  C7  UNL A   1      14.072  53.678  12.408  1.00  0.00    +0.000 C 
ATOM    105  H13 UNL A   1      14.300  54.673  12.730  1.00  0.00    +0.000 H 
ATOM    104  H12 UNL A   1      13.189  53.304  12.885  1.00  0.00    +0.000 H 
BRANCH    9   10
ATOM     10  N2  UNL A   1      15.190  52.828  12.768  1.00  0.00    +0.000 N 
ATOM    106  H14 UNL A   1      16.020  53.298  13.015  1.00  0.00    +0.000 H 
BRANCH   10   11
ATOM     11  C8  UNL A   1      15.250  51.460  12.815  1.00  0.00    +0.000 C 
ATOM     12  O2  UNL A   1      14.847  50.860  13.807  1.00  0.00    +0.000 O 
BRANCH   11   13
ATOM    107  H15 UNL A   1      17.759  51.233  12.146  1.00  0.00    +0.000 H 
ATOM    108  H16 UNL A   1      18.765  50.024  10.299  1.00  0.00    +0.000 H 
ATOM     13  C9  UNL A   1      15.770  50.691  11.665  1.00  0.00    +0.000 C 
ATOM     14  C10 UNL A   1      17.163  50.707  11.488  1.00  0.00    +0.000 C 
ATOM     15  C11 UNL A   1      17.741  50.016  10.427  1.00  0.00    +0.000 C 
ATOM    110  H18 UNL A   1      14.954  48.785   9.043  1.00  0.00    +0.000 H 
ATOM     17  C13 UNL A   1      15.542  49.315   9.706  1.00  0.00    +0.000 C 
ATOM     18  C14 UNL A   1      14.928  50.016  10.757  1.00  0.00    +0.000 C 
ATOM     16  C12 UNL A   1      16.931  49.316   9.539  1.00  0.00    +0.000 C 
ATOM    109  H17 UNL A   1      17.355  48.796   8.756  1.00  0.00    +0.000 H 
BRANCH   18   19
ATOM     19  N3  UNL A   1      13.526  50.009  10.912  1.00  0.00    +0.000 N 
ATOM    111  H19 UNL A   1      13.115  50.905  10.938  1.00  0.00    +0.000 H 
BRANCH   19   20
ATOM    112  H20 UNL A   1      11.207  49.811   9.720  1.00  0.00    +0.000 H 
ATOM    113  H21 UNL A   1       9.637  47.971   9.808  1.00  0.00    +0.000 H 
ATOM    114  H22 UNL A   1      10.109  46.031  11.181  1.00  0.00    +0.000 H 
ATOM    115  H23 UNL A   1      13.754  47.771  12.359  1.00  0.00    +0.000 H 
ATOM     20  C15 UNL A   1      12.612  48.950  11.038  1.00  0.00    +0.000 C 
ATOM     21  C16 UNL A   1      11.418  48.987  10.306  1.00  0.00    +0.000 C 
ATOM     22  C17 UNL A   1      10.510  47.928  10.356  1.00  0.00    +0.000 C 
ATOM     23  C18 UNL A   1      10.781  46.814  11.147  1.00  0.00    +0.000 C 
ATOM     24  C19 UNL A   1      11.964  46.751  11.897  1.00  0.00    +0.000 C 
ATOM     25  C20 UNL A   1      12.254  45.542  12.752  1.00  0.00    +0.000 C 
ATOM     26  F1  UNL A   1      11.210  45.216  13.564  1.00  0.00    +0.000 F 
ATOM     27  F2  UNL A   1      12.516  44.432  12.011  1.00  0.00    +0.000 F 
ATOM     28  F3  UNL A   1      13.326  45.705  13.576  1.00  0.00    +0.000 F 
ATOM     29  C21 UNL A   1      12.873  47.820  11.823  1.00  0.00    +0.000 C 
ENDBRANCH   19   20
ENDBRANCH   18   19
ENDBRANCH   11   13
ENDBRANCH   10   11
ENDBRANCH    9   10
ENDBRANCH    8    9
ENDBRANCH    7    8
ENDBRANCH    6    7
ENDBRANCH    5    6
ENDBRANCH    4    5
ENDBRANCH    3    4
ENDBRANCH    2    3
ENDBRANCH   30    2
ENDBRANCH   34   33
BRANCH   38   39
ATOM     39  C30 UNL A   1      12.600  48.124   5.656  1.00  0.00    +0.000 C 
ATOM     40  C31 UNL A   1      13.169  47.509   6.780  1.00  0.00    +0.000 C 
ATOM     41  F4  UNL A   1      14.440  47.769   7.121  1.00  0.00    +0.000 F 
ATOM     42  C32 UNL A   1      12.440  46.603   7.548  1.00  0.00    +0.000 C 
ATOM     43  F5  UNL A   1      13.015  46.004   8.600  1.00  0.00    +0.000 F 
ATOM     44  C33 UNL A   1      11.123  46.315   7.224  1.00  0.00    +0.000 C 
ATOM     45  F6  UNL A   1      10.420  45.454   7.971  1.00  0.00    +0.000 F 
ATOM     46  C34 UNL A   1      10.536  46.919   6.121  1.00  0.00    +0.000 C 
ATOM     47  F7  UNL A   1       9.260  46.650   5.814  1.00  0.00    +0.000 F 
ATOM     48  C35 UNL A   1      11.269  47.807   5.338  1.00  0.00    +0.000 C 
ATOM     49  F8  UNL A   1      10.675  48.371   4.276  1.00  0.00    +0.000 F 
ENDBRANCH   38   39
BRANCH   55   56
ATOM     65  C46 UNL A   1      17.889  47.874  -0.343  1.00  0.00    +0.000 C 
ATOM     66  F13 UNL A   1      18.736  48.248   0.626  1.00  0.00    +0.000 F 
ATOM     56  C41 UNL A   1      16.574  48.361  -0.361  1.00  0.00    +0.000 C 
ATOM     57  C42 UNL A   1      15.729  47.942  -1.399  1.00  0.00    +0.000 C 
ATOM     58  F9  UNL A   1      14.457  48.367  -1.447  1.00  0.00    +0.000 F 
ATOM     59  C43 UNL A   1      16.172  47.041  -2.362  1.00  0.00    +0.000 C 
ATOM     60  F10 UNL A   1      15.330  46.610  -3.311  1.00  0.00    +0.000 F 
ATOM     61  C44 UNL A   1      17.476  46.571  -2.326  1.00  0.00    +0.000 C 
ATOM     62  F11 UNL A   1      17.901  45.699  -3.250  1.00  0.00    +0.000 F 
ATOM     63  C45 UNL A   1      18.337  46.994  -1.324  1.00  0.00    +0.000 C 
ATOM     64  F12 UNL A   1      19.599  46.545  -1.292  1.00  0.00    +0.000 F 
ENDBRANCH   55   56
BRANCH   70   71
ATOM     71  C50 UNL A   1      17.541  55.183   0.599  1.00  0.00    +0.000 C 
ATOM     72  C51 UNL A   1      18.831  55.572   0.978  1.00  0.00    +0.000 C 
ATOM     73  F14 UNL A   1      19.411  55.017   2.053  1.00  0.00    +0.000 F 
ATOM     74  C52 UNL A   1      19.519  56.557   0.273  1.00  0.00    +0.000 C 
ATOM     75  F15 UNL A   1      20.737  56.941   0.679  1.00  0.00    +0.000 F 
ATOM     76  C53 UNL A   1      18.942  57.148  -0.842  1.00  0.00    +0.000 C 
ATOM     77  F16 UNL A   1      19.609  58.088  -1.525  1.00  0.00    +0.000 F 
ATOM     78  C54 UNL A   1      17.671  56.767  -1.244  1.00  0.00    +0.000 C 
ATOM     79  F17 UNL A   1      17.117  57.321  -2.330  1.00  0.00    +0.000 F 
ATOM     80  C55 UNL A   1      16.971  55.806  -0.522  1.00  0.00    +0.000 C 
ATOM     81  F18 UNL A   1      15.739  55.463  -0.928  1.00  0.00    +0.000 F 
ENDBRANCH   70   71
TORSDOF 17
ENDMDL
MODEL 7
REMARK VINA RESULT:     -11.9     45.236     49.215
ROOT
ATOM     34  C26 UNL A   1       7.516   2.724  26.133  1.00  0.00    +0.000 C 
ATOM     35  C27 UNL A   1       8.696   3.049  27.005  1.00  0.00    +0.000 C 
ATOM     36  N4  UNL A   1       9.152   4.222  27.368  1.00  0.00    +0.000 N 
ATOM     37  C28 UNL A   1      10.246   3.973  28.186  1.00  0.00    +0.000 C 
ATOM     38  C29 UNL A   1      11.074   4.864  28.784  1.00  0.00    +0.000 C 
ATOM     50  C36 UNL A   1      10.951   6.295  28.669  1.00  0.00    +0.000 C 
ATOM     51  C37 UNL A   1      11.745   7.281  29.232  1.00  0.00    +0.000 C 
ATOM     52  C38 UNL A   1      11.226   8.527  28.865  1.00  0.00    +0.000 C 
ATOM     53  C39 UNL A   1      10.134   8.321  28.038  1.00  0.00    +0.000 C 
ATOM     54  N5  UNL A   1       9.970   6.948  27.935  1.00  0.00    +0.000 N 
ATOM     55  C40 UNL A   1       9.305   9.301  27.388  1.00  0.00    +0.000 C 
ATOM     67  C47 UNL A   1       8.253   9.020  26.581  1.00  0.00    +0.000 C 
ATOM     68  N6  UNL A   1       7.730   7.785  26.229  1.00  0.00    +0.000 N 
ATOM     69  C48 UNL A   1       6.687   8.039  25.477  1.00  0.00    +0.000 C 
ATOM     70  C49 UNL A   1       5.742   7.078  24.818  1.00  0.00    +0.000 C 
ATOM     82  C56 UNL A   1       5.924   5.757  24.997  1.00  0.00    +0.000 C 
ATOM     83  C57 UNL A   1       5.099   4.710  24.406  1.00  0.00    +0.000 C 
ATOM     84  C58 UNL A   1       5.560   3.516  24.806  1.00  0.00    +0.000 C 
ATOM     85  C59 UNL A   1       6.748   3.715  25.640  1.00  0.00    +0.000 C 
ATOM     86  N7  UNL A   1       6.863   5.078  25.734  1.00  0.00    +0.000 N 
ATOM     87  C60 UNL A   1       6.432   9.468  25.261  1.00  0.00    +0.000 C 
ATOM     88  C61 UNL A   1       7.437  10.021  25.924  1.00  0.00    +0.000 C 
ATOM     89  C62 UNL A   1      10.370   2.534  28.292  1.00  0.00    +0.000 C 
ATOM     90  C63 UNL A   1       9.460   1.917  27.550  1.00  0.00    +0.000 C 
ATOM    118  H26 UNL A   1      12.577   7.122  29.822  1.00  0.00    +0.000 H 
ATOM    119  H27 UNL A   1      11.595   9.446  29.159  1.00  0.00    +0.000 H 
ATOM    120  H28 UNL A   1       9.262   6.500  27.417  1.00  0.00    +0.000 H 
ATOM    121  H29 UNL A   1       4.293   4.863  23.780  1.00  0.00    +0.000 H 
ATOM    122  H30 UNL A   1       5.143   2.604  24.566  1.00  0.00    +0.000 H 
ATOM    123  H31 UNL A   1       7.552   5.526  26.276  1.00  0.00    +0.000 H 
ATOM    124  H32 UNL A   1       5.670   9.923  24.732  1.00  0.00    +0.000 H 
ATOM    125  H33 UNL A   1       7.617  11.037  25.967  1.00  0.00    +0.000 H 
ATOM    126  H34 UNL A   1      11.076   2.051  28.870  1.00  0.00    +0.000 H 
ATOM    127  H35 UNL A   1       9.325   0.905  27.395  1.00  0.00    +0.000 H 
ENDROOT
BRANCH   34   33
ATOM    129  H37 UNL A   1       7.881  -1.034  23.439  1.00  0.00    +0.000 H 
ATOM     33  C25 UNL A   1       7.202   1.329  25.732  1.00  0.00    +0.000 C 
ATOM    116  H24 UNL A   1       5.537  -1.337  26.918  1.00  0.00    +0.000 H 
ATOM    117  H25 UNL A   1       5.879   1.019  27.354  1.00  0.00    +0.000 H 
ATOM     91  C64 UNL A   1       7.794   0.720  24.615  1.00  0.00    +0.000 C 
ATOM     92  C65 UNL A   1       7.472  -0.600  24.281  1.00  0.00    +0.000 C 
ATOM    128  H36 UNL A   1       8.468   1.248  24.038  1.00  0.00    +0.000 H 
ATOM     30  C22 UNL A   1       6.595  -1.331  25.090  1.00  0.00    +0.000 C 
ATOM     31  C23 UNL A   1       6.091  -0.764  26.262  1.00  0.00    +0.000 C 
ATOM     32  C24 UNL A   1       6.337   0.574  26.542  1.00  0.00    +0.000 C 
BRANCH   30    2
ATOM      1  O1  UNL A   1       5.112  -3.148  25.022  1.00  0.00    +0.000 O 
ATOM      2  C1  UNL A   1       6.203  -2.699  24.683  1.00  0.00    +0.000 C 
BRANCH    2    3
ATOM      3  N1  UNL A   1       7.080  -3.473  23.959  1.00  0.00    +0.000 N 
ATOM     93  H1  UNL A   1       7.385  -3.087  23.106  1.00  0.00    +0.000 H 
BRANCH    3    4
ATOM      4  C2  UNL A   1       7.618  -4.785  24.283  1.00  0.00    +0.000 C 
ATOM     94  H2  UNL A   1       7.868  -5.282  23.369  1.00  0.00    +0.000 H 
ATOM     95  H3  UNL A   1       6.864  -5.306  24.835  1.00  0.00    +0.000 H 
BRANCH    4    5
ATOM     97  H5  UNL A   1       8.907  -3.733  25.541  1.00  0.00    +0.000 H 
ATOM      5  C3  UNL A   1       8.860  -4.732  25.159  1.00  0.00    +0.000 C 
ATOM     96  H4  UNL A   1       8.759  -5.479  25.918  1.00  0.00    +0.000 H 
BRANCH    5    6
ATOM     98  H6  UNL A   1      10.003  -5.641  23.630  1.00  0.00    +0.000 H 
ATOM     99  H7  UNL A   1      10.854  -5.349  25.186  1.00  0.00    +0.000 H 
ATOM      6  C4  UNL A   1      10.186  -4.968  24.441  1.00  0.00    +0.000 C 
BRANCH    6    7
ATOM    100  H8  UNL A   1      11.927  -3.837  24.021  1.00  0.00    +0.000 H 
ATOM    101  H9  UNL A   1      10.437  -2.896  24.391  1.00  0.00    +0.000 H 
ATOM      7  C5  UNL A   1      10.873  -3.724  23.871  1.00  0.00    +0.000 C 
BRANCH    7    8
ATOM    102  H10 UNL A   1       9.585  -3.429  22.210  1.00  0.00    +0.000 H 
ATOM    103  H11 UNL A   1      11.167  -4.203  21.854  1.00  0.00    +0.000 H 
ATOM      8  C6  UNL A   1      10.641  -3.435  22.382  1.00  0.00    +0.000 C 
BRANCH    8    9
ATOM      9  C7  UNL A   1      11.207  -2.115  21.863  1.00  0.00    +0.000 C 
ATOM    105  H13 UNL A   1      11.810  -1.692  22.638  1.00  0.00    +0.000 H 
ATOM    104  H12 UNL A   1      11.780  -2.311  20.980  1.00  0.00    +0.000 H 
BRANCH    9   10
ATOM     10  N2  UNL A   1      10.168  -1.156  21.538  1.00  0.00    +0.000 N 
ATOM    106  H14 UNL A   1       9.253  -1.416  21.796  1.00  0.00    +0.000 H 
BRANCH   10   11
ATOM     11  C8  UNL A   1      10.284   0.063  20.922  1.00  0.00    +0.000 C 
ATOM     12  O2  UNL A   1      10.713   0.132  19.774  1.00  0.00    +0.000 O 
BRANCH   11   13
ATOM    107  H15 UNL A   1       8.113   1.422  20.444  1.00  0.00    +0.000 H 
ATOM    108  H16 UNL A   1       7.301   3.457  21.485  1.00  0.00    +0.000 H 
ATOM     13  C9  UNL A   1       9.870   1.299  21.617  1.00  0.00    +0.000 C 
ATOM     14  C10 UNL A   1       8.659   1.870  21.196  1.00  0.00    +0.000 C 
ATOM     15  C11 UNL A   1       8.194   3.040  21.791  1.00  0.00    +0.000 C 
ATOM    110  H18 UNL A   1      10.693   3.537  23.960  1.00  0.00    +0.000 H 
ATOM     17  C13 UNL A   1      10.154   3.081  23.206  1.00  0.00    +0.000 C 
ATOM     18  C14 UNL A   1      10.658   1.912  22.613  1.00  0.00    +0.000 C 
ATOM     16  C12 UNL A   1       8.939   3.642  22.799  1.00  0.00    +0.000 C 
ATOM    109  H17 UNL A   1       8.594   4.504  23.248  1.00  0.00    +0.000 H 
BRANCH   18   19
ATOM     19  N3  UNL A   1      11.887   1.358  23.031  1.00  0.00    +0.000 N 
ATOM    111  H19 UNL A   1      12.611   1.426  22.365  1.00  0.00    +0.000 H 
BRANCH   19   20
ATOM    112  H20 UNL A   1      14.200   1.557  24.235  1.00  0.00    +0.000 H 
ATOM    113  H21 UNL A   1      14.871   0.584  26.347  1.00  0.00    +0.000 H 
ATOM    114  H22 UNL A   1      13.333  -0.825  27.582  1.00  0.00    +0.000 H 
ATOM    115  H23 UNL A   1      10.433  -0.259  24.588  1.00  0.00    +0.000 H 
ATOM     20  C15 UNL A   1      12.261   0.726  24.229  1.00  0.00    +0.000 C 
ATOM     21  C16 UNL A   1      13.537   0.960  24.755  1.00  0.00    +0.000 C 
ATOM     22  C17 UNL A   1      13.926   0.398  25.972  1.00  0.00    +0.000 C 
ATOM     23  C18 UNL A   1      13.043  -0.412  26.682  1.00  0.00    +0.000 C 
ATOM     24  C19 UNL A   1      11.762  -0.671  26.176  1.00  0.00    +0.000 C 
ATOM     25  C20 UNL A   1      10.808  -1.550  26.947  1.00  0.00    +0.000 C 
ATOM     26  F1  UNL A   1      11.373  -2.732  27.316  1.00  0.00    +0.000 F 
ATOM     27  F2  UNL A   1      10.373  -0.964  28.095  1.00  0.00    +0.000 F 
ATOM     28  F3  UNL A   1       9.687  -1.879  26.246  1.00  0.00    +0.000 F 
ATOM     29  C21 UNL A   1      11.382  -0.086  24.956  1.00  0.00    +0.000 C 
ENDBRANCH   19   20
ENDBRANCH   18   19
ENDBRANCH   11   13
ENDBRANCH   10   11
ENDBRANCH    9   10
ENDBRANCH    8    9
ENDBRANCH    7    8
ENDBRANCH    6    7
ENDBRANCH    5    6
ENDBRANCH    4    5
ENDBRANCH    3    4
ENDBRANCH    2    3
ENDBRANCH   30    2
ENDBRANCH   34   33
BRANCH   38   39
ATOM     39  C30 UNL A   1      12.194   4.323  29.625  1.00  0.00    +0.000 C 
ATOM     40  C31 UNL A   1      12.136   4.347  31.026  1.00  0.00    +0.000 C 
ATOM     41  F4  UNL A   1      11.101   4.929  31.648  1.00  0.00    +0.000 F 
ATOM     42  C32 UNL A   1      13.157   3.793  31.796  1.00  0.00    +0.000 C 
ATOM     43  F5  UNL A   1      13.095   3.856  33.132  1.00  0.00    +0.000 F 
ATOM     44  C33 UNL A   1      14.240   3.181  31.182  1.00  0.00    +0.000 C 
ATOM     45  F6  UNL A   1      15.214   2.637  31.924  1.00  0.00    +0.000 F 
ATOM     46  C34 UNL A   1      14.314   3.137  29.797  1.00  0.00    +0.000 C 
ATOM     47  F7  UNL A   1      15.354   2.536  29.203  1.00  0.00    +0.000 F 
ATOM     48  C35 UNL A   1      13.307   3.711  29.025  1.00  0.00    +0.000 C 
ATOM     49  F8  UNL A   1      13.408   3.655  27.689  1.00  0.00    +0.000 F 
ENDBRANCH   38   39
BRANCH   55   56
ATOM     65  C46 UNL A   1      10.659  11.367  26.883  1.00  0.00    +0.000 C 
ATOM     66  F13 UNL A   1      11.383  10.663  26.001  1.00  0.00    +0.000 F 
ATOM     56  C41 UNL A   1       9.622  10.751  27.599  1.00  0.00    +0.000 C 
ATOM     57  C42 UNL A   1       8.897  11.531  28.512  1.00  0.00    +0.000 C 
ATOM     58  F9  UNL A   1       7.884  10.990  29.206  1.00  0.00    +0.000 F 
ATOM     59  C43 UNL A   1       9.176  12.884  28.676  1.00  0.00    +0.000 C 
ATOM     60  F10 UNL A   1       8.433  13.623  29.512  1.00  0.00    +0.000 F 
ATOM     61  C44 UNL A   1      10.205  13.474  27.958  1.00  0.00    +0.000 C 
ATOM     62  F11 UNL A   1      10.470  14.778  28.112  1.00  0.00    +0.000 F 
ATOM     63  C45 UNL A   1      10.952  12.715  27.070  1.00  0.00    +0.000 C 
ATOM     64  F12 UNL A   1      11.952  13.282  26.380  1.00  0.00    +0.000 F 
ENDBRANCH   55   56
BRANCH   70   71
ATOM     71  C50 UNL A   1       4.611   7.558  23.983  1.00  0.00    +0.000 C 
ATOM     72  C51 UNL A   1       4.685   7.546  22.585  1.00  0.00    +0.000 C 
ATOM     73  F14 UNL A   1       5.804   7.126  21.976  1.00  0.00    +0.000 F 
ATOM     74  C52 UNL A   1       3.622   7.998  21.806  1.00  0.00    +0.000 C 
ATOM     75  F15 UNL A   1       3.732   8.016  20.471  1.00  0.00    +0.000 F 
ATOM     76  C53 UNL A   1       2.454   8.439  22.410  1.00  0.00    +0.000 C 
ATOM     77  F16 UNL A   1       1.428   8.864  21.660  1.00  0.00    +0.000 F 
ATOM     78  C54 UNL A   1       2.352   8.445  23.793  1.00  0.00    +0.000 C 
ATOM     79  F17 UNL A   1       1.220   8.853  24.381  1.00  0.00    +0.000 F 
ATOM     80  C55 UNL A   1       3.425   8.024  24.572  1.00  0.00    +0.000 C 
ATOM     81  F18 UNL A   1       3.303   8.048  25.907  1.00  0.00    +0.000 F 
ENDBRANCH   70   71
TORSDOF 17
ENDMDL
MODEL 8
REMARK VINA RESULT:     -11.9     41.302     48.625
ROOT
ATOM     34  C26 UNL A   1      24.440  38.104  48.502  1.00  0.00    +0.000 C 
ATOM     35  C27 UNL A   1      24.334  36.785  47.790  1.00  0.00    +0.000 C 
ATOM     36  N4  UNL A   1      25.243  36.155  47.088  1.00  0.00    +0.000 N 
ATOM     37  C28 UNL A   1      24.648  34.975  46.661  1.00  0.00    +0.000 C 
ATOM     38  C29 UNL A   1      25.171  34.001  45.878  1.00  0.00    +0.000 C 
ATOM     50  C36 UNL A   1      26.504  34.023  45.329  1.00  0.00    +0.000 C 
ATOM     51  C37 UNL A   1      27.123  33.087  44.519  1.00  0.00    +0.000 C 
ATOM     52  C38 UNL A   1      28.427  33.522  44.259  1.00  0.00    +0.000 C 
ATOM     53  C39 UNL A   1      28.608  34.751  44.870  1.00  0.00    +0.000 C 
ATOM     54  N5  UNL A   1      27.424  35.042  45.532  1.00  0.00    +0.000 N 
ATOM     55  C40 UNL A   1      29.771  35.599  44.851  1.00  0.00    +0.000 C 
ATOM     67  C47 UNL A   1      29.870  36.801  45.470  1.00  0.00    +0.000 C 
ATOM     68  N6  UNL A   1      28.934  37.456  46.256  1.00  0.00    +0.000 N 
ATOM     69  C48 UNL A   1      29.519  38.554  46.668  1.00  0.00    +0.000 C 
ATOM     70  C49 UNL A   1      28.975  39.640  47.549  1.00  0.00    +0.000 C 
ATOM     82  C56 UNL A   1      27.724  39.524  48.030  1.00  0.00    +0.000 C 
ATOM     83  C57 UNL A   1      27.059  40.506  48.880  1.00  0.00    +0.000 C 
ATOM     84  C58 UNL A   1      25.831  40.060  49.179  1.00  0.00    +0.000 C 
ATOM     85  C59 UNL A   1      25.603  38.784  48.496  1.00  0.00    +0.000 C 
ATOM     86  N7  UNL A   1      26.797  38.523  47.873  1.00  0.00    +0.000 N 
ATOM     87  C60 UNL A   1      30.894  38.725  46.183  1.00  0.00    +0.000 C 
ATOM     88  C61 UNL A   1      31.045  37.648  45.427  1.00  0.00    +0.000 C 
ATOM     89  C62 UNL A   1      23.307  34.961  47.208  1.00  0.00    +0.000 C 
ATOM     90  C63 UNL A   1      23.050  36.074  47.881  1.00  0.00    +0.000 C 
ATOM    118  H26 UNL A   1      26.696  32.215  44.168  1.00  0.00    +0.000 H 
ATOM    119  H27 UNL A   1      29.134  33.014  43.704  1.00  0.00    +0.000 H 
ATOM    120  H28 UNL A   1      27.261  35.852  46.067  1.00  0.00    +0.000 H 
ATOM    121  H29 UNL A   1      27.467  41.400  49.197  1.00  0.00    +0.000 H 
ATOM    122  H30 UNL A   1      25.154  40.539  49.792  1.00  0.00    +0.000 H 
ATOM    123  H31 UNL A   1      26.972  37.700  47.363  1.00  0.00    +0.000 H 
ATOM    124  H32 UNL A   1      31.566  39.483  46.381  1.00  0.00    +0.000 H 
ATOM    125  H33 UNL A   1      31.893  37.438  44.877  1.00  0.00    +0.000 H 
ATOM    126  H34 UNL A   1      22.638  34.184  47.089  1.00  0.00    +0.000 H 
ATOM    127  H35 UNL A   1      22.176  36.366  48.347  1.00  0.00    +0.000 H 
ENDROOT
BRANCH   34   33
ATOM    129  H37 UNL A   1      21.636  38.955  52.098  1.00  0.00    +0.000 H 
ATOM     33  C25 UNL A   1      23.268  38.728  49.167  1.00  0.00    +0.000 C 
ATOM    116  H24 UNL A   1      20.897  41.016  48.507  1.00  0.00    +0.000 H 
ATOM    117  H25 UNL A   1      22.655  39.755  47.422  1.00  0.00    +0.000 H 
ATOM     91  C64 UNL A   1      22.979  38.521  50.524  1.00  0.00    +0.000 C 
ATOM     92  C65 UNL A   1      21.867  39.137  51.109  1.00  0.00    +0.000 C 
ATOM    128  H36 UNL A   1      23.588  37.911  51.093  1.00  0.00    +0.000 H 
ATOM     30  C22 UNL A   1      21.069  40.001  50.351  1.00  0.00    +0.000 C 
ATOM     31  C23 UNL A   1      21.417  40.295  49.032  1.00  0.00    +0.000 C 
ATOM     32  C24 UNL A   1      22.465  39.612  48.426  1.00  0.00    +0.000 C 
BRANCH   30    2
ATOM      1  O1  UNL A   1      19.945  41.264  51.978  1.00  0.00    +0.000 O 
ATOM      2  C1  UNL A   1      19.852  40.585  50.959  1.00  0.00    +0.000 C 
BRANCH    2    3
ATOM      3  N1  UNL A   1      18.620  40.332  50.400  1.00  0.00    +0.000 N 
ATOM     93  H1  UNL A   1      18.219  41.078  49.899  1.00  0.00    +0.000 H 
BRANCH    3    4
ATOM      4  C2  UNL A   1      17.832  39.112  50.449  1.00  0.00    +0.000 C 
ATOM     94  H2  UNL A   1      18.139  38.546  51.302  1.00  0.00    +0.000 H 
ATOM     95  H3  UNL A   1      18.005  38.589  49.531  1.00  0.00    +0.000 H 
BRANCH    4    5
ATOM     97  H5  UNL A   1      16.191  39.934  51.438  1.00  0.00    +0.000 H 
ATOM      5  C3  UNL A   1      16.335  39.360  50.547  1.00  0.00    +0.000 C 
ATOM     96  H4  UNL A   1      16.025  39.864  49.655  1.00  0.00    +0.000 H 
BRANCH    5    6
ATOM     98  H6  UNL A   1      14.847  38.256  51.567  1.00  0.00    +0.000 H 
ATOM     99  H7  UNL A   1      16.151  37.295  50.790  1.00  0.00    +0.000 H 
ATOM      6  C4  UNL A   1      15.468  38.114  50.707  1.00  0.00    +0.000 C 
BRANCH    6    7
ATOM    100  H8  UNL A   1      14.492  38.640  48.902  1.00  0.00    +0.000 H 
ATOM    101  H9  UNL A   1      13.627  37.468  49.961  1.00  0.00    +0.000 H 
ATOM      7  C5  UNL A   1      14.557  37.771  49.525  1.00  0.00    +0.000 C 
BRANCH    7    8
ATOM    102  H10 UNL A   1      15.036  36.944  47.630  1.00  0.00    +0.000 H 
ATOM    103  H11 UNL A   1      14.272  35.825  48.809  1.00  0.00    +0.000 H 
ATOM      8  C6  UNL A   1      14.994  36.596  48.641  1.00  0.00    +0.000 C 
BRANCH    8    9
ATOM      9  C7  UNL A   1      16.348  35.975  48.978  1.00  0.00    +0.000 C 
ATOM    105  H13 UNL A   1      16.686  36.410  49.895  1.00  0.00    +0.000 H 
ATOM    104  H12 UNL A   1      16.227  34.915  49.065  1.00  0.00    +0.000 H 
BRANCH    9   10
ATOM     10  N2  UNL A   1      17.349  36.246  47.964  1.00  0.00    +0.000 N 
ATOM    106  H14 UNL A   1      17.010  36.625  47.121  1.00  0.00    +0.000 H 
BRANCH   10   11
ATOM     11  C8  UNL A   1      18.705  36.049  48.020  1.00  0.00    +0.000 C 
ATOM     12  O2  UNL A   1      19.235  35.723  49.078  1.00  0.00    +0.000 O 
BRANCH   11   13
ATOM    107  H15 UNL A   1      19.973  38.208  47.298  1.00  0.00    +0.000 H 
ATOM    108  H16 UNL A   1      21.362  38.609  45.350  1.00  0.00    +0.000 H 
ATOM     13  C9  UNL A   1      19.537  36.196  46.808  1.00  0.00    +0.000 C 
ATOM     14  C10 UNL A   1      20.128  37.454  46.612  1.00  0.00    +0.000 C 
ATOM     15  C11 UNL A   1      20.923  37.686  45.492  1.00  0.00    +0.000 C 
ATOM    110  H18 UNL A   1      20.680  34.671  44.062  1.00  0.00    +0.000 H 
ATOM     17  C13 UNL A   1      20.518  35.419  44.755  1.00  0.00    +0.000 C 
ATOM     18  C14 UNL A   1      19.697  35.160  45.864  1.00  0.00    +0.000 C 
ATOM     16  C12 UNL A   1      21.122  36.666  44.567  1.00  0.00    +0.000 C 
ATOM    109  H17 UNL A   1      21.716  36.832  43.741  1.00  0.00    +0.000 H 
BRANCH   18   19
ATOM     19  N3  UNL A   1      19.091  33.897  46.040  1.00  0.00    +0.000 N 
ATOM    111  H19 UNL A   1      19.003  33.617  46.981  1.00  0.00    +0.000 H 
BRANCH   19   20
ATOM    112  H20 UNL A   1      19.636  31.341  45.956  1.00  0.00    +0.000 H 
ATOM    113  H21 UNL A   1      18.734  29.672  44.453  1.00  0.00    +0.000 H 
ATOM    114  H22 UNL A   1      17.169  30.315  42.718  1.00  0.00    +0.000 H 
ATOM    115  H23 UNL A   1      17.390  34.310  44.018  1.00  0.00    +0.000 H 
ATOM     20  C15 UNL A   1      18.594  32.969  45.111  1.00  0.00    +0.000 C 
ATOM     21  C16 UNL A   1      18.968  31.624  45.222  1.00  0.00    +0.000 C 
ATOM     22  C17 UNL A   1      18.450  30.660  44.355  1.00  0.00    +0.000 C 
ATOM     23  C18 UNL A   1      17.551  31.029  43.357  1.00  0.00    +0.000 C 
ATOM     24  C19 UNL A   1      17.165  32.370  43.216  1.00  0.00    +0.000 C 
ATOM     25  C20 UNL A   1      16.191  32.766  42.134  1.00  0.00    +0.000 C 
ATOM     26  F1  UNL A   1      16.552  32.290  40.910  1.00  0.00    +0.000 F 
ATOM     27  F2  UNL A   1      14.936  32.297  42.366  1.00  0.00    +0.000 F 
ATOM     28  F3  UNL A   1      16.067  34.114  41.983  1.00  0.00    +0.000 F 
ATOM     29  C21 UNL A   1      17.685  33.324  44.106  1.00  0.00    +0.000 C 
ENDBRANCH   19   20
ENDBRANCH   18   19
ENDBRANCH   11   13
ENDBRANCH   10   11
ENDBRANCH    9   10
ENDBRANCH    8    9
ENDBRANCH    7    8
ENDBRANCH    6    7
ENDBRANCH    5    6
ENDBRANCH    4    5
ENDBRANCH    3    4
ENDBRANCH    2    3
ENDBRANCH   30    2
ENDBRANCH   34   33
BRANCH   38   39
ATOM     39  C30 UNL A   1      24.304  32.816  45.562  1.00  0.00    +0.000 C 
ATOM     40  C31 UNL A   1      24.388  31.629  46.303  1.00  0.00    +0.000 C 
ATOM     41  F4  UNL A   1      25.308  31.501  47.271  1.00  0.00    +0.000 F 
ATOM     42  C32 UNL A   1      23.541  30.554  46.036  1.00  0.00    +0.000 C 
ATOM     43  F5  UNL A   1      23.661  29.419  46.736  1.00  0.00    +0.000 F 
ATOM     44  C33 UNL A   1      22.578  30.657  45.043  1.00  0.00    +0.000 C 
ATOM     45  F6  UNL A   1      21.756  29.628  44.797  1.00  0.00    +0.000 F 
ATOM     46  C34 UNL A   1      22.471  31.825  44.304  1.00  0.00    +0.000 C 
ATOM     47  F7  UNL A   1      21.532  31.929  43.352  1.00  0.00    +0.000 F 
ATOM     48  C35 UNL A   1      23.331  32.892  44.553  1.00  0.00    +0.000 C 
ATOM     49  F8  UNL A   1      23.204  34.007  43.818  1.00  0.00    +0.000 F 
ENDBRANCH   38   39
BRANCH   55   56
ATOM     65  C46 UNL A   1      31.985  34.401  44.707  1.00  0.00    +0.000 C 
ATOM     66  F13 UNL A   1      31.893  34.098  46.010  1.00  0.00    +0.000 F 
ATOM     56  C41 UNL A   1      30.972  35.139  44.079  1.00  0.00    +0.000 C 
ATOM     57  C42 UNL A   1      31.117  35.432  42.715  1.00  0.00    +0.000 C 
ATOM     58  F9  UNL A   1      30.165  36.121  42.067  1.00  0.00    +0.000 F 
ATOM     59  C43 UNL A   1      32.217  34.973  41.999  1.00  0.00    +0.000 C 
ATOM     60  F10 UNL A   1      32.308  35.216  40.684  1.00  0.00    +0.000 F 
ATOM     61  C44 UNL A   1      33.208  34.244  42.638  1.00  0.00    +0.000 C 
ATOM     62  F11 UNL A   1      34.265  33.796  41.947  1.00  0.00    +0.000 F 
ATOM     63  C45 UNL A   1      33.097  33.966  43.993  1.00  0.00    +0.000 C 
ATOM     64  F12 UNL A   1      34.058  33.267  44.614  1.00  0.00    +0.000 F 
ENDBRANCH   55   56
BRANCH   70   71
ATOM     71  C50 UNL A   1      29.791  40.830  47.901  1.00  0.00    +0.000 C 
ATOM     72  C51 UNL A   1      30.651  40.819  49.006  1.00  0.00    +0.000 C 
ATOM     73  F14 UNL A   1      30.725  39.731  49.788  1.00  0.00    +0.000 F 
ATOM     74  C52 UNL A   1      31.415  41.938  49.333  1.00  0.00    +0.000 C 
ATOM     75  F15 UNL A   1      32.199  41.917  50.418  1.00  0.00    +0.000 F 
ATOM     76  C53 UNL A   1      31.356  43.076  48.542  1.00  0.00    +0.000 C 
ATOM     77  F16 UNL A   1      32.099  44.148  48.851  1.00  0.00    +0.000 F 
ATOM     78  C54 UNL A   1      30.523  43.105  47.435  1.00  0.00    +0.000 C 
ATOM     79  F17 UNL A   1      30.477  44.194  46.657  1.00  0.00    +0.000 F 
ATOM     80  C55 UNL A   1      29.737  41.999  47.125  1.00  0.00    +0.000 C 
ATOM     81  F18 UNL A   1      28.933  42.056  46.054  1.00  0.00    +0.000 F 
ENDBRANCH   70   71
TORSDOF 17
ENDMDL
MODEL 9
REMARK VINA RESULT:     -11.9      6.072     10.177
ROOT
ATOM     34  C26 UNL A   1      56.739  19.380  10.015  1.00  0.00    +0.000 C 
ATOM     35  C27 UNL A   1      57.380  19.472  11.371  1.00  0.00    +0.000 C 
ATOM     36  N4  UNL A   1      56.888  19.963  12.481  1.00  0.00    +0.000 N 
ATOM     37  C28 UNL A   1      57.872  19.793  13.445  1.00  0.00    +0.000 C 
ATOM     38  C29 UNL A   1      57.853  20.169  14.747  1.00  0.00    +0.000 C 
ATOM     50  C36 UNL A   1      56.749  20.840  15.386  1.00  0.00    +0.000 C 
ATOM     51  C37 UNL A   1      56.637  21.267  16.698  1.00  0.00    +0.000 C 
ATOM     52  C38 UNL A   1      55.373  21.843  16.868  1.00  0.00    +0.000 C 
ATOM     53  C39 UNL A   1      54.712  21.814  15.651  1.00  0.00    +0.000 C 
ATOM     54  N5  UNL A   1      55.563  21.187  14.754  1.00  0.00    +0.000 N 
ATOM     55  C40 UNL A   1      53.405  22.323  15.329  1.00  0.00    +0.000 C 
ATOM     67  C47 UNL A   1      52.826  22.266  14.106  1.00  0.00    +0.000 C 
ATOM     68  N6  UNL A   1      53.315  21.706  12.935  1.00  0.00    +0.000 N 
ATOM     69  C48 UNL A   1      52.366  21.855  12.043  1.00  0.00    +0.000 C 
ATOM     70  C49 UNL A   1      52.349  21.434  10.603  1.00  0.00    +0.000 C 
ATOM     82  C56 UNL A   1      53.420  20.795  10.098  1.00  0.00    +0.000 C 
ATOM     83  C57 UNL A   1      53.552  20.345   8.717  1.00  0.00    +0.000 C 
ATOM     84  C58 UNL A   1      54.739  19.740   8.569  1.00  0.00    +0.000 C 
ATOM     85  C59 UNL A   1      55.473  19.808   9.835  1.00  0.00    +0.000 C 
ATOM     86  N7  UNL A   1      54.596  20.413  10.697  1.00  0.00    +0.000 N 
ATOM     87  C60 UNL A   1      51.165  22.534  12.546  1.00  0.00    +0.000 C 
ATOM     88  C61 UNL A   1      51.512  22.797  13.797  1.00  0.00    +0.000 C 
ATOM     89  C62 UNL A   1      58.982  19.126  12.797  1.00  0.00    +0.000 C 
ATOM     90  C63 UNL A   1      58.744  18.939  11.506  1.00  0.00    +0.000 C 
ATOM    118  H26 UNL A   1      57.362  21.176  17.427  1.00  0.00    +0.000 H 
ATOM    119  H27 UNL A   1      54.997  22.226  17.750  1.00  0.00    +0.000 H 
ATOM    120  H28 UNL A   1      55.357  21.014  13.806  1.00  0.00    +0.000 H 
ATOM    121  H29 UNL A   1      52.847  20.474   7.974  1.00  0.00    +0.000 H 
ATOM    122  H30 UNL A   1      55.080  19.296   7.702  1.00  0.00    +0.000 H 
ATOM    123  H31 UNL A   1      54.788  20.560  11.650  1.00  0.00    +0.000 H 
ATOM    124  H32 UNL A   1      50.283  22.749  12.055  1.00  0.00    +0.000 H 
ATOM    125  H33 UNL A   1      50.923  23.315  14.468  1.00  0.00    +0.000 H 
ATOM    126  H34 UNL A   1      59.847  18.833  13.278  1.00  0.00    +0.000 H 
ATOM    127  H35 UNL A   1      59.356  18.529  10.784  1.00  0.00    +0.000 H 
ENDROOT
BRANCH   34   33
ATOM    129  H37 UNL A   1      58.212  16.123   7.058  1.00  0.00    +0.000 H 
ATOM     33  C25 UNL A   1      57.486  18.887   8.830  1.00  0.00    +0.000 C 
ATOM    116  H24 UNL A   1      59.205  20.124   6.221  1.00  0.00    +0.000 H 
ATOM    117  H25 UNL A   1      58.197  20.812   8.311  1.00  0.00    +0.000 H 
ATOM     91  C64 UNL A   1      57.477  17.538   8.447  1.00  0.00    +0.000 C 
ATOM     92  C65 UNL A   1      58.191  17.122   7.317  1.00  0.00    +0.000 C 
ATOM    128  H36 UNL A   1      56.943  16.849   9.000  1.00  0.00    +0.000 H 
ATOM     30  C22 UNL A   1      58.876  18.062   6.540  1.00  0.00    +0.000 C 
ATOM     31  C23 UNL A   1      58.797  19.419   6.855  1.00  0.00    +0.000 C 
ATOM     32  C24 UNL A   1      58.166  19.820   8.027  1.00  0.00    +0.000 C 
BRANCH   30    2
ATOM      1  O1  UNL A   1      60.889  17.860   5.351  1.00  0.00    +0.000 O 
ATOM      2  C1  UNL A   1      59.690  17.599   5.393  1.00  0.00    +0.000 C 
BRANCH    2    3
ATOM      3  N1  UNL A   1      59.090  16.912   4.363  1.00  0.00    +0.000 N 
ATOM     93  H1  UNL A   1      59.493  16.043   4.139  1.00  0.00    +0.000 H 
BRANCH    3    4
ATOM      4  C2  UNL A   1      57.939  17.296   3.562  1.00  0.00    +0.000 C 
ATOM     94  H2  UNL A   1      58.176  17.131   2.532  1.00  0.00    +0.000 H 
ATOM     95  H3  UNL A   1      57.739  18.326   3.772  1.00  0.00    +0.000 H 
BRANCH    4    5
ATOM     97  H5  UNL A   1      56.972  15.489   3.949  1.00  0.00    +0.000 H 
ATOM      5  C3  UNL A   1      56.678  16.517   3.899  1.00  0.00    +0.000 C 
ATOM     96  H4  UNL A   1      56.290  16.900   4.819  1.00  0.00    +0.000 H 
BRANCH    5    6
ATOM     98  H6  UNL A   1      56.021  16.656   1.893  1.00  0.00    +0.000 H 
ATOM     99  H7  UNL A   1      54.965  17.427   3.126  1.00  0.00    +0.000 H 
ATOM      6  C4  UNL A   1      55.563  16.582   2.857  1.00  0.00    +0.000 C 
BRANCH    6    7
ATOM    100  H8  UNL A   1      54.544  14.994   3.820  1.00  0.00    +0.000 H 
ATOM    101  H9  UNL A   1      55.007  14.716   2.102  1.00  0.00    +0.000 H 
ATOM      7  C5  UNL A   1      54.601  15.391   2.827  1.00  0.00    +0.000 C 
BRANCH    7    8
ATOM    102  H10 UNL A   1      53.220  16.030   1.348  1.00  0.00    +0.000 H 
ATOM    103  H11 UNL A   1      52.776  16.394   3.050  1.00  0.00    +0.000 H 
ATOM      8  C6  UNL A   1      53.169  15.679   2.357  1.00  0.00    +0.000 C 
BRANCH    8    9
ATOM      9  C7  UNL A   1      52.205  14.496   2.393  1.00  0.00    +0.000 C 
ATOM    105  H13 UNL A   1      52.005  14.208   1.382  1.00  0.00    +0.000 H 
ATOM    104  H12 UNL A   1      52.658  13.699   2.947  1.00  0.00    +0.000 H 
BRANCH    9   10
ATOM     10  N2  UNL A   1      50.938  14.831   3.015  1.00  0.00    +0.000 N 
ATOM    106  H14 UNL A   1      50.266  15.238   2.421  1.00  0.00    +0.000 H 
BRANCH   10   11
ATOM     11  C8  UNL A   1      50.547  14.657   4.317  1.00  0.00    +0.000 C 
ATOM     12  O2  UNL A   1      51.152  13.873   5.041  1.00  0.00    +0.000 O 
BRANCH   11   13
ATOM    107  H15 UNL A   1      48.032  13.989   4.172  1.00  0.00    +0.000 H 
ATOM    108  H16 UNL A   1      46.073  15.144   5.018  1.00  0.00    +0.000 H 
ATOM     13  C9  UNL A   1      49.416  15.430   4.872  1.00  0.00    +0.000 C 
ATOM     14  C10 UNL A   1      48.138  14.884   4.675  1.00  0.00    +0.000 C 
ATOM     15  C11 UNL A   1      47.012  15.547   5.158  1.00  0.00    +0.000 C 
ATOM    110  H18 UNL A   1      48.530  18.202   6.516  1.00  0.00    +0.000 H 
ATOM     17  C13 UNL A   1      48.435  17.307   6.010  1.00  0.00    +0.000 C 
ATOM     18  C14 UNL A   1      49.587  16.671   5.519  1.00  0.00    +0.000 C 
ATOM     16  C12 UNL A   1      47.162  16.756   5.830  1.00  0.00    +0.000 C 
ATOM    109  H17 UNL A   1      46.332  17.246   6.196  1.00  0.00    +0.000 H 
BRANCH   18   19
ATOM     19  N3  UNL A   1      50.865  17.239   5.706  1.00  0.00    +0.000 N 
ATOM    111  H19 UNL A   1      51.071  17.984   5.094  1.00  0.00    +0.000 H 
BRANCH   19   20
ATOM    112  H20 UNL A   1      53.330  16.619   5.095  1.00  0.00    +0.000 H 
ATOM    113  H21 UNL A   1      55.175  16.181   6.598  1.00  0.00    +0.000 H 
ATOM    114  H22 UNL A   1      54.829  16.227   8.996  1.00  0.00    +0.000 H 
ATOM    115  H23 UNL A   1      50.778  17.180   8.378  1.00  0.00    +0.000 H 
ATOM     20  C15 UNL A   1      51.895  16.930   6.609  1.00  0.00    +0.000 C 
ATOM     21  C16 UNL A   1      53.174  16.643   6.114  1.00  0.00    +0.000 C 
ATOM     22  C17 UNL A   1      54.239  16.388   6.980  1.00  0.00    +0.000 C 
ATOM     23  C18 UNL A   1      54.040  16.413   8.359  1.00  0.00    +0.000 C 
ATOM     24  C19 UNL A   1      52.769  16.690   8.883  1.00  0.00    +0.000 C 
ATOM     25  C20 UNL A   1      52.557  16.716  10.377  1.00  0.00    +0.000 C 
ATOM     26  F1  UNL A   1      53.044  15.603  10.991  1.00  0.00    +0.000 F 
ATOM     27  F2  UNL A   1      53.171  17.774  10.971  1.00  0.00    +0.000 F 
ATOM     28  F3  UNL A   1      51.246  16.793  10.737  1.00  0.00    +0.000 F 
ATOM     29  C21 UNL A   1      51.712  16.958   7.997  1.00  0.00    +0.000 C 
ENDBRANCH   19   20
ENDBRANCH   18   19
ENDBRANCH   11   13
ENDBRANCH   10   11
ENDBRANCH    9   10
ENDBRANCH    8    9
ENDBRANCH    7    8
ENDBRANCH    6    7
ENDBRANCH    5    6
ENDBRANCH    4    5
ENDBRANCH    3    4
ENDBRANCH    2    3
ENDBRANCH   30    2
ENDBRANCH   34   33
BRANCH   38   39
ATOM     39  C30 UNL A   1      59.063  19.863  15.582  1.00  0.00    +0.000 C 
ATOM     40  C31 UNL A   1      60.168  20.726  15.615  1.00  0.00    +0.000 C 
ATOM     41  F4  UNL A   1      60.195  21.817  14.835  1.00  0.00    +0.000 F 
ATOM     42  C32 UNL A   1      61.263  20.460  16.434  1.00  0.00    +0.000 C 
ATOM     43  F5  UNL A   1      62.320  21.283  16.426  1.00  0.00    +0.000 F 
ATOM     44  C33 UNL A   1      61.263  19.341  17.255  1.00  0.00    +0.000 C 
ATOM     45  F6  UNL A   1      62.311  19.094  18.052  1.00  0.00    +0.000 F 
ATOM     46  C34 UNL A   1      60.177  18.478  17.245  1.00  0.00    +0.000 C 
ATOM     47  F7  UNL A   1      60.172  17.404  18.047  1.00  0.00    +0.000 F 
ATOM     48  C35 UNL A   1      59.092  18.730  16.410  1.00  0.00    +0.000 C 
ATOM     49  F8  UNL A   1      58.059  17.874  16.421  1.00  0.00    +0.000 F 
ENDBRANCH   38   39
BRANCH   55   56
ATOM     65  C46 UNL A   1      52.520  24.380  16.489  1.00  0.00    +0.000 C 
ATOM     66  F13 UNL A   1      53.143  25.145  15.581  1.00  0.00    +0.000 F 
ATOM     56  C41 UNL A   1      52.612  22.983  16.419  1.00  0.00    +0.000 C 
ATOM     57  C42 UNL A   1      51.944  22.227  17.394  1.00  0.00    +0.000 C 
ATOM     58  F9  UNL A   1      51.989  20.886  17.357  1.00  0.00    +0.000 F 
ATOM     59  C43 UNL A   1      51.183  22.846  18.380  1.00  0.00    +0.000 C 
ATOM     60  F10 UNL A   1      50.508  22.104  19.268  1.00  0.00    +0.000 F 
ATOM     61  C44 UNL A   1      51.105  24.230  18.432  1.00  0.00    +0.000 C 
ATOM     62  F11 UNL A   1      50.367  24.826  19.379  1.00  0.00    +0.000 F 
ATOM     63  C45 UNL A   1      51.779  24.997  17.493  1.00  0.00    +0.000 C 
ATOM     64  F12 UNL A   1      51.709  26.334  17.546  1.00  0.00    +0.000 F 
ENDBRANCH   55   56
BRANCH   70   71
ATOM     71  C50 UNL A   1      51.175  21.703   9.734  1.00  0.00    +0.000 C 
ATOM     72  C51 UNL A   1      50.959  22.969   9.177  1.00  0.00    +0.000 C 
ATOM     73  F14 UNL A   1      51.803  23.975   9.451  1.00  0.00    +0.000 F 
ATOM     74  C52 UNL A   1      49.855  23.216   8.363  1.00  0.00    +0.000 C 
ATOM     75  F15 UNL A   1      49.648  24.446   7.874  1.00  0.00    +0.000 F 
ATOM     76  C53 UNL A   1      48.966  22.194   8.065  1.00  0.00    +0.000 C 
ATOM     77  F16 UNL A   1      47.911  22.430   7.274  1.00  0.00    +0.000 F 
ATOM     78  C54 UNL A   1      49.169  20.928   8.593  1.00  0.00    +0.000 C 
ATOM     79  F17 UNL A   1      48.324  19.933   8.295  1.00  0.00    +0.000 F 
ATOM     80  C55 UNL A   1      50.253  20.688   9.432  1.00  0.00    +0.000 C 
ATOM     81  F18 UNL A   1      50.420  19.457   9.937  1.00  0.00    +0.000 F 
ENDBRANCH   70   71
TORSDOF 17
ENDMDL
MODEL 10
REMARK VINA RESULT:     -11.8     44.928     50.475
ROOT
ATOM     34  C26 UNL A   1      13.764  54.022   4.611  1.00  0.00    +0.000 C 
ATOM     35  C27 UNL A   1      14.773  54.462   3.588  1.00  0.00    +0.000 C 
ATOM     36  N4  UNL A   1      15.345  53.759   2.642  1.00  0.00    +0.000 N 
ATOM     37  C28 UNL A   1      16.180  54.637   1.964  1.00  0.00    +0.000 C 
ATOM     38  C29 UNL A   1      17.010  54.379   0.924  1.00  0.00    +0.000 C 
ATOM     50  C36 UNL A   1      17.173  53.084   0.312  1.00  0.00    +0.000 C 
ATOM     51  C37 UNL A   1      17.993  52.721  -0.743  1.00  0.00    +0.000 C 
ATOM     52  C38 UNL A   1      17.795  51.361  -1.008  1.00  0.00    +0.000 C 
ATOM     53  C39 UNL A   1      16.882  50.866  -0.092  1.00  0.00    +0.000 C 
ATOM     54  N5  UNL A   1      16.501  51.935   0.704  1.00  0.00    +0.000 N 
ATOM     55  C40 UNL A   1      16.396  49.518   0.049  1.00  0.00    +0.000 C 
ATOM     67  C47 UNL A   1      15.505  49.105   0.982  1.00  0.00    +0.000 C 
ATOM     68  N6  UNL A   1      14.855  49.847   1.957  1.00  0.00    +0.000 N 
ATOM     69  C48 UNL A   1      14.056  49.010   2.571  1.00  0.00    +0.000 C 
ATOM     70  C49 UNL A   1      13.114  49.268   3.710  1.00  0.00    +0.000 C 
ATOM     82  C56 UNL A   1      13.015  50.515   4.205  1.00  0.00    +0.000 C 
ATOM     83  C57 UNL A   1      12.158  50.909   5.318  1.00  0.00    +0.000 C 
ATOM     84  C58 UNL A   1      12.304  52.224   5.534  1.00  0.00    +0.000 C 
ATOM     85  C59 UNL A   1      13.306  52.754   4.607  1.00  0.00    +0.000 C 
ATOM     86  N7  UNL A   1      13.642  51.677   3.827  1.00  0.00    +0.000 N 
ATOM     87  C60 UNL A   1      14.112  47.635   2.059  1.00  0.00    +0.000 C 
ATOM     88  C61 UNL A   1      15.038  47.739   1.117  1.00  0.00    +0.000 C 
ATOM     89  C62 UNL A   1      16.020  55.934   2.587  1.00  0.00    +0.000 C 
ATOM     90  C63 UNL A   1      15.191  55.872   3.620  1.00  0.00    +0.000 C 
ATOM    118  H26 UNL A   1      18.641  53.347  -1.247  1.00  0.00    +0.000 H 
ATOM    119  H27 UNL A   1      18.253  50.819  -1.759  1.00  0.00    +0.000 H 
ATOM    120  H28 UNL A   1      15.849  51.886   1.441  1.00  0.00    +0.000 H 
ATOM    121  H29 UNL A   1      11.543  50.277   5.854  1.00  0.00    +0.000 H 
ATOM    122  H30 UNL A   1      11.790  52.774   6.239  1.00  0.00    +0.000 H 
ATOM    123  H31 UNL A   1      14.270  51.731   3.072  1.00  0.00    +0.000 H 
ATOM    124  H32 UNL A   1      13.572  46.806   2.355  1.00  0.00    +0.000 H 
ATOM    125  H33 UNL A   1      15.383  46.948   0.552  1.00  0.00    +0.000 H 
ATOM    126  H34 UNL A   1      16.490  56.795   2.268  1.00  0.00    +0.000 H 
ATOM    127  H35 UNL A   1      14.912  56.618   4.276  1.00  0.00    +0.000 H 
ENDROOT
BRANCH   34   33
ATOM    129  H37 UNL A   1      10.716  56.854   6.661  1.00  0.00    +0.000 H 
ATOM     33  C25 UNL A   1      13.297  54.931   5.688  1.00  0.00    +0.000 C 
ATOM    116  H24 UNL A   1      14.260  55.955   8.740  1.00  0.00    +0.000 H 
ATOM    117  H25 UNL A   1      15.066  54.709   6.828  1.00  0.00    +0.000 H 
ATOM     91  C64 UNL A   1      12.032  55.537   5.659  1.00  0.00    +0.000 C 
ATOM     92  C65 UNL A   1      11.633  56.382   6.702  1.00  0.00    +0.000 C 
ATOM    128  H36 UNL A   1      11.394  55.361   4.867  1.00  0.00    +0.000 H 
ATOM     30  C22 UNL A   1      12.477  56.583   7.799  1.00  0.00    +0.000 C 
ATOM     31  C23 UNL A   1      13.689  55.896   7.882  1.00  0.00    +0.000 C 
ATOM     32  C24 UNL A   1      14.125  55.133   6.806  1.00  0.00    +0.000 C 
BRANCH   30    2
ATOM      1  O1  UNL A   1      12.581  58.656   8.893  1.00  0.00    +0.000 O 
ATOM      2  C1  UNL A   1      12.076  57.538   8.857  1.00  0.00    +0.000 C 
BRANCH    2    3
ATOM      3  N1  UNL A   1      11.166  57.153   9.814  1.00  0.00    +0.000 N 
ATOM     93  H1  UNL A   1      10.329  57.671   9.840  1.00  0.00    +0.000 H 
BRANCH    3    4
ATOM      4  C2  UNL A   1      11.272  56.083  10.793  1.00  0.00    +0.000 C 
ATOM     94  H2  UNL A   1      10.645  56.324  11.625  1.00  0.00    +0.000 H 
ATOM     95  H3  UNL A   1      12.303  56.012  11.069  1.00  0.00    +0.000 H 
BRANCH    4    5
ATOM     97  H5  UNL A   1      10.147  54.334  10.951  1.00  0.00    +0.000 H 
ATOM      5  C3  UNL A   1      10.858  54.723  10.253  1.00  0.00    +0.000 C 
ATOM     96  H4  UNL A   1      10.463  54.866   9.269  1.00  0.00    +0.000 H 
BRANCH    5    6
ATOM     98  H6  UNL A   1      12.300  53.470  11.160  1.00  0.00    +0.000 H 
ATOM     99  H7  UNL A   1      12.721  54.112   9.536  1.00  0.00    +0.000 H 
ATOM      6  C4  UNL A   1      11.971  53.681  10.165  1.00  0.00    +0.000 C 
BRANCH    6    7
ATOM    100  H8  UNL A   1      12.437  52.026   8.928  1.00  0.00    +0.000 H 
ATOM    101  H9  UNL A   1      10.716  52.558   8.930  1.00  0.00    +0.000 H 
ATOM      7  C5  UNL A   1      11.595  52.351   9.505  1.00  0.00    +0.000 C 
BRANCH    7    8
ATOM    102  H10 UNL A   1      10.390  50.675   9.997  1.00  0.00    +0.000 H 
ATOM    103  H11 UNL A   1      10.963  51.668  11.380  1.00  0.00    +0.000 H 
ATOM      8  C6  UNL A   1      11.204  51.205  10.446  1.00  0.00    +0.000 C 
BRANCH    8    9
ATOM      9  C7  UNL A   1      12.304  50.193  10.759  1.00  0.00    +0.000 C 
ATOM    105  H13 UNL A   1      12.152  49.342  10.128  1.00  0.00    +0.000 H 
ATOM    104  H12 UNL A   1      13.255  50.652  10.578  1.00  0.00    +0.000 H 
BRANCH    9   10
ATOM     10  N2  UNL A   1      12.263  49.737  12.135  1.00  0.00    +0.000 N 
ATOM    106  H14 UNL A   1      11.750  48.911  12.295  1.00  0.00    +0.000 H 
BRANCH   10   11
ATOM     11  C8  UNL A   1      12.843  50.296  13.244  1.00  0.00    +0.000 C 
ATOM     12  O2  UNL A   1      13.238  49.579  14.159  1.00  0.00    +0.000 O 
BRANCH   11   13
ATOM    107  H15 UNL A   1      10.972  52.033  13.767  1.00  0.00    +0.000 H 
ATOM    108  H16 UNL A   1      11.110  54.449  13.949  1.00  0.00    +0.000 H 
ATOM     13  C9  UNL A   1      13.027  51.759  13.339  1.00  0.00    +0.000 C 
ATOM     14  C10 UNL A   1      11.877  52.510  13.629  1.00  0.00    +0.000 C 
ATOM     15  C11 UNL A   1      11.954  53.897  13.730  1.00  0.00    +0.000 C 
ATOM    110  H18 UNL A   1      15.218  54.272  13.094  1.00  0.00    +0.000 H 
ATOM     17  C13 UNL A   1      14.317  53.785  13.230  1.00  0.00    +0.000 C 
ATOM     18  C14 UNL A   1      14.267  52.387  13.104  1.00  0.00    +0.000 C 
ATOM     16  C12 UNL A   1      13.176  54.533  13.536  1.00  0.00    +0.000 C 
ATOM    109  H17 UNL A   1      13.239  55.559  13.618  1.00  0.00    +0.000 H 
BRANCH   18   19
ATOM     19  N3  UNL A   1      15.426  51.645  12.792  1.00  0.00    +0.000 N 
ATOM    111  H19 UNL A   1      15.945  51.352  13.577  1.00  0.00    +0.000 H 
BRANCH   19   20
ATOM    112  H20 UNL A   1      17.628  50.280  12.434  1.00  0.00    +0.000 H 
ATOM    113  H21 UNL A   1      18.565  49.479  10.352  1.00  0.00    +0.000 H 
ATOM    114  H22 UNL A   1      17.469  49.983   8.250  1.00  0.00    +0.000 H 
ATOM    115  H23 UNL A   1      14.470  52.074  10.331  1.00  0.00    +0.000 H 
ATOM     20  C15 UNL A   1      15.972  51.251  11.559  1.00  0.00    +0.000 C 
ATOM     21  C16 UNL A   1      17.152  50.497  11.544  1.00  0.00    +0.000 C 
ATOM     22  C17 UNL A   1      17.695  50.036  10.344  1.00  0.00    +0.000 C 
ATOM     23  C18 UNL A   1      17.066  50.326   9.135  1.00  0.00    +0.000 C 
ATOM     24  C19 UNL A   1      15.888  51.085   9.118  1.00  0.00    +0.000 C 
ATOM     25  C20 UNL A   1      15.209  51.398   7.807  1.00  0.00    +0.000 C 
ATOM     26  F1  UNL A   1      16.069  51.915   6.887  1.00  0.00    +0.000 F 
ATOM     27  F2  UNL A   1      14.657  50.297   7.231  1.00  0.00    +0.000 F 
ATOM     28  F3  UNL A   1      14.201  52.307   7.922  1.00  0.00    +0.000 F 
ATOM     29  C21 UNL A   1      15.348  51.530  10.337  1.00  0.00    +0.000 C 
ENDBRANCH   19   20
ENDBRANCH   18   19
ENDBRANCH   11   13
ENDBRANCH   10   11
ENDBRANCH    9   10
ENDBRANCH    8    9
ENDBRANCH    7    8
ENDBRANCH    6    7
ENDBRANCH    5    6
ENDBRANCH    4    5
ENDBRANCH    3    4
ENDBRANCH    2    3
ENDBRANCH   30    2
ENDBRANCH   34   33
BRANCH   38   39
ATOM     39  C30 UNL A   1      17.813  55.520   0.370  1.00  0.00    +0.000 C 
ATOM     40  C31 UNL A   1      19.073  55.850   0.891  1.00  0.00    +0.000 C 
ATOM     41  F4  UNL A   1      19.557  55.192   1.954  1.00  0.00    +0.000 F 
ATOM     42  C32 UNL A   1      19.833  56.877   0.334  1.00  0.00    +0.000 C 
ATOM     43  F5  UNL A   1      21.020  57.195   0.868  1.00  0.00    +0.000 F 
ATOM     44  C33 UNL A   1      19.362  57.574  -0.769  1.00  0.00    +0.000 C 
ATOM     45  F6  UNL A   1      20.100  58.552  -1.311  1.00  0.00    +0.000 F 
ATOM     46  C34 UNL A   1      18.123  57.258  -1.306  1.00  0.00    +0.000 C 
ATOM     47  F7  UNL A   1      17.671  57.924  -2.379  1.00  0.00    +0.000 F 
ATOM     48  C35 UNL A   1      17.350  56.249  -0.737  1.00  0.00    +0.000 C 
ATOM     49  F8  UNL A   1      16.155  55.969  -1.278  1.00  0.00    +0.000 F 
ENDBRANCH   38   39
BRANCH   55   56
ATOM     65  C46 UNL A   1      18.112  47.795  -0.617  1.00  0.00    +0.000 C 
ATOM     66  F13 UNL A   1      18.808  48.074   0.495  1.00  0.00    +0.000 F 
ATOM     56  C41 UNL A   1      16.917  48.474  -0.893  1.00  0.00    +0.000 C 
ATOM     57  C42 UNL A   1      16.229  48.147  -2.071  1.00  0.00    +0.000 C 
ATOM     58  F9  UNL A   1      15.072  48.758  -2.368  1.00  0.00    +0.000 F 
ATOM     59  C43 UNL A   1      16.702  47.153  -2.922  1.00  0.00    +0.000 C 
ATOM     60  F10 UNL A   1      15.999  46.818  -4.013  1.00  0.00    +0.000 F 
ATOM     61  C44 UNL A   1      17.886  46.493  -2.631  1.00  0.00    +0.000 C 
ATOM     62  F11 UNL A   1      18.337  45.532  -3.448  1.00  0.00    +0.000 F 
ATOM     63  C45 UNL A   1      18.596  46.819  -1.485  1.00  0.00    +0.000 C 
ATOM     64  F12 UNL A   1      19.744  46.187  -1.205  1.00  0.00    +0.000 F 
ENDBRANCH   55   56
BRANCH   70   71
ATOM     71  C50 UNL A   1      12.288  48.178   4.291  1.00  0.00    +0.000 C 
ATOM     72  C51 UNL A   1      11.062  47.815   3.721  1.00  0.00    +0.000 C 
ATOM     73  F14 UNL A   1      10.597  48.476   2.650  1.00  0.00    +0.000 F 
ATOM     74  C52 UNL A   1      10.291  46.792   4.270  1.00  0.00    +0.000 C 
ATOM     75  F15 UNL A   1       9.102  46.490   3.732  1.00  0.00    +0.000 F 
ATOM     76  C53 UNL A   1      10.747  46.094   5.378  1.00  0.00    +0.000 C 
ATOM     77  F16 UNL A   1      10.010  45.103   5.899  1.00  0.00    +0.000 F 
ATOM     78  C54 UNL A   1      11.966  46.426   5.949  1.00  0.00    +0.000 C 
ATOM     79  F17 UNL A   1      12.420  45.742   7.008  1.00  0.00    +0.000 F 
ATOM     80  C55 UNL A   1      12.722  47.468   5.421  1.00  0.00    +0.000 C 
ATOM     81  F18 UNL A   1      13.892  47.775   5.999  1.00  0.00    +0.000 F 
ENDBRANCH   70   71
TORSDOF 17
ENDMDL
