MODEL 1
REMARK VINA RESULT:     -11.7      0.000      0.000
ROOT
ATOM    129  H26 UNL A   1      38.209  28.207  29.900  1.00  0.00    +0.000 H 
ATOM    130  H27 UNL A   1      38.971  26.109  28.688  1.00  0.00    +0.000 H 
ATOM    131  H28 UNL A   1      42.052  28.893  28.476  1.00  0.00    +0.000 H 
ATOM    132  H29 UNL A   1      40.574  32.795  31.287  1.00  0.00    +0.000 H 
ATOM    133  H30 UNL A   1      42.806  33.901  30.696  1.00  0.00    +0.000 H 
ATOM    134  H31 UNL A   1      45.706  25.623  25.795  1.00  0.00    +0.000 H 
ATOM    135  H32 UNL A   1      43.351  24.649  26.048  1.00  0.00    +0.000 H 
ATOM     27  C20 UNL A   1      41.605  26.270  27.606  1.00  0.00    +0.000 C 
ATOM     28  C21 UNL A   1      43.004  26.591  27.166  1.00  0.00    +0.000 C 
ATOM     29  N3  UNL A   1      43.718  27.665  27.393  1.00  0.00    +0.000 N 
ATOM     30  C22 UNL A   1      44.950  27.431  26.800  1.00  0.00    +0.000 C 
ATOM     31  C23 UNL A   1      46.014  28.264  26.710  1.00  0.00    +0.000 C 
ATOM     43  C30 UNL A   1      46.045  29.599  27.246  1.00  0.00    +0.000 C 
ATOM     44  C31 UNL A   1      47.049  30.546  27.147  1.00  0.00    +0.000 C 
ATOM     45  C32 UNL A   1      46.657  31.676  27.872  1.00  0.00    +0.000 C 
ATOM     46  C33 UNL A   1      45.388  31.452  28.382  1.00  0.00    +0.000 C 
ATOM     47  N4  UNL A   1      45.024  30.174  27.988  1.00  0.00    +0.000 N 
ATOM     48  C34 UNL A   1      44.573  32.333  29.180  1.00  0.00    +0.000 C 
ATOM     60  C41 UNL A   1      43.315  32.060  29.601  1.00  0.00    +0.000 C 
ATOM     61  N5  UNL A   1      42.548  30.924  29.379  1.00  0.00    +0.000 N 
ATOM     62  C42 UNL A   1      41.412  31.129  29.999  1.00  0.00    +0.000 C 
ATOM     63  C43 UNL A   1      40.203  30.238  30.082  1.00  0.00    +0.000 C 
ATOM     75  C50 UNL A   1      40.219  29.046  29.454  1.00  0.00    +0.000 C 
ATOM     76  C51 UNL A   1      39.134  28.071  29.462  1.00  0.00    +0.000 C 
ATOM     77  C52 UNL A   1      39.532  26.968  28.809  1.00  0.00    +0.000 C 
ATOM     78  C53 UNL A   1      40.886  27.178  28.295  1.00  0.00    +0.000 C 
ATOM     79  N6  UNL A   1      41.202  28.449  28.702  1.00  0.00    +0.000 N 
ATOM     80  C54 UNL A   1      41.337  32.415  30.705  1.00  0.00    +0.000 C 
ATOM     81  C55 UNL A   1      42.508  32.958  30.400  1.00  0.00    +0.000 C 
ATOM     82  C56 UNL A   1      44.906  26.094  26.245  1.00  0.00    +0.000 C 
ATOM     83  C57 UNL A   1      43.704  25.557  26.390  1.00  0.00    +0.000 C 
ATOM    126  H23 UNL A   1      47.934  30.436  26.628  1.00  0.00    +0.000 H 
ATOM    127  H24 UNL A   1      47.218  32.532  28.005  1.00  0.00    +0.000 H 
ATOM    128  H25 UNL A   1      44.167  29.740  28.203  1.00  0.00    +0.000 H 
ENDROOT
BRANCH   27   26
ATOM    136  H33 UNL A   1      39.575  25.603  26.005  1.00  0.00    +0.000 H 
ATOM    137  H34 UNL A   1      38.636  23.410  25.577  1.00  0.00    +0.000 H 
ATOM     84  C58 UNL A   1      39.977  24.771  26.466  1.00  0.00    +0.000 C 
ATOM     85  C59 UNL A   1      39.462  23.509  26.189  1.00  0.00    +0.000 C 
ATOM     23  C16 UNL A   1      40.067  22.376  26.740  1.00  0.00    +0.000 C 
ATOM     24  C17 UNL A   1      41.091  22.510  27.682  1.00  0.00    +0.000 C 
ATOM     25  C18 UNL A   1      41.564  23.783  28.009  1.00  0.00    +0.000 C 
ATOM     26  C19 UNL A   1      41.041  24.919  27.370  1.00  0.00    +0.000 C 
ATOM    124  H21 UNL A   1      41.494  21.675  28.131  1.00  0.00    +0.000 H 
ATOM    125  H22 UNL A   1      42.300  23.889  28.724  1.00  0.00    +0.000 H 
BRANCH   23   21
ATOM     21  C15 UNL A   1      39.644  21.023  26.323  1.00  0.00    +0.000 C 
ATOM     22  O4  UNL A   1      40.138  20.035  26.854  1.00  0.00    +0.000 O 
BRANCH   21   20
ATOM    123  H20 UNL A   1      38.730  21.570  24.621  1.00  0.00    +0.000 H 
ATOM     20  N2  UNL A   1      38.705  20.886  25.329  1.00  0.00    +0.000 N 
BRANCH   20   19
ATOM    121  H18 UNL A   1      37.931  19.235  24.356  1.00  0.00    +0.000 H 
ATOM    122  H19 UNL A   1      37.639  19.304  26.096  1.00  0.00    +0.000 H 
ATOM     19  C14 UNL A   1      37.679  19.863  25.185  1.00  0.00    +0.000 C 
BRANCH   19   18
ATOM     18  C13 UNL A   1      36.300  20.470  24.942  1.00  0.00    +0.000 C 
ATOM    119  H16 UNL A   1      36.247  20.782  23.919  1.00  0.00    +0.000 H 
ATOM    120  H17 UNL A   1      35.584  19.711  25.182  1.00  0.00    +0.000 H 
BRANCH   18   17
ATOM     17  C12 UNL A   1      35.979  21.675  25.829  1.00  0.00    +0.000 C 
ATOM    117  H14 UNL A   1      34.976  21.565  26.187  1.00  0.00    +0.000 H 
ATOM    118  H15 UNL A   1      36.711  21.675  26.609  1.00  0.00    +0.000 H 
BRANCH   17   16
ATOM    115  H12 UNL A   1      35.201  23.593  25.349  1.00  0.00    +0.000 H 
ATOM    116  H13 UNL A   1      36.980  23.494  25.513  1.00  0.00    +0.000 H 
ATOM     16  C11 UNL A   1      36.090  23.037  25.134  1.00  0.00    +0.000 C 
BRANCH   16   15
ATOM    113  H10 UNL A   1      37.092  23.589  23.333  1.00  0.00    +0.000 H 
ATOM    114  H11 UNL A   1      36.402  21.951  23.343  1.00  0.00    +0.000 H 
ATOM     15  C10 UNL A   1      36.257  22.979  23.606  1.00  0.00    +0.000 C 
BRANCH   15   14
ATOM     14  C9  UNL A   1      35.026  23.471  22.837  1.00  0.00    +0.000 C 
ATOM    111  H8  UNL A   1      35.288  23.634  21.812  1.00  0.00    +0.000 H 
ATOM    112  H9  UNL A   1      34.254  22.734  22.898  1.00  0.00    +0.000 H 
BRANCH   14   13
ATOM     13  N1  UNL A   1      34.552  24.712  23.416  1.00  0.00    +0.000 N 
ATOM    110  H7  UNL A   1      35.200  25.123  24.032  1.00  0.00    +0.000 H 
BRANCH   13   11
ATOM     11  C8  UNL A   1      33.406  25.430  23.291  1.00  0.00    +0.000 C 
ATOM     12  O3  UNL A   1      33.222  25.958  22.191  1.00  0.00    +0.000 O 
BRANCH   11   10
ATOM     10  C7  UNL A   1      32.455  25.696  24.438  1.00  0.00    +0.000 C 
BRANCH   10    9
ATOM      9  C6  UNL A   1      32.196  26.944  24.896  1.00  0.00    +0.000 C 
ATOM    109  H6  UNL A   1      32.711  27.219  25.746  1.00  0.00    +0.000 H 
BRANCH    9    8
ATOM      5  C2  UNL A   1      29.360  29.764  23.339  1.00  0.00    +0.000 C 
ATOM    102  C73 UNL A   1      30.315  27.548  23.414  1.00  0.00    +0.000 C 
ATOM      6  C3  UNL A   1      30.335  30.217  24.228  1.00  0.00    +0.000 C 
ATOM    103  C74 UNL A   1      29.361  28.437  22.909  1.00  0.00    +0.000 C 
ATOM      7  C4  UNL A   1      31.301  29.324  24.711  1.00  0.00    +0.000 C 
ATOM      8  C5  UNL A   1      31.277  27.971  24.348  1.00  0.00    +0.000 C 
ATOM    107  H4  UNL A   1      30.346  31.204  24.528  1.00  0.00    +0.000 H 
ATOM    108  H5  UNL A   1      32.040  29.668  25.343  1.00  0.00    +0.000 H 
ATOM    149  H46 UNL A   1      30.314  26.567  23.096  1.00  0.00    +0.000 H 
ATOM    150  H47 UNL A   1      28.661  28.113  22.222  1.00  0.00    +0.000 H 
BRANCH    5    2
ATOM      2  S1  UNL A   1      28.125  30.888  22.723  1.00  0.00    +0.000 S 
ATOM      3  O1  UNL A   1      27.288  31.267  23.846  1.00  0.00    +0.000 O 
ATOM      4  O2  UNL A   1      27.556  30.266  21.543  1.00  0.00    +0.000 O 
BRANCH    2    1
ATOM      1  C1  UNL A   1      29.017  32.336  22.218  1.00  0.00    +0.000 C 
ATOM    106  H3  UNL A   1      28.793  32.554  21.195  1.00  0.00    +0.000 H 
ATOM    105  H2  UNL A   1      28.730  33.164  22.832  1.00  0.00    +0.000 H 
ATOM    104  H1  UNL A   1      30.068  32.162  22.322  1.00  0.00    +0.000 H 
ENDBRANCH    2    1
ENDBRANCH    5    2
ENDBRANCH    9    8
ENDBRANCH   10    9
BRANCH   10   86
ATOM    101  C72 UNL A   1      32.530  23.241  25.037  1.00  0.00    +0.000 C 
ATOM    138  H35 UNL A   1      30.311  25.551  26.013  1.00  0.00    +0.000 H 
ATOM    139  H36 UNL A   1      29.284  23.610  27.028  1.00  0.00    +0.000 H 
ATOM    140  H37 UNL A   1      30.247  21.417  26.679  1.00  0.00    +0.000 H 
ATOM    148  H45 UNL A   1      33.445  23.152  24.565  1.00  0.00    +0.000 H 
ATOM     86  C60 UNL A   1      31.939  24.505  25.165  1.00  0.00    +0.000 C 
ATOM     87  C61 UNL A   1      30.746  24.623  25.897  1.00  0.00    +0.000 C 
ATOM     88  C62 UNL A   1      30.144  23.505  26.467  1.00  0.00    +0.000 C 
ATOM     89  C63 UNL A   1      30.707  22.248  26.276  1.00  0.00    +0.000 C 
ATOM     90  C64 UNL A   1      31.895  22.092  25.541  1.00  0.00    +0.000 C 
BRANCH   90   91
ATOM     99  C70 UNL A   1      32.808  18.994  23.561  1.00  0.00    +0.000 C 
ATOM    100  C71 UNL A   1      32.403  20.296  23.865  1.00  0.00    +0.000 C 
ATOM    141  H38 UNL A   1      32.812  20.202  27.189  1.00  0.00    +0.000 H 
ATOM    142  H39 UNL A   1      33.495  17.934  26.676  1.00  0.00    +0.000 H 
ATOM    146  H43 UNL A   1      32.812  18.664  22.584  1.00  0.00    +0.000 H 
ATOM    147  H44 UNL A   1      32.109  20.929  23.104  1.00  0.00    +0.000 H 
ATOM     91  C65 UNL A   1      32.392  20.755  25.191  1.00  0.00    +0.000 C 
ATOM     92  C66 UNL A   1      32.805  19.875  26.210  1.00  0.00    +0.000 C 
ATOM     93  C67 UNL A   1      33.204  18.573  25.919  1.00  0.00    +0.000 C 
ATOM     94  C68 UNL A   1      33.206  18.142  24.593  1.00  0.00    +0.000 C 
BRANCH   94   95
ATOM     97  O5  UNL A   1      32.588  15.630  24.745  1.00  0.00    +0.000 O 
ATOM     98  O6  UNL A   1      34.079  16.396  22.856  1.00  0.00    +0.000 O 
ATOM     95  S2  UNL A   1      33.664  16.462  24.245  1.00  0.00    +0.000 S 
BRANCH   95   96
ATOM    145  H42 UNL A   1      35.434  15.189  25.142  1.00  0.00    +0.000 H 
ATOM    144  H41 UNL A   1      35.876  16.869  24.949  1.00  0.00    +0.000 H 
ATOM    143  H40 UNL A   1      34.852  16.381  26.279  1.00  0.00    +0.000 H 
ATOM     96  C69 UNL A   1      35.098  16.199  25.254  1.00  0.00    +0.000 C 
ENDBRANCH   95   96
ENDBRANCH   94   95
ENDBRANCH   90   91
ENDBRANCH   10   86
ENDBRANCH   11   10
ENDBRANCH   13   11
ENDBRANCH   14   13
ENDBRANCH   15   14
ENDBRANCH   16   15
ENDBRANCH   17   16
ENDBRANCH   18   17
ENDBRANCH   19   18
ENDBRANCH   20   19
ENDBRANCH   21   20
ENDBRANCH   23   21
ENDBRANCH   27   26
BRANCH   31   32
ATOM     33  C25 UNL A   1      47.350  27.792  24.608  1.00  0.00    +0.000 C 
ATOM     34  F1  UNL A   1      46.332  28.247  23.861  1.00  0.00    +0.000 F 
ATOM     35  C26 UNL A   1      48.495  27.327  23.967  1.00  0.00    +0.000 C 
ATOM     36  F2  UNL A   1      48.561  27.329  22.629  1.00  0.00    +0.000 F 
ATOM     37  C27 UNL A   1      49.562  26.848  24.712  1.00  0.00    +0.000 C 
ATOM     38  F3  UNL A   1      50.667  26.407  24.094  1.00  0.00    +0.000 F 
ATOM     39  C28 UNL A   1      49.483  26.821  26.096  1.00  0.00    +0.000 C 
ATOM     40  F4  UNL A   1      50.519  26.371  26.817  1.00  0.00    +0.000 F 
ATOM     41  C29 UNL A   1      48.327  27.259  26.738  1.00  0.00    +0.000 C 
ATOM     42  F5  UNL A   1      48.275  27.206  28.078  1.00  0.00    +0.000 F 
ATOM     32  C24 UNL A   1      47.237  27.754  26.006  1.00  0.00    +0.000 C 
ENDBRANCH   31   32
BRANCH   48   49
ATOM     49  C35 UNL A   1      45.152  33.664  29.558  1.00  0.00    +0.000 C 
ATOM     50  C36 UNL A   1      44.950  34.803  28.765  1.00  0.00    +0.000 C 
ATOM     51  F6  UNL A   1      44.286  34.707  27.604  1.00  0.00    +0.000 F 
ATOM     52  C37 UNL A   1      45.458  36.040  29.150  1.00  0.00    +0.000 C 
ATOM     53  F7  UNL A   1      45.285  37.108  28.358  1.00  0.00    +0.000 F 
ATOM     54  C38 UNL A   1      46.148  36.169  30.345  1.00  0.00    +0.000 C 
ATOM     55  F8  UNL A   1      46.625  37.365  30.719  1.00  0.00    +0.000 F 
ATOM     56  C39 UNL A   1      46.351  35.058  31.150  1.00  0.00    +0.000 C 
ATOM     57  F9  UNL A   1      47.007  35.183  32.312  1.00  0.00    +0.000 F 
ATOM     58  C40 UNL A   1      45.869  33.814  30.755  1.00  0.00    +0.000 C 
ATOM     59  F10 UNL A   1      46.085  32.756  31.551  1.00  0.00    +0.000 F 
ENDBRANCH   48   49
BRANCH   63   64
ATOM     65  C45 UNL A   1      38.885  30.411  32.212  1.00  0.00    +0.000 C 
ATOM     66  F11 UNL A   1      39.869  29.763  32.854  1.00  0.00    +0.000 F 
ATOM     67  C46 UNL A   1      37.750  30.792  32.925  1.00  0.00    +0.000 C 
ATOM     68  F12 UNL A   1      37.654  30.505  34.229  1.00  0.00    +0.000 F 
ATOM     69  C47 UNL A   1      36.715  31.455  32.283  1.00  0.00    +0.000 C 
ATOM     70  F13 UNL A   1      35.627  31.828  32.969  1.00  0.00    +0.000 F 
ATOM     71  C48 UNL A   1      36.808  31.727  30.926  1.00  0.00    +0.000 C 
ATOM     72  F14 UNL A   1      35.818  32.382  30.305  1.00  0.00    +0.000 F 
ATOM     73  C49 UNL A   1      37.930  31.322  30.207  1.00  0.00    +0.000 C 
ATOM     74  F15 UNL A   1      37.989  31.589  28.894  1.00  0.00    +0.000 F 
ATOM     64  C44 UNL A   1      38.995  30.661  30.837  1.00  0.00    +0.000 C 
ENDBRANCH   63   64
TORSDOF 23
ENDMDL
MODEL 2
REMARK VINA RESULT:     -11.5     37.208     42.744
ROOT
ATOM    129  H26 UNL A   1      16.754  56.901   2.058  1.00  0.00    +0.000 H 
ATOM    130  H27 UNL A   1      15.114  56.745   3.991  1.00  0.00    +0.000 H 
ATOM    131  H28 UNL A   1      15.232  53.035   2.120  1.00  0.00    +0.000 H 
ATOM    132  H29 UNL A   1      18.831  53.374  -1.379  1.00  0.00    +0.000 H 
ATOM    133  H30 UNL A   1      18.314  50.936  -1.963  1.00  0.00    +0.000 H 
ATOM    134  H31 UNL A   1      11.733  50.428   5.612  1.00  0.00    +0.000 H 
ATOM    135  H32 UNL A   1      11.952  52.954   5.972  1.00  0.00    +0.000 H 
ATOM     27  C20 UNL A   1      13.907  54.180   4.303  1.00  0.00    +0.000 C 
ATOM     28  C21 UNL A   1      13.443  52.753   4.274  1.00  0.00    +0.000 C 
ATOM     29  N3  UNL A   1      13.823  51.775   3.492  1.00  0.00    +0.000 N 
ATOM     30  C22 UNL A   1      13.114  50.658   3.913  1.00  0.00    +0.000 C 
ATOM     31  C23 UNL A   1      13.114  49.411   3.384  1.00  0.00    +0.000 C 
ATOM     43  C30 UNL A   1      13.893  49.017   2.240  1.00  0.00    +0.000 C 
ATOM     44  C31 UNL A   1      13.909  47.797   1.587  1.00  0.00    +0.000 C 
ATOM     45  C32 UNL A   1      14.863  47.862   0.565  1.00  0.00    +0.000 C 
ATOM     46  C33 UNL A   1      15.405  49.137   0.550  1.00  0.00    +0.000 C 
ATOM     47  N4  UNL A   1      14.799  49.836   1.582  1.00  0.00    +0.000 N 
ATOM     48  C34 UNL A   1      16.410  49.675  -0.331  1.00  0.00    +0.000 C 
ATOM     60  C41 UNL A   1      16.854  50.955  -0.315  1.00  0.00    +0.000 C 
ATOM     61  N5  UNL A   1      16.472  52.000   0.514  1.00  0.00    +0.000 N 
ATOM     62  C42 UNL A   1      17.194  53.032   0.151  1.00  0.00    +0.000 C 
ATOM     63  C43 UNL A   1      17.187  54.434   0.696  1.00  0.00    +0.000 C 
ATOM     75  C50 UNL A   1      16.342  54.746   1.697  1.00  0.00    +0.000 C 
ATOM     76  C51 UNL A   1      16.236  56.053   2.338  1.00  0.00    +0.000 C 
ATOM     77  C52 UNL A   1      15.359  55.974   3.351  1.00  0.00    +0.000 C 
ATOM     78  C53 UNL A   1      14.804  54.621   3.400  1.00  0.00    +0.000 C 
ATOM     79  N6  UNL A   1      15.425  53.970   2.363  1.00  0.00    +0.000 N 
ATOM     80  C54 UNL A   1      18.138  52.749  -0.940  1.00  0.00    +0.000 C 
ATOM     81  C55 UNL A   1      17.864  51.479  -1.210  1.00  0.00    +0.000 C 
ATOM     82  C56 UNL A   1      12.318  51.066   5.050  1.00  0.00    +0.000 C 
ATOM     83  C57 UNL A   1      12.438  52.367   5.275  1.00  0.00    +0.000 C 
ATOM    126  H23 UNL A   1      13.321  46.981   1.815  1.00  0.00    +0.000 H 
ATOM    127  H24 UNL A   1      15.119  47.090  -0.071  1.00  0.00    +0.000 H 
ATOM    128  H25 UNL A   1      14.983  50.775   1.813  1.00  0.00    +0.000 H 
ENDROOT
BRANCH   27   26
ATOM    136  H33 UNL A   1      11.595  55.505   4.466  1.00  0.00    +0.000 H 
ATOM    137  H34 UNL A   1      10.810  56.982   6.220  1.00  0.00    +0.000 H 
ATOM     84  C58 UNL A   1      12.184  55.679   5.295  1.00  0.00    +0.000 C 
ATOM     85  C59 UNL A   1      11.715  56.495   6.319  1.00  0.00    +0.000 C 
ATOM     23  C16 UNL A   1      12.473  56.653   7.482  1.00  0.00    +0.000 C 
ATOM     24  C17 UNL A   1      13.761  56.118   7.564  1.00  0.00    +0.000 C 
ATOM     25  C18 UNL A   1      14.258  55.351   6.507  1.00  0.00    +0.000 C 
ATOM     26  C19 UNL A   1      13.455  55.089   5.385  1.00  0.00    +0.000 C 
ATOM    124  H21 UNL A   1      14.342  56.287   8.399  1.00  0.00    +0.000 H 
ATOM    125  H22 UNL A   1      15.218  54.977   6.551  1.00  0.00    +0.000 H 
BRANCH   23   21
ATOM     21  C15 UNL A   1      11.918  57.375   8.647  1.00  0.00    +0.000 C 
ATOM     22  O4  UNL A   1      11.807  58.596   8.616  1.00  0.00    +0.000 O 
BRANCH   21   20
ATOM    123  H20 UNL A   1      11.708  57.110  10.626  1.00  0.00    +0.000 H 
ATOM     20  N2  UNL A   1      11.542  56.667   9.762  1.00  0.00    +0.000 N 
BRANCH   20   19
ATOM    121  H18 UNL A   1      10.129  55.377  10.545  1.00  0.00    +0.000 H 
ATOM    122  H19 UNL A   1      10.574  55.094   8.860  1.00  0.00    +0.000 H 
ATOM     19  C14 UNL A   1      10.930  55.348   9.836  1.00  0.00    +0.000 C 
BRANCH   19   18
ATOM     18  C13 UNL A   1      11.931  54.278  10.267  1.00  0.00    +0.000 C 
ATOM    119  H16 UNL A   1      12.869  54.756  10.460  1.00  0.00    +0.000 H 
ATOM    120  H17 UNL A   1      11.520  53.805  11.134  1.00  0.00    +0.000 H 
BRANCH   18   17
ATOM     17  C12 UNL A   1      12.157  53.177   9.229  1.00  0.00    +0.000 C 
ATOM    117  H14 UNL A   1      11.613  52.310   9.541  1.00  0.00    +0.000 H 
ATOM    118  H15 UNL A   1      11.822  53.574   8.294  1.00  0.00    +0.000 H 
BRANCH   17   16
ATOM    115  H12 UNL A   1      14.128  53.586   8.548  1.00  0.00    +0.000 H 
ATOM    116  H13 UNL A   1      14.007  52.543   9.997  1.00  0.00    +0.000 H 
ATOM     16  C11 UNL A   1      13.622  52.772   9.025  1.00  0.00    +0.000 C 
BRANCH   16   15
ATOM    113  H10 UNL A   1      13.676  50.652   8.788  1.00  0.00    +0.000 H 
ATOM    114  H11 UNL A   1      13.150  51.561   7.354  1.00  0.00    +0.000 H 
ATOM     15  C10 UNL A   1      13.839  51.511   8.172  1.00  0.00    +0.000 C 
BRANCH   15   14
ATOM     14  C9  UNL A   1      15.245  51.415   7.570  1.00  0.00    +0.000 C 
ATOM    111  H8  UNL A   1      15.359  52.161   6.812  1.00  0.00    +0.000 H 
ATOM    112  H9  UNL A   1      15.971  51.571   8.340  1.00  0.00    +0.000 H 
BRANCH   14   13
ATOM     13  N1  UNL A   1      15.439  50.102   6.987  1.00  0.00    +0.000 N 
ATOM    110  H7  UNL A   1      15.231  50.072   6.026  1.00  0.00    +0.000 H 
BRANCH   13   11
ATOM     11  C8  UNL A   1      15.847  48.905   7.481  1.00  0.00    +0.000 C 
ATOM     12  O3  UNL A   1      16.472  48.187   6.697  1.00  0.00    +0.000 O 
BRANCH   11   10
ATOM     10  C7  UNL A   1      15.472  48.394   8.856  1.00  0.00    +0.000 C 
BRANCH   10    9
ATOM      9  C6  UNL A   1      14.657  47.328   9.040  1.00  0.00    +0.000 C 
ATOM    109  H6  UNL A   1      15.135  46.428   9.200  1.00  0.00    +0.000 H 
BRANCH    9    8
ATOM      5  C2  UNL A   1      10.371  47.259   8.831  1.00  0.00    +0.000 C 
ATOM    102  C73 UNL A   1      12.482  48.401   8.575  1.00  0.00    +0.000 C 
ATOM      6  C3  UNL A   1      11.034  46.143   9.343  1.00  0.00    +0.000 C 
ATOM    103  C74 UNL A   1      11.087  48.400   8.470  1.00  0.00    +0.000 C 
ATOM      7  C4  UNL A   1      12.430  46.163   9.465  1.00  0.00    +0.000 C 
ATOM      8  C5  UNL A   1      13.176  47.271   9.041  1.00  0.00    +0.000 C 
ATOM    107  H4  UNL A   1      10.500  45.308   9.630  1.00  0.00    +0.000 H 
ATOM    108  H5  UNL A   1      12.916  45.349   9.873  1.00  0.00    +0.000 H 
ATOM    149  H46 UNL A   1      13.011  49.245   8.307  1.00  0.00    +0.000 H 
ATOM    150  H47 UNL A   1      10.592  49.238   8.127  1.00  0.00    +0.000 H 
BRANCH    5    2
ATOM      2  S1  UNL A   1       8.599  47.243   8.666  1.00  0.00    +0.000 S 
ATOM      3  O1  UNL A   1       8.186  45.855   8.578  1.00  0.00    +0.000 O 
ATOM      4  O2  UNL A   1       8.277  48.187   7.614  1.00  0.00    +0.000 O 
BRANCH    2    1
ATOM      1  C1  UNL A   1       7.978  47.882  10.200  1.00  0.00    +0.000 C 
ATOM    106  H3  UNL A   1       7.504  47.095  10.749  1.00  0.00    +0.000 H 
ATOM    105  H2  UNL A   1       8.788  48.281  10.775  1.00  0.00    +0.000 H 
ATOM    104  H1  UNL A   1       7.266  48.656  10.002  1.00  0.00    +0.000 H 
ENDBRANCH    2    1
ENDBRANCH    5    2
ENDBRANCH    9    8
ENDBRANCH   10    9
BRANCH   10   86
ATOM    101  C72 UNL A   1      14.981  49.841  10.870  1.00  0.00    +0.000 C 
ATOM    138  H35 UNL A   1      17.958  49.038   9.564  1.00  0.00    +0.000 H 
ATOM    139  H36 UNL A   1      18.715  50.564  11.282  1.00  0.00    +0.000 H 
ATOM    140  H37 UNL A   1      17.099  51.727  12.658  1.00  0.00    +0.000 H 
ATOM    148  H45 UNL A   1      13.981  49.589  10.810  1.00  0.00    +0.000 H 
ATOM     86  C60 UNL A   1      15.902  49.223  10.014  1.00  0.00    +0.000 C 
ATOM     87  C61 UNL A   1      17.269  49.500  10.177  1.00  0.00    +0.000 C 
ATOM     88  C62 UNL A   1      17.706  50.392  11.152  1.00  0.00    +0.000 C 
ATOM     89  C63 UNL A   1      16.775  51.048  11.951  1.00  0.00    +0.000 C 
ATOM     90  C64 UNL A   1      15.399  50.802  11.809  1.00  0.00    +0.000 C 
BRANCH   90   91
ATOM     99  C70 UNL A   1      12.198  51.931  13.489  1.00  0.00    +0.000 C 
ATOM    100  C71 UNL A   1      13.151  51.114  12.877  1.00  0.00    +0.000 C 
ATOM    141  H38 UNL A   1      15.625  53.353  12.564  1.00  0.00    +0.000 H 
ATOM    142  H39 UNL A   1      13.970  54.784  13.606  1.00  0.00    +0.000 H 
ATOM    146  H43 UNL A   1      11.272  51.551  13.744  1.00  0.00    +0.000 H 
ATOM    147  H44 UNL A   1      12.925  50.125  12.682  1.00  0.00    +0.000 H 
ATOM     91  C65 UNL A   1      14.411  51.620  12.524  1.00  0.00    +0.000 C 
ATOM     92  C66 UNL A   1      14.698  52.969  12.808  1.00  0.00    +0.000 C 
ATOM     93  C67 UNL A   1      13.752  53.794  13.413  1.00  0.00    +0.000 C 
ATOM     94  C68 UNL A   1      12.506  53.266  13.753  1.00  0.00    +0.000 C 
BRANCH   94   95
ATOM     97  O5  UNL A   1      10.914  53.755  15.738  1.00  0.00    +0.000 O 
ATOM     98  O6  UNL A   1      11.807  55.700  14.397  1.00  0.00    +0.000 O 
ATOM     95  S2  UNL A   1      11.292  54.345  14.470  1.00  0.00    +0.000 S 
BRANCH   95   96
ATOM    145  H42 UNL A   1       9.495  53.244  13.414  1.00  0.00    +0.000 H 
ATOM    144  H41 UNL A   1       9.173  54.948  13.632  1.00  0.00    +0.000 H 
ATOM    143  H40 UNL A   1      10.246  54.417  12.358  1.00  0.00    +0.000 H 
ATOM     96  C69 UNL A   1       9.915  54.227  13.358  1.00  0.00    +0.000 C 
ENDBRANCH   95   96
ENDBRANCH   94   95
ENDBRANCH   90   91
ENDBRANCH   10   86
ENDBRANCH   11   10
ENDBRANCH   13   11
ENDBRANCH   14   13
ENDBRANCH   15   14
ENDBRANCH   16   15
ENDBRANCH   17   16
ENDBRANCH   18   17
ENDBRANCH   19   18
ENDBRANCH   20   19
ENDBRANCH   21   20
ENDBRANCH   23   21
ENDBRANCH   27   26
BRANCH   31   32
ATOM     33  C25 UNL A   1      12.777  47.409   4.902  1.00  0.00    +0.000 C 
ATOM     34  F1  UNL A   1      14.100  47.354   5.121  1.00  0.00    +0.000 F 
ATOM     35  C26 UNL A   1      11.957  46.465   5.513  1.00  0.00    +0.000 C 
ATOM     36  F2  UNL A   1      12.495  45.518   6.295  1.00  0.00    +0.000 F 
ATOM     37  C27 UNL A   1      10.587  46.494   5.304  1.00  0.00    +0.000 C 
ATOM     38  F3  UNL A   1       9.798  45.588   5.899  1.00  0.00    +0.000 F 
ATOM     39  C28 UNL A   1      10.034  47.457   4.474  1.00  0.00    +0.000 C 
ATOM     40  F4  UNL A   1       8.709  47.494   4.282  1.00  0.00    +0.000 F 
ATOM     41  C29 UNL A   1      10.856  48.385   3.838  1.00  0.00    +0.000 C 
ATOM     42  F5  UNL A   1      10.293  49.295   3.029  1.00  0.00    +0.000 F 
ATOM     32  C24 UNL A   1      12.244  48.380   4.040  1.00  0.00    +0.000 C 
ENDBRANCH   31   32
BRANCH   48   49
ATOM     49  C35 UNL A   1      16.996  48.755  -1.360  1.00  0.00    +0.000 C 
ATOM     50  C36 UNL A   1      16.439  48.642  -2.643  1.00  0.00    +0.000 C 
ATOM     51  F6  UNL A   1      15.318  49.308  -2.953  1.00  0.00    +0.000 F 
ATOM     52  C37 UNL A   1      17.019  47.816  -3.602  1.00  0.00    +0.000 C 
ATOM     53  F7  UNL A   1      16.450  47.692  -4.809  1.00  0.00    +0.000 F 
ATOM     54  C38 UNL A   1      18.179  47.114  -3.309  1.00  0.00    +0.000 C 
ATOM     55  F8  UNL A   1      18.742  46.330  -4.239  1.00  0.00    +0.000 F 
ATOM     56  C39 UNL A   1      18.752  47.220  -2.051  1.00  0.00    +0.000 C 
ATOM     57  F9  UNL A   1      19.880  46.553  -1.770  1.00  0.00    +0.000 F 
ATOM     58  C40 UNL A   1      18.160  48.023  -1.081  1.00  0.00    +0.000 C 
ATOM     59  F10 UNL A   1      18.734  48.102   0.129  1.00  0.00    +0.000 F 
ENDBRANCH   48   49
BRANCH   63   64
ATOM     65  C45 UNL A   1      19.294  55.797   0.775  1.00  0.00    +0.000 C 
ATOM     66  F11 UNL A   1      19.630  55.180   1.917  1.00  0.00    +0.000 F 
ATOM     67  C46 UNL A   1      20.138  56.780   0.265  1.00  0.00    +0.000 C 
ATOM     68  F12 UNL A   1      21.264  57.097   0.917  1.00  0.00    +0.000 F 
ATOM     69  C47 UNL A   1      19.809  57.439  -0.910  1.00  0.00    +0.000 C 
ATOM     70  F13 UNL A   1      20.624  58.380  -1.405  1.00  0.00    +0.000 F 
ATOM     71  C48 UNL A   1      18.629  57.125  -1.569  1.00  0.00    +0.000 C 
ATOM     72  F14 UNL A   1      18.315  57.748  -2.713  1.00  0.00    +0.000 F 
ATOM     73  C49 UNL A   1      17.771  56.162  -1.045  1.00  0.00    +0.000 C 
ATOM     74  F15 UNL A   1      16.632  55.886  -1.697  1.00  0.00    +0.000 F 
ATOM     64  C44 UNL A   1      18.088  55.474   0.136  1.00  0.00    +0.000 C 
ENDBRANCH   63   64
TORSDOF 23
ENDMDL
MODEL 3
REMARK VINA RESULT:     -11.4      2.928      4.221
ROOT
ATOM    129  H26 UNL A   1      36.772  30.493  28.806  1.00  0.00    +0.000 H 
ATOM    130  H27 UNL A   1      37.939  28.336  28.146  1.00  0.00    +0.000 H 
ATOM    131  H28 UNL A   1      40.679  30.687  30.208  1.00  0.00    +0.000 H 
ATOM    132  H29 UNL A   1      38.107  34.697  31.826  1.00  0.00    +0.000 H 
ATOM    133  H30 UNL A   1      40.289  35.506  32.892  1.00  0.00    +0.000 H 
ATOM    134  H31 UNL A   1      44.888  27.011  30.128  1.00  0.00    +0.000 H 
ATOM    135  H32 UNL A   1      42.840  26.355  28.737  1.00  0.00    +0.000 H 
ATOM     27  C20 UNL A   1      40.657  28.165  28.994  1.00  0.00    +0.000 C 
ATOM     28  C21 UNL A   1      42.035  28.305  29.571  1.00  0.00    +0.000 C 
ATOM     29  N3  UNL A   1      42.533  29.269  30.304  1.00  0.00    +0.000 N 
ATOM     30  C22 UNL A   1      43.831  28.884  30.604  1.00  0.00    +0.000 C 
ATOM     31  C23 UNL A   1      44.777  29.569  31.290  1.00  0.00    +0.000 C 
ATOM     43  C30 UNL A   1      44.578  30.877  31.855  1.00  0.00    +0.000 C 
ATOM     44  C31 UNL A   1      45.494  31.683  32.509  1.00  0.00    +0.000 C 
ATOM     45  C32 UNL A   1      44.833  32.842  32.931  1.00  0.00    +0.000 C 
ATOM     46  C33 UNL A   1      43.518  32.779  32.500  1.00  0.00    +0.000 C 
ATOM     47  N4  UNL A   1      43.376  31.570  31.839  1.00  0.00    +0.000 N 
ATOM     48  C34 UNL A   1      42.465  33.745  32.686  1.00  0.00    +0.000 C 
ATOM     60  C41 UNL A   1      41.210  33.635  32.187  1.00  0.00    +0.000 C 
ATOM     61  N5  UNL A   1      40.664  32.616  31.419  1.00  0.00    +0.000 N 
ATOM     62  C42 UNL A   1      39.419  32.959  31.198  1.00  0.00    +0.000 C 
ATOM     63  C43 UNL A   1      38.362  32.235  30.409  1.00  0.00    +0.000 C 
ATOM     75  C50 UNL A   1      38.668  31.065  29.817  1.00  0.00    +0.000 C 
ATOM     76  C51 UNL A   1      37.746  30.244  29.040  1.00  0.00    +0.000 C 
ATOM     77  C52 UNL A   1      38.367  29.110  28.679  1.00  0.00    +0.000 C 
ATOM     78  C53 UNL A   1      39.749  29.147  29.160  1.00  0.00    +0.000 C 
ATOM     79  N6  UNL A   1      39.845  30.357  29.800  1.00  0.00    +0.000 N 
ATOM     80  C54 UNL A   1      39.026  34.230  31.822  1.00  0.00    +0.000 C 
ATOM     81  C55 UNL A   1      40.165  34.617  32.383  1.00  0.00    +0.000 C 
ATOM     82  C56 UNL A   1      44.032  27.576  30.016  1.00  0.00    +0.000 C 
ATOM     83  C57 UNL A   1      42.972  27.201  29.313  1.00  0.00    +0.000 C 
ATOM    126  H23 UNL A   1      46.492  31.467  32.658  1.00  0.00    +0.000 H 
ATOM    127  H24 UNL A   1      45.254  33.613  33.473  1.00  0.00    +0.000 H 
ATOM    128  H25 UNL A   1      42.545  31.249  31.418  1.00  0.00    +0.000 H 
ENDROOT
BRANCH   27   26
ATOM    136  H33 UNL A   1      39.223  26.154  30.008  1.00  0.00    +0.000 H 
ATOM    137  H34 UNL A   1      38.530  24.092  28.939  1.00  0.00    +0.000 H 
ATOM     84  C58 UNL A   1      39.476  25.973  29.024  1.00  0.00    +0.000 C 
ATOM     85  C59 UNL A   1      39.044  24.808  28.400  1.00  0.00    +0.000 C 
ATOM     23  C16 UNL A   1      39.306  24.609  27.042  1.00  0.00    +0.000 C 
ATOM     24  C17 UNL A   1      40.124  25.501  26.343  1.00  0.00    +0.000 C 
ATOM     25  C18 UNL A   1      40.613  26.639  26.989  1.00  0.00    +0.000 C 
ATOM     26  C19 UNL A   1      40.255  26.906  28.321  1.00  0.00    +0.000 C 
ATOM    124  H21 UNL A   1      40.366  25.320  25.357  1.00  0.00    +0.000 H 
ATOM    125  H22 UNL A   1      41.239  27.286  26.486  1.00  0.00    +0.000 H 
BRANCH   23   21
ATOM     21  C15 UNL A   1      38.711  23.464  26.323  1.00  0.00    +0.000 C 
ATOM     22  O4  UNL A   1      39.398  22.486  26.049  1.00  0.00    +0.000 O 
BRANCH   21   20
ATOM    123  H20 UNL A   1      36.749  23.702  26.681  1.00  0.00    +0.000 H 
ATOM     20  N2  UNL A   1      37.388  23.513  25.955  1.00  0.00    +0.000 N 
BRANCH   20   19
ATOM    121  H18 UNL A   1      37.461  23.748  23.902  1.00  0.00    +0.000 H 
ATOM    122  H19 UNL A   1      36.680  22.272  24.477  1.00  0.00    +0.000 H 
ATOM     19  C14 UNL A   1      36.805  23.322  24.634  1.00  0.00    +0.000 C 
BRANCH   19   18
ATOM     18  C13 UNL A   1      35.436  23.985  24.514  1.00  0.00    +0.000 C 
ATOM    119  H16 UNL A   1      35.548  24.886  23.946  1.00  0.00    +0.000 H 
ATOM    120  H17 UNL A   1      34.791  23.274  24.040  1.00  0.00    +0.000 H 
BRANCH   18   17
ATOM     17  C12 UNL A   1      34.790  24.340  25.855  1.00  0.00    +0.000 C 
ATOM    117  H14 UNL A   1      35.520  24.850  26.449  1.00  0.00    +0.000 H 
ATOM    118  H15 UNL A   1      33.935  24.941  25.625  1.00  0.00    +0.000 H 
BRANCH   17   16
ATOM    115  H12 UNL A   1      34.420  22.260  26.075  1.00  0.00    +0.000 H 
ATOM    116  H13 UNL A   1      34.818  23.142  27.580  1.00  0.00    +0.000 H 
ATOM     16  C11 UNL A   1      34.271  23.143  26.660  1.00  0.00    +0.000 C 
BRANCH   16   15
ATOM    113  H10 UNL A   1      32.216  22.687  26.309  1.00  0.00    +0.000 H 
ATOM    114  H11 UNL A   1      32.691  22.771  28.019  1.00  0.00    +0.000 H 
ATOM     15  C10 UNL A   1      32.784  23.211  27.048  1.00  0.00    +0.000 C 
BRANCH   15   14
ATOM     14  C9  UNL A   1      32.244  24.642  27.149  1.00  0.00    +0.000 C 
ATOM    111  H8  UNL A   1      32.032  24.870  28.173  1.00  0.00    +0.000 H 
ATOM    112  H9  UNL A   1      32.977  25.324  26.773  1.00  0.00    +0.000 H 
BRANCH   14   13
ATOM     13  N1  UNL A   1      31.030  24.763  26.367  1.00  0.00    +0.000 N 
ATOM    110  H7  UNL A   1      30.316  24.156  26.668  1.00  0.00    +0.000 H 
BRANCH   13   11
ATOM     11  C8  UNL A   1      30.665  25.534  25.310  1.00  0.00    +0.000 C 
ATOM     12  O3  UNL A   1      29.470  25.836  25.255  1.00  0.00    +0.000 O 
BRANCH   11   10
ATOM     10  C7  UNL A   1      31.604  25.912  24.185  1.00  0.00    +0.000 C 
BRANCH   10    9
ATOM      9  C6  UNL A   1      31.961  27.194  23.933  1.00  0.00    +0.000 C 
ATOM    109  H6  UNL A   1      32.975  27.379  23.934  1.00  0.00    +0.000 H 
BRANCH    9    8
ATOM      5  C2  UNL A   1      29.291  30.448  23.093  1.00  0.00    +0.000 C 
ATOM    102  C73 UNL A   1      30.264  28.311  22.530  1.00  0.00    +0.000 C 
ATOM      6  C3  UNL A   1      30.145  30.549  24.192  1.00  0.00    +0.000 C 
ATOM    103  C74 UNL A   1      29.364  29.343  22.244  1.00  0.00    +0.000 C 
ATOM      7  C4  UNL A   1      31.058  29.520  24.457  1.00  0.00    +0.000 C 
ATOM      8  C5  UNL A   1      31.099  28.369  23.659  1.00  0.00    +0.000 C 
ATOM    107  H4  UNL A   1      30.105  31.377  24.806  1.00  0.00    +0.000 H 
ATOM    108  H5  UNL A   1      31.711  29.611  25.250  1.00  0.00    +0.000 H 
ATOM    149  H46 UNL A   1      30.316  27.495  21.901  1.00  0.00    +0.000 H 
ATOM    150  H47 UNL A   1      28.758  29.288  21.410  1.00  0.00    +0.000 H 
BRANCH    5    2
ATOM      2  S1  UNL A   1      28.123  31.746  22.751  1.00  0.00    +0.000 S 
ATOM      3  O1  UNL A   1      27.080  31.664  23.756  1.00  0.00    +0.000 O 
ATOM      4  O2  UNL A   1      27.809  31.653  21.338  1.00  0.00    +0.000 O 
BRANCH    2    1
ATOM      1  C1  UNL A   1      29.006  33.259  23.029  1.00  0.00    +0.000 C 
ATOM    106  H3  UNL A   1      29.526  33.203  23.962  1.00  0.00    +0.000 H 
ATOM    105  H2  UNL A   1      29.710  33.412  22.237  1.00  0.00    +0.000 H 
ATOM    104  H1  UNL A   1      28.315  34.076  23.056  1.00  0.00    +0.000 H 
ENDBRANCH    2    1
ENDBRANCH    5    2
ENDBRANCH    9    8
ENDBRANCH   10    9
BRANCH   10   86
ATOM    101  C72 UNL A   1      31.955  23.473  23.619  1.00  0.00    +0.000 C 
ATOM    138  H35 UNL A   1      32.552  26.157  21.708  1.00  0.00    +0.000 H 
ATOM    139  H36 UNL A   1      33.420  24.455  20.224  1.00  0.00    +0.000 H 
ATOM    140  H37 UNL A   1      33.473  22.144  20.941  1.00  0.00    +0.000 H 
ATOM    148  H45 UNL A   1      31.491  23.199  24.500  1.00  0.00    +0.000 H 
ATOM     86  C60 UNL A   1      31.992  24.823  23.248  1.00  0.00    +0.000 C 
ATOM     87  C61 UNL A   1      32.535  25.168  21.999  1.00  0.00    +0.000 C 
ATOM     88  C62 UNL A   1      33.052  24.192  21.151  1.00  0.00    +0.000 C 
ATOM     89  C63 UNL A   1      33.068  22.863  21.561  1.00  0.00    +0.000 C 
ATOM     90  C64 UNL A   1      32.541  22.485  22.807  1.00  0.00    +0.000 C 
BRANCH   90   91
ATOM     99  C70 UNL A   1      33.730  19.527  24.855  1.00  0.00    +0.000 C 
ATOM    100  C71 UNL A   1      33.514  20.842  24.435  1.00  0.00    +0.000 C 
ATOM    141  H38 UNL A   1      31.535  20.225  21.802  1.00  0.00    +0.000 H 
ATOM    142  H39 UNL A   1      31.921  17.939  22.509  1.00  0.00    +0.000 H 
ATOM    146  H43 UNL A   1      34.319  19.333  25.680  1.00  0.00    +0.000 H 
ATOM    147  H44 UNL A   1      33.946  21.621  24.957  1.00  0.00    +0.000 H 
ATOM     91  C65 UNL A   1      32.717  21.117  23.314  1.00  0.00    +0.000 C 
ATOM     92  C66 UNL A   1      32.132  20.038  22.623  1.00  0.00    +0.000 C 
ATOM     93  C67 UNL A   1      32.346  18.722  23.029  1.00  0.00    +0.000 C 
ATOM     94  C68 UNL A   1      33.143  18.476  24.147  1.00  0.00    +0.000 C 
BRANCH   94   95
ATOM     97  O5  UNL A   1      32.686  16.555  25.824  1.00  0.00    +0.000 O 
ATOM     98  O6  UNL A   1      33.273  15.964  23.440  1.00  0.00    +0.000 O 
ATOM     95  S2  UNL A   1      33.453  16.792  24.618  1.00  0.00    +0.000 S 
BRANCH   95   96
ATOM    145  H42 UNL A   1      35.311  17.189  26.013  1.00  0.00    +0.000 H 
ATOM    144  H41 UNL A   1      35.543  15.776  25.011  1.00  0.00    +0.000 H 
ATOM    143  H40 UNL A   1      35.718  17.374  24.324  1.00  0.00    +0.000 H 
ATOM     96  C69 UNL A   1      35.177  16.782  25.032  1.00  0.00    +0.000 C 
ENDBRANCH   95   96
ENDBRANCH   94   95
ENDBRANCH   90   91
ENDBRANCH   10   86
ENDBRANCH   11   10
ENDBRANCH   13   11
ENDBRANCH   14   13
ENDBRANCH   15   14
ENDBRANCH   16   15
ENDBRANCH   17   16
ENDBRANCH   18   17
ENDBRANCH   19   18
ENDBRANCH   20   19
ENDBRANCH   21   20
ENDBRANCH   23   21
ENDBRANCH   27   26
BRANCH   31   32
ATOM     33  C25 UNL A   1      46.396  28.112  32.587  1.00  0.00    +0.000 C 
ATOM     34  F1  UNL A   1      45.477  27.952  33.552  1.00  0.00    +0.000 F 
ATOM     35  C26 UNL A   1      47.638  27.500  32.736  1.00  0.00    +0.000 C 
ATOM     36  F2  UNL A   1      47.900  26.778  33.834  1.00  0.00    +0.000 F 
ATOM     37  C27 UNL A   1      48.608  27.649  31.757  1.00  0.00    +0.000 C 
ATOM     38  F3  UNL A   1      49.801  27.054  31.899  1.00  0.00    +0.000 F 
ATOM     39  C28 UNL A   1      48.346  28.419  30.634  1.00  0.00    +0.000 C 
ATOM     40  F4  UNL A   1      49.278  28.553  29.682  1.00  0.00    +0.000 F 
ATOM     41  C29 UNL A   1      47.115  29.055  30.497  1.00  0.00    +0.000 C 
ATOM     42  F5  UNL A   1      46.896  29.806  29.406  1.00  0.00    +0.000 F 
ATOM     32  C24 UNL A   1      46.115  28.914  31.471  1.00  0.00    +0.000 C 
ENDBRANCH   31   32
BRANCH   48   49
ATOM     49  C35 UNL A   1      42.786  34.979  33.476  1.00  0.00    +0.000 C 
ATOM     50  C36 UNL A   1      42.665  35.005  34.874  1.00  0.00    +0.000 C 
ATOM     51  F6  UNL A   1      42.189  33.936  35.529  1.00  0.00    +0.000 F 
ATOM     52  C37 UNL A   1      43.006  36.143  35.599  1.00  0.00    +0.000 C 
ATOM     53  F7  UNL A   1      42.848  36.159  36.930  1.00  0.00    +0.000 F 
ATOM     54  C38 UNL A   1      43.501  37.262  34.947  1.00  0.00    +0.000 C 
ATOM     55  F8  UNL A   1      43.841  38.352  35.650  1.00  0.00    +0.000 F 
ATOM     56  C39 UNL A   1      43.638  37.255  33.567  1.00  0.00    +0.000 C 
ATOM     57  F9  UNL A   1      44.128  38.332  32.937  1.00  0.00    +0.000 F 
ATOM     58  C40 UNL A   1      43.271  36.129  32.836  1.00  0.00    +0.000 C 
ATOM     59  F10 UNL A   1      43.410  36.153  31.502  1.00  0.00    +0.000 F 
ENDBRANCH   48   49
BRANCH   63   64
ATOM     65  C45 UNL A   1      36.032  32.604  31.267  1.00  0.00    +0.000 C 
ATOM     66  F11 UNL A   1      36.335  31.878  32.354  1.00  0.00    +0.000 F 
ATOM     67  C46 UNL A   1      34.744  33.120  31.137  1.00  0.00    +0.000 C 
ATOM     68  F12 UNL A   1      33.831  32.882  32.088  1.00  0.00    +0.000 F 
ATOM     69  C47 UNL A   1      34.402  33.866  30.020  1.00  0.00    +0.000 C 
ATOM     70  F13 UNL A   1      33.166  34.368  29.898  1.00  0.00    +0.000 F 
ATOM     71  C48 UNL A   1      35.344  34.088  29.025  1.00  0.00    +0.000 C 
ATOM     72  F14 UNL A   1      35.023  34.822  27.952  1.00  0.00    +0.000 F 
ATOM     73  C49 UNL A   1      36.623  33.550  29.141  1.00  0.00    +0.000 C 
ATOM     74  F15 UNL A   1      37.510  33.771  28.160  1.00  0.00    +0.000 F 
ATOM     64  C44 UNL A   1      36.995  32.801  30.268  1.00  0.00    +0.000 C 
ENDBRANCH   63   64
TORSDOF 23
ENDMDL
MODEL 4
REMARK VINA RESULT:     -10.6     37.585     42.890
ROOT
ATOM    129  H26 UNL A   1      26.961 -12.683  27.752  1.00  0.00    +0.000 H 
ATOM    130  H27 UNL A   1      28.806 -14.151  28.695  1.00  0.00    +0.000 H 
ATOM    131  H28 UNL A   1      26.542 -12.744  31.885  1.00  0.00    +0.000 H 
ATOM    132  H29 UNL A   1      22.690 -10.238  29.838  1.00  0.00    +0.000 H 
ATOM    133  H30 UNL A   1      21.882  -9.787  32.225  1.00  0.00    +0.000 H 
ATOM    134  H31 UNL A   1      29.290 -15.493  35.901  1.00  0.00    +0.000 H 
ATOM    135  H32 UNL A   1      30.331 -15.645  33.566  1.00  0.00    +0.000 H 
ATOM     27  C20 UNL A   1      28.768 -14.405  31.535  1.00  0.00    +0.000 C 
ATOM     28  C21 UNL A   1      28.516 -14.402  33.015  1.00  0.00    +0.000 C 
ATOM     29  N3  UNL A   1      27.545 -13.839  33.689  1.00  0.00    +0.000 N 
ATOM     30  C22 UNL A   1      27.761 -14.178  35.017  1.00  0.00    +0.000 C 
ATOM     31  C23 UNL A   1      27.061 -13.792  36.110  1.00  0.00    +0.000 C 
ATOM     43  C30 UNL A   1      25.915 -12.923  36.072  1.00  0.00    +0.000 C 
ATOM     44  C31 UNL A   1      25.179 -12.418  37.130  1.00  0.00    +0.000 C 
ATOM     45  C32 UNL A   1      24.122 -11.665  36.607  1.00  0.00    +0.000 C 
ATOM     46  C33 UNL A   1      24.228 -11.661  35.226  1.00  0.00    +0.000 C 
ATOM     47  N4  UNL A   1      25.333 -12.434  34.911  1.00  0.00    +0.000 N 
ATOM     48  C34 UNL A   1      23.377 -11.009  34.263  1.00  0.00    +0.000 C 
ATOM     60  C41 UNL A   1      23.575 -11.009  32.923  1.00  0.00    +0.000 C 
ATOM     61  N5  UNL A   1      24.592 -11.609  32.192  1.00  0.00    +0.000 N 
ATOM     62  C42 UNL A   1      24.341 -11.338  30.935  1.00  0.00    +0.000 C 
ATOM     63  C43 UNL A   1      25.121 -11.722  29.708  1.00  0.00    +0.000 C 
ATOM     75  C50 UNL A   1      26.249 -12.445  29.845  1.00  0.00    +0.000 C 
ATOM     76  C51 UNL A   1      27.096 -12.907  28.750  1.00  0.00    +0.000 C 
ATOM     77  C52 UNL A   1      28.080 -13.672  29.250  1.00  0.00    +0.000 C 
ATOM     78  C53 UNL A   1      27.959 -13.714  30.708  1.00  0.00    +0.000 C 
ATOM     79  N6  UNL A   1      26.861 -12.935  30.974  1.00  0.00    +0.000 N 
ATOM     80  C54 UNL A   1      23.118 -10.550  30.724  1.00  0.00    +0.000 C 
ATOM     81  C55 UNL A   1      22.710 -10.347  31.969  1.00  0.00    +0.000 C 
ATOM     82  C56 UNL A   1      28.927 -15.036  35.051  1.00  0.00    +0.000 C 
ATOM     83  C57 UNL A   1      29.468 -15.153  33.847  1.00  0.00    +0.000 C 
ATOM    126  H23 UNL A   1      25.376 -12.572  38.131  1.00  0.00    +0.000 H 
ATOM    127  H24 UNL A   1      23.388 -11.192  37.158  1.00  0.00    +0.000 H 
ATOM    128  H25 UNL A   1      25.659 -12.611  33.999  1.00  0.00    +0.000 H 
ENDROOT
BRANCH   27   26
ATOM    136  H33 UNL A   1      28.522 -16.695  30.185  1.00  0.00    +0.000 H 
ATOM    137  H34 UNL A   1      30.258 -18.085  29.223  1.00  0.00    +0.000 H 
ATOM     84  C58 UNL A   1      29.511 -16.413  30.265  1.00  0.00    +0.000 C 
ATOM     85  C59 UNL A   1      30.503 -17.191  29.678  1.00  0.00    +0.000 C 
ATOM     23  C16 UNL A   1      31.832 -16.759  29.705  1.00  0.00    +0.000 C 
ATOM     24  C17 UNL A   1      32.191 -15.628  30.442  1.00  0.00    +0.000 C 
ATOM     25  C18 UNL A   1      31.202 -14.882  31.087  1.00  0.00    +0.000 C 
ATOM     26  C19 UNL A   1      29.850 -15.244  30.965  1.00  0.00    +0.000 C 
ATOM    124  H21 UNL A   1      33.180 -15.345  30.510  1.00  0.00    +0.000 H 
ATOM    125  H22 UNL A   1      31.465 -14.062  31.655  1.00  0.00    +0.000 H 
BRANCH   23   21
ATOM     21  C15 UNL A   1      32.871 -17.481  28.942  1.00  0.00    +0.000 C 
ATOM     22  O4  UNL A   1      33.094 -18.664  29.177  1.00  0.00    +0.000 O 
BRANCH   21   20
ATOM    123  H20 UNL A   1      34.568 -16.840  28.081  1.00  0.00    +0.000 H 
ATOM     20  N2  UNL A   1      33.589 -16.813  27.980  1.00  0.00    +0.000 N 
BRANCH   20   19
ATOM    121  H18 UNL A   1      33.251 -16.652  25.947  1.00  0.00    +0.000 H 
ATOM    122  H19 UNL A   1      32.053 -15.876  26.986  1.00  0.00    +0.000 H 
ATOM     19  C14 UNL A   1      33.093 -16.069  26.831  1.00  0.00    +0.000 C 
BRANCH   19   18
ATOM     18  C13 UNL A   1      33.803 -14.728  26.669  1.00  0.00    +0.000 C 
ATOM    119  H16 UNL A   1      34.824 -14.851  26.967  1.00  0.00    +0.000 H 
ATOM    120  H17 UNL A   1      33.701 -14.448  25.642  1.00  0.00    +0.000 H 
BRANCH   18   17
ATOM     17  C12 UNL A   1      33.196 -13.593  27.497  1.00  0.00    +0.000 C 
ATOM    117  H14 UNL A   1      33.472 -13.745  28.520  1.00  0.00    +0.000 H 
ATOM    118  H15 UNL A   1      33.581 -12.683  27.085  1.00  0.00    +0.000 H 
BRANCH   17   16
ATOM    115  H12 UNL A   1      31.398 -13.274  26.412  1.00  0.00    +0.000 H 
ATOM    116  H13 UNL A   1      31.286 -14.419  27.783  1.00  0.00    +0.000 H 
ATOM     16  C11 UNL A   1      31.669 -13.485  27.426  1.00  0.00    +0.000 C 
BRANCH   16   15
ATOM    113  H10 UNL A   1      30.866 -11.531  27.724  1.00  0.00    +0.000 H 
ATOM    114  H11 UNL A   1      30.144 -12.807  28.729  1.00  0.00    +0.000 H 
ATOM     15  C10 UNL A   1      31.047 -12.400  28.320  1.00  0.00    +0.000 C 
BRANCH   15   14
ATOM     14  C9  UNL A   1      31.935 -12.000  29.503  1.00  0.00    +0.000 C 
ATOM    111  H8  UNL A   1      31.889 -12.759  30.256  1.00  0.00    +0.000 H 
ATOM    112  H9  UNL A   1      32.944 -11.888  29.166  1.00  0.00    +0.000 H 
BRANCH   14   13
ATOM     13  N1  UNL A   1      31.474 -10.743  30.058  1.00  0.00    +0.000 N 
ATOM    110  H7  UNL A   1      30.958 -10.854  30.889  1.00  0.00    +0.000 H 
BRANCH   13   11
ATOM     11  C8  UNL A   1      31.601  -9.444  29.679  1.00  0.00    +0.000 C 
ATOM     12  O3  UNL A   1      31.551  -8.614  30.590  1.00  0.00    +0.000 O 
BRANCH   11   10
ATOM     10  C7  UNL A   1      31.673  -8.996  28.235  1.00  0.00    +0.000 C 
BRANCH   10    9
ATOM      9  C6  UNL A   1      32.848  -8.787  27.595  1.00  0.00    +0.000 C 
ATOM    109  H6  UNL A   1      33.314  -7.891  27.807  1.00  0.00    +0.000 H 
BRANCH    9    8
ATOM      5  C2  UNL A   1      34.971 -11.456  24.989  1.00  0.00    +0.000 C 
ATOM    102  C73 UNL A   1      34.847 -10.102  26.984  1.00  0.00    +0.000 C 
ATOM      6  C3  UNL A   1      33.715 -10.995  24.596  1.00  0.00    +0.000 C 
ATOM    103  C74 UNL A   1      35.554 -10.993  26.169  1.00  0.00    +0.000 C 
ATOM      7  C4  UNL A   1      33.025 -10.085  25.409  1.00  0.00    +0.000 C 
ATOM      8  C5  UNL A   1      33.559  -9.663  26.633  1.00  0.00    +0.000 C 
ATOM    107  H4  UNL A   1      33.295 -11.321  23.712  1.00  0.00    +0.000 H 
ATOM    108  H5  UNL A   1      32.110  -9.721  25.100  1.00  0.00    +0.000 H 
ATOM    149  H46 UNL A   1      35.279  -9.761  27.857  1.00  0.00    +0.000 H 
ATOM    150  H47 UNL A   1      36.499 -11.306  26.440  1.00  0.00    +0.000 H 
BRANCH    5    2
ATOM      2  S1  UNL A   1      35.854 -12.615  23.968  1.00  0.00    +0.000 S 
ATOM      3  O1  UNL A   1      36.683 -13.420  24.846  1.00  0.00    +0.000 O 
ATOM      4  O2  UNL A   1      36.437 -11.848  22.885  1.00  0.00    +0.000 O 
BRANCH    2    1
ATOM      1  C1  UNL A   1      34.612 -13.685  23.290  1.00  0.00    +0.000 C 
ATOM    106  H3  UNL A   1      33.866 -13.881  24.031  1.00  0.00    +0.000 H 
ATOM    105  H2  UNL A   1      34.159 -13.214  22.443  1.00  0.00    +0.000 H 
ATOM    104  H1  UNL A   1      35.062 -14.607  22.987  1.00  0.00    +0.000 H 
ENDBRANCH    2    1
ENDBRANCH    5    2
ENDBRANCH    9    8
ENDBRANCH   10    9
BRANCH   10   86
ATOM    101  C72 UNL A   1      29.554  -9.577  26.985  1.00  0.00    +0.000 C 
ATOM    138  H35 UNL A   1      30.654  -6.555  27.920  1.00  0.00    +0.000 H 
ATOM    139  H36 UNL A   1      28.696  -5.861  26.680  1.00  0.00    +0.000 H 
ATOM    140  H37 UNL A   1      27.351  -7.511  25.529  1.00  0.00    +0.000 H 
ATOM    148  H45 UNL A   1      29.741 -10.582  27.131  1.00  0.00    +0.000 H 
ATOM     86  C60 UNL A   1      30.386  -8.625  27.589  1.00  0.00    +0.000 C 
ATOM     87  C61 UNL A   1      30.059  -7.265  27.466  1.00  0.00    +0.000 C 
ATOM     88  C62 UNL A   1      28.943  -6.861  26.737  1.00  0.00    +0.000 C 
ATOM     89  C63 UNL A   1      28.164  -7.814  26.088  1.00  0.00    +0.000 C 
ATOM     90  C64 UNL A   1      28.468  -9.182  26.183  1.00  0.00    +0.000 C 
BRANCH   90   91
ATOM     99  C70 UNL A   1      27.008 -12.445  24.929  1.00  0.00    +0.000 C 
ATOM    100  C71 UNL A   1      27.622 -11.506  25.762  1.00  0.00    +0.000 C 
ATOM    141  H38 UNL A   1      27.335  -8.808  23.794  1.00  0.00    +0.000 H 
ATOM    142  H39 UNL A   1      26.288 -10.435  22.334  1.00  0.00    +0.000 H 
ATOM    146  H43 UNL A   1      26.914 -13.427  25.232  1.00  0.00    +0.000 H 
ATOM    147  H44 UNL A   1      27.980 -11.799  26.685  1.00  0.00    +0.000 H 
ATOM     91  C65 UNL A   1      27.756 -10.168  25.359  1.00  0.00    +0.000 C 
ATOM     92  C66 UNL A   1      27.252  -9.791  24.099  1.00  0.00    +0.000 C 
ATOM     93  C67 UNL A   1      26.644 -10.721  23.259  1.00  0.00    +0.000 C 
ATOM     94  C68 UNL A   1      26.523 -12.044  23.683  1.00  0.00    +0.000 C 
BRANCH   94   95
ATOM     97  O5  UNL A   1      26.434 -13.035  21.291  1.00  0.00    +0.000 O 
ATOM     98  O6  UNL A   1      25.820 -14.521  23.238  1.00  0.00    +0.000 O 
ATOM     95  S2  UNL A   1      25.798 -13.229  22.577  1.00  0.00    +0.000 S 
BRANCH   95   96
ATOM    145  H42 UNL A   1      24.068 -11.649  22.322  1.00  0.00    +0.000 H 
ATOM    144  H41 UNL A   1      23.645 -13.192  21.619  1.00  0.00    +0.000 H 
ATOM    143  H40 UNL A   1      23.586 -12.975  23.352  1.00  0.00    +0.000 H 
ATOM     96  C69 UNL A   1      24.106 -12.710  22.456  1.00  0.00    +0.000 C 
ENDBRANCH   95   96
ENDBRANCH   94   95
ENDBRANCH   90   91
ENDBRANCH   10   86
ENDBRANCH   11   10
ENDBRANCH   13   11
ENDBRANCH   14   13
ENDBRANCH   15   14
ENDBRANCH   16   15
ENDBRANCH   17   16
ENDBRANCH   18   17
ENDBRANCH   19   18
ENDBRANCH   20   19
ENDBRANCH   21   20
ENDBRANCH   23   21
ENDBRANCH   27   26
BRANCH   31   32
ATOM     33  C25 UNL A   1      28.588 -13.723  38.133  1.00  0.00    +0.000 C 
ATOM     34  F1  UNL A   1      29.267 -12.704  37.583  1.00  0.00    +0.000 F 
ATOM     35  C26 UNL A   1      28.992 -14.204  39.374  1.00  0.00    +0.000 C 
ATOM     36  F2  UNL A   1      30.049 -13.659  39.992  1.00  0.00    +0.000 F 
ATOM     37  C27 UNL A   1      28.311 -15.257  39.967  1.00  0.00    +0.000 C 
ATOM     38  F3  UNL A   1      28.697 -15.715  41.167  1.00  0.00    +0.000 F 
ATOM     39  C28 UNL A   1      27.234 -15.838  39.315  1.00  0.00    +0.000 C 
ATOM     40  F4  UNL A   1      26.568 -16.846  39.893  1.00  0.00    +0.000 F 
ATOM     41  C29 UNL A   1      26.846 -15.377  38.060  1.00  0.00    +0.000 C 
ATOM     42  F5  UNL A   1      25.810 -15.971  37.448  1.00  0.00    +0.000 F 
ATOM     32  C24 UNL A   1      27.516 -14.309  37.443  1.00  0.00    +0.000 C 
ENDBRANCH   31   32
BRANCH   48   49
ATOM     49  C35 UNL A   1      22.189 -10.254  34.783  1.00  0.00    +0.000 C 
ATOM     50  C36 UNL A   1      20.913 -10.836  34.823  1.00  0.00    +0.000 C 
ATOM     51  F6  UNL A   1      20.717 -12.066  34.327  1.00  0.00    +0.000 F 
ATOM     52  C37 UNL A   1      19.827 -10.140  35.347  1.00  0.00    +0.000 C 
ATOM     53  F7  UNL A   1      18.610 -10.700  35.342  1.00  0.00    +0.000 F 
ATOM     54  C38 UNL A   1      20.001  -8.866  35.867  1.00  0.00    +0.000 C 
ATOM     55  F8  UNL A   1      18.956  -8.204  36.382  1.00  0.00    +0.000 F 
ATOM     56  C39 UNL A   1      21.256  -8.276  35.846  1.00  0.00    +0.000 C 
ATOM     57  F9  UNL A   1      21.428  -7.050  36.360  1.00  0.00    +0.000 F 
ATOM     58  C40 UNL A   1      22.338  -8.958  35.298  1.00  0.00    +0.000 C 
ATOM     59  F10 UNL A   1      23.539  -8.360  35.287  1.00  0.00    +0.000 F 
ENDBRANCH   48   49
BRANCH   63   64
ATOM     65  C45 UNL A   1      23.877 -12.155  27.571  1.00  0.00    +0.000 C 
ATOM     66  F11 UNL A   1      23.540 -13.368  28.032  1.00  0.00    +0.000 F 
ATOM     67  C46 UNL A   1      23.460 -11.777  26.296  1.00  0.00    +0.000 C 
ATOM     68  F12 UNL A   1      22.738 -12.625  25.552  1.00  0.00    +0.000 F 
ATOM     69  C47 UNL A   1      23.802 -10.531  25.792  1.00  0.00    +0.000 C 
ATOM     70  F13 UNL A   1      23.395 -10.165  24.570  1.00  0.00    +0.000 F 
ATOM     71  C48 UNL A   1      24.572  -9.667  26.557  1.00  0.00    +0.000 C 
ATOM     72  F14 UNL A   1      24.891  -8.456  26.081  1.00  0.00    +0.000 F 
ATOM     73  C49 UNL A   1      25.013 -10.054  27.820  1.00  0.00    +0.000 C 
ATOM     74  F15 UNL A   1      25.764  -9.202  28.533  1.00  0.00    +0.000 F 
ATOM     64  C44 UNL A   1      24.669 -11.304  28.355  1.00  0.00    +0.000 C 
ENDBRANCH   63   64
TORSDOF 23
ENDMDL
MODEL 5
REMARK VINA RESULT:     -10.6     37.523     42.360
ROOT
ATOM    129  H26 UNL A   1      11.992  50.241   6.390  1.00  0.00    +0.000 H 
ATOM    130  H27 UNL A   1      12.368  52.711   6.841  1.00  0.00    +0.000 H 
ATOM    131  H28 UNL A   1      14.698  51.647   3.567  1.00  0.00    +0.000 H 
ATOM    132  H29 UNL A   1      13.508  46.870   2.528  1.00  0.00    +0.000 H 
ATOM    133  H30 UNL A   1      15.180  47.009   0.594  1.00  0.00    +0.000 H 
ATOM    134  H31 UNL A   1      16.730  56.747   2.523  1.00  0.00    +0.000 H 
ATOM    135  H32 UNL A   1      15.363  56.538   4.678  1.00  0.00    +0.000 H 
ATOM     27  C20 UNL A   1      14.181  53.972   5.037  1.00  0.00    +0.000 C 
ATOM     28  C21 UNL A   1      15.131  54.400   3.955  1.00  0.00    +0.000 C 
ATOM     29  N3  UNL A   1      15.619  53.706   2.959  1.00  0.00    +0.000 N 
ATOM     30  C22 UNL A   1      16.408  54.588   2.236  1.00  0.00    +0.000 C 
ATOM     31  C23 UNL A   1      17.173  54.335   1.146  1.00  0.00    +0.000 C 
ATOM     43  C30 UNL A   1      17.295  53.044   0.525  1.00  0.00    +0.000 C 
ATOM     44  C31 UNL A   1      18.097  52.671  -0.540  1.00  0.00    +0.000 C 
ATOM     45  C32 UNL A   1      17.839  51.327  -0.831  1.00  0.00    +0.000 C 
ATOM     46  C33 UNL A   1      16.913  50.849   0.082  1.00  0.00    +0.000 C 
ATOM     47  N4  UNL A   1      16.590  51.913   0.909  1.00  0.00    +0.000 N 
ATOM     48  C34 UNL A   1      16.355  49.525   0.185  1.00  0.00    +0.000 C 
ATOM     60  C41 UNL A   1      15.486  49.119   1.142  1.00  0.00    +0.000 C 
ATOM     61  N5  UNL A   1      14.951  49.844   2.198  1.00  0.00    +0.000 N 
ATOM     62  C42 UNL A   1      14.155  49.021   2.835  1.00  0.00    +0.000 C 
ATOM     63  C43 UNL A   1      13.326  49.264   4.066  1.00  0.00    +0.000 C 
ATOM     75  C50 UNL A   1      13.358  50.477   4.651  1.00  0.00    +0.000 C 
ATOM     76  C51 UNL A   1      12.596  50.866   5.833  1.00  0.00    +0.000 C 
ATOM     77  C52 UNL A   1      12.806  52.169   6.080  1.00  0.00    +0.000 C 
ATOM     78  C53 UNL A   1      13.757  52.695   5.100  1.00  0.00    +0.000 C 
ATOM     79  N6  UNL A   1      14.051  51.613   4.309  1.00  0.00    +0.000 N 
ATOM     80  C54 UNL A   1      14.080  47.679   2.239  1.00  0.00    +0.000 C 
ATOM     81  C55 UNL A   1      14.937  47.783   1.232  1.00  0.00    +0.000 C 
ATOM     82  C56 UNL A   1      16.298  55.880   2.878  1.00  0.00    +0.000 C 
ATOM     83  C57 UNL A   1      15.569  55.804   3.982  1.00  0.00    +0.000 C 
ATOM    126  H23 UNL A   1      18.769  53.279  -1.033  1.00  0.00    +0.000 H 
ATOM    127  H24 UNL A   1      18.267  50.783  -1.597  1.00  0.00    +0.000 H 
ATOM    128  H25 UNL A   1      15.954  51.872   1.660  1.00  0.00    +0.000 H 
ENDROOT
BRANCH   27   26
ATOM    136  H33 UNL A   1      15.364  55.005   7.196  1.00  0.00    +0.000 H 
ATOM    137  H34 UNL A   1      14.508  56.650   8.756  1.00  0.00    +0.000 H 
ATOM     84  C58 UNL A   1      14.424  55.408   7.056  1.00  0.00    +0.000 C 
ATOM     85  C59 UNL A   1      13.951  56.381   7.930  1.00  0.00    +0.000 C 
ATOM     23  C16 UNL A   1      12.719  56.993   7.684  1.00  0.00    +0.000 C 
ATOM     24  C17 UNL A   1      11.894  56.534   6.654  1.00  0.00    +0.000 C 
ATOM     25  C18 UNL A   1      12.344  55.511   5.816  1.00  0.00    +0.000 C 
ATOM     26  C19 UNL A   1      13.630  54.972   5.984  1.00  0.00    +0.000 C 
ATOM    124  H21 UNL A   1      10.961  56.947   6.514  1.00  0.00    +0.000 H 
ATOM    125  H22 UNL A   1      11.728  55.149   5.072  1.00  0.00    +0.000 H 
BRANCH   23   21
ATOM     21  C15 UNL A   1      12.279  58.145   8.500  1.00  0.00    +0.000 C 
ATOM     22  O4  UNL A   1      12.959  59.164   8.540  1.00  0.00    +0.000 O 
BRANCH   21   20
ATOM    123  H20 UNL A   1      10.289  58.292   8.732  1.00  0.00    +0.000 H 
ATOM     20  N2  UNL A   1      11.112  58.055   9.220  1.00  0.00    +0.000 N 
BRANCH   20   19
ATOM    121  H18 UNL A   1      11.860  57.768  11.125  1.00  0.00    +0.000 H 
ATOM    122  H19 UNL A   1      10.171  58.275  11.034  1.00  0.00    +0.000 H 
ATOM     19  C14 UNL A   1      10.930  57.654  10.607  1.00  0.00    +0.000 C 
BRANCH   19   18
ATOM     18  C13 UNL A   1      10.474  56.202  10.727  1.00  0.00    +0.000 C 
ATOM    119  H16 UNL A   1       9.952  56.090  11.655  1.00  0.00    +0.000 H 
ATOM    120  H17 UNL A   1       9.856  56.003   9.876  1.00  0.00    +0.000 H 
BRANCH   18   17
ATOM     17  C12 UNL A   1      11.614  55.181  10.692  1.00  0.00    +0.000 C 
ATOM    117  H14 UNL A   1      12.522  55.706  10.475  1.00  0.00    +0.000 H 
ATOM    118  H15 UNL A   1      11.618  54.705  11.650  1.00  0.00    +0.000 H 
BRANCH   17   16
ATOM    115  H12 UNL A   1      10.572  53.504   9.907  1.00  0.00    +0.000 H 
ATOM    116  H13 UNL A   1      11.388  54.546   8.703  1.00  0.00    +0.000 H 
ATOM     16  C11 UNL A   1      11.450  54.064   9.656  1.00  0.00    +0.000 C 
BRANCH   16   15
ATOM    113  H10 UNL A   1      12.366  52.183  10.078  1.00  0.00    +0.000 H 
ATOM    114  H11 UNL A   1      12.815  52.912   8.520  1.00  0.00    +0.000 H 
ATOM     15  C10 UNL A   1      12.629  53.081   9.561  1.00  0.00    +0.000 C 
BRANCH   15   14
ATOM     14  C9  UNL A   1      13.928  53.625  10.166  1.00  0.00    +0.000 C 
ATOM    111  H8  UNL A   1      14.048  54.651   9.887  1.00  0.00    +0.000 H 
ATOM    112  H9  UNL A   1      13.882  53.545  11.232  1.00  0.00    +0.000 H 
BRANCH   14   13
ATOM     13  N1  UNL A   1      15.055  52.858   9.677  1.00  0.00    +0.000 N 
ATOM    110  H7  UNL A   1      15.467  53.247   8.872  1.00  0.00    +0.000 H 
BRANCH   13   11
ATOM     11  C8  UNL A   1      15.667  51.717  10.088  1.00  0.00    +0.000 C 
ATOM     12  O3  UNL A   1      16.788  51.510   9.617  1.00  0.00    +0.000 O 
BRANCH   11   10
ATOM     10  C7  UNL A   1      15.001  50.679  10.966  1.00  0.00    +0.000 C 
BRANCH   10    9
ATOM      9  C6  UNL A   1      14.971  50.778  12.317  1.00  0.00    +0.000 C 
ATOM    109  H6  UNL A   1      15.842  50.509  12.799  1.00  0.00    +0.000 H 
BRANCH    9    8
ATOM      5  C2  UNL A   1      11.875  51.945  15.050  1.00  0.00    +0.000 C 
ATOM    102  C73 UNL A   1      13.348  50.279  14.109  1.00  0.00    +0.000 C 
ATOM      6  C3  UNL A   1      12.338  52.880  14.124  1.00  0.00    +0.000 C 
ATOM    103  C74 UNL A   1      12.357  50.636  15.030  1.00  0.00    +0.000 C 
ATOM      7  C4  UNL A   1      13.314  52.507  13.191  1.00  0.00    +0.000 C 
ATOM      8  C5  UNL A   1      13.865  51.218  13.200  1.00  0.00    +0.000 C 
ATOM    107  H4  UNL A   1      11.964  53.842  14.127  1.00  0.00    +0.000 H 
ATOM    108  H5  UNL A   1      13.632  53.190  12.487  1.00  0.00    +0.000 H 
ATOM    149  H46 UNL A   1      13.704  49.311  14.096  1.00  0.00    +0.000 H 
ATOM    150  H47 UNL A   1      11.986  49.935  15.691  1.00  0.00    +0.000 H 
BRANCH    5    2
ATOM      2  S1  UNL A   1      10.640  52.409  16.244  1.00  0.00    +0.000 S 
ATOM      3  O1  UNL A   1       9.466  51.595  15.991  1.00  0.00    +0.000 O 
ATOM      4  O2  UNL A   1      10.565  53.857  16.215  1.00  0.00    +0.000 O 
BRANCH    2    1
ATOM      1  C1  UNL A   1      11.296  51.915  17.816  1.00  0.00    +0.000 C 
ATOM    106  H3  UNL A   1      10.729  51.091  18.197  1.00  0.00    +0.000 H 
ATOM    105  H2  UNL A   1      12.318  51.621  17.700  1.00  0.00    +0.000 H 
ATOM    104  H1  UNL A   1      11.236  52.734  18.502  1.00  0.00    +0.000 H 
ENDBRANCH    2    1
ENDBRANCH    5    2
ENDBRANCH    9    8
ENDBRANCH   10    9
BRANCH   10   86
ATOM    101  C72 UNL A   1      13.218  49.328   9.789  1.00  0.00    +0.000 C 
ATOM    138  H35 UNL A   1      16.324  48.394  10.621  1.00  0.00    +0.000 H 
ATOM    139  H36 UNL A   1      15.532  46.281   9.748  1.00  0.00    +0.000 H 
ATOM    140  H37 UNL A   1      13.236  46.065   9.015  1.00  0.00    +0.000 H 
ATOM    148  H45 UNL A   1      12.619  50.167   9.728  1.00  0.00    +0.000 H 
ATOM     86  C60 UNL A   1      14.521  49.444  10.290  1.00  0.00    +0.000 C 
ATOM     87  C61 UNL A   1      15.357  48.316  10.270  1.00  0.00    +0.000 C 
ATOM     88  C62 UNL A   1      14.898  47.095   9.786  1.00  0.00    +0.000 C 
ATOM     89  C63 UNL A   1      13.582  46.978   9.352  1.00  0.00    +0.000 C 
ATOM     90  C64 UNL A   1      12.715  48.083   9.367  1.00  0.00    +0.000 C 
BRANCH   90   91
ATOM     99  C70 UNL A   1       9.230  46.615   9.146  1.00  0.00    +0.000 C 
ATOM    100  C71 UNL A   1      10.572  46.786   9.496  1.00  0.00    +0.000 C 
ATOM    141  H38 UNL A   1      11.123  49.732   7.998  1.00  0.00    +0.000 H 
ATOM    142  H39 UNL A   1       8.802  49.434   7.367  1.00  0.00    +0.000 H 
ATOM    146  H43 UNL A   1       8.714  45.777   9.456  1.00  0.00    +0.000 H 
ATOM    147  H44 UNL A   1      11.044  46.069  10.070  1.00  0.00    +0.000 H 
ATOM     91  C65 UNL A   1      11.284  47.920   9.078  1.00  0.00    +0.000 C 
ATOM     92  C66 UNL A   1      10.615  48.888   8.304  1.00  0.00    +0.000 C 
ATOM     93  C67 UNL A   1       9.279  48.723   7.944  1.00  0.00    +0.000 C 
ATOM     94  C68 UNL A   1       8.594  47.586   8.372  1.00  0.00    +0.000 C 
BRANCH   94   95
ATOM     97  O5  UNL A   1       6.091  48.114   8.788  1.00  0.00    +0.000 O 
ATOM     98  O6  UNL A   1       6.846  47.619   6.429  1.00  0.00    +0.000 O 
ATOM     95  S2  UNL A   1       6.909  47.364   7.857  1.00  0.00    +0.000 S 
BRANCH   95   96
ATOM    145  H42 UNL A   1       7.500  45.082   7.869  1.00  0.00    +0.000 H 
ATOM    144  H41 UNL A   1       6.361  45.463   9.139  1.00  0.00    +0.000 H 
ATOM    143  H40 UNL A   1       5.811  45.311   7.486  1.00  0.00    +0.000 H 
ATOM     96  C69 UNL A   1       6.616  45.633   8.113  1.00  0.00    +0.000 C 
ENDBRANCH   95   96
ENDBRANCH   94   95
ENDBRANCH   90   91
ENDBRANCH   10   86
ENDBRANCH   11   10
ENDBRANCH   13   11
ENDBRANCH   14   13
ENDBRANCH   15   14
ENDBRANCH   16   15
ENDBRANCH   17   16
ENDBRANCH   18   17
ENDBRANCH   19   18
ENDBRANCH   20   19
ENDBRANCH   21   20
ENDBRANCH   23   21
ENDBRANCH   27   26
BRANCH   31   32
ATOM     33  C25 UNL A   1      17.441  56.214  -0.535  1.00  0.00    +0.000 C 
ATOM     34  F1  UNL A   1      16.278  55.866  -1.107  1.00  0.00    +0.000 F 
ATOM     35  C26 UNL A   1      18.155  57.284  -1.067  1.00  0.00    +0.000 C 
ATOM     36  F2  UNL A   1      17.682  57.937  -2.138  1.00  0.00    +0.000 F 
ATOM     37  C27 UNL A   1      19.361  57.666  -0.499  1.00  0.00    +0.000 C 
ATOM     38  F3  UNL A   1      20.044  58.701  -1.008  1.00  0.00    +0.000 F 
ATOM     39  C28 UNL A   1      19.862  56.973   0.592  1.00  0.00    +0.000 C 
ATOM     40  F4  UNL A   1      21.020  57.350   1.149  1.00  0.00    +0.000 F 
ATOM     41  C29 UNL A   1      19.163  55.884   1.108  1.00  0.00    +0.000 C 
ATOM     42  F5  UNL A   1      19.682  55.224   2.155  1.00  0.00    +0.000 F 
ATOM     32  C24 UNL A   1      17.938  55.483   0.555  1.00  0.00    +0.000 C 
ENDBRANCH   31   32
BRANCH   48   49
ATOM     49  C35 UNL A   1      16.781  48.510  -0.833  1.00  0.00    +0.000 C 
ATOM     50  C36 UNL A   1      15.993  48.228  -1.959  1.00  0.00    +0.000 C 
ATOM     51  F6  UNL A   1      14.798  48.816  -2.111  1.00  0.00    +0.000 F 
ATOM     52  C37 UNL A   1      16.420  47.314  -2.919  1.00  0.00    +0.000 C 
ATOM     53  F7  UNL A   1      15.635  47.031  -3.968  1.00  0.00    +0.000 F 
ATOM     54  C38 UNL A   1      17.651  46.689  -2.787  1.00  0.00    +0.000 C 
ATOM     55  F8  UNL A   1      18.066  45.820  -3.719  1.00  0.00    +0.000 F 
ATOM     56  C39 UNL A   1      18.451  46.961  -1.687  1.00  0.00    +0.000 C 
ATOM     57  F9  UNL A   1      19.647  46.369  -1.565  1.00  0.00    +0.000 F 
ATOM     58  C40 UNL A   1      18.015  47.853  -0.712  1.00  0.00    +0.000 C 
ATOM     59  F10 UNL A   1      18.807  48.093   0.344  1.00  0.00    +0.000 F 
ENDBRANCH   48   49
BRANCH   63   64
ATOM     65  C45 UNL A   1      11.141  48.046   4.276  1.00  0.00    +0.000 C 
ATOM     66  F11 UNL A   1      10.595  48.910   3.407  1.00  0.00    +0.000 F 
ATOM     67  C46 UNL A   1      10.343  47.045   4.825  1.00  0.00    +0.000 C 
ATOM     68  F12 UNL A   1       9.050  46.961   4.484  1.00  0.00    +0.000 F 
ATOM     69  C47 UNL A   1      10.881  46.144   5.732  1.00  0.00    +0.000 C 
ATOM     70  F13 UNL A   1      10.116  45.177   6.254  1.00  0.00    +0.000 F 
ATOM     71  C48 UNL A   1      12.214  46.251   6.101  1.00  0.00    +0.000 C 
ATOM     72  F14 UNL A   1      12.742  45.374   6.964  1.00  0.00    +0.000 F 
ATOM     73  C49 UNL A   1      13.006  47.269   5.574  1.00  0.00    +0.000 C 
ATOM     74  F15 UNL A   1      14.289  47.355   5.956  1.00  0.00    +0.000 F 
ATOM     64  C44 UNL A   1      12.487  48.184   4.646  1.00  0.00    +0.000 C 
ENDBRANCH   63   64
TORSDOF 23
ENDMDL
MODEL 6
REMARK VINA RESULT:     -10.5     22.419     30.055
ROOT
ATOM    129  H26 UNL A   1      25.711  35.294  45.291  1.00  0.00    +0.000 H 
ATOM    130  H27 UNL A   1      27.149  37.383  45.423  1.00  0.00    +0.000 H 
ATOM    131  H28 UNL A   1      23.393  38.326  46.933  1.00  0.00    +0.000 H 
ATOM    132  H29 UNL A   1      20.821  34.003  47.021  1.00  0.00    +0.000 H 
ATOM    133  H30 UNL A   1      18.865  35.335  47.997  1.00  0.00    +0.000 H 
ATOM    134  H31 UNL A   1      24.565  43.601  48.359  1.00  0.00    +0.000 H 
ATOM    135  H32 UNL A   1      26.400  42.393  47.042  1.00  0.00    +0.000 H 
ATOM     27  C20 UNL A   1      25.826  39.650  46.537  1.00  0.00    +0.000 C 
ATOM     28  C21 UNL A   1      24.929  40.672  47.173  1.00  0.00    +0.000 C 
ATOM     29  N3  UNL A   1      23.708  40.534  47.626  1.00  0.00    +0.000 N 
ATOM     30  C22 UNL A   1      23.358  41.771  48.149  1.00  0.00    +0.000 C 
ATOM     31  C23 UNL A   1      22.175  42.155  48.684  1.00  0.00    +0.000 C 
ATOM     43  C30 UNL A   1      21.026  41.299  48.808  1.00  0.00    +0.000 C 
ATOM     44  C31 UNL A   1      19.761  41.613  49.273  1.00  0.00    +0.000 C 
ATOM     45  C32 UNL A   1      18.989  40.446  49.264  1.00  0.00    +0.000 C 
ATOM     46  C33 UNL A   1      19.758  39.415  48.748  1.00  0.00    +0.000 C 
ATOM     47  N4  UNL A   1      21.005  39.953  48.471  1.00  0.00    +0.000 N 
ATOM     48  C34 UNL A   1      19.388  38.039  48.535  1.00  0.00    +0.000 C 
ATOM     60  C41 UNL A   1      20.185  37.097  47.976  1.00  0.00    +0.000 C 
ATOM     61  N5  UNL A   1      21.483  37.222  47.502  1.00  0.00    +0.000 N 
ATOM     62  C42 UNL A   1      21.827  36.033  47.071  1.00  0.00    +0.000 C 
ATOM     63  C43 UNL A   1      23.118  35.590  46.439  1.00  0.00    +0.000 C 
ATOM     75  C50 UNL A   1      24.104  36.488  46.258  1.00  0.00    +0.000 C 
ATOM     76  C51 UNL A   1      25.413  36.202  45.680  1.00  0.00    +0.000 C 
ATOM     77  C52 UNL A   1      26.169  37.310  45.737  1.00  0.00    +0.000 C 
ATOM     78  C53 UNL A   1      25.379  38.399  46.313  1.00  0.00    +0.000 C 
ATOM     79  N6  UNL A   1      24.158  37.826  46.566  1.00  0.00    +0.000 N 
ATOM     80  C54 UNL A   1      20.787  35.009  47.245  1.00  0.00    +0.000 C 
ATOM     81  C55 UNL A   1      19.795  35.718  47.768  1.00  0.00    +0.000 C 
ATOM     82  C56 UNL A   1      24.511  42.634  48.002  1.00  0.00    +0.000 C 
ATOM     83  C57 UNL A   1      25.487  42.021  47.348  1.00  0.00    +0.000 C 
ATOM    126  H23 UNL A   1      19.443  42.548  49.575  1.00  0.00    +0.000 H 
ATOM    127  H24 UNL A   1      18.012  40.367  49.586  1.00  0.00    +0.000 H 
ATOM    128  H25 UNL A   1      21.763  39.454  48.090  1.00  0.00    +0.000 H 
ENDROOT
BRANCH   27   26
ATOM    136  H33 UNL A   1      27.858  39.850  48.257  1.00  0.00    +0.000 H 
ATOM    137  H34 UNL A   1      30.182  40.373  47.809  1.00  0.00    +0.000 H 
ATOM     84  C58 UNL A   1      28.171  40.019  47.288  1.00  0.00    +0.000 C 
ATOM     85  C59 UNL A   1      29.513  40.280  47.028  1.00  0.00    +0.000 C 
ATOM     23  C16 UNL A   1      29.950  40.414  45.708  1.00  0.00    +0.000 C 
ATOM     24  C17 UNL A   1      29.030  40.435  44.657  1.00  0.00    +0.000 C 
ATOM     25  C18 UNL A   1      27.673  40.238  44.925  1.00  0.00    +0.000 C 
ATOM     26  C19 UNL A   1      27.240  39.984  46.237  1.00  0.00    +0.000 C 
ATOM    124  H21 UNL A   1      29.349  40.595  43.690  1.00  0.00    +0.000 H 
ATOM    125  H22 UNL A   1      26.986  40.280  44.157  1.00  0.00    +0.000 H 
BRANCH   23   21
ATOM     21  C15 UNL A   1      31.393  40.520  45.404  1.00  0.00    +0.000 C 
ATOM     22  O4  UNL A   1      32.131  41.160  46.145  1.00  0.00    +0.000 O 
BRANCH   21   20
ATOM    123  H20 UNL A   1      32.149  40.511  43.544  1.00  0.00    +0.000 H 
ATOM     20  N2  UNL A   1      31.892  39.908  44.280  1.00  0.00    +0.000 N 
BRANCH   20   19
ATOM    121  H18 UNL A   1      33.138  38.272  44.073  1.00  0.00    +0.000 H 
ATOM    122  H19 UNL A   1      31.554  37.944  44.781  1.00  0.00    +0.000 H 
ATOM     19  C14 UNL A   1      32.090  38.488  44.032  1.00  0.00    +0.000 C 
BRANCH   19   18
ATOM     18  C13 UNL A   1      31.554  38.065  42.667  1.00  0.00    +0.000 C 
ATOM    119  H16 UNL A   1      30.929  38.851  42.296  1.00  0.00    +0.000 H 
ATOM    120  H17 UNL A   1      32.405  37.883  42.046  1.00  0.00    +0.000 H 
BRANCH   18   17
ATOM     17  C12 UNL A   1      30.737  36.771  42.687  1.00  0.00    +0.000 C 
ATOM    117  H14 UNL A   1      30.174  36.721  41.778  1.00  0.00    +0.000 H 
ATOM    118  H15 UNL A   1      31.443  35.974  42.793  1.00  0.00    +0.000 H 
BRANCH   17   16
ATOM    115  H12 UNL A   1      30.281  36.185  44.677  1.00  0.00    +0.000 H 
ATOM    116  H13 UNL A   1      29.416  37.632  44.075  1.00  0.00    +0.000 H 
ATOM     16  C11 UNL A   1      29.760  36.641  43.861  1.00  0.00    +0.000 C 
BRANCH   16   15
ATOM    113  H10 UNL A   1      27.843  35.885  44.413  1.00  0.00    +0.000 H 
ATOM    114  H11 UNL A   1      28.063  36.194  42.677  1.00  0.00    +0.000 H 
ATOM     15  C10 UNL A   1      28.501  35.806  43.574  1.00  0.00    +0.000 C 
BRANCH   15   14
ATOM     14  C9  UNL A   1      28.795  34.322  43.326  1.00  0.00    +0.000 C 
ATOM    111  H8  UNL A   1      28.323  34.013  42.417  1.00  0.00    +0.000 H 
ATOM    112  H9  UNL A   1      29.852  34.179  43.250  1.00  0.00    +0.000 H 
BRANCH   14   13
ATOM     13  N1  UNL A   1      28.282  33.532  44.428  1.00  0.00    +0.000 N 
ATOM    110  H7  UNL A   1      27.338  33.278  44.314  1.00  0.00    +0.000 H 
BRANCH   13   11
ATOM     11  C8  UNL A   1      28.824  33.065  45.582  1.00  0.00    +0.000 C 
ATOM     12  O3  UNL A   1      28.173  32.194  46.165  1.00  0.00    +0.000 O 
BRANCH   11   10
ATOM     10  C7  UNL A   1      30.077  33.636  46.211  1.00  0.00    +0.000 C 
BRANCH   10    9
ATOM      9  C6  UNL A   1      31.296  33.068  46.053  1.00  0.00    +0.000 C 
ATOM    109  H6  UNL A   1      31.995  33.650  45.566  1.00  0.00    +0.000 H 
BRANCH    9    8
ATOM      5  C2  UNL A   1      32.440  29.134  47.330  1.00  0.00    +0.000 C 
ATOM    102  C73 UNL A   1      31.208  31.186  47.649  1.00  0.00    +0.000 C 
ATOM      6  C3  UNL A   1      33.044  29.671  46.193  1.00  0.00    +0.000 C 
ATOM    103  C74 UNL A   1      31.541  29.897  48.077  1.00  0.00    +0.000 C 
ATOM      7  C4  UNL A   1      32.721  30.972  45.786  1.00  0.00    +0.000 C 
ATOM      8  C5  UNL A   1      31.767  31.729  46.479  1.00  0.00    +0.000 C 
ATOM    107  H4  UNL A   1      33.725  29.113  45.655  1.00  0.00    +0.000 H 
ATOM    108  H5  UNL A   1      33.193  31.379  44.964  1.00  0.00    +0.000 H 
ATOM    149  H46 UNL A   1      30.543  31.749  48.201  1.00  0.00    +0.000 H 
ATOM    150  H47 UNL A   1      31.123  29.511  48.939  1.00  0.00    +0.000 H 
BRANCH    5    2
ATOM      2  S1  UNL A   1      32.837  27.480  47.854  1.00  0.00    +0.000 S 
ATOM      3  O1  UNL A   1      33.979  27.572  48.744  1.00  0.00    +0.000 O 
ATOM      4  O2  UNL A   1      32.889  26.671  46.652  1.00  0.00    +0.000 O 
BRANCH    2    1
ATOM      1  C1  UNL A   1      31.452  26.949  48.826  1.00  0.00    +0.000 C 
ATOM    106  H3  UNL A   1      31.216  25.933  48.586  1.00  0.00    +0.000 H 
ATOM    105  H2  UNL A   1      31.695  27.023  49.865  1.00  0.00    +0.000 H 
ATOM    104  H1  UNL A   1      30.607  27.570  48.612  1.00  0.00    +0.000 H 
ENDBRANCH    2    1
ENDBRANCH    5    2
ENDBRANCH    9    8
ENDBRANCH   10    9
BRANCH   10   86
ATOM    101  C72 UNL A   1      28.722  34.907  47.927  1.00  0.00    +0.000 C 
ATOM    138  H35 UNL A   1      31.721  35.685  46.654  1.00  0.00    +0.000 H 
ATOM    139  H36 UNL A   1      31.374  37.664  48.001  1.00  0.00    +0.000 H 
ATOM    140  H37 UNL A   1      29.294  37.954  49.204  1.00  0.00    +0.000 H 
ATOM    148  H45 UNL A   1      28.042  34.131  47.968  1.00  0.00    +0.000 H 
ATOM     86  C60 UNL A   1      29.888  34.764  47.163  1.00  0.00    +0.000 C 
ATOM     87  C61 UNL A   1      30.851  35.786  47.199  1.00  0.00    +0.000 C 
ATOM     88  C62 UNL A   1      30.646  36.934  47.959  1.00  0.00    +0.000 C 
ATOM     89  C63 UNL A   1      29.455  37.091  48.660  1.00  0.00    +0.000 C 
ATOM     90  C64 UNL A   1      28.466  36.093  48.638  1.00  0.00    +0.000 C 
BRANCH   90   91
ATOM     99  C70 UNL A   1      25.456  37.831  50.146  1.00  0.00    +0.000 C 
ATOM    100  C71 UNL A   1      26.685  37.629  49.513  1.00  0.00    +0.000 C 
ATOM    141  H38 UNL A   1      26.652  34.280  49.380  1.00  0.00    +0.000 H 
ATOM    142  H39 UNL A   1      24.528  34.620  50.497  1.00  0.00    +0.000 H 
ATOM    146  H43 UNL A   1      25.127  38.787  50.351  1.00  0.00    +0.000 H 
ATOM    147  H44 UNL A   1      27.263  38.443  49.250  1.00  0.00    +0.000 H 
ATOM     91  C65 UNL A   1      27.143  36.333  49.230  1.00  0.00    +0.000 C 
ATOM     92  C66 UNL A   1      26.333  35.239  49.591  1.00  0.00    +0.000 C 
ATOM     93  C67 UNL A   1      25.108  35.429  50.228  1.00  0.00    +0.000 C 
ATOM     94  C68 UNL A   1      24.676  36.728  50.498  1.00  0.00    +0.000 C 
BRANCH   94   95
ATOM     97  O5  UNL A   1      22.174  36.090  50.711  1.00  0.00    +0.000 O 
ATOM     98  O6  UNL A   1      23.412  36.837  52.782  1.00  0.00    +0.000 O 
ATOM     95  S2  UNL A   1      23.141  36.951  51.361  1.00  0.00    +0.000 S 
BRANCH   95   96
ATOM    145  H42 UNL A   1      21.800  38.670  50.464  1.00  0.00    +0.000 H 
ATOM    144  H41 UNL A   1      22.580  39.165  51.948  1.00  0.00    +0.000 H 
ATOM    143  H40 UNL A   1      23.493  39.101  50.459  1.00  0.00    +0.000 H 
ATOM     96  C69 UNL A   1      22.711  38.639  51.024  1.00  0.00    +0.000 C 
ENDBRANCH   95   96
ENDBRANCH   94   95
ENDBRANCH   90   91
ENDBRANCH   10   86
ENDBRANCH   11   10
ENDBRANCH   13   11
ENDBRANCH   14   13
ENDBRANCH   15   14
ENDBRANCH   16   15
ENDBRANCH   17   16
ENDBRANCH   18   17
ENDBRANCH   19   18
ENDBRANCH   20   19
ENDBRANCH   21   20
ENDBRANCH   23   21
ENDBRANCH   27   26
BRANCH   31   32
ATOM     33  C25 UNL A   1      22.346  43.905  50.511  1.00  0.00    +0.000 C 
ATOM     34  F1  UNL A   1      22.681  42.950  51.392  1.00  0.00    +0.000 F 
ATOM     35  C26 UNL A   1      22.251  45.221  50.954  1.00  0.00    +0.000 C 
ATOM     36  F2  UNL A   1      22.479  45.512  52.242  1.00  0.00    +0.000 F 
ATOM     37  C27 UNL A   1      21.906  46.230  50.067  1.00  0.00    +0.000 C 
ATOM     38  F3  UNL A   1      21.820  47.498  50.493  1.00  0.00    +0.000 F 
ATOM     39  C28 UNL A   1      21.643  45.924  48.740  1.00  0.00    +0.000 C 
ATOM     40  F4  UNL A   1      21.322  46.900  47.880  1.00  0.00    +0.000 F 
ATOM     41  C29 UNL A   1      21.710  44.605  48.301  1.00  0.00    +0.000 C 
ATOM     42  F5  UNL A   1      21.435  44.339  47.015  1.00  0.00    +0.000 F 
ATOM     32  C24 UNL A   1      22.064  43.568  49.178  1.00  0.00    +0.000 C 
ENDBRANCH   31   32
BRANCH   48   49
ATOM     49  C35 UNL A   1      18.008  37.619  48.945  1.00  0.00    +0.000 C 
ATOM     50  C36 UNL A   1      17.617  37.606  50.293  1.00  0.00    +0.000 C 
ATOM     51  F6  UNL A   1      18.502  37.904  51.254  1.00  0.00    +0.000 F 
ATOM     52  C37 UNL A   1      16.320  37.254  50.656  1.00  0.00    +0.000 C 
ATOM     53  F7  UNL A   1      15.978  37.211  51.951  1.00  0.00    +0.000 F 
ATOM     54  C38 UNL A   1      15.384  36.941  49.682  1.00  0.00    +0.000 C 
ATOM     55  F8  UNL A   1      14.132  36.615  50.035  1.00  0.00    +0.000 F 
ATOM     56  C39 UNL A   1      15.746  36.957  48.344  1.00  0.00    +0.000 C 
ATOM     57  F9  UNL A   1      14.839  36.667  47.401  1.00  0.00    +0.000 F 
ATOM     58  C40 UNL A   1      17.049  37.281  47.978  1.00  0.00    +0.000 C 
ATOM     59  F10 UNL A   1      17.372  37.284  46.676  1.00  0.00    +0.000 F 
ENDBRANCH   48   49
BRANCH   63   64
ATOM     65  C45 UNL A   1      22.857  33.750  44.751  1.00  0.00    +0.000 C 
ATOM     66  F11 UNL A   1      22.222  34.608  43.939  1.00  0.00    +0.000 F 
ATOM     67  C46 UNL A   1      23.020  32.428  44.343  1.00  0.00    +0.000 C 
ATOM     68  F12 UNL A   1      22.542  32.033  43.155  1.00  0.00    +0.000 F 
ATOM     69  C47 UNL A   1      23.665  31.519  45.168  1.00  0.00    +0.000 C 
ATOM     70  F13 UNL A   1      23.829  30.250  44.772  1.00  0.00    +0.000 F 
ATOM     71  C48 UNL A   1      24.136  31.927  46.407  1.00  0.00    +0.000 C 
ATOM     72  F14 UNL A   1      24.774  31.056  47.200  1.00  0.00    +0.000 F 
ATOM     73  C49 UNL A   1      23.948  33.241  46.828  1.00  0.00    +0.000 C 
ATOM     74  F15 UNL A   1      24.405  33.606  48.035  1.00  0.00    +0.000 F 
ATOM     64  C44 UNL A   1      23.310  34.181  46.006  1.00  0.00    +0.000 C 
ENDBRANCH   63   64
TORSDOF 23
ENDMDL
MODEL 7
REMARK VINA RESULT:     -10.5     26.391     33.179
ROOT
ATOM    129  H26 UNL A   1      14.154  36.046  50.811  1.00  0.00    +0.000 H 
ATOM    130  H27 UNL A   1      15.463  35.794  48.650  1.00  0.00    +0.000 H 
ATOM    131  H28 UNL A   1      17.460  38.551  51.035  1.00  0.00    +0.000 H 
ATOM    132  H29 UNL A   1      15.008  38.602  55.427  1.00  0.00    +0.000 H 
ATOM    133  H30 UNL A   1      16.718  40.336  56.215  1.00  0.00    +0.000 H 
ATOM    134  H31 UNL A   1      21.774  39.400  47.584  1.00  0.00    +0.000 H 
ATOM    135  H32 UNL A   1      19.882  37.960  46.632  1.00  0.00    +0.000 H 
ATOM     27  C20 UNL A   1      17.821  37.392  48.513  1.00  0.00    +0.000 C 
ATOM     28  C21 UNL A   1      19.008  38.293  48.698  1.00  0.00    +0.000 C 
ATOM     29  N3  UNL A   1      19.352  39.005  49.741  1.00  0.00    +0.000 N 
ATOM     30  C22 UNL A   1      20.549  39.618  49.401  1.00  0.00    +0.000 C 
ATOM     31  C23 UNL A   1      21.279  40.501  50.123  1.00  0.00    +0.000 C 
ATOM     43  C30 UNL A   1      20.916  40.971  51.433  1.00  0.00    +0.000 C 
ATOM     44  C31 UNL A   1      21.553  41.917  52.218  1.00  0.00    +0.000 C 
ATOM     45  C32 UNL A   1      20.869  42.005  53.436  1.00  0.00    +0.000 C 
ATOM     46  C33 UNL A   1      19.780  41.151  53.392  1.00  0.00    +0.000 C 
ATOM     47  N4  UNL A   1      19.819  40.524  52.156  1.00  0.00    +0.000 N 
ATOM     48  C34 UNL A   1      18.783  40.914  54.405  1.00  0.00    +0.000 C 
ATOM     60  C41 UNL A   1      17.713  40.095  54.266  1.00  0.00    +0.000 C 
ATOM     61  N5  UNL A   1      17.339  39.325  53.174  1.00  0.00    +0.000 N 
ATOM     62  C42 UNL A   1      16.244  38.699  53.530  1.00  0.00    +0.000 C 
ATOM     63  C43 UNL A   1      15.395  37.745  52.735  1.00  0.00    +0.000 C 
ATOM     75  C50 UNL A   1      15.750  37.446  51.470  1.00  0.00    +0.000 C 
ATOM     76  C51 UNL A   1      15.040  36.526  50.589  1.00  0.00    +0.000 C 
ATOM     77  C52 UNL A   1      15.724  36.404  49.440  1.00  0.00    +0.000 C 
ATOM     78  C53 UNL A   1      16.899  37.276  49.488  1.00  0.00    +0.000 C 
ATOM     79  N6  UNL A   1      16.817  37.876  50.719  1.00  0.00    +0.000 N 
ATOM     80  C54 UNL A   1      15.809  38.987  54.904  1.00  0.00    +0.000 C 
ATOM     81  C55 UNL A   1      16.719  39.870  55.295  1.00  0.00    +0.000 C 
ATOM     82  C56 UNL A   1      20.899  39.158  48.074  1.00  0.00    +0.000 C 
ATOM     83  C57 UNL A   1      19.947  38.386  47.570  1.00  0.00    +0.000 C 
ATOM    126  H23 UNL A   1      22.387  42.462  51.951  1.00  0.00    +0.000 H 
ATOM    127  H24 UNL A   1      21.133  42.606  54.233  1.00  0.00    +0.000 H 
ATOM    128  H25 UNL A   1      19.165  39.861  51.838  1.00  0.00    +0.000 H 
ENDROOT
BRANCH   27   26
ATOM    136  H33 UNL A   1      19.235  35.214  47.892  1.00  0.00    +0.000 H 
ATOM    137  H34 UNL A   1      19.068  33.803  45.929  1.00  0.00    +0.000 H 
ATOM     84  C58 UNL A   1      18.535  35.424  47.165  1.00  0.00    +0.000 C 
ATOM     85  C59 UNL A   1      18.413  34.590  46.058  1.00  0.00    +0.000 C 
ATOM     23  C16 UNL A   1      17.402  34.822  45.122  1.00  0.00    +0.000 C 
ATOM     24  C17 UNL A   1      16.606  35.967  45.211  1.00  0.00    +0.000 C 
ATOM     25  C18 UNL A   1      16.772  36.840  46.289  1.00  0.00    +0.000 C 
ATOM     26  C19 UNL A   1      17.707  36.550  47.297  1.00  0.00    +0.000 C 
ATOM    124  H21 UNL A   1      15.901  36.167  44.486  1.00  0.00    +0.000 H 
ATOM    125  H22 UNL A   1      16.207  37.701  46.345  1.00  0.00    +0.000 H 
BRANCH   23   21
ATOM     21  C15 UNL A   1      17.149  33.852  44.036  1.00  0.00    +0.000 C 
ATOM     22  O4  UNL A   1      16.558  34.207  43.022  1.00  0.00    +0.000 O 
BRANCH   21   20
ATOM    123  H20 UNL A   1      17.208  32.071  44.960  1.00  0.00    +0.000 H 
ATOM     20  N2  UNL A   1      17.570  32.552  44.181  1.00  0.00    +0.000 N 
BRANCH   20   19
ATOM    121  H18 UNL A   1      18.171  30.768  43.329  1.00  0.00    +0.000 H 
ATOM    122  H19 UNL A   1      18.444  32.213  42.352  1.00  0.00    +0.000 H 
ATOM     19  C14 UNL A   1      18.479  31.793  43.335  1.00  0.00    +0.000 C 
BRANCH   19   18
ATOM     18  C13 UNL A   1      19.920  31.872  43.831  1.00  0.00    +0.000 C 
ATOM    119  H16 UNL A   1      20.553  31.421  43.094  1.00  0.00    +0.000 H 
ATOM    120  H17 UNL A   1      20.136  32.908  43.985  1.00  0.00    +0.000 H 
BRANCH   18   17
ATOM     17  C12 UNL A   1      20.163  31.167  45.168  1.00  0.00    +0.000 C 
ATOM    117  H14 UNL A   1      20.650  31.859  45.824  1.00  0.00    +0.000 H 
ATOM    118  H15 UNL A   1      19.202  30.854  45.519  1.00  0.00    +0.000 H 
BRANCH   17   16
ATOM    115  H12 UNL A   1      20.443  29.080  45.448  1.00  0.00    +0.000 H 
ATOM    116  H13 UNL A   1      21.309  29.801  44.058  1.00  0.00    +0.000 H 
ATOM     16  C11 UNL A   1      21.025  29.902  45.085  1.00  0.00    +0.000 C 
BRANCH   16   15
ATOM    113  H10 UNL A   1      22.190  30.583  46.737  1.00  0.00    +0.000 H 
ATOM    114  H11 UNL A   1      22.570  28.943  46.168  1.00  0.00    +0.000 H 
ATOM     15  C10 UNL A   1      22.335  29.950  45.888  1.00  0.00    +0.000 C 
BRANCH   15   14
ATOM     14  C9  UNL A   1      23.526  30.482  45.084  1.00  0.00    +0.000 C 
ATOM    111  H8  UNL A   1      24.394  29.895  45.302  1.00  0.00    +0.000 H 
ATOM    112  H9  UNL A   1      23.303  30.421  44.039  1.00  0.00    +0.000 H 
BRANCH   14   13
ATOM     13  N1  UNL A   1      23.778  31.864  45.439  1.00  0.00    +0.000 N 
ATOM    110  H7  UNL A   1      24.482  31.965  46.120  1.00  0.00    +0.000 H 
BRANCH   13   11
ATOM     11  C8  UNL A   1      23.252  33.050  45.036  1.00  0.00    +0.000 C 
ATOM     12  O3  UNL A   1      23.276  33.261  43.821  1.00  0.00    +0.000 O 
BRANCH   11   10
ATOM     10  C7  UNL A   1      22.775  34.122  45.992  1.00  0.00    +0.000 C 
BRANCH   10    9
ATOM      9  C6  UNL A   1      21.996  33.848  47.065  1.00  0.00    +0.000 C 
ATOM    109  H6  UNL A   1      21.258  33.144  46.907  1.00  0.00    +0.000 H 
BRANCH    9    8
ATOM      5  C2  UNL A   1      22.325  35.637  50.952  1.00  0.00    +0.000 C 
ATOM    102  C73 UNL A   1      23.323  34.676  48.975  1.00  0.00    +0.000 C 
ATOM      6  C3  UNL A   1      21.055  35.343  50.456  1.00  0.00    +0.000 C 
ATOM    103  C74 UNL A   1      23.464  35.283  50.227  1.00  0.00    +0.000 C 
ATOM      7  C4  UNL A   1      20.926  34.714  49.210  1.00  0.00    +0.000 C 
ATOM      8  C5  UNL A   1      22.053  34.415  48.433  1.00  0.00    +0.000 C 
ATOM    107  H4  UNL A   1      20.215  35.586  51.004  1.00  0.00    +0.000 H 
ATOM    108  H5  UNL A   1      19.988  34.468  48.860  1.00  0.00    +0.000 H 
ATOM    149  H46 UNL A   1      24.166  34.415  48.440  1.00  0.00    +0.000 H 
ATOM    150  H47 UNL A   1      24.403  35.468  50.613  1.00  0.00    +0.000 H 
BRANCH    5    2
ATOM      2  S1  UNL A   1      22.501  36.441  52.530  1.00  0.00    +0.000 S 
ATOM      3  O1  UNL A   1      21.933  35.557  53.530  1.00  0.00    +0.000 O 
ATOM      4  O2  UNL A   1      22.006  37.793  52.359  1.00  0.00    +0.000 O 
BRANCH    2    1
ATOM      1  C1  UNL A   1      24.248  36.519  52.826  1.00  0.00    +0.000 C 
ATOM    106  H3  UNL A   1      24.753  35.843  52.168  1.00  0.00    +0.000 H 
ATOM    105  H2  UNL A   1      24.596  37.515  52.649  1.00  0.00    +0.000 H 
ATOM    104  H1  UNL A   1      24.451  36.245  53.840  1.00  0.00    +0.000 H 
ENDBRANCH    2    1
ENDBRANCH    5    2
ENDBRANCH    9    8
ENDBRANCH   10    9
BRANCH   10   86
ATOM    101  C72 UNL A   1      24.298  36.135  45.847  1.00  0.00    +0.000 C 
ATOM    138  H35 UNL A   1      21.094  35.881  44.905  1.00  0.00    +0.000 H 
ATOM    139  H36 UNL A   1      21.413  38.240  44.473  1.00  0.00    +0.000 H 
ATOM    140  H37 UNL A   1      23.521  39.292  45.027  1.00  0.00    +0.000 H 
ATOM    148  H45 UNL A   1      25.098  35.554  46.145  1.00  0.00    +0.000 H 
ATOM     86  C60 UNL A   1      23.057  35.531  45.606  1.00  0.00    +0.000 C 
ATOM     87  C61 UNL A   1      22.007  36.318  45.103  1.00  0.00    +0.000 C 
ATOM     88  C62 UNL A   1      22.182  37.679  44.871  1.00  0.00    +0.000 C 
ATOM     89  C63 UNL A   1      23.400  38.278  45.178  1.00  0.00    +0.000 C 
ATOM     90  C64 UNL A   1      24.468  37.523  45.690  1.00  0.00    +0.000 C 
BRANCH   90   91
ATOM     99  C70 UNL A   1      27.249  40.049  46.177  1.00  0.00    +0.000 C 
ATOM    100  C71 UNL A   1      26.047  39.472  45.761  1.00  0.00    +0.000 C 
ATOM    141  H38 UNL A   1      26.307  36.535  47.355  1.00  0.00    +0.000 H 
ATOM    142  H39 UNL A   1      28.404  37.520  48.065  1.00  0.00    +0.000 H 
ATOM    146  H43 UNL A   1      27.506  40.998  45.865  1.00  0.00    +0.000 H 
ATOM    147  H44 UNL A   1      25.415  40.001  45.140  1.00  0.00    +0.000 H 
ATOM     91  C65 UNL A   1      25.688  38.181  46.178  1.00  0.00    +0.000 C 
ATOM     92  C66 UNL A   1      26.563  37.482  47.032  1.00  0.00    +0.000 C 
ATOM     93  C67 UNL A   1      27.767  38.046  47.448  1.00  0.00    +0.000 C 
ATOM     94  C68 UNL A   1      28.100  39.331  47.018  1.00  0.00    +0.000 C 
BRANCH   94   95
ATOM     97  O5  UNL A   1      30.574  38.895  47.653  1.00  0.00    +0.000 O 
ATOM     98  O6  UNL A   1      29.965  41.116  46.618  1.00  0.00    +0.000 O 
ATOM     95  S2  UNL A   1      29.664  40.013  47.510  1.00  0.00    +0.000 S 
BRANCH   95   96
ATOM    145  H42 UNL A   1      30.231  40.639  49.711  1.00  0.00    +0.000 H 
ATOM    144  H41 UNL A   1      29.033  41.708  49.021  1.00  0.00    +0.000 H 
ATOM    143  H40 UNL A   1      28.565  40.124  49.593  1.00  0.00    +0.000 H 
ATOM     96  C69 UNL A   1      29.341  40.688  49.119  1.00  0.00    +0.000 C 
ENDBRANCH   95   96
ENDBRANCH   94   95
ENDBRANCH   90   91
ENDBRANCH   10   86
ENDBRANCH   11   10
ENDBRANCH   13   11
ENDBRANCH   14   13
ENDBRANCH   15   14
ENDBRANCH   16   15
ENDBRANCH   17   16
ENDBRANCH   18   17
ENDBRANCH   19   18
ENDBRANCH   20   19
ENDBRANCH   21   20
ENDBRANCH   23   21
ENDBRANCH   27   26
BRANCH   31   32
ATOM     33  C25 UNL A   1      23.776  40.365  49.703  1.00  0.00    +0.000 C 
ATOM     34  F1  UNL A   1      23.847  39.280  50.489  1.00  0.00    +0.000 F 
ATOM     35  C26 UNL A   1      24.944  40.848  49.120  1.00  0.00    +0.000 C 
ATOM     36  F2  UNL A   1      26.112  40.236  49.357  1.00  0.00    +0.000 F 
ATOM     37  C27 UNL A   1      24.902  41.969  48.305  1.00  0.00    +0.000 C 
ATOM     38  F3  UNL A   1      26.027  42.429  47.738  1.00  0.00    +0.000 F 
ATOM     39  C28 UNL A   1      23.697  42.618  48.082  1.00  0.00    +0.000 C 
ATOM     40  F4  UNL A   1      23.654  43.693  47.284  1.00  0.00    +0.000 F 
ATOM     41  C29 UNL A   1      22.532  42.154  48.688  1.00  0.00    +0.000 C 
ATOM     42  F5  UNL A   1      21.384  42.812  48.465  1.00  0.00    +0.000 F 
ATOM     32  C24 UNL A   1      22.548  41.018  49.511  1.00  0.00    +0.000 C 
ENDBRANCH   31   32
BRANCH   48   49
ATOM     49  C35 UNL A   1      18.928  41.643  55.707  1.00  0.00    +0.000 C 
ATOM     50  C36 UNL A   1      18.296  42.875  55.931  1.00  0.00    +0.000 C 
ATOM     51  F6  UNL A   1      17.598  43.463  54.948  1.00  0.00    +0.000 F 
ATOM     52  C37 UNL A   1      18.405  43.521  57.159  1.00  0.00    +0.000 C 
ATOM     53  F7  UNL A   1      17.823  44.715  57.340  1.00  0.00    +0.000 F 
ATOM     54  C38 UNL A   1      19.120  42.936  58.193  1.00  0.00    +0.000 C 
ATOM     55  F8  UNL A   1      19.212  43.554  59.379  1.00  0.00    +0.000 F 
ATOM     56  C39 UNL A   1      19.745  41.714  57.997  1.00  0.00    +0.000 C 
ATOM     57  F9  UNL A   1      20.425  41.141  59.000  1.00  0.00    +0.000 F 
ATOM     58  C40 UNL A   1      19.661  41.078  56.762  1.00  0.00    +0.000 C 
ATOM     59  F10 UNL A   1      20.280  39.899  56.600  1.00  0.00    +0.000 F 
ENDBRANCH   48   49
BRANCH   63   64
ATOM     65  C45 UNL A   1      14.247  35.963  54.079  1.00  0.00    +0.000 C 
ATOM     66  F11 UNL A   1      15.430  35.356  54.256  1.00  0.00    +0.000 F 
ATOM     67  C46 UNL A   1      13.103  35.383  54.623  1.00  0.00    +0.000 C 
ATOM     68  F12 UNL A   1      13.198  34.234  55.306  1.00  0.00    +0.000 F 
ATOM     69  C47 UNL A   1      11.866  35.984  54.448  1.00  0.00    +0.000 C 
ATOM     70  F13 UNL A   1      10.768  35.430  54.977  1.00  0.00    +0.000 F 
ATOM     71  C48 UNL A   1      11.770  37.160  53.718  1.00  0.00    +0.000 C 
ATOM     72  F14 UNL A   1      10.579  37.753  53.560  1.00  0.00    +0.000 F 
ATOM     73  C49 UNL A   1      12.909  37.726  53.150  1.00  0.00    +0.000 C 
ATOM     74  F15 UNL A   1      12.785  38.857  52.440  1.00  0.00    +0.000 F 
ATOM     64  C44 UNL A   1      14.172  37.142  53.324  1.00  0.00    +0.000 C 
ENDBRANCH   63   64
TORSDOF 23
ENDMDL
MODEL 8
REMARK VINA RESULT:     -10.5     37.193     42.525
ROOT
ATOM    129  H26 UNL A   1      15.891  47.253   1.527  1.00  0.00    +0.000 H 
ATOM    130  H27 UNL A   1      14.917  47.423   3.867  1.00  0.00    +0.000 H 
ATOM    131  H28 UNL A   1      15.807  51.273   2.575  1.00  0.00    +0.000 H 
ATOM    132  H29 UNL A   1      17.295  50.809  -2.208  1.00  0.00    +0.000 H 
ATOM    133  H30 UNL A   1      17.585  53.353  -2.230  1.00  0.00    +0.000 H 
ATOM    134  H31 UNL A   1      13.858  53.943   7.081  1.00  0.00    +0.000 H 
ATOM    135  H32 UNL A   1      13.914  51.389   7.266  1.00  0.00    +0.000 H 
ATOM     27  C20 UNL A   1      14.713  50.088   4.863  1.00  0.00    +0.000 C 
ATOM     28  C21 UNL A   1      14.684  51.563   5.139  1.00  0.00    +0.000 C 
ATOM     29  N3  UNL A   1      15.013  52.559   4.356  1.00  0.00    +0.000 N 
ATOM     30  C22 UNL A   1      14.758  53.712   5.085  1.00  0.00    +0.000 C 
ATOM     31  C23 UNL A   1      14.988  54.999   4.734  1.00  0.00    +0.000 C 
ATOM     43  C30 UNL A   1      15.561  55.406   3.478  1.00  0.00    +0.000 C 
ATOM     44  C31 UNL A   1      15.897  56.680   3.055  1.00  0.00    +0.000 C 
ATOM     45  C32 UNL A   1      16.369  56.593   1.741  1.00  0.00    +0.000 C 
ATOM     46  C33 UNL A   1      16.374  55.260   1.362  1.00  0.00    +0.000 C 
ATOM     47  N4  UNL A   1      15.877  54.542   2.439  1.00  0.00    +0.000 N 
ATOM     48  C34 UNL A   1      16.789  54.684   0.109  1.00  0.00    +0.000 C 
ATOM     60  C41 UNL A   1      16.811  53.359  -0.169  1.00  0.00    +0.000 C 
ATOM     61  N5  UNL A   1      16.455  52.291   0.644  1.00  0.00    +0.000 N 
ATOM     62  C42 UNL A   1      16.636  51.212  -0.077  1.00  0.00    +0.000 C 
ATOM     63  C43 UNL A   1      16.425  49.772   0.302  1.00  0.00    +0.000 C 
ATOM     75  C50 UNL A   1      15.991  49.474   1.542  1.00  0.00    +0.000 C 
ATOM     76  C51 UNL A   1      15.723  48.131   2.044  1.00  0.00    +0.000 C 
ATOM     77  C52 UNL A   1      15.222  48.220   3.286  1.00  0.00    +0.000 C 
ATOM     78  C53 UNL A   1      15.178  49.628   3.685  1.00  0.00    +0.000 C 
ATOM     79  N6  UNL A   1      15.681  50.297   2.597  1.00  0.00    +0.000 N 
ATOM     80  C54 UNL A   1      17.109  51.476  -1.443  1.00  0.00    +0.000 C 
ATOM     81  C55 UNL A   1      17.233  52.797  -1.435  1.00  0.00    +0.000 C 
ATOM     82  C56 UNL A   1      14.202  53.296   6.355  1.00  0.00    +0.000 C 
ATOM     83  C57 UNL A   1      14.193  51.975   6.463  1.00  0.00    +0.000 C 
ATOM    126  H23 UNL A   1      15.812  57.544   3.612  1.00  0.00    +0.000 H 
ATOM    127  H24 UNL A   1      16.665  57.388   1.152  1.00  0.00    +0.000 H 
ATOM    128  H25 UNL A   1      15.767  53.565   2.463  1.00  0.00    +0.000 H 
ENDROOT
BRANCH   27   26
ATOM    136  H33 UNL A   1      12.137  49.627   5.389  1.00  0.00    +0.000 H 
ATOM    137  H34 UNL A   1      11.164  48.068   6.969  1.00  0.00    +0.000 H 
ATOM     84  C58 UNL A   1      12.748  49.022   5.959  1.00  0.00    +0.000 C 
ATOM     85  C59 UNL A   1      12.187  48.100   6.837  1.00  0.00    +0.000 C 
ATOM     23  C16 UNL A   1      13.014  47.217   7.537  1.00  0.00    +0.000 C 
ATOM     24  C17 UNL A   1      14.404  47.351   7.475  1.00  0.00    +0.000 C 
ATOM     25  C18 UNL A   1      14.966  48.321   6.642  1.00  0.00    +0.000 C 
ATOM     26  C19 UNL A   1      14.143  49.133   5.845  1.00  0.00    +0.000 C 
ATOM    124  H21 UNL A   1      15.010  46.737   8.039  1.00  0.00    +0.000 H 
ATOM    125  H22 UNL A   1      15.990  48.442   6.614  1.00  0.00    +0.000 H 
BRANCH   23   21
ATOM     21  C15 UNL A   1      12.431  46.122   8.339  1.00  0.00    +0.000 C 
ATOM     22  O4  UNL A   1      11.547  45.417   7.865  1.00  0.00    +0.000 O 
BRANCH   21   20
ATOM    123  H20 UNL A   1      13.548  45.195   9.728  1.00  0.00    +0.000 H 
ATOM     20  N2  UNL A   1      12.880  45.912   9.621  1.00  0.00    +0.000 N 
BRANCH   20   19
ATOM    121  H18 UNL A   1      12.002  45.920  11.492  1.00  0.00    +0.000 H 
ATOM    122  H19 UNL A   1      13.390  46.993  11.293  1.00  0.00    +0.000 H 
ATOM     19  C14 UNL A   1      12.500  46.609  10.841  1.00  0.00    +0.000 C 
BRANCH   19   18
ATOM     18  C13 UNL A   1      11.567  47.783  10.560  1.00  0.00    +0.000 C 
ATOM    119  H16 UNL A   1      11.162  47.661   9.577  1.00  0.00    +0.000 H 
ATOM    120  H17 UNL A   1      10.817  47.769  11.323  1.00  0.00    +0.000 H 
BRANCH   18   17
ATOM     17  C12 UNL A   1      12.244  49.154  10.634  1.00  0.00    +0.000 C 
ATOM    117  H14 UNL A   1      11.982  49.701   9.752  1.00  0.00    +0.000 H 
ATOM    118  H15 UNL A   1      11.895  49.611  11.536  1.00  0.00    +0.000 H 
BRANCH   17   16
ATOM    115  H12 UNL A   1      14.046  49.351  11.741  1.00  0.00    +0.000 H 
ATOM    116  H13 UNL A   1      14.068  48.131  10.432  1.00  0.00    +0.000 H 
ATOM     16  C11 UNL A   1      13.773  49.115  10.734  1.00  0.00    +0.000 C 
BRANCH   16   15
ATOM    113  H10 UNL A   1      14.818  49.552   8.925  1.00  0.00    +0.000 H 
ATOM    114  H11 UNL A   1      13.837  50.884   9.573  1.00  0.00    +0.000 H 
ATOM     15  C10 UNL A   1      14.514  50.087   9.800  1.00  0.00    +0.000 C 
BRANCH   15   14
ATOM     14  C9  UNL A   1      15.756  50.720  10.437  1.00  0.00    +0.000 C 
ATOM    111  H8  UNL A   1      16.096  50.103  11.243  1.00  0.00    +0.000 H 
ATOM    112  H9  UNL A   1      16.527  50.805   9.701  1.00  0.00    +0.000 H 
BRANCH   14   13
ATOM     13  N1  UNL A   1      15.429  52.038  10.943  1.00  0.00    +0.000 N 
ATOM    110  H7  UNL A   1      15.671  52.761  10.321  1.00  0.00    +0.000 H 
BRANCH   13   11
ATOM     11  C8  UNL A   1      14.859  52.490  12.090  1.00  0.00    +0.000 C 
ATOM     12  O3  UNL A   1      15.615  52.592  13.060  1.00  0.00    +0.000 O 
BRANCH   11   10
ATOM     10  C7  UNL A   1      13.375  52.744  12.245  1.00  0.00    +0.000 C 
BRANCH   10    9
ATOM      9  C6  UNL A   1      12.681  52.363  13.343  1.00  0.00    +0.000 C 
ATOM    109  H6  UNL A   1      12.508  53.106  14.037  1.00  0.00    +0.000 H 
BRANCH    9    8
ATOM      5  C2  UNL A   1      11.228  48.506  14.543  1.00  0.00    +0.000 C 
ATOM    102  C73 UNL A   1      13.033  50.071  14.194  1.00  0.00    +0.000 C 
ATOM      6  C3  UNL A   1      10.326  49.423  14.001  1.00  0.00    +0.000 C 
ATOM    103  C74 UNL A   1      12.586  48.815  14.618  1.00  0.00    +0.000 C 
ATOM      7  C4  UNL A   1      10.787  50.670  13.558  1.00  0.00    +0.000 C 
ATOM      8  C5  UNL A   1      12.135  51.029  13.690  1.00  0.00    +0.000 C 
ATOM    107  H4  UNL A   1       9.325  49.184  13.926  1.00  0.00    +0.000 H 
ATOM    108  H5  UNL A   1      10.125  51.333  13.128  1.00  0.00    +0.000 H 
ATOM    149  H46 UNL A   1      14.038  50.299  14.250  1.00  0.00    +0.000 H 
ATOM    150  H47 UNL A   1      13.257  48.122  14.984  1.00  0.00    +0.000 H 
BRANCH    5    2
ATOM      2  S1  UNL A   1      10.653  46.922  15.114  1.00  0.00    +0.000 S 
ATOM      3  O1  UNL A   1      11.302  45.909  14.304  1.00  0.00    +0.000 O 
ATOM      4  O2  UNL A   1       9.207  47.011  15.183  1.00  0.00    +0.000 O 
BRANCH    2    1
ATOM      1  C1  UNL A   1      11.282  46.761  16.765  1.00  0.00    +0.000 C 
ATOM    106  H3  UNL A   1      12.270  46.352  16.732  1.00  0.00    +0.000 H 
ATOM    105  H2  UNL A   1      11.309  47.723  17.232  1.00  0.00    +0.000 H 
ATOM    104  H1  UNL A   1      10.646  46.109  17.327  1.00  0.00    +0.000 H 
ENDBRANCH    2    1
ENDBRANCH    5    2
ENDBRANCH    9    8
ENDBRANCH   10    9
BRANCH   10   86
ATOM    101  C72 UNL A   1      11.819  52.491  10.268  1.00  0.00    +0.000 C 
ATOM    138  H35 UNL A   1      13.561  55.191  11.209  1.00  0.00    +0.000 H 
ATOM    139  H36 UNL A   1      12.626  56.061   9.154  1.00  0.00    +0.000 H 
ATOM    140  H37 UNL A   1      11.280  54.628   7.742  1.00  0.00    +0.000 H 
ATOM    148  H45 UNL A   1      11.539  51.555  10.606  1.00  0.00    +0.000 H 
ATOM     86  C60 UNL A   1      12.665  53.284  11.054  1.00  0.00    +0.000 C 
ATOM     87  C61 UNL A   1      12.953  54.592  10.630  1.00  0.00    +0.000 C 
ATOM     88  C62 UNL A   1      12.432  55.088   9.439  1.00  0.00    +0.000 C 
ATOM     89  C63 UNL A   1      11.646  54.266   8.637  1.00  0.00    +0.000 C 
ATOM     90  C64 UNL A   1      11.345  52.951   9.026  1.00  0.00    +0.000 C 
BRANCH   90   91
ATOM     99  C70 UNL A   1       9.923  51.417   5.867  1.00  0.00    +0.000 C 
ATOM    100  C71 UNL A   1      10.636  52.264   6.719  1.00  0.00    +0.000 C 
ATOM    141  H38 UNL A   1       9.996  50.727   9.627  1.00  0.00    +0.000 H 
ATOM    142  H39 UNL A   1       8.738  49.265   8.160  1.00  0.00    +0.000 H 
ATOM    146  H43 UNL A   1       9.903  51.597   4.851  1.00  0.00    +0.000 H 
ATOM    147  H44 UNL A   1      11.146  53.071   6.326  1.00  0.00    +0.000 H 
ATOM     91  C65 UNL A   1      10.669  52.030   8.102  1.00  0.00    +0.000 C 
ATOM     92  C66 UNL A   1       9.973  50.917   8.613  1.00  0.00    +0.000 C 
ATOM     93  C67 UNL A   1       9.253  50.071   7.773  1.00  0.00    +0.000 C 
ATOM     94  C68 UNL A   1       9.236  50.326   6.402  1.00  0.00    +0.000 C 
BRANCH   94   95
ATOM     97  O5  UNL A   1       9.081  48.103   5.079  1.00  0.00    +0.000 O 
ATOM     98  O6  UNL A   1       6.950  49.145   5.945  1.00  0.00    +0.000 O 
ATOM     95  S2  UNL A   1       8.268  49.271   5.351  1.00  0.00    +0.000 S 
BRANCH   95   96
ATOM    145  H42 UNL A   1       9.047  50.247   3.351  1.00  0.00    +0.000 H 
ATOM    144  H41 UNL A   1       7.380  49.737   3.218  1.00  0.00    +0.000 H 
ATOM    143  H40 UNL A   1       7.780  51.200   4.087  1.00  0.00    +0.000 H 
ATOM     96  C69 UNL A   1       8.102  50.207   3.854  1.00  0.00    +0.000 C 
ENDBRANCH   95   96
ENDBRANCH   94   95
ENDBRANCH   90   91
ENDBRANCH   10   86
ENDBRANCH   11   10
ENDBRANCH   13   11
ENDBRANCH   14   13
ENDBRANCH   15   14
ENDBRANCH   16   15
ENDBRANCH   17   16
ENDBRANCH   18   17
ENDBRANCH   19   18
ENDBRANCH   20   19
ENDBRANCH   21   20
ENDBRANCH   23   21
ENDBRANCH   27   26
BRANCH   31   32
ATOM     33  C25 UNL A   1      15.591  56.742   6.474  1.00  0.00    +0.000 C 
ATOM     34  F1  UNL A   1      16.885  56.411   6.355  1.00  0.00    +0.000 F 
ATOM     35  C26 UNL A   1      15.234  57.738   7.379  1.00  0.00    +0.000 C 
ATOM     36  F2  UNL A   1      16.176  58.337   8.120  1.00  0.00    +0.000 F 
ATOM     37  C27 UNL A   1      13.904  58.101   7.525  1.00  0.00    +0.000 C 
ATOM     38  F3  UNL A   1      13.562  59.065   8.393  1.00  0.00    +0.000 F 
ATOM     39  C28 UNL A   1      12.926  57.461   6.778  1.00  0.00    +0.000 C 
ATOM     40  F4  UNL A   1      11.642  57.821   6.909  1.00  0.00    +0.000 F 
ATOM     41  C29 UNL A   1      13.277  56.446   5.893  1.00  0.00    +0.000 C 
ATOM     42  F5  UNL A   1      12.307  55.835   5.195  1.00  0.00    +0.000 F 
ATOM     32  C24 UNL A   1      14.617  56.066   5.722  1.00  0.00    +0.000 C 
ENDBRANCH   31   32
BRANCH   48   49
ATOM     49  C35 UNL A   1      17.250  55.621  -0.968  1.00  0.00    +0.000 C 
ATOM     50  C36 UNL A   1      16.347  56.197  -1.874  1.00  0.00    +0.000 C 
ATOM     51  F6  UNL A   1      15.049  55.862  -1.837  1.00  0.00    +0.000 F 
ATOM     52  C37 UNL A   1      16.783  57.098  -2.841  1.00  0.00    +0.000 C 
ATOM     53  F7  UNL A   1      15.909  57.608  -3.721  1.00  0.00    +0.000 F 
ATOM     54  C38 UNL A   1      18.119  57.463  -2.903  1.00  0.00    +0.000 C 
ATOM     55  F8  UNL A   1      18.534  58.340  -3.828  1.00  0.00    +0.000 F 
ATOM     56  C39 UNL A   1      19.028  56.913  -2.011  1.00  0.00    +0.000 C 
ATOM     57  F9  UNL A   1      20.318  57.274  -2.060  1.00  0.00    +0.000 F 
ATOM     58  C40 UNL A   1      18.601  55.991  -1.060  1.00  0.00    +0.000 C 
ATOM     59  F10 UNL A   1      19.503  55.472  -0.213  1.00  0.00    +0.000 F 
ENDBRANCH   48   49
BRANCH   63   64
ATOM     65  C45 UNL A   1      17.891  47.944  -0.600  1.00  0.00    +0.000 C 
ATOM     66  F11 UNL A   1      18.806  48.238   0.336  1.00  0.00    +0.000 F 
ATOM     67  C46 UNL A   1      18.163  46.928  -1.514  1.00  0.00    +0.000 C 
ATOM     68  F12 UNL A   1      19.326  46.267  -1.450  1.00  0.00    +0.000 F 
ATOM     69  C47 UNL A   1      17.237  46.610  -2.497  1.00  0.00    +0.000 C 
ATOM     70  F13 UNL A   1      17.496  45.628  -3.371  1.00  0.00    +0.000 F 
ATOM     71  C48 UNL A   1      16.045  47.314  -2.574  1.00  0.00    +0.000 C 
ATOM     72  F14 UNL A   1      15.141  46.999  -3.511  1.00  0.00    +0.000 F 
ATOM     73  C49 UNL A   1      15.784  48.348  -1.678  1.00  0.00    +0.000 C 
ATOM     74  F15 UNL A   1      14.628  49.020  -1.783  1.00  0.00    +0.000 F 
ATOM     64  C44 UNL A   1      16.700  48.680  -0.669  1.00  0.00    +0.000 C 
ENDBRANCH   63   64
TORSDOF 23
ENDMDL
MODEL 9
REMARK VINA RESULT:     -10.5     30.082     34.357
ROOT
ATOM    129  H26 UNL A   1      13.591  19.120   9.948  1.00  0.00    +0.000 H 
ATOM    130  H27 UNL A   1      13.110  21.323   8.779  1.00  0.00    +0.000 H 
ATOM    131  H28 UNL A   1      16.667  19.817   7.243  1.00  0.00    +0.000 H 
ATOM    132  H29 UNL A   1      17.245  15.270   9.317  1.00  0.00    +0.000 H 
ATOM    133  H30 UNL A   1      19.408  15.069   7.962  1.00  0.00    +0.000 H 
ATOM    134  H31 UNL A   1      17.518  23.859   3.478  1.00  0.00    +0.000 H 
ATOM    135  H32 UNL A   1      15.564  24.259   5.085  1.00  0.00    +0.000 H 
ATOM     27  C20 UNL A   1      15.055  22.068   6.832  1.00  0.00    +0.000 C 
ATOM     28  C21 UNL A   1      16.185  22.217   5.854  1.00  0.00    +0.000 C 
ATOM     29  N3  UNL A   1      17.168  21.393   5.593  1.00  0.00    +0.000 N 
ATOM     30  C22 UNL A   1      17.905  21.994   4.582  1.00  0.00    +0.000 C 
ATOM     31  C23 UNL A   1      19.052  21.563   4.006  1.00  0.00    +0.000 C 
ATOM     43  C30 UNL A   1      19.729  20.344   4.362  1.00  0.00    +0.000 C 
ATOM     44  C31 UNL A   1      20.933  19.855   3.885  1.00  0.00    +0.000 C 
ATOM     45  C32 UNL A   1      21.164  18.609   4.479  1.00  0.00    +0.000 C 
ATOM     46  C33 UNL A   1      20.129  18.345   5.362  1.00  0.00    +0.000 C 
ATOM     47  N4  UNL A   1      19.257  19.419   5.282  1.00  0.00    +0.000 N 
ATOM     48  C34 UNL A   1      19.942  17.193   6.208  1.00  0.00    +0.000 C 
ATOM     60  C41 UNL A   1      18.924  17.030   7.086  1.00  0.00    +0.000 C 
ATOM     61  N5  UNL A   1      17.869  17.887   7.367  1.00  0.00    +0.000 N 
ATOM     62  C42 UNL A   1      17.143  17.280   8.274  1.00  0.00    +0.000 C 
ATOM     63  C43 UNL A   1      15.889  17.753   8.957  1.00  0.00    +0.000 C 
ATOM     75  C50 UNL A   1      15.384  18.961   8.642  1.00  0.00    +0.000 C 
ATOM     76  C51 UNL A   1      14.169  19.542   9.203  1.00  0.00    +0.000 C 
ATOM     77  C52 UNL A   1      13.922  20.713   8.595  1.00  0.00    +0.000 C 
ATOM     78  C53 UNL A   1      14.990  20.988   7.633  1.00  0.00    +0.000 C 
ATOM     79  N6  UNL A   1      15.828  19.907   7.750  1.00  0.00    +0.000 N 
ATOM     80  C54 UNL A   1      17.647  15.954   8.657  1.00  0.00    +0.000 C 
ATOM     81  C55 UNL A   1      18.753  15.866   7.930  1.00  0.00    +0.000 C 
ATOM     82  C56 UNL A   1      17.230  23.229   4.242  1.00  0.00    +0.000 C 
ATOM     83  C57 UNL A   1      16.197  23.443   5.043  1.00  0.00    +0.000 C 
ATOM    126  H23 UNL A   1      21.552  20.327   3.208  1.00  0.00    +0.000 H 
ATOM    127  H24 UNL A   1      21.969  17.991   4.291  1.00  0.00    +0.000 H 
ATOM    128  H25 UNL A   1      18.426  19.513   5.801  1.00  0.00    +0.000 H 
ENDROOT
BRANCH   27   26
ATOM    136  H33 UNL A   1      13.036  22.310   5.102  1.00  0.00    +0.000 H 
ATOM    137  H34 UNL A   1      11.209  23.902   5.112  1.00  0.00    +0.000 H 
ATOM     84  C58 UNL A   1      12.966  23.010   5.857  1.00  0.00    +0.000 C 
ATOM     85  C59 UNL A   1      11.896  23.897   5.883  1.00  0.00    +0.000 C 
ATOM     23  C16 UNL A   1      11.752  24.780   6.957  1.00  0.00    +0.000 C 
ATOM     24  C17 UNL A   1      12.753  24.880   7.927  1.00  0.00    +0.000 C 
ATOM     25  C18 UNL A   1      13.861  24.033   7.865  1.00  0.00    +0.000 C 
ATOM     26  C19 UNL A   1      13.953  23.061   6.854  1.00  0.00    +0.000 C 
ATOM    124  H21 UNL A   1      12.673  25.575   8.685  1.00  0.00    +0.000 H 
ATOM    125  H22 UNL A   1      14.616  24.121   8.563  1.00  0.00    +0.000 H 
BRANCH   23   21
ATOM     21  C15 UNL A   1      10.535  25.608   7.089  1.00  0.00    +0.000 C 
ATOM     22  O4  UNL A   1       9.867  25.557   8.115  1.00  0.00    +0.000 O 
BRANCH   21   20
ATOM    123  H20 UNL A   1      10.810  27.108   5.782  1.00  0.00    +0.000 H 
ATOM     20  N2  UNL A   1      10.156  26.421   6.048  1.00  0.00    +0.000 N 
BRANCH   20   19
ATOM    121  H18 UNL A   1       8.801  25.433   4.839  1.00  0.00    +0.000 H 
ATOM    122  H19 UNL A   1       8.112  26.614   5.956  1.00  0.00    +0.000 H 
ATOM     19  C14 UNL A   1       8.916  26.400   5.285  1.00  0.00    +0.000 C 
BRANCH   19   18
ATOM     18  C13 UNL A   1       8.906  27.455   4.183  1.00  0.00    +0.000 C 
ATOM    119  H16 UNL A   1       8.666  26.972   3.258  1.00  0.00    +0.000 H 
ATOM    120  H17 UNL A   1       8.183  28.190   4.468  1.00  0.00    +0.000 H 
BRANCH   18   17
ATOM     17  C12 UNL A   1      10.236  28.192   4.007  1.00  0.00    +0.000 C 
ATOM    117  H14 UNL A   1      10.512  28.609   4.954  1.00  0.00    +0.000 H 
ATOM    118  H15 UNL A   1      10.934  27.466   3.644  1.00  0.00    +0.000 H 
BRANCH   17   16
ATOM    115  H12 UNL A   1       9.816  28.935   2.062  1.00  0.00    +0.000 H 
ATOM    116  H13 UNL A   1       9.622  30.107   3.400  1.00  0.00    +0.000 H 
ATOM     16  C11 UNL A   1      10.216  29.325   2.975  1.00  0.00    +0.000 C 
BRANCH   16   15
ATOM    113  H10 UNL A   1      12.100  30.119   3.587  1.00  0.00    +0.000 H 
ATOM    114  H11 UNL A   1      12.109  29.266   2.028  1.00  0.00    +0.000 H 
ATOM     15  C10 UNL A   1      11.587  29.951   2.664  1.00  0.00    +0.000 C 
BRANCH   15   14
ATOM     14  C9  UNL A   1      11.494  31.283   1.912  1.00  0.00    +0.000 C 
ATOM    111  H8  UNL A   1      11.200  31.099   0.899  1.00  0.00    +0.000 H 
ATOM    112  H9  UNL A   1      10.769  31.908   2.388  1.00  0.00    +0.000 H 
BRANCH   14   13
ATOM     13  N1  UNL A   1      12.783  31.945   1.928  1.00  0.00    +0.000 N 
ATOM    110  H7  UNL A   1      13.194  31.965   2.822  1.00  0.00    +0.000 H 
BRANCH   13   11
ATOM     11  C8  UNL A   1      13.545  32.542   0.976  1.00  0.00    +0.000 C 
ATOM     12  O3  UNL A   1      13.283  33.725   0.745  1.00  0.00    +0.000 O 
BRANCH   11   10
ATOM     10  C7  UNL A   1      14.573  31.807   0.143  1.00  0.00    +0.000 C 
BRANCH   10    9
ATOM      9  C6  UNL A   1      14.245  31.112  -0.972  1.00  0.00    +0.000 C 
ATOM    109  H6  UNL A   1      14.103  31.680  -1.821  1.00  0.00    +0.000 H 
BRANCH    9    8
ATOM      5  C2  UNL A   1      13.941  26.859  -1.464  1.00  0.00    +0.000 C 
ATOM    102  C73 UNL A   1      14.906  28.992  -2.053  1.00  0.00    +0.000 C 
ATOM      6  C3  UNL A   1      13.058  27.497  -0.592  1.00  0.00    +0.000 C 
ATOM    103  C74 UNL A   1      14.849  27.604  -2.217  1.00  0.00    +0.000 C 
ATOM      7  C4  UNL A   1      13.108  28.890  -0.452  1.00  0.00    +0.000 C 
ATOM      8  C5  UNL A   1      14.060  29.651  -1.144  1.00  0.00    +0.000 C 
ATOM    107  H4  UNL A   1      12.373  26.946  -0.053  1.00  0.00    +0.000 H 
ATOM    108  H5  UNL A   1      12.434  29.363   0.168  1.00  0.00    +0.000 H 
ATOM    149  H46 UNL A   1      15.578  29.542  -2.610  1.00  0.00    +0.000 H 
ATOM    150  H47 UNL A   1      15.476  27.134  -2.889  1.00  0.00    +0.000 H 
BRANCH    5    2
ATOM      2  S1  UNL A   1      13.892  25.090  -1.645  1.00  0.00    +0.000 S 
ATOM      3  O1  UNL A   1      15.257  24.607  -1.550  1.00  0.00    +0.000 O 
ATOM      4  O2  UNL A   1      13.083  24.820  -2.818  1.00  0.00    +0.000 O 
BRANCH    2    1
ATOM      1  C1  UNL A   1      13.022  24.495  -0.217  1.00  0.00    +0.000 C 
ATOM    106  H3  UNL A   1      11.983  24.394  -0.449  1.00  0.00    +0.000 H 
ATOM    105  H2  UNL A   1      13.419  23.545   0.072  1.00  0.00    +0.000 H 
ATOM    104  H1  UNL A   1      13.140  25.191   0.588  1.00  0.00    +0.000 H 
ENDBRANCH    2    1
ENDBRANCH    5    2
ENDBRANCH    9    8
ENDBRANCH   10    9
BRANCH   10   86
ATOM    101  C72 UNL A   1      17.040  31.295  -0.066  1.00  0.00    +0.000 C 
ATOM    138  H35 UNL A   1      15.355  32.334   2.635  1.00  0.00    +0.000 H 
ATOM    139  H36 UNL A   1      17.522  32.013   3.661  1.00  0.00    +0.000 H 
ATOM    140  H37 UNL A   1      19.353  31.120   2.355  1.00  0.00    +0.000 H 
ATOM    148  H45 UNL A   1      16.931  31.175  -1.086  1.00  0.00    +0.000 H 
ATOM     86  C60 UNL A   1      15.952  31.736   0.698  1.00  0.00    +0.000 C 
ATOM     87  C61 UNL A   1      16.144  31.993   2.065  1.00  0.00    +0.000 C 
ATOM     88  C62 UNL A   1      17.385  31.791   2.662  1.00  0.00    +0.000 C 
ATOM     89  C63 UNL A   1      18.440  31.291   1.905  1.00  0.00    +0.000 C 
ATOM     90  C64 UNL A   1      18.280  31.014   0.537  1.00  0.00    +0.000 C 
BRANCH   90   91
ATOM     99  C70 UNL A   1      21.026  30.284  -1.968  1.00  0.00    +0.000 C 
ATOM    100  C71 UNL A   1      20.081  30.979  -1.208  1.00  0.00    +0.000 C 
ATOM    141  H38 UNL A   1      19.026  28.458   0.731  1.00  0.00    +0.000 H 
ATOM    142  H39 UNL A   1      20.646  27.240  -0.596  1.00  0.00    +0.000 H 
ATOM    146  H43 UNL A   1      21.571  30.773  -2.695  1.00  0.00    +0.000 H 
ATOM    147  H44 UNL A   1      19.932  31.986  -1.377  1.00  0.00    +0.000 H 
ATOM     91  C65 UNL A   1      19.333  30.324  -0.218  1.00  0.00    +0.000 C 
ATOM     92  C66 UNL A   1      19.561  28.951  -0.001  1.00  0.00    +0.000 C 
ATOM     93  C67 UNL A   1      20.496  28.248  -0.757  1.00  0.00    +0.000 C 
ATOM     94  C68 UNL A   1      21.226  28.923  -1.736  1.00  0.00    +0.000 C 
BRANCH   94   95
ATOM     97  O5  UNL A   1      22.668  26.786  -1.997  1.00  0.00    +0.000 O 
ATOM     98  O6  UNL A   1      21.846  27.951  -4.081  1.00  0.00    +0.000 O 
ATOM     95  S2  UNL A   1      22.373  28.000  -2.730  1.00  0.00    +0.000 S 
BRANCH   95   96
ATOM    145  H42 UNL A   1      24.557  28.582  -3.397  1.00  0.00    +0.000 H 
ATOM    144  H41 UNL A   1      23.571  29.995  -3.102  1.00  0.00    +0.000 H 
ATOM    143  H40 UNL A   1      24.225  29.088  -1.758  1.00  0.00    +0.000 H 
ATOM     96  C69 UNL A   1      23.826  29.017  -2.748  1.00  0.00    +0.000 C 
ENDBRANCH   95   96
ENDBRANCH   94   95
ENDBRANCH   90   91
ENDBRANCH   10   86
ENDBRANCH   11   10
ENDBRANCH   13   11
ENDBRANCH   14   13
ENDBRANCH   15   14
ENDBRANCH   16   15
ENDBRANCH   17   16
ENDBRANCH   18   17
ENDBRANCH   19   18
ENDBRANCH   20   19
ENDBRANCH   21   20
ENDBRANCH   23   21
ENDBRANCH   27   26
BRANCH   31   32
ATOM     33  C25 UNL A   1      20.561  23.441   3.216  1.00  0.00    +0.000 C 
ATOM     34  F1  UNL A   1      20.886  23.713   4.490  1.00  0.00    +0.000 F 
ATOM     35  C26 UNL A   1      21.116  24.217   2.203  1.00  0.00    +0.000 C 
ATOM     36  F2  UNL A   1      21.949  25.222   2.509  1.00  0.00    +0.000 F 
ATOM     37  C27 UNL A   1      20.799  23.962   0.878  1.00  0.00    +0.000 C 
ATOM     38  F3  UNL A   1      21.339  24.705  -0.098  1.00  0.00    +0.000 F 
ATOM     39  C28 UNL A   1      19.916  22.939   0.563  1.00  0.00    +0.000 C 
ATOM     40  F4  UNL A   1      19.618  22.683  -0.717  1.00  0.00    +0.000 F 
ATOM     41  C29 UNL A   1      19.337  22.180   1.577  1.00  0.00    +0.000 C 
ATOM     42  F5  UNL A   1      18.475  21.208   1.241  1.00  0.00    +0.000 F 
ATOM     32  C24 UNL A   1      19.649  22.416   2.925  1.00  0.00    +0.000 C 
ENDBRANCH   31   32
BRANCH   48   49
ATOM     49  C35 UNL A   1      20.963  16.097   6.124  1.00  0.00    +0.000 C 
ATOM     50  C36 UNL A   1      20.845  15.058   5.189  1.00  0.00    +0.000 C 
ATOM     51  F6  UNL A   1      19.771  14.986   4.391  1.00  0.00    +0.000 F 
ATOM     52  C37 UNL A   1      21.822  14.070   5.094  1.00  0.00    +0.000 C 
ATOM     53  F7  UNL A   1      21.672  13.065   4.220  1.00  0.00    +0.000 F 
ATOM     54  C38 UNL A   1      22.944  14.118   5.908  1.00  0.00    +0.000 C 
ATOM     55  F8  UNL A   1      23.888  13.172   5.805  1.00  0.00    +0.000 F 
ATOM     56  C39 UNL A   1      23.084  15.142   6.832  1.00  0.00    +0.000 C 
ATOM     57  F9  UNL A   1      24.174  15.197   7.610  1.00  0.00    +0.000 F 
ATOM     58  C40 UNL A   1      22.097  16.116   6.949  1.00  0.00    +0.000 C 
ATOM     59  F10 UNL A   1      22.258  17.091   7.856  1.00  0.00    +0.000 F 
ENDBRANCH   48   49
BRANCH   63   64
ATOM     65  C45 UNL A   1      14.376  15.852   9.592  1.00  0.00    +0.000 C 
ATOM     66  F11 UNL A   1      14.163  15.609   8.290  1.00  0.00    +0.000 F 
ATOM     67  C46 UNL A   1      13.727  15.066  10.541  1.00  0.00    +0.000 C 
ATOM     68  F12 UNL A   1      12.902  14.088  10.146  1.00  0.00    +0.000 F 
ATOM     69  C47 UNL A   1      13.924  15.302  11.893  1.00  0.00    +0.000 C 
ATOM     70  F13 UNL A   1      13.305  14.542  12.806  1.00  0.00    +0.000 F 
ATOM     71  C48 UNL A   1      14.759  16.333  12.298  1.00  0.00    +0.000 C 
ATOM     72  F14 UNL A   1      14.965  16.555  13.603  1.00  0.00    +0.000 F 
ATOM     73  C49 UNL A   1      15.387  17.138  11.350  1.00  0.00    +0.000 C 
ATOM     74  F15 UNL A   1      16.181  18.134  11.770  1.00  0.00    +0.000 F 
ATOM     64  C44 UNL A   1      15.212  16.910   9.977  1.00  0.00    +0.000 C 
ENDBRANCH   63   64
TORSDOF 23
ENDMDL
MODEL 10
REMARK VINA RESULT:     -10.4     27.279     34.850
ROOT
ATOM    129  H26 UNL A   1      25.482  22.547   3.264  1.00  0.00    +0.000 H 
ATOM    130  H27 UNL A   1      24.264  24.511   2.212  1.00  0.00    +0.000 H 
ATOM    131  H28 UNL A   1      21.512  21.440   2.735  1.00  0.00    +0.000 H 
ATOM    132  H29 UNL A   1      23.956  17.812   5.221  1.00  0.00    +0.000 H 
ATOM    133  H30 UNL A   1      21.774  16.476   5.157  1.00  0.00    +0.000 H 
ATOM    134  H31 UNL A   1      17.048  24.235   0.867  1.00  0.00    +0.000 H 
ATOM    135  H32 UNL A   1      19.289  25.439   0.576  1.00  0.00    +0.000 H 
ATOM     27  C20 UNL A   1      21.489  24.056   1.741  1.00  0.00    +0.000 C 
ATOM     28  C21 UNL A   1      20.068  23.585   1.625  1.00  0.00    +0.000 C 
ATOM     29  N3  UNL A   1      19.534  22.458   2.023  1.00  0.00    +0.000 N 
ATOM     30  C22 UNL A   1      18.185  22.550   1.713  1.00  0.00    +0.000 C 
ATOM     31  C23 UNL A   1      17.217  21.616   1.875  1.00  0.00    +0.000 C 
ATOM     43  C30 UNL A   1      17.441  20.307   2.428  1.00  0.00    +0.000 C 
ATOM     44  C31 UNL A   1      16.541  19.265   2.570  1.00  0.00    +0.000 C 
ATOM     45  C32 UNL A   1      17.195  18.207   3.212  1.00  0.00    +0.000 C 
ATOM     46  C33 UNL A   1      18.515  18.571   3.425  1.00  0.00    +0.000 C 
ATOM     47  N4  UNL A   1      18.652  19.861   2.938  1.00  0.00    +0.000 N 
ATOM     48  C34 UNL A   1      19.569  17.805   4.039  1.00  0.00    +0.000 C 
ATOM     60  C41 UNL A   1      20.854  18.214   4.167  1.00  0.00    +0.000 C 
ATOM     61  N5  UNL A   1      21.434  19.409   3.762  1.00  0.00    +0.000 N 
ATOM     62  C42 UNL A   1      22.693  19.338   4.119  1.00  0.00    +0.000 C 
ATOM     63  C43 UNL A   1      23.794  20.344   3.918  1.00  0.00    +0.000 C 
ATOM     75  C50 UNL A   1      23.519  21.502   3.287  1.00  0.00    +0.000 C 
ATOM     76  C51 UNL A   1      24.475  22.576   3.038  1.00  0.00    +0.000 C 
ATOM     77  C52 UNL A   1      23.834  23.609   2.469  1.00  0.00    +0.000 C 
ATOM     78  C53 UNL A   1      22.429  23.250   2.270  1.00  0.00    +0.000 C 
ATOM     79  N6  UNL A   1      22.341  21.971   2.760  1.00  0.00    +0.000 N 
ATOM     80  C54 UNL A   1      23.050  18.094   4.815  1.00  0.00    +0.000 C 
ATOM     81  C55 UNL A   1      21.903  17.430   4.786  1.00  0.00    +0.000 C 
ATOM     82  C56 UNL A   1      17.970  23.861   1.138  1.00  0.00    +0.000 C 
ATOM     83  C57 UNL A   1      19.114  24.516   1.004  1.00  0.00    +0.000 C 
ATOM    126  H23 UNL A   1      15.557  19.268   2.258  1.00  0.00    +0.000 H 
ATOM    127  H24 UNL A   1      16.767  17.307   3.480  1.00  0.00    +0.000 H 
ATOM    128  H25 UNL A   1      19.486  20.384   2.950  1.00  0.00    +0.000 H 
ENDROOT
BRANCH   27   26
ATOM    136  H33 UNL A   1      21.392  26.245   3.266  1.00  0.00    +0.000 H 
ATOM    137  H34 UNL A   1      21.984  28.524   2.693  1.00  0.00    +0.000 H 
ATOM     84  C58 UNL A   1      21.746  26.463   2.322  1.00  0.00    +0.000 C 
ATOM     85  C59 UNL A   1      22.123  27.765   2.007  1.00  0.00    +0.000 C 
ATOM     23  C16 UNL A   1      22.692  28.040   0.761  1.00  0.00    +0.000 C 
ATOM     24  C17 UNL A   1      22.749  27.050  -0.224  1.00  0.00    +0.000 C 
ATOM     25  C18 UNL A   1      22.309  25.757   0.072  1.00  0.00    +0.000 C 
ATOM     26  C19 UNL A   1      21.847  25.445   1.361  1.00  0.00    +0.000 C 
ATOM    124  H21 UNL A   1      23.113  27.272  -1.162  1.00  0.00    +0.000 H 
ATOM    125  H22 UNL A   1      22.323  25.030  -0.659  1.00  0.00    +0.000 H 
BRANCH   23   21
ATOM     21  C15 UNL A   1      23.254  29.376   0.472  1.00  0.00    +0.000 C 
ATOM     22  O4  UNL A   1      23.647  30.088   1.389  1.00  0.00    +0.000 O 
BRANCH   21   20
ATOM    123  H20 UNL A   1      24.222  29.877  -1.215  1.00  0.00    +0.000 H 
ATOM     20  N2  UNL A   1      23.318  29.814  -0.829  1.00  0.00    +0.000 N 
BRANCH   20   19
ATOM    121  H18 UNL A   1      22.636  30.596  -2.617  1.00  0.00    +0.000 H 
ATOM    122  H19 UNL A   1      21.638  29.324  -1.907  1.00  0.00    +0.000 H 
ATOM     19  C14 UNL A   1      22.226  30.196  -1.713  1.00  0.00    +0.000 C 
BRANCH   19   18
ATOM     18  C13 UNL A   1      21.318  31.245  -1.077  1.00  0.00    +0.000 C 
ATOM    119  H16 UNL A   1      21.885  31.778  -0.342  1.00  0.00    +0.000 H 
ATOM    120  H17 UNL A   1      20.973  31.874  -1.871  1.00  0.00    +0.000 H 
BRANCH   18   17
ATOM     17  C12 UNL A   1      20.073  30.670  -0.398  1.00  0.00    +0.000 C 
ATOM    117  H14 UNL A   1      20.236  30.683   0.659  1.00  0.00    +0.000 H 
ATOM    118  H15 UNL A   1      19.253  31.284  -0.709  1.00  0.00    +0.000 H 
BRANCH   17   16
ATOM    115  H12 UNL A   1      20.513  28.857  -1.414  1.00  0.00    +0.000 H 
ATOM    116  H13 UNL A   1      19.576  28.691   0.101  1.00  0.00    +0.000 H 
ATOM     16  C11 UNL A   1      19.716  29.237  -0.809  1.00  0.00    +0.000 C 
BRANCH   16   15
ATOM    113  H10 UNL A   1      18.613  29.266  -2.635  1.00  0.00    +0.000 H 
ATOM    114  H11 UNL A   1      18.039  28.100  -1.423  1.00  0.00    +0.000 H 
ATOM     15  C10 UNL A   1      18.406  29.090  -1.601  1.00  0.00    +0.000 C 
BRANCH   15   14
ATOM     14  C9  UNL A   1      17.310  30.063  -1.154  1.00  0.00    +0.000 C 
ATOM    111  H8  UNL A   1      17.539  30.434  -0.177  1.00  0.00    +0.000 H 
ATOM    112  H9  UNL A   1      17.257  30.878  -1.845  1.00  0.00    +0.000 H 
BRANCH   14   13
ATOM     13  N1  UNL A   1      16.032  29.379  -1.122  1.00  0.00    +0.000 N 
ATOM    110  H7  UNL A   1      15.876  28.893  -0.280  1.00  0.00    +0.000 H 
BRANCH   13   11
ATOM     11  C8  UNL A   1      15.004  29.265  -2.002  1.00  0.00    +0.000 C 
ATOM     12  O3  UNL A   1      14.944  30.137  -2.872  1.00  0.00    +0.000 O 
BRANCH   11   10
ATOM     10  C7  UNL A   1      13.910  28.225  -1.882  1.00  0.00    +0.000 C 
BRANCH   10    9
ATOM      9  C6  UNL A   1      12.745  28.465  -1.235  1.00  0.00    +0.000 C 
ATOM    109  H6  UNL A   1      12.111  29.132  -1.701  1.00  0.00    +0.000 H 
BRANCH    9    8
ATOM      5  C2  UNL A   1      11.131  26.984   2.455  1.00  0.00    +0.000 C 
ATOM    102  C73 UNL A   1      11.717  28.806   0.984  1.00  0.00    +0.000 C 
ATOM      6  C3  UNL A   1      11.700  26.076   1.562  1.00  0.00    +0.000 C 
ATOM    103  C74 UNL A   1      11.160  28.352   2.184  1.00  0.00    +0.000 C 
ATOM      7  C4  UNL A   1      12.276  26.543   0.372  1.00  0.00    +0.000 C 
ATOM      8  C5  UNL A   1      12.252  27.906   0.046  1.00  0.00    +0.000 C 
ATOM    107  H4  UNL A   1      11.697  25.067   1.774  1.00  0.00    +0.000 H 
ATOM    108  H5  UNL A   1      12.725  25.874  -0.272  1.00  0.00    +0.000 H 
ATOM    149  H46 UNL A   1      11.737  29.818   0.784  1.00  0.00    +0.000 H 
ATOM    150  H47 UNL A   1      10.772  29.024   2.864  1.00  0.00    +0.000 H 
BRANCH    5    2
ATOM      2  S1  UNL A   1      10.391  26.401   3.965  1.00  0.00    +0.000 S 
ATOM      3  O1  UNL A   1       9.963  27.568   4.715  1.00  0.00    +0.000 O 
ATOM      4  O2  UNL A   1      11.321  25.446   4.536  1.00  0.00    +0.000 O 
BRANCH    2    1
ATOM      1  C1  UNL A   1       8.929  25.529   3.467  1.00  0.00    +0.000 C 
ATOM    106  H3  UNL A   1       8.995  25.285   2.427  1.00  0.00    +0.000 H 
ATOM    105  H2  UNL A   1       8.837  24.630   4.040  1.00  0.00    +0.000 H 
ATOM    104  H1  UNL A   1       8.071  26.148   3.632  1.00  0.00    +0.000 H 
ENDBRANCH    2    1
ENDBRANCH    5    2
ENDBRANCH    9    8
ENDBRANCH   10    9
BRANCH   10   86
ATOM    101  C72 UNL A   1      15.459  26.234  -2.059  1.00  0.00    +0.000 C 
ATOM    138  H35 UNL A   1      12.448  26.658  -3.464  1.00  0.00    +0.000 H 
ATOM    139  H36 UNL A   1      13.020  24.533  -4.467  1.00  0.00    +0.000 H 
ATOM    140  H37 UNL A   1      15.188  23.544  -4.042  1.00  0.00    +0.000 H 
ATOM    148  H45 UNL A   1      16.083  26.654  -1.352  1.00  0.00    +0.000 H 
ATOM     86  C60 UNL A   1      14.239  26.855  -2.360  1.00  0.00    +0.000 C 
ATOM     87  C61 UNL A   1      13.356  26.219  -3.248  1.00  0.00    +0.000 C 
ATOM     88  C62 UNL A   1      13.691  25.005  -3.841  1.00  0.00    +0.000 C 
ATOM     89  C63 UNL A   1      14.932  24.433  -3.583  1.00  0.00    +0.000 C 
ATOM     90  C64 UNL A   1      15.843  25.047  -2.708  1.00  0.00    +0.000 C 
BRANCH   90   91
ATOM     99  C70 UNL A   1      19.600  24.900  -2.238  1.00  0.00    +0.000 C 
ATOM    100  C71 UNL A   1      18.292  25.391  -2.286  1.00  0.00    +0.000 C 
ATOM    141  H38 UNL A   1      16.696  22.534  -3.008  1.00  0.00    +0.000 H 
ATOM    142  H39 UNL A   1      18.962  21.678  -2.948  1.00  0.00    +0.000 H 
ATOM    146  H43 UNL A   1      20.386  25.534  -2.027  1.00  0.00    +0.000 H 
ATOM    147  H44 UNL A   1      18.117  26.392  -2.107  1.00  0.00    +0.000 H 
ATOM     91  C65 UNL A   1      17.215  24.539  -2.574  1.00  0.00    +0.000 C 
ATOM     92  C66 UNL A   1      17.479  23.175  -2.805  1.00  0.00    +0.000 C 
ATOM     93  C67 UNL A   1      18.780  22.677  -2.766  1.00  0.00    +0.000 C 
ATOM     94  C68 UNL A   1      19.833  23.545  -2.479  1.00  0.00    +0.000 C 
BRANCH   94   95
ATOM     97  O5  UNL A   1      22.340  23.973  -2.975  1.00  0.00    +0.000 O 
ATOM     98  O6  UNL A   1      21.731  22.283  -1.200  1.00  0.00    +0.000 O 
ATOM     95  S2  UNL A   1      21.490  22.906  -2.488  1.00  0.00    +0.000 S 
BRANCH   95   96
ATOM    145  H42 UNL A   1      20.588  21.768  -4.346  1.00  0.00    +0.000 H 
ATOM    144  H41 UNL A   1      22.332  21.654  -4.299  1.00  0.00    +0.000 H 
ATOM    143  H40 UNL A   1      21.362  20.671  -3.227  1.00  0.00    +0.000 H 
ATOM     96  C69 UNL A   1      21.438  21.622  -3.711  1.00  0.00    +0.000 C 
ENDBRANCH   95   96
ENDBRANCH   94   95
ENDBRANCH   90   91
ENDBRANCH   10   86
ENDBRANCH   11   10
ENDBRANCH   13   11
ENDBRANCH   14   13
ENDBRANCH   15   14
ENDBRANCH   16   15
ENDBRANCH   17   16
ENDBRANCH   18   17
ENDBRANCH   19   18
ENDBRANCH   20   19
ENDBRANCH   21   20
ENDBRANCH   23   21
ENDBRANCH   27   26
BRANCH   31   32
ATOM     33  C25 UNL A   1      14.900  22.529   2.349  1.00  0.00    +0.000 C 
ATOM     34  F1  UNL A   1      15.233  22.701   3.637  1.00  0.00    +0.000 F 
ATOM     35  C26 UNL A   1      13.615  22.871   1.937  1.00  0.00    +0.000 C 
ATOM     36  F2  UNL A   1      12.734  23.352   2.825  1.00  0.00    +0.000 F 
ATOM     37  C27 UNL A   1      13.241  22.703   0.613  1.00  0.00    +0.000 C 
ATOM     38  F3  UNL A   1      12.005  23.040   0.216  1.00  0.00    +0.000 F 
ATOM     39  C28 UNL A   1      14.145  22.180  -0.300  1.00  0.00    +0.000 C 
ATOM     40  F4  UNL A   1      13.788  22.030  -1.583  1.00  0.00    +0.000 F 
ATOM     41  C29 UNL A   1      15.421  21.810   0.115  1.00  0.00    +0.000 C 
ATOM     42  F5  UNL A   1      16.268  21.293  -0.789  1.00  0.00    +0.000 F 
ATOM     32  C24 UNL A   1      15.825  21.977   1.448  1.00  0.00    +0.000 C 
ENDBRANCH   31   32
BRANCH   48   49
ATOM     49  C35 UNL A   1      19.225  16.442   4.560  1.00  0.00    +0.000 C 
ATOM     50  C36 UNL A   1      18.746  16.257   5.866  1.00  0.00    +0.000 C 
ATOM     51  F6  UNL A   1      18.652  17.299   6.704  1.00  0.00    +0.000 F 
ATOM     52  C37 UNL A   1      18.391  14.991   6.323  1.00  0.00    +0.000 C 
ATOM     53  F7  UNL A   1      17.970  14.831   7.586  1.00  0.00    +0.000 F 
ATOM     54  C38 UNL A   1      18.478  13.895   5.479  1.00  0.00    +0.000 C 
ATOM     55  F8  UNL A   1      18.122  12.679   5.918  1.00  0.00    +0.000 F 
ATOM     56  C39 UNL A   1      18.939  14.057   4.181  1.00  0.00    +0.000 C 
ATOM     57  F9  UNL A   1      19.012  13.000   3.359  1.00  0.00    +0.000 F 
ATOM     58  C40 UNL A   1      19.322  15.316   3.729  1.00  0.00    +0.000 C 
ATOM     59  F10 UNL A   1      19.770  15.441   2.471  1.00  0.00    +0.000 F 
ENDBRANCH   48   49
BRANCH   63   64
ATOM     65  C45 UNL A   1      26.195  19.750   3.488  1.00  0.00    +0.000 C 
ATOM     66  F11 UNL A   1      25.923  19.668   2.177  1.00  0.00    +0.000 F 
ATOM     67  C46 UNL A   1      27.488  19.477   3.927  1.00  0.00    +0.000 C 
ATOM     68  F12 UNL A   1      28.435  19.136   3.044  1.00  0.00    +0.000 F 
ATOM     69  C47 UNL A   1      27.794  19.546   5.278  1.00  0.00    +0.000 C 
ATOM     70  F13 UNL A   1      29.039  19.290   5.700  1.00  0.00    +0.000 F 
ATOM     71  C48 UNL A   1      26.803  19.875   6.192  1.00  0.00    +0.000 C 
ATOM     72  F14 UNL A   1      27.098  19.958   7.497  1.00  0.00    +0.000 F 
ATOM     73  C49 UNL A   1      25.503  20.121   5.757  1.00  0.00    +0.000 C 
ATOM     74  F15 UNL A   1      24.564  20.427   6.664  1.00  0.00    +0.000 F 
ATOM     64  C44 UNL A   1      25.174  20.069   4.395  1.00  0.00    +0.000 C 
ENDBRANCH   63   64
TORSDOF 23
ENDMDL
