MODEL 1
REMARK VINA RESULT:      -6.8      0.000      0.000
ROOT
ATOM    138  H39 UNL A   1      13.118  46.730   2.146  1.00  0.00    +0.000 H 
ATOM    139  H40 UNL A   1      14.957  46.856   0.300  1.00  0.00    +0.000 H 
ATOM    140  H41 UNL A   1      14.594  50.600   2.033  1.00  0.00    +0.000 H 
ATOM    141  H42 UNL A   1      16.192  56.780   2.189  1.00  0.00    +0.000 H 
ATOM    142  H43 UNL A   1      14.407  56.646   3.993  1.00  0.00    +0.000 H 
ATOM    143  H44 UNL A   1      14.855  52.848   2.364  1.00  0.00    +0.000 H 
ATOM    144  H45 UNL A   1      18.442  53.242  -1.128  1.00  0.00    +0.000 H 
ATOM    145  H46 UNL A   1      17.981  50.787  -1.691  1.00  0.00    +0.000 H 
ATOM    146  H47 UNL A   1      11.217  50.259   5.714  1.00  0.00    +0.000 H 
ATOM    147  H48 UNL A   1      11.277  52.809   5.942  1.00  0.00    +0.000 H 
ATOM     41  C29 UNL A   1      13.253  54.059   4.309  1.00  0.00    +0.000 C 
ATOM     42  C30 UNL A   1      12.860  52.608   4.332  1.00  0.00    +0.000 C 
ATOM     43  N7  UNL A   1      13.325  51.614   3.617  1.00  0.00    +0.000 N 
ATOM     44  C31 UNL A   1      12.654  50.483   4.063  1.00  0.00    +0.000 C 
ATOM     45  C32 UNL A   1      12.736  49.214   3.595  1.00  0.00    +0.000 C 
ATOM     57  C39 UNL A   1      13.573  48.810   2.497  1.00  0.00    +0.000 C 
ATOM     58  C40 UNL A   1      13.669  47.566   1.898  1.00  0.00    +0.000 C 
ATOM     59  C41 UNL A   1      14.645  47.638   0.897  1.00  0.00    +0.000 C 
ATOM     60  C42 UNL A   1      15.122  48.939   0.842  1.00  0.00    +0.000 C 
ATOM     61  N8  UNL A   1      14.458  49.645   1.831  1.00  0.00    +0.000 N 
ATOM     62  C43 UNL A   1      16.111  49.495  -0.045  1.00  0.00    +0.000 C 
ATOM     74  C50 UNL A   1      16.517  50.788  -0.045  1.00  0.00    +0.000 C 
ATOM     75  N9  UNL A   1      16.103  51.835   0.766  1.00  0.00    +0.000 N 
ATOM     76  C51 UNL A   1      16.801  52.879   0.393  1.00  0.00    +0.000 C 
ATOM     77  C52 UNL A   1      16.747  54.291   0.909  1.00  0.00    +0.000 C 
ATOM     89  C59 UNL A   1      15.866  54.602   1.879  1.00  0.00    +0.000 C 
ATOM     90  C60 UNL A   1      15.678  55.927   2.462  1.00  0.00    +0.000 C 
ATOM     91  C61 UNL A   1      14.729  55.858   3.409  1.00  0.00    +0.000 C 
ATOM     92  C62 UNL A   1      14.223  54.486   3.480  1.00  0.00    +0.000 C 
ATOM     93  N10 UNL A   1      14.962  53.809   2.543  1.00  0.00    +0.000 N 
ATOM     94  C63 UNL A   1      17.759  52.606  -0.687  1.00  0.00    +0.000 C 
ATOM     95  C64 UNL A   1      17.517  51.329  -0.944  1.00  0.00    +0.000 C 
ATOM     96  C65 UNL A   1      11.790  50.901   5.143  1.00  0.00    +0.000 C 
ATOM     97  C66 UNL A   1      11.827  52.216   5.303  1.00  0.00    +0.000 C 
ENDROOT
BRANCH   41   40
ATOM     98  C67 UNL A   1      11.436  55.689   4.845  1.00  0.00    +0.000 C 
ATOM     99  C68 UNL A   1      10.851  56.628   5.690  1.00  0.00    +0.000 C 
ATOM     37  C25 UNL A   1      11.369  56.832   6.972  1.00  0.00    +0.000 C 
ATOM     38  C26 UNL A   1      12.536  56.175   7.370  1.00  0.00    +0.000 C 
ATOM     39  C27 UNL A   1      13.163  55.286   6.497  1.00  0.00    +0.000 C 
ATOM    136  H37 UNL A   1      12.933  56.349   8.307  1.00  0.00    +0.000 H 
ATOM     40  C28 UNL A   1      12.606  55.019   5.236  1.00  0.00    +0.000 C 
ATOM    137  H38 UNL A   1      14.040  54.822   6.779  1.00  0.00    +0.000 H 
ATOM    148  H49 UNL A   1      11.008  55.484   3.929  1.00  0.00    +0.000 H 
ATOM    149  H50 UNL A   1      10.036  57.175   5.369  1.00  0.00    +0.000 H 
BRANCH   37   35
ATOM     35  C24 UNL A   1      10.719  57.758   7.925  1.00  0.00    +0.000 C 
ATOM     36  O5  UNL A   1      11.309  58.108   8.936  1.00  0.00    +0.000 O 
BRANCH   35   34
ATOM     34  N6  UNL A   1       9.447  58.209   7.677  1.00  0.00    +0.000 N 
ATOM    135  H36 UNL A   1       9.325  58.676   6.819  1.00  0.00    +0.000 H 
BRANCH   34   33
ATOM     33  C23 UNL A   1       8.256  58.095   8.498  1.00  0.00    +0.000 C 
ATOM    133  H34 UNL A   1       8.368  58.723   9.357  1.00  0.00    +0.000 H 
ATOM    134  H35 UNL A   1       7.418  58.393   7.903  1.00  0.00    +0.000 H 
BRANCH   33   32
ATOM    131  H32 UNL A   1       8.847  56.364   9.561  1.00  0.00    +0.000 H 
ATOM    132  H33 UNL A   1       7.087  56.682   9.504  1.00  0.00    +0.000 H 
ATOM     32  C22 UNL A   1       8.012  56.666   8.964  1.00  0.00    +0.000 C 
BRANCH   32   31
ATOM    129  H30 UNL A   1       6.837  55.256   7.903  1.00  0.00    +0.000 H 
ATOM    130  H31 UNL A   1       8.041  56.161   6.932  1.00  0.00    +0.000 H 
ATOM     31  C21 UNL A   1       7.834  55.640   7.844  1.00  0.00    +0.000 C 
BRANCH   31   30
ATOM     30  C20 UNL A   1       8.800  54.452   7.878  1.00  0.00    +0.000 C 
ATOM    127  H28 UNL A   1       8.246  53.568   7.636  1.00  0.00    +0.000 H 
ATOM    128  H29 UNL A   1       9.573  54.680   7.176  1.00  0.00    +0.000 H 
BRANCH   30   29
ATOM    125  H26 UNL A   1       9.624  55.165   9.701  1.00  0.00    +0.000 H 
ATOM     29  C19 UNL A   1       9.501  54.218   9.218  1.00  0.00    +0.000 C 
ATOM    126  H27 UNL A   1       8.882  53.541   9.768  1.00  0.00    +0.000 H 
BRANCH   29   28
ATOM    124  H25 UNL A   1      11.521  54.223   8.588  1.00  0.00    +0.000 H 
ATOM    123  H24 UNL A   1      10.769  52.626   8.597  1.00  0.00    +0.000 H 
ATOM     28  C18 UNL A   1      10.871  53.557   9.115  1.00  0.00    +0.000 C 
BRANCH   28   27
ATOM    122  H23 UNL A   1      10.806  53.051  11.122  1.00  0.00    +0.000 H 
ATOM     27  N5  UNL A   1      11.448  53.306  10.420  1.00  0.00    +0.000 N 
BRANCH   27   25
ATOM     25  C17 UNL A   1      12.748  53.371  10.816  1.00  0.00    +0.000 C 
ATOM     26  O4  UNL A   1      13.377  54.393  10.519  1.00  0.00    +0.000 O 
BRANCH   25   22
ATOM    118  H19 UNL A   1      13.055  52.208  12.533  1.00  0.00    +0.000 H 
ATOM     22  C15 UNL A   1      13.457  52.221  11.542  1.00  0.00    +0.000 C 
BRANCH   22   21
ATOM    117  H18 UNL A   1      13.450  50.681  10.071  1.00  0.00    +0.000 H 
ATOM     21  N4  UNL A   1      13.147  50.903  10.981  1.00  0.00    +0.000 N 
BRANCH   21   19
ATOM     19  C14 UNL A   1      12.448  49.983  11.696  1.00  0.00    +0.000 C 
ATOM     20  O2  UNL A   1      11.653  50.423  12.530  1.00  0.00    +0.000 O 
BRANCH   19   16
ATOM    113  H14 UNL A   1      11.987  48.212  10.653  1.00  0.00    +0.000 H 
ATOM     16  C12 UNL A   1      12.638  48.470  11.461  1.00  0.00    +0.000 C 
BRANCH   16   15
ATOM     15  N3  UNL A   1      14.012  48.226  11.051  1.00  0.00    +0.000 N 
ATOM    112  H13 UNL A   1      14.725  48.363  11.714  1.00  0.00    +0.000 H 
BRANCH   15   13
ATOM     13  C11 UNL A   1      14.369  47.815   9.789  1.00  0.00    +0.000 C 
ATOM     14  O1  UNL A   1      13.914  46.732   9.411  1.00  0.00    +0.000 O 
BRANCH   13    2
ATOM      2  C1  UNL A   1      15.232  48.703   8.847  1.00  0.00    +0.000 C 
ATOM    103  H4  UNL A   1      15.295  49.663   9.314  1.00  0.00    +0.000 H 
BRANCH    2    1
ATOM      1  N1  UNL A   1      16.622  48.201   8.779  1.00  0.00    +0.000 N 
ATOM    100  H1  UNL A   1      16.649  47.233   9.101  1.00  0.00    +0.000 H 
ATOM    101  H2  UNL A   1      17.219  48.775   9.375  1.00  0.00    +0.000 H 
ATOM    102  H3  UNL A   1      16.953  48.249   7.816  1.00  0.00    +0.000 H 
ENDBRANCH    2    1
BRANCH    2    3
ATOM    105  H6  UNL A   1      14.617  48.295   6.922  1.00  0.00    +0.000 H 
ATOM      3  C2  UNL A   1      14.577  49.176   7.527  1.00  0.00    +0.000 C 
ATOM    104  H5  UNL A   1      13.621  49.575   7.790  1.00  0.00    +0.000 H 
BRANCH    3    4
ATOM      4  C3  UNL A   1      15.242  50.210   6.641  1.00  0.00    +0.000 C 
ATOM      5  C4  UNL A   1      15.161  51.592   6.672  1.00  0.00    +0.000 C 
ATOM      6  N2  UNL A   1      16.051  52.104   5.762  1.00  0.00    +0.000 N 
ATOM      7  C5  UNL A   1      16.604  51.091   5.021  1.00  0.00    +0.000 C 
ATOM      8  C6  UNL A   1      17.517  51.145   3.958  1.00  0.00    +0.000 C 
ATOM      9  C7  UNL A   1      17.841  49.944   3.323  1.00  0.00    +0.000 C 
ATOM    106  H7  UNL A   1      14.536  52.145   7.278  1.00  0.00    +0.000 H 
ATOM     11  C9  UNL A   1      16.421  48.699   4.845  1.00  0.00    +0.000 C 
ATOM     12  C10 UNL A   1      16.070  49.896   5.503  1.00  0.00    +0.000 C 
ATOM     10  C8  UNL A   1      17.289  48.739   3.746  1.00  0.00    +0.000 C 
ATOM    107  H8  UNL A   1      16.262  53.060   5.657  1.00  0.00    +0.000 H 
ATOM    111  H12 UNL A   1      16.041  47.797   5.171  1.00  0.00    +0.000 H 
ATOM    108  H9  UNL A   1      17.932  52.041   3.656  1.00  0.00    +0.000 H 
ATOM    110  H11 UNL A   1      17.521  47.867   3.247  1.00  0.00    +0.000 H 
ATOM    109  H10 UNL A   1      18.500  49.952   2.528  1.00  0.00    +0.000 H 
ENDBRANCH    3    4
ENDBRANCH    2    3
ENDBRANCH   13    2
ENDBRANCH   15   13
ENDBRANCH   16   15
BRANCH   16   17
ATOM     17  C13 UNL A   1      12.007  47.471  12.443  1.00  0.00    +0.000 C 
ATOM    114  H15 UNL A   1      12.214  47.821  13.432  1.00  0.00    +0.000 H 
ATOM    115  H16 UNL A   1      12.442  46.529  12.187  1.00  0.00    +0.000 H 
BRANCH   17   18
ATOM     18  S1  UNL A   1      10.208  47.192  12.330  1.00  0.00    +0.000 S 
ATOM    116  H17 UNL A   1       9.923  45.915  12.698  1.00  0.00    +0.000 H 
ENDBRANCH   17   18
ENDBRANCH   16   17
ENDBRANCH   19   16
ENDBRANCH   21   19
ENDBRANCH   22   21
BRANCH   22   23
ATOM    119  H20 UNL A   1      15.120  53.326  12.304  1.00  0.00    +0.000 H 
ATOM     23  C16 UNL A   1      14.968  52.466  11.685  1.00  0.00    +0.000 C 
ATOM    120  H21 UNL A   1      15.370  52.614  10.704  1.00  0.00    +0.000 H 
BRANCH   23   24
ATOM    121  H22 UNL A   1      16.207  51.664  12.998  1.00  0.00    +0.000 H 
ATOM     24  O3  UNL A   1      15.645  51.354  12.271  1.00  0.00    +0.000 O 
ENDBRANCH   23   24
ENDBRANCH   22   23
ENDBRANCH   25   22
ENDBRANCH   27   25
ENDBRANCH   28   27
ENDBRANCH   29   28
ENDBRANCH   30   29
ENDBRANCH   31   30
ENDBRANCH   32   31
ENDBRANCH   33   32
ENDBRANCH   34   33
ENDBRANCH   35   34
ENDBRANCH   37   35
ENDBRANCH   41   40
BRANCH   45   46
ATOM     46  C33 UNL A   1      11.891  48.171   4.265  1.00  0.00    +0.000 C 
ATOM     47  C34 UNL A   1      10.510  48.078   4.026  1.00  0.00    +0.000 C 
ATOM     48  F1  UNL A   1       9.903  48.961   3.220  1.00  0.00    +0.000 F 
ATOM     49  C35 UNL A   1       9.740  47.098   4.649  1.00  0.00    +0.000 C 
ATOM     50  F2  UNL A   1       8.417  47.059   4.442  1.00  0.00    +0.000 F 
ATOM     51  C36 UNL A   1      10.338  46.173   5.490  1.00  0.00    +0.000 C 
ATOM     52  F3  UNL A   1       9.596  45.228   6.083  1.00  0.00    +0.000 F 
ATOM     53  C37 UNL A   1      11.703  46.234   5.725  1.00  0.00    +0.000 C 
ATOM     54  F4  UNL A   1      12.284  45.333   6.530  1.00  0.00    +0.000 F 
ATOM     55  C38 UNL A   1      12.472  47.230   5.127  1.00  0.00    +0.000 C 
ATOM     56  F5  UNL A   1      13.788  47.271   5.386  1.00  0.00    +0.000 F 
ENDBRANCH   45   46
BRANCH   62   63
ATOM     65  F6  UNL A   1      14.942  48.917  -2.596  1.00  0.00    +0.000 F 
ATOM     66  C46 UNL A   1      16.718  47.514  -3.245  1.00  0.00    +0.000 C 
ATOM     67  F7  UNL A   1      16.100  47.274  -4.410  1.00  0.00    +0.000 F 
ATOM     68  C47 UNL A   1      17.937  46.914  -2.971  1.00  0.00    +0.000 C 
ATOM     69  F8  UNL A   1      18.509  46.110  -3.879  1.00  0.00    +0.000 F 
ATOM     70  C48 UNL A   1      18.562  47.140  -1.754  1.00  0.00    +0.000 C 
ATOM     71  F9  UNL A   1      19.746  46.572  -1.493  1.00  0.00    +0.000 F 
ATOM     72  C49 UNL A   1      17.959  47.957  -0.802  1.00  0.00    +0.000 C 
ATOM     73  F10 UNL A   1      18.579  48.148   0.372  1.00  0.00    +0.000 F 
ATOM     63  C44 UNL A   1      16.730  48.582  -1.062  1.00  0.00    +0.000 C 
ATOM     64  C45 UNL A   1      16.126  48.355  -2.307  1.00  0.00    +0.000 C 
ENDBRANCH   62   63
BRANCH   77   78
ATOM     78  C53 UNL A   1      17.627  55.345   0.342  1.00  0.00    +0.000 C 
ATOM     79  C54 UNL A   1      17.244  56.065  -0.799  1.00  0.00    +0.000 C 
ATOM     80  F11 UNL A   1      16.079  55.790  -1.403  1.00  0.00    +0.000 F 
ATOM     81  C55 UNL A   1      18.074  57.039  -1.347  1.00  0.00    +0.000 C 
ATOM     82  F12 UNL A   1      17.705  57.681  -2.464  1.00  0.00    +0.000 F 
ATOM     83  C56 UNL A   1      19.291  57.334  -0.748  1.00  0.00    +0.000 C 
ATOM     84  F13 UNL A   1      20.087  58.274  -1.274  1.00  0.00    +0.000 F 
ATOM     85  C57 UNL A   1      19.681  56.649   0.392  1.00  0.00    +0.000 C 
ATOM     86  F14 UNL A   1      20.849  56.940   0.982  1.00  0.00    +0.000 F 
ATOM     87  C58 UNL A   1      18.863  55.655   0.926  1.00  0.00    +0.000 C 
ATOM     88  F15 UNL A   1      19.272  55.000   2.023  1.00  0.00    +0.000 F 
ENDBRANCH   77   78
TORSDOF 28
ENDMDL
MODEL 2
REMARK VINA RESULT:      -6.4     49.578     55.115
ROOT
ATOM    138  H39 UNL A   1      59.431  15.612  -1.104  1.00  0.00    +0.000 H 
ATOM    139  H40 UNL A   1      61.518  15.368   0.441  1.00  0.00    +0.000 H 
ATOM    140  H41 UNL A   1      58.133  15.414   2.826  1.00  0.00    +0.000 H 
ATOM    141  H42 UNL A   1      55.481  15.469   8.634  1.00  0.00    +0.000 H 
ATOM    142  H43 UNL A   1      53.453  15.696   7.121  1.00  0.00    +0.000 H 
ATOM    143  H44 UNL A   1      56.827  15.511   4.702  1.00  0.00    +0.000 H 
ATOM    144  H45 UNL A   1      60.742  15.001   7.805  1.00  0.00    +0.000 H 
ATOM    145  H46 UNL A   1      62.237  15.153   5.733  1.00  0.00    +0.000 H 
ATOM    146  H47 UNL A   1      54.142  15.659  -0.190  1.00  0.00    +0.000 H 
ATOM    147  H48 UNL A   1      52.667  16.038   1.868  1.00  0.00    +0.000 H 
ATOM     41  C29 UNL A   1      54.071  15.809   4.340  1.00  0.00    +0.000 C 
ATOM     42  C30 UNL A   1      54.643  15.773   2.951  1.00  0.00    +0.000 C 
ATOM     43  N7  UNL A   1      55.888  15.636   2.572  1.00  0.00    +0.000 N 
ATOM     44  C31 UNL A   1      55.862  15.624   1.184  1.00  0.00    +0.000 C 
ATOM     45  C32 UNL A   1      56.904  15.567   0.320  1.00  0.00    +0.000 C 
ATOM     57  C39 UNL A   1      58.284  15.512   0.721  1.00  0.00    +0.000 C 
ATOM     58  C40 UNL A   1      59.415  15.529  -0.075  1.00  0.00    +0.000 C 
ATOM     59  C41 UNL A   1      60.536  15.414   0.756  1.00  0.00    +0.000 C 
ATOM     60  C42 UNL A   1      60.104  15.372   2.072  1.00  0.00    +0.000 C 
ATOM     61  N8  UNL A   1      58.720  15.430   2.036  1.00  0.00    +0.000 N 
ATOM     62  C43 UNL A   1      60.893  15.284   3.273  1.00  0.00    +0.000 C 
ATOM     74  C50 UNL A   1      60.394  15.261   4.533  1.00  0.00    +0.000 C 
ATOM     75  N9  UNL A   1      59.072  15.313   4.951  1.00  0.00    +0.000 N 
ATOM     76  C51 UNL A   1      59.103  15.240   6.258  1.00  0.00    +0.000 C 
ATOM     77  C52 UNL A   1      57.962  15.278   7.239  1.00  0.00    +0.000 C 
ATOM     89  C59 UNL A   1      56.706  15.425   6.778  1.00  0.00    +0.000 C 
ATOM     90  C60 UNL A   1      55.503  15.505   7.603  1.00  0.00    +0.000 C 
ATOM     91  C61 UNL A   1      54.433  15.633   6.803  1.00  0.00    +0.000 C 
ATOM     92  C62 UNL A   1      54.878  15.671   5.410  1.00  0.00    +0.000 C 
ATOM     93  N10 UNL A   1      56.240  15.532   5.491  1.00  0.00    +0.000 N 
ATOM     94  C63 UNL A   1      60.454  15.110   6.820  1.00  0.00    +0.000 C 
ATOM     95  C64 UNL A   1      61.205  15.170   5.730  1.00  0.00    +0.000 C 
ATOM     96  C65 UNL A   1      54.475  15.714   0.786  1.00  0.00    +0.000 C 
ATOM     97  C66 UNL A   1      53.686  15.878   1.838  1.00  0.00    +0.000 C 
ENDROOT
BRANCH   41   40
ATOM     98  C67 UNL A   1      52.044  17.219   4.725  1.00  0.00    +0.000 C 
ATOM     99  C68 UNL A   1      50.679  17.353   4.962  1.00  0.00    +0.000 C 
ATOM     37  C25 UNL A   1      49.849  16.229   4.915  1.00  0.00    +0.000 C 
ATOM     38  C26 UNL A   1      50.399  14.957   4.737  1.00  0.00    +0.000 C 
ATOM     39  C27 UNL A   1      51.777  14.816   4.570  1.00  0.00    +0.000 C 
ATOM    136  H37 UNL A   1      49.788  14.125   4.732  1.00  0.00    +0.000 H 
ATOM     40  C28 UNL A   1      52.608  15.947   4.540  1.00  0.00    +0.000 C 
ATOM    137  H38 UNL A   1      52.188  13.875   4.467  1.00  0.00    +0.000 H 
ATOM    148  H49 UNL A   1      52.644  18.058   4.684  1.00  0.00    +0.000 H 
ATOM    149  H50 UNL A   1      50.280  18.281   5.174  1.00  0.00    +0.000 H 
BRANCH   37   35
ATOM     35  C24 UNL A   1      48.383  16.349   5.075  1.00  0.00    +0.000 C 
ATOM     36  O5  UNL A   1      47.758  15.468   5.645  1.00  0.00    +0.000 O 
BRANCH   35   34
ATOM     34  N6  UNL A   1      47.730  17.444   4.569  1.00  0.00    +0.000 N 
ATOM    135  H36 UNL A   1      47.740  17.525   3.588  1.00  0.00    +0.000 H 
BRANCH   34   33
ATOM     33  C23 UNL A   1      47.025  18.498   5.274  1.00  0.00    +0.000 C 
ATOM    133  H34 UNL A   1      45.986  18.445   5.024  1.00  0.00    +0.000 H 
ATOM    134  H35 UNL A   1      47.182  18.354   6.323  1.00  0.00    +0.000 H 
BRANCH   33   32
ATOM    131  H32 UNL A   1      48.383  19.761   4.256  1.00  0.00    +0.000 H 
ATOM    132  H33 UNL A   1      46.726  20.402   4.460  1.00  0.00    +0.000 H 
ATOM     32  C22 UNL A   1      47.546  19.883   4.911  1.00  0.00    +0.000 C 
BRANCH   32   31
ATOM    129  H30 UNL A   1      48.946  21.162   5.860  1.00  0.00    +0.000 H 
ATOM    130  H31 UNL A   1      47.221  21.469   6.239  1.00  0.00    +0.000 H 
ATOM     31  C21 UNL A   1      47.991  20.739   6.098  1.00  0.00    +0.000 C 
BRANCH   31   30
ATOM     30  C20 UNL A   1      48.121  20.000   7.432  1.00  0.00    +0.000 C 
ATOM    127  H28 UNL A   1      47.980  20.711   8.219  1.00  0.00    +0.000 H 
ATOM    128  H29 UNL A   1      47.383  19.227   7.414  1.00  0.00    +0.000 H 
BRANCH   30   29
ATOM    125  H26 UNL A   1      49.503  18.989   8.688  1.00  0.00    +0.000 H 
ATOM     29  C19 UNL A   1      49.462  19.300   7.664  1.00  0.00    +0.000 C 
ATOM    126  H27 UNL A   1      49.499  18.484   6.974  1.00  0.00    +0.000 H 
BRANCH   29   28
ATOM    124  H25 UNL A   1      50.475  21.157   7.695  1.00  0.00    +0.000 H 
ATOM    123  H24 UNL A   1      50.903  20.120   6.332  1.00  0.00    +0.000 H 
ATOM     28  C18 UNL A   1      50.689  20.158   7.380  1.00  0.00    +0.000 C 
BRANCH   28   27
ATOM    122  H23 UNL A   1      52.647  20.273   8.044  1.00  0.00    +0.000 H 
ATOM     27  N5  UNL A   1      51.851  19.697   8.111  1.00  0.00    +0.000 N 
BRANCH   27   25
ATOM     25  C17 UNL A   1      52.003  18.582   8.877  1.00  0.00    +0.000 C 
ATOM     26  O4  UNL A   1      52.027  17.494   8.292  1.00  0.00    +0.000 O 
BRANCH   25   22
ATOM    118  H19 UNL A   1      52.044  17.609  10.734  1.00  0.00    +0.000 H 
ATOM     22  C15 UNL A   1      52.078  18.627  10.409  1.00  0.00    +0.000 C 
BRANCH   22   21
ATOM    117  H18 UNL A   1      53.456  20.122  11.043  1.00  0.00    +0.000 H 
ATOM     21  N4  UNL A   1      53.351  19.152  10.912  1.00  0.00    +0.000 N 
BRANCH   21   19
ATOM     19  C14 UNL A   1      54.387  18.322  11.199  1.00  0.00    +0.000 C 
ATOM     20  O2  UNL A   1      54.231  17.131  10.922  1.00  0.00    +0.000 O 
BRANCH   19   16
ATOM    113  H14 UNL A   1      56.457  18.159  11.556  1.00  0.00    +0.000 H 
ATOM     16  C12 UNL A   1      55.691  18.854  11.830  1.00  0.00    +0.000 C 
BRANCH   16   15
ATOM     15  N3  UNL A   1      56.004  20.148  11.243  1.00  0.00    +0.000 N 
ATOM    112  H13 UNL A   1      55.666  20.955  11.693  1.00  0.00    +0.000 H 
BRANCH   15   13
ATOM     13  C11 UNL A   1      56.744  20.306  10.096  1.00  0.00    +0.000 C 
ATOM     14  O1  UNL A   1      57.970  20.227  10.214  1.00  0.00    +0.000 O 
BRANCH   13    2
ATOM      2  C1  UNL A   1      56.076  20.489   8.703  1.00  0.00    +0.000 C 
ATOM    103  H4  UNL A   1      55.059  20.761   8.892  1.00  0.00    +0.000 H 
BRANCH    2    1
ATOM      1  N1  UNL A   1      56.668  21.637   7.982  1.00  0.00    +0.000 N 
ATOM    100  H1  UNL A   1      57.164  22.233   8.645  1.00  0.00    +0.000 H 
ATOM    101  H2  UNL A   1      55.926  22.173   7.531  1.00  0.00    +0.000 H 
ATOM    102  H3  UNL A   1      57.320  21.295   7.277  1.00  0.00    +0.000 H 
ENDBRANCH    2    1
BRANCH    2    3
ATOM    105  H6  UNL A   1      56.481  18.509   8.296  1.00  0.00    +0.000 H 
ATOM      3  C2  UNL A   1      55.781  19.207   7.887  1.00  0.00    +0.000 C 
ATOM    104  H5  UNL A   1      54.737  19.011   8.000  1.00  0.00    +0.000 H 
BRANCH    3    4
ATOM      4  C3  UNL A   1      56.074  19.130   6.403  1.00  0.00    +0.000 C 
ATOM      5  C4  UNL A   1      55.205  19.092   5.325  1.00  0.00    +0.000 C 
ATOM      6  N2  UNL A   1      55.937  19.168   4.168  1.00  0.00    +0.000 N 
ATOM      7  C5  UNL A   1      57.277  19.096   4.451  1.00  0.00    +0.000 C 
ATOM      8  C6  UNL A   1      58.382  19.087   3.588  1.00  0.00    +0.000 C 
ATOM      9  C7  UNL A   1      59.645  18.912   4.158  1.00  0.00    +0.000 C 
ATOM    106  H7  UNL A   1      54.177  19.020   5.384  1.00  0.00    +0.000 H 
ATOM     11  C9  UNL A   1      58.684  18.837   6.384  1.00  0.00    +0.000 C 
ATOM     12  C10 UNL A   1      57.395  19.007   5.838  1.00  0.00    +0.000 C 
ATOM     10  C8  UNL A   1      59.796  18.770   5.535  1.00  0.00    +0.000 C 
ATOM    107  H8  UNL A   1      55.555  19.260   3.265  1.00  0.00    +0.000 H 
ATOM    111  H12 UNL A   1      58.809  18.762   7.405  1.00  0.00    +0.000 H 
ATOM    108  H9  UNL A   1      58.265  19.204   2.569  1.00  0.00    +0.000 H 
ATOM    110  H11 UNL A   1      60.735  18.615   5.932  1.00  0.00    +0.000 H 
ATOM    109  H10 UNL A   1      60.478  18.887   3.549  1.00  0.00    +0.000 H 
ENDBRANCH    3    4
ENDBRANCH    2    3
ENDBRANCH   13    2
ENDBRANCH   15   13
ENDBRANCH   16   15
BRANCH   16   17
ATOM     17  C13 UNL A   1      55.919  18.690  13.340  1.00  0.00    +0.000 C 
ATOM    114  H15 UNL A   1      55.004  18.948  13.830  1.00  0.00    +0.000 H 
ATOM    115  H16 UNL A   1      56.752  19.324  13.558  1.00  0.00    +0.000 H 
BRANCH   17   18
ATOM     18  S1  UNL A   1      56.419  17.046  13.949  1.00  0.00    +0.000 S 
ATOM    116  H17 UNL A   1      57.604  17.148  14.608  1.00  0.00    +0.000 H 
ENDBRANCH   17   18
ENDBRANCH   16   17
ENDBRANCH   19   16
ENDBRANCH   21   19
ENDBRANCH   22   21
BRANCH   22   23
ATOM    119  H20 UNL A   1      50.231  18.587  11.483  1.00  0.00    +0.000 H 
ATOM     23  C16 UNL A   1      50.858  19.327  11.031  1.00  0.00    +0.000 C 
ATOM    120  H21 UNL A   1      50.347  19.850  10.250  1.00  0.00    +0.000 H 
BRANCH   23   24
ATOM    121  H22 UNL A   1      50.453  20.511  12.559  1.00  0.00    +0.000 H 
ATOM     24  O3  UNL A   1      51.229  20.282  12.025  1.00  0.00    +0.000 O 
ENDBRANCH   23   24
ENDBRANCH   22   23
ENDBRANCH   25   22
ENDBRANCH   27   25
ENDBRANCH   28   27
ENDBRANCH   29   28
ENDBRANCH   30   29
ENDBRANCH   31   30
ENDBRANCH   32   31
ENDBRANCH   33   32
ENDBRANCH   34   33
ENDBRANCH   35   34
ENDBRANCH   37   35
ENDBRANCH   41   40
BRANCH   45   46
ATOM     46  C33 UNL A   1      56.590  15.570  -1.148  1.00  0.00    +0.000 C 
ATOM     47  C34 UNL A   1      56.169  14.406  -1.811  1.00  0.00    +0.000 C 
ATOM     48  F1  UNL A   1      56.083  13.244  -1.148  1.00  0.00    +0.000 F 
ATOM     49  C35 UNL A   1      55.871  14.426  -3.172  1.00  0.00    +0.000 C 
ATOM     50  F2  UNL A   1      55.517  13.293  -3.794  1.00  0.00    +0.000 F 
ATOM     51  C36 UNL A   1      55.952  15.611  -3.886  1.00  0.00    +0.000 C 
ATOM     52  F3  UNL A   1      55.660  15.630  -5.193  1.00  0.00    +0.000 F 
ATOM     53  C37 UNL A   1      56.347  16.776  -3.246  1.00  0.00    +0.000 C 
ATOM     54  F4  UNL A   1      56.416  17.926  -3.932  1.00  0.00    +0.000 F 
ATOM     55  C38 UNL A   1      56.673  16.755  -1.892  1.00  0.00    +0.000 C 
ATOM     56  F5  UNL A   1      57.067  17.896  -1.305  1.00  0.00    +0.000 F 
ENDBRANCH   45   46
BRANCH   62   63
ATOM     65  F6  UNL A   1      62.571  17.604   3.172  1.00  0.00    +0.000 F 
ATOM     66  C46 UNL A   1      64.546  16.337   2.983  1.00  0.00    +0.000 C 
ATOM     67  F7  UNL A   1      65.264  17.467   2.921  1.00  0.00    +0.000 F 
ATOM     68  C47 UNL A   1      65.182  15.107   2.908  1.00  0.00    +0.000 C 
ATOM     69  F8  UNL A   1      66.516  15.048   2.795  1.00  0.00    +0.000 F 
ATOM     70  C48 UNL A   1      64.436  13.939   2.944  1.00  0.00    +0.000 C 
ATOM     71  F9  UNL A   1      65.051  12.750   2.884  1.00  0.00    +0.000 F 
ATOM     72  C49 UNL A   1      63.049  14.000   3.039  1.00  0.00    +0.000 C 
ATOM     73  F10 UNL A   1      62.352  12.854   3.059  1.00  0.00    +0.000 F 
ATOM     63  C44 UNL A   1      62.385  15.233   3.126  1.00  0.00    +0.000 C 
ATOM     64  C45 UNL A   1      63.161  16.401   3.108  1.00  0.00    +0.000 C 
ENDBRANCH   62   63
BRANCH   77   78
ATOM     78  C53 UNL A   1      58.210  15.188   8.701  1.00  0.00    +0.000 C 
ATOM     79  C54 UNL A   1      58.331  16.346   9.483  1.00  0.00    +0.000 C 
ATOM     80  F11 UNL A   1      58.244  17.554   8.906  1.00  0.00    +0.000 F 
ATOM     81  C55 UNL A   1      58.584  16.268  10.850  1.00  0.00    +0.000 C 
ATOM     82  F12 UNL A   1      58.740  17.390  11.566  1.00  0.00    +0.000 F 
ATOM     83  C56 UNL A   1      58.691  15.030  11.468  1.00  0.00    +0.000 C 
ATOM     84  F13 UNL A   1      58.931  14.956  12.784  1.00  0.00    +0.000 F 
ATOM     85  C57 UNL A   1      58.556  13.872  10.718  1.00  0.00    +0.000 C 
ATOM     86  F14 UNL A   1      58.644  12.674  11.314  1.00  0.00    +0.000 F 
ATOM     87  C58 UNL A   1      58.329  13.949   9.345  1.00  0.00    +0.000 C 
ATOM     88  F15 UNL A   1      58.213  12.812   8.644  1.00  0.00    +0.000 F 
ENDBRANCH   77   78
TORSDOF 28
ENDMDL
MODEL 3
REMARK VINA RESULT:      -6.4     43.397     48.891
ROOT
ATOM    138  H39 UNL A   1      33.690  29.230  50.522  1.00  0.00    +0.000 H 
ATOM    139  H40 UNL A   1      35.592  30.377  49.156  1.00  0.00    +0.000 H 
ATOM    140  H41 UNL A   1      31.954  31.637  47.631  1.00  0.00    +0.000 H 
ATOM    141  H42 UNL A   1      28.645  34.894  43.248  1.00  0.00    +0.000 H 
ATOM    142  H43 UNL A   1      26.797  33.780  44.591  1.00  0.00    +0.000 H 
ATOM    143  H44 UNL A   1      30.436  32.613  46.226  1.00  0.00    +0.000 H 
ATOM    144  H45 UNL A   1      33.983  34.927  43.528  1.00  0.00    +0.000 H 
ATOM    145  H46 UNL A   1      35.700  33.640  44.924  1.00  0.00    +0.000 H 
ATOM    146  H47 UNL A   1      28.336  29.587  50.420  1.00  0.00    +0.000 H 
ATOM    147  H48 UNL A   1      26.613  30.435  48.726  1.00  0.00    +0.000 H 
ATOM     41  C29 UNL A   1      27.729  32.091  46.690  1.00  0.00    +0.000 C 
ATOM     42  C30 UNL A   1      28.460  31.329  47.760  1.00  0.00    +0.000 C 
ATOM     43  N7  UNL A   1      29.746  31.253  47.988  1.00  0.00    +0.000 N 
ATOM     44  C31 UNL A   1      29.883  30.456  49.118  1.00  0.00    +0.000 C 
ATOM     45  C32 UNL A   1      31.020  30.028  49.716  1.00  0.00    +0.000 C 
ATOM     57  C39 UNL A   1      32.345  30.341  49.252  1.00  0.00    +0.000 C 
ATOM     58  C40 UNL A   1      33.559  29.893  49.743  1.00  0.00    +0.000 C 
ATOM     59  C41 UNL A   1      34.580  30.498  48.999  1.00  0.00    +0.000 C 
ATOM     60  C42 UNL A   1      33.999  31.285  48.016  1.00  0.00    +0.000 C 
ATOM     61  N8  UNL A   1      32.629  31.181  48.185  1.00  0.00    +0.000 N 
ATOM     62  C43 UNL A   1      34.647  32.072  47.000  1.00  0.00    +0.000 C 
ATOM     74  C50 UNL A   1      34.006  32.809  46.060  1.00  0.00    +0.000 C 
ATOM     75  N9  UNL A   1      32.643  32.976  45.859  1.00  0.00    +0.000 N 
ATOM     76  C51 UNL A   1      32.525  33.794  44.842  1.00  0.00    +0.000 C 
ATOM     77  C52 UNL A   1      31.278  34.303  44.173  1.00  0.00    +0.000 C 
ATOM     89  C59 UNL A   1      30.078  33.885  44.617  1.00  0.00    +0.000 C 
ATOM     90  C60 UNL A   1      28.785  34.267  44.056  1.00  0.00    +0.000 C 
ATOM     91  C61 UNL A   1      27.810  33.672  44.760  1.00  0.00    +0.000 C 
ATOM     92  C62 UNL A   1      28.411  32.844  45.806  1.00  0.00    +0.000 C 
ATOM     93  N10 UNL A   1      29.760  33.038  45.651  1.00  0.00    +0.000 N 
ATOM     94  C63 UNL A   1      33.807  34.260  44.295  1.00  0.00    +0.000 C 
ATOM     95  C64 UNL A   1      34.676  33.598  45.046  1.00  0.00    +0.000 C 
ATOM     96  C65 UNL A   1      28.549  30.117  49.560  1.00  0.00    +0.000 C 
ATOM     97  C66 UNL A   1      27.635  30.573  48.716  1.00  0.00    +0.000 C 
ENDROOT
BRANCH   41   40
ATOM     98  C67 UNL A   1      25.499  33.039  47.299  1.00  0.00    +0.000 C 
ATOM     99  C68 UNL A   1      24.108  32.986  47.290  1.00  0.00    +0.000 C 
ATOM     37  C25 UNL A   1      23.451  32.013  46.530  1.00  0.00    +0.000 C 
ATOM     38  C26 UNL A   1      24.185  31.027  45.866  1.00  0.00    +0.000 C 
ATOM     39  C27 UNL A   1      25.579  31.039  45.933  1.00  0.00    +0.000 C 
ATOM    136  H37 UNL A   1      23.698  30.293  45.329  1.00  0.00    +0.000 H 
ATOM     40  C28 UNL A   1      26.247  32.057  46.632  1.00  0.00    +0.000 C 
ATOM    137  H38 UNL A   1      26.121  30.296  45.466  1.00  0.00    +0.000 H 
ATOM    148  H49 UNL A   1      25.981  33.803  47.798  1.00  0.00    +0.000 H 
ATOM    149  H50 UNL A   1      23.561  33.663  47.846  1.00  0.00    +0.000 H 
BRANCH   37   35
ATOM     35  C24 UNL A   1      21.975  31.983  46.429  1.00  0.00    +0.000 C 
ATOM     36  O5  UNL A   1      21.295  32.567  47.259  1.00  0.00    +0.000 O 
BRANCH   35   34
ATOM     34  N6  UNL A   1      21.376  31.287  45.410  1.00  0.00    +0.000 N 
ATOM    135  H36 UNL A   1      21.403  30.306  45.497  1.00  0.00    +0.000 H 
BRANCH   34   33
ATOM     33  C23 UNL A   1      20.707  31.789  44.225  1.00  0.00    +0.000 C 
ATOM    133  H34 UNL A   1      21.220  32.664  43.884  1.00  0.00    +0.000 H 
ATOM    134  H35 UNL A   1      20.724  31.014  43.486  1.00  0.00    +0.000 H 
BRANCH   33   32
ATOM    131  H32 UNL A   1      18.643  31.331  44.160  1.00  0.00    +0.000 H 
ATOM    132  H33 UNL A   1      19.177  32.333  45.542  1.00  0.00    +0.000 H 
ATOM     32  C22 UNL A   1      19.251  32.147  44.491  1.00  0.00    +0.000 C 
BRANCH   32   31
ATOM    129  H30 UNL A   1      19.519  34.164  43.896  1.00  0.00    +0.000 H 
ATOM    130  H31 UNL A   1      18.558  33.140  42.783  1.00  0.00    +0.000 H 
ATOM     31  C21 UNL A   1      18.758  33.418  43.797  1.00  0.00    +0.000 C 
BRANCH   31   30
ATOM     30  C20 UNL A   1      17.451  34.001  44.340  1.00  0.00    +0.000 C 
ATOM    127  H28 UNL A   1      16.819  34.228  43.506  1.00  0.00    +0.000 H 
ATOM    128  H29 UNL A   1      17.047  33.259  44.995  1.00  0.00    +0.000 H 
BRANCH   30   29
ATOM    125  H26 UNL A   1      18.298  35.072  45.966  1.00  0.00    +0.000 H 
ATOM     29  C19 UNL A   1      17.600  35.271  45.180  1.00  0.00    +0.000 C 
ATOM    126  H27 UNL A   1      17.927  36.039  44.510  1.00  0.00    +0.000 H 
BRANCH   29   28
ATOM    124  H25 UNL A   1      15.748  34.927  46.143  1.00  0.00    +0.000 H 
ATOM    123  H24 UNL A   1      15.761  36.337  45.081  1.00  0.00    +0.000 H 
ATOM     28  C18 UNL A   1      16.307  35.775  45.811  1.00  0.00    +0.000 C 
BRANCH   28   27
ATOM    122  H23 UNL A   1      16.720  37.572  46.753  1.00  0.00    +0.000 H 
ATOM     27  N5  UNL A   1      16.561  36.622  46.958  1.00  0.00    +0.000 N 
BRANCH   27   25
ATOM     25  C17 UNL A   1      16.612  36.295  48.278  1.00  0.00    +0.000 C 
ATOM     26  O4  UNL A   1      17.560  35.595  48.650  1.00  0.00    +0.000 O 
BRANCH   25   22
ATOM    118  H19 UNL A   1      15.616  36.025  50.103  1.00  0.00    +0.000 H 
ATOM     22  C15 UNL A   1      15.524  36.701  49.280  1.00  0.00    +0.000 C 
BRANCH   22   21
ATOM    117  H18 UNL A   1      15.262  38.808  49.457  1.00  0.00    +0.000 H 
ATOM     21  N4  UNL A   1      15.730  38.036  49.850  1.00  0.00    +0.000 N 
BRANCH   21   19
ATOM     19  C14 UNL A   1      16.557  38.226  50.911  1.00  0.00    +0.000 C 
ATOM     20  O2  UNL A   1      16.243  37.663  51.962  1.00  0.00    +0.000 O 
BRANCH   19   16
ATOM    113  H14 UNL A   1      18.472  38.783  51.588  1.00  0.00    +0.000 H 
ATOM     16  C12 UNL A   1      17.828  39.093  50.793  1.00  0.00    +0.000 C 
BRANCH   16   15
ATOM     15  N3  UNL A   1      18.479  38.804  49.525  1.00  0.00    +0.000 N 
ATOM    112  H13 UNL A   1      17.928  38.449  48.791  1.00  0.00    +0.000 H 
BRANCH   15   13
ATOM     13  C11 UNL A   1      19.820  39.000  49.295  1.00  0.00    +0.000 C 
ATOM     14  O1  UNL A   1      20.166  40.144  48.984  1.00  0.00    +0.000 O 
BRANCH   13    2
ATOM      2  C1  UNL A   1      20.865  37.865  49.495  1.00  0.00    +0.000 C 
ATOM    103  H4  UNL A   1      21.824  38.340  49.508  1.00  0.00    +0.000 H 
BRANCH    2    1
ATOM      1  N1  UNL A   1      20.712  37.239  50.826  1.00  0.00    +0.000 N 
ATOM    100  H1  UNL A   1      19.958  37.701  51.334  1.00  0.00    +0.000 H 
ATOM    101  H2  UNL A   1      21.583  37.335  51.348  1.00  0.00    +0.000 H 
ATOM    102  H3  UNL A   1      20.490  36.250  50.712  1.00  0.00    +0.000 H 
ENDBRANCH    2    1
BRANCH    2    3
ATOM    105  H6  UNL A   1      21.147  35.964  48.749  1.00  0.00    +0.000 H 
ATOM      3  C2  UNL A   1      21.132  36.931  48.291  1.00  0.00    +0.000 C 
ATOM    104  H5  UNL A   1      20.372  37.143  47.569  1.00  0.00    +0.000 H 
BRANCH    3    4
ATOM      4  C3  UNL A   1      22.450  36.958  47.546  1.00  0.00    +0.000 C 
ATOM      5  C4  UNL A   1      23.613  37.658  47.821  1.00  0.00    +0.000 C 
ATOM      6  N2  UNL A   1      24.588  37.252  46.945  1.00  0.00    +0.000 N 
ATOM      7  C5  UNL A   1      24.054  36.416  45.999  1.00  0.00    +0.000 C 
ATOM      8  C6  UNL A   1      24.658  35.804  44.892  1.00  0.00    +0.000 C 
ATOM      9  C7  UNL A   1      23.838  35.065  44.035  1.00  0.00    +0.000 C 
ATOM    106  H7  UNL A   1      23.728  38.367  48.562  1.00  0.00    +0.000 H 
ATOM     11  C9  UNL A   1      21.902  35.505  45.428  1.00  0.00    +0.000 C 
ATOM     12  C10 UNL A   1      22.703  36.262  46.309  1.00  0.00    +0.000 C 
ATOM     10  C8  UNL A   1      22.476  34.931  44.287  1.00  0.00    +0.000 C 
ATOM    107  H8  UNL A   1      25.534  37.522  46.990  1.00  0.00    +0.000 H 
ATOM    111  H12 UNL A   1      20.897  35.374  45.623  1.00  0.00    +0.000 H 
ATOM    108  H9  UNL A   1      25.671  35.897  44.717  1.00  0.00    +0.000 H 
ATOM    110  H11 UNL A   1      21.884  34.403  43.627  1.00  0.00    +0.000 H 
ATOM    109  H10 UNL A   1      24.250  34.612  43.203  1.00  0.00    +0.000 H 
ENDBRANCH    3    4
ENDBRANCH    2    3
ENDBRANCH   13    2
ENDBRANCH   15   13
ENDBRANCH   16   15
BRANCH   16   17
ATOM     17  C13 UNL A   1      17.782  40.560  51.245  1.00  0.00    +0.000 C 
ATOM    114  H15 UNL A   1      16.803  40.744  51.633  1.00  0.00    +0.000 H 
ATOM    115  H16 UNL A   1      18.044  41.120  50.372  1.00  0.00    +0.000 H 
BRANCH   17   18
ATOM     18  S1  UNL A   1      18.979  41.097  52.511  1.00  0.00    +0.000 S 
ATOM    116  H17 UNL A   1      19.574  40.006  53.064  1.00  0.00    +0.000 H 
ENDBRANCH   17   18
ENDBRANCH   16   17
ENDBRANCH   19   16
ENDBRANCH   21   19
ENDBRANCH   22   21
BRANCH   22   23
ATOM    119  H20 UNL A   1      13.737  35.556  49.027  1.00  0.00    +0.000 H 
ATOM     23  C16 UNL A   1      14.108  36.509  48.712  1.00  0.00    +0.000 C 
ATOM    120  H21 UNL A   1      14.172  36.572  47.646  1.00  0.00    +0.000 H 
BRANCH   23   24
ATOM    121  H22 UNL A   1      13.112  38.197  48.466  1.00  0.00    +0.000 H 
ATOM     24  O3  UNL A   1      13.204  37.522  49.155  1.00  0.00    +0.000 O 
ENDBRANCH   23   24
ENDBRANCH   22   23
ENDBRANCH   25   22
ENDBRANCH   27   25
ENDBRANCH   28   27
ENDBRANCH   29   28
ENDBRANCH   30   29
ENDBRANCH   31   30
ENDBRANCH   32   31
ENDBRANCH   33   32
ENDBRANCH   34   33
ENDBRANCH   35   34
ENDBRANCH   37   35
ENDBRANCH   41   40
BRANCH   45   46
ATOM     46  C33 UNL A   1      30.879  29.167  50.937  1.00  0.00    +0.000 C 
ATOM     47  C34 UNL A   1      30.858  29.719  52.228  1.00  0.00    +0.000 C 
ATOM     48  F1  UNL A   1      31.013  31.040  52.400  1.00  0.00    +0.000 F 
ATOM     49  C35 UNL A   1      30.717  28.908  53.352  1.00  0.00    +0.000 C 
ATOM     50  F2  UNL A   1      30.747  29.454  54.576  1.00  0.00    +0.000 F 
ATOM     51  C36 UNL A   1      30.558  27.539  53.207  1.00  0.00    +0.000 C 
ATOM     52  F3  UNL A   1      30.417  26.761  54.289  1.00  0.00    +0.000 F 
ATOM     53  C37 UNL A   1      30.556  26.974  51.941  1.00  0.00    +0.000 C 
ATOM     54  F4  UNL A   1      30.393  25.651  51.798  1.00  0.00    +0.000 F 
ATOM     55  C38 UNL A   1      30.726  27.778  50.816  1.00  0.00    +0.000 C 
ATOM     56  F5  UNL A   1      30.735  27.200  49.605  1.00  0.00    +0.000 F 
ENDBRANCH   45   46
BRANCH   62   63
ATOM     65  F6  UNL A   1      36.200  30.233  45.446  1.00  0.00    +0.000 F 
ATOM     66  C46 UNL A   1      38.247  31.174  46.127  1.00  0.00    +0.000 C 
ATOM     67  F7  UNL A   1      38.907  30.267  45.393  1.00  0.00    +0.000 F 
ATOM     68  C47 UNL A   1      38.952  32.115  46.862  1.00  0.00    +0.000 C 
ATOM     69  F8  UNL A   1      40.292  32.132  46.822  1.00  0.00    +0.000 F 
ATOM     70  C48 UNL A   1      38.271  33.035  47.643  1.00  0.00    +0.000 C 
ATOM     71  F9  UNL A   1      38.950  33.953  48.343  1.00  0.00    +0.000 F 
ATOM     72  C49 UNL A   1      36.881  33.005  47.703  1.00  0.00    +0.000 C 
ATOM     73  F10 UNL A   1      36.247  33.898  48.478  1.00  0.00    +0.000 F 
ATOM     63  C44 UNL A   1      36.146  32.067  46.961  1.00  0.00    +0.000 C 
ATOM     64  C45 UNL A   1      36.856  31.159  46.162  1.00  0.00    +0.000 C 
ENDBRANCH   62   63
BRANCH   77   78
ATOM     78  C53 UNL A   1      31.357  35.230  43.015  1.00  0.00    +0.000 C 
ATOM     79  C54 UNL A   1      31.186  36.611  43.186  1.00  0.00    +0.000 C 
ATOM     80  F11 UNL A   1      30.928  37.107  44.405  1.00  0.00    +0.000 F 
ATOM     81  C55 UNL A   1      31.238  37.483  42.101  1.00  0.00    +0.000 C 
ATOM     82  F12 UNL A   1      31.027  38.793  42.286  1.00  0.00    +0.000 F 
ATOM     83  C56 UNL A   1      31.492  36.994  40.828  1.00  0.00    +0.000 C 
ATOM     84  F13 UNL A   1      31.546  37.833  39.785  1.00  0.00    +0.000 F 
ATOM     85  C57 UNL A   1      31.683  35.635  40.638  1.00  0.00    +0.000 C 
ATOM     86  F14 UNL A   1      31.943  35.159  39.411  1.00  0.00    +0.000 F 
ATOM     87  C58 UNL A   1      31.605  34.758  41.719  1.00  0.00    +0.000 C 
ATOM     88  F15 UNL A   1      31.783  33.447  41.503  1.00  0.00    +0.000 F 
ENDBRANCH   77   78
TORSDOF 28
ENDMDL
MODEL 4
REMARK VINA RESULT:      -6.3      1.980      3.759
ROOT
ATOM    138  H39 UNL A   1      13.749  46.742   2.186  1.00  0.00    +0.000 H 
ATOM    139  H40 UNL A   1      15.364  47.058   0.163  1.00  0.00    +0.000 H 
ATOM    140  H41 UNL A   1      15.151  50.641   2.228  1.00  0.00    +0.000 H 
ATOM    141  H42 UNL A   1      16.672  56.823   2.715  1.00  0.00    +0.000 H 
ATOM    142  H43 UNL A   1      15.106  56.503   4.690  1.00  0.00    +0.000 H 
ATOM    143  H44 UNL A   1      15.416  52.860   2.713  1.00  0.00    +0.000 H 
ATOM    144  H45 UNL A   1      18.578  53.616  -1.115  1.00  0.00    +0.000 H 
ATOM    145  H46 UNL A   1      18.090  51.205  -1.823  1.00  0.00    +0.000 H 
ATOM    146  H47 UNL A   1      12.218  49.928   6.225  1.00  0.00    +0.000 H 
ATOM    147  H48 UNL A   1      12.269  52.451   6.655  1.00  0.00    +0.000 H 
ATOM     41  C29 UNL A   1      14.030  53.873   4.919  1.00  0.00    +0.000 C 
ATOM     42  C30 UNL A   1      13.662  52.417   4.865  1.00  0.00    +0.000 C 
ATOM     43  N7  UNL A   1      14.056  51.495   4.024  1.00  0.00    +0.000 N 
ATOM     44  C31 UNL A   1      13.456  50.317   4.447  1.00  0.00    +0.000 C 
ATOM     45  C32 UNL A   1      13.500  49.092   3.869  1.00  0.00    +0.000 C 
ATOM     57  C39 UNL A   1      14.213  48.797   2.654  1.00  0.00    +0.000 C 
ATOM     58  C40 UNL A   1      14.257  47.608   1.948  1.00  0.00    +0.000 C 
ATOM     59  C41 UNL A   1      15.112  47.783   0.853  1.00  0.00    +0.000 C 
ATOM     60  C42 UNL A   1      15.563  49.094   0.853  1.00  0.00    +0.000 C 
ATOM     61  N8  UNL A   1      15.005  49.703   1.965  1.00  0.00    +0.000 N 
ATOM     62  C43 UNL A   1      16.436  49.742  -0.090  1.00  0.00    +0.000 C 
ATOM     74  C50 UNL A   1      16.823  51.039  -0.029  1.00  0.00    +0.000 C 
ATOM     75  N9  UNL A   1      16.489  52.008   0.907  1.00  0.00    +0.000 N 
ATOM     76  C51 UNL A   1      17.126  53.095   0.546  1.00  0.00    +0.000 C 
ATOM     77  C52 UNL A   1      17.112  54.458   1.180  1.00  0.00    +0.000 C 
ATOM     89  C59 UNL A   1      16.343  54.670   2.265  1.00  0.00    +0.000 C 
ATOM     90  C60 UNL A   1      16.204  55.940   2.972  1.00  0.00    +0.000 C 
ATOM     91  C61 UNL A   1      15.370  55.772   4.011  1.00  0.00    +0.000 C 
ATOM     92  C62 UNL A   1      14.894  54.388   4.025  1.00  0.00    +0.000 C 
ATOM     93  N10 UNL A   1      15.530  53.806   2.958  1.00  0.00    +0.000 N 
ATOM     94  C63 UNL A   1      17.959  52.931  -0.653  1.00  0.00    +0.000 C 
ATOM     95  C64 UNL A   1      17.706  51.674  -0.987  1.00  0.00    +0.000 C 
ATOM     96  C65 UNL A   1      12.714  50.626   5.648  1.00  0.00    +0.000 C 
ATOM     97  C66 UNL A   1      12.752  51.924   5.911  1.00  0.00    +0.000 C 
ENDROOT
BRANCH   41   40
ATOM     98  C67 UNL A   1      12.261  55.409   5.791  1.00  0.00    +0.000 C 
ATOM     99  C68 UNL A   1      11.763  56.263   6.770  1.00  0.00    +0.000 C 
ATOM     37  C25 UNL A   1      12.424  56.379   7.997  1.00  0.00    +0.000 C 
ATOM     38  C26 UNL A   1      13.640  55.724   8.204  1.00  0.00    +0.000 C 
ATOM     39  C27 UNL A   1      14.175  54.923   7.195  1.00  0.00    +0.000 C 
ATOM    136  H37 UNL A   1      14.141  55.833   9.100  1.00  0.00    +0.000 H 
ATOM     40  C28 UNL A   1      13.479  54.741   5.989  1.00  0.00    +0.000 C 
ATOM    137  H38 UNL A   1      15.087  54.461   7.336  1.00  0.00    +0.000 H 
ATOM    148  H49 UNL A   1      11.732  55.265   4.916  1.00  0.00    +0.000 H 
ATOM    149  H50 UNL A   1      10.907  56.812   6.590  1.00  0.00    +0.000 H 
BRANCH   37   35
ATOM     35  C24 UNL A   1      11.873  57.210   9.090  1.00  0.00    +0.000 C 
ATOM     36  O5  UNL A   1      11.603  58.384   8.887  1.00  0.00    +0.000 O 
BRANCH   35   34
ATOM     34  N6  UNL A   1      11.682  56.662  10.334  1.00  0.00    +0.000 N 
ATOM    135  H36 UNL A   1      12.246  57.034  11.050  1.00  0.00    +0.000 H 
BRANCH   34   33
ATOM     33  C23 UNL A   1      10.769  55.612  10.743  1.00  0.00    +0.000 C 
ATOM    133  H34 UNL A   1      10.179  55.968  11.562  1.00  0.00    +0.000 H 
ATOM    134  H35 UNL A   1      10.156  55.364   9.900  1.00  0.00    +0.000 H 
BRANCH   33   32
ATOM    131  H32 UNL A   1      11.033  53.986  12.069  1.00  0.00    +0.000 H 
ATOM    132  H33 UNL A   1      11.430  53.666  10.354  1.00  0.00    +0.000 H 
ATOM     32  C22 UNL A   1      11.499  54.348  11.176  1.00  0.00    +0.000 C 
BRANCH   32   31
ATOM    129  H30 UNL A   1      13.534  53.904  10.777  1.00  0.00    +0.000 H 
ATOM    130  H31 UNL A   1      13.191  55.571  11.339  1.00  0.00    +0.000 H 
ATOM     31  C21 UNL A   1      12.992  54.527  11.459  1.00  0.00    +0.000 C 
BRANCH   31   30
ATOM     30  C20 UNL A   1      13.441  54.173  12.879  1.00  0.00    +0.000 C 
ATOM    127  H28 UNL A   1      14.505  54.053  12.870  1.00  0.00    +0.000 H 
ATOM    128  H29 UNL A   1      13.105  54.975  13.503  1.00  0.00    +0.000 H 
BRANCH   30   29
ATOM    125  H26 UNL A   1      12.695  53.042  14.514  1.00  0.00    +0.000 H 
ATOM     29  C19 UNL A   1      12.827  52.899  13.462  1.00  0.00    +0.000 C 
ATOM    126  H27 UNL A   1      11.907  52.740  12.938  1.00  0.00    +0.000 H 
BRANCH   29   28
ATOM    124  H25 UNL A   1      13.746  51.142  14.201  1.00  0.00    +0.000 H 
ATOM    123  H24 UNL A   1      14.619  51.913  12.875  1.00  0.00    +0.000 H 
ATOM     28  C18 UNL A   1      13.658  51.637  13.257  1.00  0.00    +0.000 C 
BRANCH   28   27
ATOM    122  H23 UNL A   1      12.099  50.482  12.536  1.00  0.00    +0.000 H 
ATOM     27  N5  UNL A   1      13.031  50.722  12.327  1.00  0.00    +0.000 N 
BRANCH   27   25
ATOM     25  C17 UNL A   1      13.542  50.146  11.205  1.00  0.00    +0.000 C 
ATOM     26  O4  UNL A   1      14.600  50.608  10.765  1.00  0.00    +0.000 O 
BRANCH   25   22
ATOM    118  H19 UNL A   1      11.911  48.850  10.969  1.00  0.00    +0.000 H 
ATOM     22  C15 UNL A   1      12.833  49.013  10.452  1.00  0.00    +0.000 C 
BRANCH   22   21
ATOM    117  H18 UNL A   1      13.089  49.233   8.348  1.00  0.00    +0.000 H 
ATOM     21  N4  UNL A   1      12.451  49.377   9.084  1.00  0.00    +0.000 N 
BRANCH   21   19
ATOM     19  C14 UNL A   1      11.231  49.911   8.815  1.00  0.00    +0.000 C 
ATOM     20  O2  UNL A   1      11.132  51.136   8.915  1.00  0.00    +0.000 O 
BRANCH   19   16
ATOM    113  H14 UNL A   1       9.193  49.391   8.937  1.00  0.00    +0.000 H 
ATOM     16  C12 UNL A   1      10.040  49.023   8.397  1.00  0.00    +0.000 C 
BRANCH   16   15
ATOM     15  N3  UNL A   1       9.799  49.199   6.974  1.00  0.00    +0.000 N 
ATOM    112  H13 UNL A   1      10.459  48.833   6.343  1.00  0.00    +0.000 H 
BRANCH   15   13
ATOM     13  C11 UNL A   1       8.701  49.849   6.461  1.00  0.00    +0.000 C 
ATOM     14  O1  UNL A   1       8.224  50.755   7.149  1.00  0.00    +0.000 O 
BRANCH   13    2
ATOM      2  C1  UNL A   1       8.136  49.521   5.049  1.00  0.00    +0.000 C 
ATOM    103  H4  UNL A   1       8.222  48.461   4.930  1.00  0.00    +0.000 H 
BRANCH    2    1
ATOM      1  N1  UNL A   1       6.688  49.813   4.982  1.00  0.00    +0.000 N 
ATOM    100  H1  UNL A   1       6.504  50.438   4.196  1.00  0.00    +0.000 H 
ATOM    101  H2  UNL A   1       6.391  50.261   5.849  1.00  0.00    +0.000 H 
ATOM    102  H3  UNL A   1       6.172  48.943   4.853  1.00  0.00    +0.000 H 
ENDBRANCH    2    1
BRANCH    2    3
ATOM    105  H6  UNL A   1       9.926  49.416   4.032  1.00  0.00    +0.000 H 
ATOM      3  C2  UNL A   1       9.003  49.920   3.832  1.00  0.00    +0.000 C 
ATOM    104  H5  UNL A   1       8.448  49.644   2.961  1.00  0.00    +0.000 H 
BRANCH    3    4
ATOM      4  C3  UNL A   1       9.455  51.350   3.616  1.00  0.00    +0.000 C 
ATOM      5  C4  UNL A   1       8.981  52.526   4.174  1.00  0.00    +0.000 C 
ATOM      6  N2  UNL A   1       9.798  53.557   3.784  1.00  0.00    +0.000 N 
ATOM      7  C5  UNL A   1      10.706  53.115   2.857  1.00  0.00    +0.000 C 
ATOM      8  C6  UNL A   1      11.694  53.819   2.156  1.00  0.00    +0.000 C 
ATOM      9  C7  UNL A   1      12.426  53.121   1.192  1.00  0.00    +0.000 C 
ATOM    106  H7  UNL A   1       8.152  52.612   4.782  1.00  0.00    +0.000 H 
ATOM     11  C9  UNL A   1      11.235  51.070   1.706  1.00  0.00    +0.000 C 
ATOM     12  C10 UNL A   1      10.477  51.751   2.682  1.00  0.00    +0.000 C 
ATOM     10  C8  UNL A   1      12.189  51.769   0.956  1.00  0.00    +0.000 C 
ATOM    107  H8  UNL A   1       9.740  54.480   4.122  1.00  0.00    +0.000 H 
ATOM    111  H12 UNL A   1      11.089  50.062   1.546  1.00  0.00    +0.000 H 
ATOM    108  H9  UNL A   1      11.873  54.819   2.343  1.00  0.00    +0.000 H 
ATOM    110  H11 UNL A   1      12.722  51.278   0.222  1.00  0.00    +0.000 H 
ATOM    109  H10 UNL A   1      13.152  53.614   0.649  1.00  0.00    +0.000 H 
ENDBRANCH    3    4
ENDBRANCH    2    3
ENDBRANCH   13    2
ENDBRANCH   15   13
ENDBRANCH   16   15
BRANCH   16   17
ATOM     17  C13 UNL A   1       9.929  47.599   8.961  1.00  0.00    +0.000 C 
ATOM    114  H15 UNL A   1      10.906  47.167   8.932  1.00  0.00    +0.000 H 
ATOM    115  H16 UNL A   1       9.195  47.122   8.346  1.00  0.00    +0.000 H 
BRANCH   17   18
ATOM     18  S1  UNL A   1       9.299  47.406  10.662  1.00  0.00    +0.000 S 
ATOM    116  H17 UNL A   1       8.125  46.722  10.636  1.00  0.00    +0.000 H 
ENDBRANCH   17   18
ENDBRANCH   16   17
ENDBRANCH   19   16
ENDBRANCH   21   19
ENDBRANCH   22   21
BRANCH   22   23
ATOM    119  H20 UNL A   1      14.442  47.813  11.184  1.00  0.00    +0.000 H 
ATOM     23  C16 UNL A   1      13.613  47.690  10.519  1.00  0.00    +0.000 C 
ATOM    120  H21 UNL A   1      13.938  47.451   9.528  1.00  0.00    +0.000 H 
BRANCH   23   24
ATOM    121  H22 UNL A   1      11.891  46.741  10.700  1.00  0.00    +0.000 H 
ATOM     24  O3  UNL A   1      12.807  46.608  10.986  1.00  0.00    +0.000 O 
ENDBRANCH   23   24
ENDBRANCH   22   23
ENDBRANCH   25   22
ENDBRANCH   27   25
ENDBRANCH   28   27
ENDBRANCH   29   28
ENDBRANCH   30   29
ENDBRANCH   31   30
ENDBRANCH   32   31
ENDBRANCH   33   32
ENDBRANCH   34   33
ENDBRANCH   35   34
ENDBRANCH   37   35
ENDBRANCH   41   40
BRANCH   45   46
ATOM     46  C33 UNL A   1      12.751  47.979   4.542  1.00  0.00    +0.000 C 
ATOM     47  C34 UNL A   1      13.170  47.451   5.774  1.00  0.00    +0.000 C 
ATOM     48  F1  UNL A   1      14.288  47.905   6.358  1.00  0.00    +0.000 F 
ATOM     49  C35 UNL A   1      12.458  46.425   6.392  1.00  0.00    +0.000 C 
ATOM     50  F2  UNL A   1      12.903  45.905   7.544  1.00  0.00    +0.000 F 
ATOM     51  C36 UNL A   1      11.300  45.933   5.811  1.00  0.00    +0.000 C 
ATOM     52  F3  UNL A   1      10.614  44.950   6.410  1.00  0.00    +0.000 F 
ATOM     53  C37 UNL A   1      10.858  46.453   4.605  1.00  0.00    +0.000 C 
ATOM     54  F4  UNL A   1       9.732  45.986   4.047  1.00  0.00    +0.000 F 
ATOM     55  C38 UNL A   1      11.582  47.460   3.969  1.00  0.00    +0.000 C 
ATOM     56  F5  UNL A   1      11.136  47.931   2.795  1.00  0.00    +0.000 F 
ENDBRANCH   45   46
BRANCH   62   63
ATOM     65  F6  UNL A   1      15.141  49.590  -2.641  1.00  0.00    +0.000 F 
ATOM     66  C46 UNL A   1      16.779  48.161  -3.542  1.00  0.00    +0.000 C 
ATOM     67  F7  UNL A   1      16.106  48.121  -4.700  1.00  0.00    +0.000 F 
ATOM     68  C47 UNL A   1      17.957  47.443  -3.401  1.00  0.00    +0.000 C 
ATOM     69  F8  UNL A   1      18.434  46.726  -4.428  1.00  0.00    +0.000 F 
ATOM     70  C48 UNL A   1      18.639  47.462  -2.194  1.00  0.00    +0.000 C 
ATOM     71  F9  UNL A   1      19.784  46.780  -2.060  1.00  0.00    +0.000 F 
ATOM     72  C49 UNL A   1      18.133  48.187  -1.119  1.00  0.00    +0.000 C 
ATOM     73  F10 UNL A   1      18.806  48.177   0.041  1.00  0.00    +0.000 F 
ATOM     63  C44 UNL A   1      16.948  48.928  -1.242  1.00  0.00    +0.000 C 
ATOM     64  C45 UNL A   1      16.286  48.911  -2.479  1.00  0.00    +0.000 C 
ENDBRANCH   62   63
BRANCH   77   78
ATOM     78  C53 UNL A   1      17.907  55.575   0.607  1.00  0.00    +0.000 C 
ATOM     79  C54 UNL A   1      19.165  55.906   1.131  1.00  0.00    +0.000 C 
ATOM     80  F11 UNL A   1      19.654  55.222   2.175  1.00  0.00    +0.000 F 
ATOM     81  C55 UNL A   1      19.905  56.965   0.611  1.00  0.00    +0.000 C 
ATOM     82  F12 UNL A   1      21.084  57.288   1.159  1.00  0.00    +0.000 F 
ATOM     83  C56 UNL A   1      19.416  57.695  -0.462  1.00  0.00    +0.000 C 
ATOM     84  F13 UNL A   1      20.130  58.712  -0.963  1.00  0.00    +0.000 F 
ATOM     85  C57 UNL A   1      18.183  57.374  -1.008  1.00  0.00    +0.000 C 
ATOM     86  F14 UNL A   1      17.712  58.069  -2.054  1.00  0.00    +0.000 F 
ATOM     87  C58 UNL A   1      17.429  56.332  -0.472  1.00  0.00    +0.000 C 
ATOM     88  F15 UNL A   1      16.235  56.051  -1.014  1.00  0.00    +0.000 F 
ENDBRANCH   77   78
TORSDOF 28
ENDMDL
MODEL 5
REMARK VINA RESULT:      -6.3      2.023      3.066
ROOT
ATOM    138  H39 UNL A   1      13.421  46.691   3.319  1.00  0.00    +0.000 H 
ATOM    139  H40 UNL A   1      15.009  46.825   1.255  1.00  0.00    +0.000 H 
ATOM    140  H41 UNL A   1      14.798  50.584   2.980  1.00  0.00    +0.000 H 
ATOM    141  H42 UNL A   1      16.286  56.792   2.870  1.00  0.00    +0.000 H 
ATOM    142  H43 UNL A   1      14.746  56.650   4.886  1.00  0.00    +0.000 H 
ATOM    143  H44 UNL A   1      15.055  52.841   3.253  1.00  0.00    +0.000 H 
ATOM    144  H45 UNL A   1      18.165  53.253  -0.669  1.00  0.00    +0.000 H 
ATOM    145  H46 UNL A   1      17.684  50.784  -1.143  1.00  0.00    +0.000 H 
ATOM    146  H47 UNL A   1      11.920  50.231   7.063  1.00  0.00    +0.000 H 
ATOM    147  H48 UNL A   1      11.959  52.784   7.255  1.00  0.00    +0.000 H 
ATOM     41  C29 UNL A   1      13.689  54.048   5.372  1.00  0.00    +0.000 C 
ATOM     42  C30 UNL A   1      13.330  52.591   5.459  1.00  0.00    +0.000 C 
ATOM     43  N7  UNL A   1      13.720  51.596   4.702  1.00  0.00    +0.000 N 
ATOM     44  C31 UNL A   1      13.133  50.459   5.241  1.00  0.00    +0.000 C 
ATOM     45  C32 UNL A   1      13.178  49.186   4.779  1.00  0.00    +0.000 C 
ATOM     57  C39 UNL A   1      13.877  48.783   3.588  1.00  0.00    +0.000 C 
ATOM     58  C40 UNL A   1      13.921  47.533   2.995  1.00  0.00    +0.000 C 
ATOM     59  C41 UNL A   1      14.761  47.610   1.878  1.00  0.00    +0.000 C 
ATOM     60  C42 UNL A   1      15.203  48.918   1.750  1.00  0.00    +0.000 C 
ATOM     61  N8  UNL A   1      14.655  49.625   2.807  1.00  0.00    +0.000 N 
ATOM     62  C43 UNL A   1      16.061  49.480   0.739  1.00  0.00    +0.000 C 
ATOM     74  C50 UNL A   1      16.440  50.779   0.675  1.00  0.00    +0.000 C 
ATOM     75  N9  UNL A   1      16.111  51.829   1.520  1.00  0.00    +0.000 N 
ATOM     76  C51 UNL A   1      16.737  52.881   1.052  1.00  0.00    +0.000 C 
ATOM     77  C52 UNL A   1      16.722  54.298   1.556  1.00  0.00    +0.000 C 
ATOM     89  C59 UNL A   1      15.965  54.605   2.626  1.00  0.00    +0.000 C 
ATOM     90  C60 UNL A   1      15.826  55.935   3.214  1.00  0.00    +0.000 C 
ATOM     91  C61 UNL A   1      15.006  55.861   4.274  1.00  0.00    +0.000 C 
ATOM     92  C62 UNL A   1      14.539  54.481   4.423  1.00  0.00    +0.000 C 
ATOM     93  N10 UNL A   1      15.166  53.806   3.407  1.00  0.00    +0.000 N 
ATOM     94  C63 UNL A   1      17.556  52.610  -0.138  1.00  0.00    +0.000 C 
ATOM     95  C64 UNL A   1      17.307  51.326  -0.350  1.00  0.00    +0.000 C 
ATOM     96  C65 UNL A   1      12.403  50.876   6.417  1.00  0.00    +0.000 C 
ATOM     97  C66 UNL A   1      12.436  52.193   6.558  1.00  0.00    +0.000 C 
ENDROOT
BRANCH   41   40
ATOM     98  C67 UNL A   1      11.997  55.752   6.059  1.00  0.00    +0.000 C 
ATOM     99  C68 UNL A   1      11.510  56.691   6.964  1.00  0.00    +0.000 C 
ATOM     37  C25 UNL A   1      12.106  56.823   8.222  1.00  0.00    +0.000 C 
ATOM     38  C26 UNL A   1      13.255  56.092   8.534  1.00  0.00    +0.000 C 
ATOM     39  C27 UNL A   1      13.784  55.201   7.600  1.00  0.00    +0.000 C 
ATOM    136  H37 UNL A   1      13.710  56.211   9.453  1.00  0.00    +0.000 H 
ATOM     40  C28 UNL A   1      13.147  55.009   6.364  1.00  0.00    +0.000 C 
ATOM    137  H38 UNL A   1      14.648  54.682   7.819  1.00  0.00    +0.000 H 
ATOM    148  H49 UNL A   1      11.509  55.602   5.162  1.00  0.00    +0.000 H 
ATOM    149  H50 UNL A   1      10.710  57.292   6.706  1.00  0.00    +0.000 H 
BRANCH   37   35
ATOM     35  C24 UNL A   1      11.559  57.748   9.239  1.00  0.00    +0.000 C 
ATOM     36  O5  UNL A   1      12.054  58.856   9.385  1.00  0.00    +0.000 O 
BRANCH   35   34
ATOM     34  N6  UNL A   1      10.506  57.353  10.025  1.00  0.00    +0.000 N 
ATOM    135  H36 UNL A   1       9.734  56.982   9.540  1.00  0.00    +0.000 H 
BRANCH   34   33
ATOM     33  C23 UNL A   1      10.369  57.402  11.468  1.00  0.00    +0.000 C 
ATOM    133  H34 UNL A   1      10.824  58.302  11.827  1.00  0.00    +0.000 H 
ATOM    134  H35 UNL A   1       9.324  57.374  11.699  1.00  0.00    +0.000 H 
BRANCH   33   32
ATOM    131  H32 UNL A   1      12.065  56.445  12.293  1.00  0.00    +0.000 H 
ATOM    132  H33 UNL A   1      10.499  56.061  13.068  1.00  0.00    +0.000 H 
ATOM     32  C22 UNL A   1      11.031  56.213  12.152  1.00  0.00    +0.000 C 
BRANCH   32   31
ATOM    129  H30 UNL A   1      10.540  55.101  10.414  1.00  0.00    +0.000 H 
ATOM    130  H31 UNL A   1      11.936  54.497  11.362  1.00  0.00    +0.000 H 
ATOM     31  C21 UNL A   1      10.942  54.892  11.384  1.00  0.00    +0.000 C 
BRANCH   31   30
ATOM     30  C20 UNL A   1      10.074  53.810  12.032  1.00  0.00    +0.000 C 
ATOM    127  H28 UNL A   1       9.445  53.391  11.273  1.00  0.00    +0.000 H 
ATOM    128  H29 UNL A   1      10.753  53.106  12.463  1.00  0.00    +0.000 H 
BRANCH   30   29
ATOM    125  H26 UNL A   1       9.249  55.355  13.233  1.00  0.00    +0.000 H 
ATOM     29  C19 UNL A   1       9.177  54.289  13.175  1.00  0.00    +0.000 C 
ATOM    126  H27 UNL A   1       8.190  53.944  12.949  1.00  0.00    +0.000 H 
BRANCH   29   28
ATOM    124  H25 UNL A   1       8.808  52.961  14.781  1.00  0.00    +0.000 H 
ATOM    123  H24 UNL A   1       9.509  54.507  15.265  1.00  0.00    +0.000 H 
ATOM     28  C18 UNL A   1       9.527  53.717  14.544  1.00  0.00    +0.000 C 
BRANCH   28   27
ATOM    122  H23 UNL A   1      11.415  53.331  13.787  1.00  0.00    +0.000 H 
ATOM     27  N5  UNL A   1      10.840  53.105  14.554  1.00  0.00    +0.000 N 
BRANCH   27   25
ATOM     25  C17 UNL A   1      11.394  52.264  15.470  1.00  0.00    +0.000 C 
ATOM     26  O4  UNL A   1      11.277  52.571  16.661  1.00  0.00    +0.000 O 
BRANCH   25   22
ATOM    118  H19 UNL A   1      12.761  50.747  15.943  1.00  0.00    +0.000 H 
ATOM     22  C15 UNL A   1      12.195  51.016  15.077  1.00  0.00    +0.000 C 
BRANCH   22   21
ATOM    117  H18 UNL A   1      10.806  49.840  13.971  1.00  0.00    +0.000 H 
ATOM     21  N4  UNL A   1      11.350  49.852  14.791  1.00  0.00    +0.000 N 
BRANCH   21   19
ATOM     19  C14 UNL A   1      11.306  48.792  15.639  1.00  0.00    +0.000 C 
ATOM     20  O2  UNL A   1      11.043  49.041  16.818  1.00  0.00    +0.000 O 
BRANCH   19   16
ATOM    113  H14 UNL A   1      10.625  46.998  14.769  1.00  0.00    +0.000 H 
ATOM     16  C12 UNL A   1      11.562  47.354  15.141  1.00  0.00    +0.000 C 
BRANCH   16   15
ATOM     15  N3  UNL A   1      12.515  47.399  14.043  1.00  0.00    +0.000 N 
ATOM    112  H13 UNL A   1      13.287  48.003  14.124  1.00  0.00    +0.000 H 
BRANCH   15   13
ATOM     13  C11 UNL A   1      12.396  46.645  12.900  1.00  0.00    +0.000 C 
ATOM     14  O1  UNL A   1      12.573  45.429  13.019  1.00  0.00    +0.000 O 
BRANCH   13    2
ATOM      2  C1  UNL A   1      11.977  47.272  11.540  1.00  0.00    +0.000 C 
ATOM    103  H4  UNL A   1      12.833  47.201  10.901  1.00  0.00    +0.000 H 
BRANCH    2    1
ATOM      1  N1  UNL A   1      10.924  46.463  10.889  1.00  0.00    +0.000 N 
ATOM    100  H1  UNL A   1      10.917  45.527  11.295  1.00  0.00    +0.000 H 
ATOM    101  H2  UNL A   1      11.116  46.399   9.889  1.00  0.00    +0.000 H 
ATOM    102  H3  UNL A   1      10.018  46.906  11.035  1.00  0.00    +0.000 H 
ENDBRANCH    2    1
BRANCH    2    3
ATOM    105  H6  UNL A   1      10.921  48.938  10.939  1.00  0.00    +0.000 H 
ATOM      3  C2  UNL A   1      11.831  48.812  11.488  1.00  0.00    +0.000 C 
ATOM    104  H5  UNL A   1      11.871  49.154  12.500  1.00  0.00    +0.000 H 
BRANCH    3    4
ATOM      4  C3  UNL A   1      12.803  49.673  10.707  1.00  0.00    +0.000 C 
ATOM      5  C4  UNL A   1      12.666  50.971  10.242  1.00  0.00    +0.000 C 
ATOM      6  N2  UNL A   1      13.866  51.376   9.713  1.00  0.00    +0.000 N 
ATOM      7  C5  UNL A   1      14.745  50.324   9.676  1.00  0.00    +0.000 C 
ATOM      8  C6  UNL A   1      16.054  50.261   9.180  1.00  0.00    +0.000 C 
ATOM      9  C7  UNL A   1      16.690  49.016   9.190  1.00  0.00    +0.000 C 
ATOM    106  H7  UNL A   1      11.806  51.538  10.287  1.00  0.00    +0.000 H 
ATOM     11  C9  UNL A   1      14.758  47.984  10.234  1.00  0.00    +0.000 C 
ATOM     12  C10 UNL A   1      14.089  49.226  10.232  1.00  0.00    +0.000 C 
ATOM     10  C8  UNL A   1      16.046  47.889   9.693  1.00  0.00    +0.000 C 
ATOM    107  H8  UNL A   1      14.066  52.290   9.406  1.00  0.00    +0.000 H 
ATOM    111  H12 UNL A   1      14.301  47.150  10.632  1.00  0.00    +0.000 H 
ATOM    108  H9  UNL A   1      16.530  51.102   8.820  1.00  0.00    +0.000 H 
ATOM    110  H11 UNL A   1      16.523  46.975   9.667  1.00  0.00    +0.000 H 
ATOM    109  H10 UNL A   1      17.650  48.933   8.821  1.00  0.00    +0.000 H 
ENDBRANCH    3    4
ENDBRANCH    2    3
ENDBRANCH   13    2
ENDBRANCH   15   13
ENDBRANCH   16   15
BRANCH   16   17
ATOM     17  C13 UNL A   1      11.718  46.220  16.166  1.00  0.00    +0.000 C 
ATOM    114  H15 UNL A   1      11.895  46.673  17.118  1.00  0.00    +0.000 H 
ATOM    115  H16 UNL A   1      12.518  45.621  15.785  1.00  0.00    +0.000 H 
BRANCH   17   18
ATOM     18  S1  UNL A   1      10.327  45.058  16.364  1.00  0.00    +0.000 S 
ATOM    116  H17 UNL A   1       9.879  45.102  17.647  1.00  0.00    +0.000 H 
ENDBRANCH   17   18
ENDBRANCH   16   17
ENDBRANCH   19   16
ENDBRANCH   21   19
ENDBRANCH   22   21
BRANCH   22   23
ATOM    119  H20 UNL A   1      12.783  51.012  13.023  1.00  0.00    +0.000 H 
ATOM     23  C16 UNL A   1      13.211  51.303  13.960  1.00  0.00    +0.000 C 
ATOM    120  H21 UNL A   1      14.099  50.745  14.175  1.00  0.00    +0.000 H 
BRANCH   23   24
ATOM    121  H22 UNL A   1      13.615  52.960  12.965  1.00  0.00    +0.000 H 
ATOM     24  O3  UNL A   1      13.568  52.683  13.892  1.00  0.00    +0.000 O 
ENDBRANCH   23   24
ENDBRANCH   22   23
ENDBRANCH   25   22
ENDBRANCH   27   25
ENDBRANCH   28   27
ENDBRANCH   29   28
ENDBRANCH   30   29
ENDBRANCH   31   30
ENDBRANCH   32   31
ENDBRANCH   33   32
ENDBRANCH   34   33
ENDBRANCH   35   34
ENDBRANCH   37   35
ENDBRANCH   41   40
BRANCH   45   46
ATOM     46  C33 UNL A   1      12.444  48.137   5.562  1.00  0.00    +0.000 C 
ATOM     47  C34 UNL A   1      11.165  47.698   5.184  1.00  0.00    +0.000 C 
ATOM     48  F1  UNL A   1      10.546  48.249   4.130  1.00  0.00    +0.000 F 
ATOM     49  C35 UNL A   1      10.501  46.716   5.915  1.00  0.00    +0.000 C 
ATOM     50  F2  UNL A   1       9.261  46.347   5.564  1.00  0.00    +0.000 F 
ATOM     51  C36 UNL A   1      11.112  46.130   7.012  1.00  0.00    +0.000 C 
ATOM     52  F3  UNL A   1      10.474  45.181   7.710  1.00  0.00    +0.000 F 
ATOM     53  C37 UNL A   1      12.384  46.534   7.391  1.00  0.00    +0.000 C 
ATOM     54  F4  UNL A   1      12.982  45.961   8.445  1.00  0.00    +0.000 F 
ATOM     55  C38 UNL A   1      13.040  47.536   6.680  1.00  0.00    +0.000 C 
ATOM     56  F5  UNL A   1      14.263  47.916   7.081  1.00  0.00    +0.000 F 
ENDBRANCH   45   46
BRANCH   62   63
ATOM     65  F6  UNL A   1      18.684  48.329   0.714  1.00  0.00    +0.000 F 
ATOM     66  C46 UNL A   1      18.298  47.151  -1.288  1.00  0.00    +0.000 C 
ATOM     67  F7  UNL A   1      19.547  46.668  -1.244  1.00  0.00    +0.000 F 
ATOM     68  C47 UNL A   1      17.459  46.808  -2.338  1.00  0.00    +0.000 C 
ATOM     69  F8  UNL A   1      17.890  45.977  -3.297  1.00  0.00    +0.000 F 
ATOM     70  C48 UNL A   1      16.176  47.331  -2.398  1.00  0.00    +0.000 C 
ATOM     71  F9  UNL A   1      15.361  46.990  -3.404  1.00  0.00    +0.000 F 
ATOM     72  C49 UNL A   1      15.735  48.211  -1.414  1.00  0.00    +0.000 C 
ATOM     73  F10 UNL A   1      14.494  48.712  -1.504  1.00  0.00    +0.000 F 
ATOM     63  C44 UNL A   1      16.563  48.565  -0.338  1.00  0.00    +0.000 C 
ATOM     64  C45 UNL A   1      17.850  48.008  -0.287  1.00  0.00    +0.000 C 
ENDBRANCH   62   63
BRANCH   77   78
ATOM     78  C53 UNL A   1      17.503  55.360   0.871  1.00  0.00    +0.000 C 
ATOM     79  C54 UNL A   1      16.983  56.028  -0.247  1.00  0.00    +0.000 C 
ATOM     80  F11 UNL A   1      15.774  55.696  -0.721  1.00  0.00    +0.000 F 
ATOM     81  C55 UNL A   1      17.719  57.010  -0.905  1.00  0.00    +0.000 C 
ATOM     82  F12 UNL A   1      17.218  57.601  -1.998  1.00  0.00    +0.000 F 
ATOM     83  C56 UNL A   1      18.978  57.363  -0.441  1.00  0.00    +0.000 C 
ATOM     84  F13 UNL A   1      19.685  58.310  -1.073  1.00  0.00    +0.000 F 
ATOM     85  C57 UNL A   1      19.504  56.729   0.673  1.00  0.00    +0.000 C 
ATOM     86  F14 UNL A   1      20.715  57.078   1.134  1.00  0.00    +0.000 F 
ATOM     87  C58 UNL A   1      18.779  55.728   1.317  1.00  0.00    +0.000 C 
ATOM     88  F15 UNL A   1      19.318  55.125   2.387  1.00  0.00    +0.000 F 
ENDBRANCH   77   78
TORSDOF 28
ENDMDL
MODEL 6
REMARK VINA RESULT:      -6.2     43.559     50.484
ROOT
ATOM    138  H39 UNL A   1      11.349   9.436  29.325  1.00  0.00    +0.000 H 
ATOM    139  H40 UNL A   1      12.327   7.082  29.875  1.00  0.00    +0.000 H 
ATOM    140  H41 UNL A   1       9.055   6.582  27.386  1.00  0.00    +0.000 H 
ATOM    141  H42 UNL A   1       4.948   2.721  24.387  1.00  0.00    +0.000 H 
ATOM    142  H43 UNL A   1       4.009   5.019  23.847  1.00  0.00    +0.000 H 
ATOM    143  H44 UNL A   1       7.373   5.550  26.230  1.00  0.00    +0.000 H 
ATOM    144  H45 UNL A   1       9.159   0.951  27.166  1.00  0.00    +0.000 H 
ATOM    145  H46 UNL A   1      10.894   2.074  28.675  1.00  0.00    +0.000 H 
ATOM    146  H47 UNL A   1       7.346  11.132  26.177  1.00  0.00    +0.000 H 
ATOM    147  H48 UNL A   1       5.303  10.027  25.100  1.00  0.00    +0.000 H 
ATOM     41  C29 UNL A   1       5.443   7.180  25.031  1.00  0.00    +0.000 C 
ATOM     42  C30 UNL A   1       6.397   8.132  25.696  1.00  0.00    +0.000 C 
ATOM     43  N7  UNL A   1       7.481   7.873  26.382  1.00  0.00    +0.000 N 
ATOM     44  C31 UNL A   1       8.010   9.108  26.733  1.00  0.00    +0.000 C 
ATOM     45  C32 UNL A   1       9.094   9.375  27.501  1.00  0.00    +0.000 C 
ATOM     57  C39 UNL A   1       9.916   8.367  28.116  1.00  0.00    +0.000 C 
ATOM     58  C40 UNL A   1      10.990   8.535  28.973  1.00  0.00    +0.000 C 
ATOM     59  C41 UNL A   1      11.505   7.270  29.280  1.00  0.00    +0.000 C 
ATOM     60  C42 UNL A   1      10.723   6.314  28.651  1.00  0.00    +0.000 C 
ATOM     61  N8  UNL A   1       9.755   7.001  27.938  1.00  0.00    +0.000 N 
ATOM     62  C43 UNL A   1      10.850   4.880  28.696  1.00  0.00    +0.000 C 
ATOM     74  C50 UNL A   1      10.033   4.006  28.061  1.00  0.00    +0.000 C 
ATOM     75  N9  UNL A   1       8.934   4.264  27.254  1.00  0.00    +0.000 N 
ATOM     76  C51 UNL A   1       8.491   3.095  26.861  1.00  0.00    +0.000 C 
ATOM     77  C52 UNL A   1       7.306   2.772  25.992  1.00  0.00    +0.000 C 
ATOM     89  C59 UNL A   1       6.535   3.776  25.534  1.00  0.00    +0.000 C 
ATOM     90  C60 UNL A   1       5.342   3.620  24.706  1.00  0.00    +0.000 C 
ATOM     91  C61 UNL A   1       4.842   4.834  24.428  1.00  0.00    +0.000 C 
ATOM     92  C62 UNL A   1       5.665   5.853  25.082  1.00  0.00    +0.000 C 
ATOM     93  N10 UNL A   1       6.651   5.133  25.707  1.00  0.00    +0.000 N 
ATOM     94  C63 UNL A   1       9.278   1.958  27.357  1.00  0.00    +0.000 C 
ATOM     95  C64 UNL A   1      10.179   2.565  28.116  1.00  0.00    +0.000 C 
ATOM     96  C65 UNL A   1       7.160  10.117  26.141  1.00  0.00    +0.000 C 
ATOM     97  C66 UNL A   1       6.110   9.568  25.548  1.00  0.00    +0.000 C 
ENDROOT
BRANCH   41   40
ATOM     98  C67 UNL A   1       3.144   8.155  24.960  1.00  0.00    +0.000 C 
ATOM     99  C68 UNL A   1       2.029   8.598  24.255  1.00  0.00    +0.000 C 
ATOM     37  C25 UNL A   1       2.075   8.687  22.860  1.00  0.00    +0.000 C 
ATOM     38  C26 UNL A   1       3.197   8.231  22.165  1.00  0.00    +0.000 C 
ATOM     39  C27 UNL A   1       4.288   7.721  22.869  1.00  0.00    +0.000 C 
ATOM    136  H37 UNL A   1       3.219   8.271  21.134  1.00  0.00    +0.000 H 
ATOM     40  C28 UNL A   1       4.279   7.699  24.273  1.00  0.00    +0.000 C 
ATOM    137  H38 UNL A   1       5.107   7.358  22.355  1.00  0.00    +0.000 H 
ATOM    148  H49 UNL A   1       3.136   8.162  25.992  1.00  0.00    +0.000 H 
ATOM    149  H50 UNL A   1       1.167   8.859  24.761  1.00  0.00    +0.000 H 
BRANCH   37   35
ATOM     35  C24 UNL A   1       0.939   9.236  22.087  1.00  0.00    +0.000 C 
ATOM     36  O5  UNL A   1       0.803   8.941  20.910  1.00  0.00    +0.000 O 
BRANCH   35   34
ATOM     34  N6  UNL A   1       0.050  10.088  22.694  1.00  0.00    +0.000 N 
ATOM    135  H36 UNL A   1      -0.675   9.652  23.197  1.00  0.00    +0.000 H 
BRANCH   34   33
ATOM     33  C23 UNL A   1       0.028  11.538  22.699  1.00  0.00    +0.000 C 
ATOM    133  H34 UNL A   1       0.387  11.892  21.755  1.00  0.00    +0.000 H 
ATOM    134  H35 UNL A   1      -0.981  11.850  22.875  1.00  0.00    +0.000 H 
BRANCH   33   32
ATOM    131  H32 UNL A   1       0.277  12.747  24.417  1.00  0.00    +0.000 H 
ATOM    132  H33 UNL A   1       1.313  11.292  24.331  1.00  0.00    +0.000 H 
ATOM     32  C22 UNL A   1       0.896  12.125  23.805  1.00  0.00    +0.000 C 
BRANCH   32   31
ATOM    129  H30 UNL A   1       1.696  13.789  22.763  1.00  0.00    +0.000 H 
ATOM    130  H31 UNL A   1       2.615  13.252  24.204  1.00  0.00    +0.000 H 
ATOM     31  C21 UNL A   1       2.082  12.963  23.323  1.00  0.00    +0.000 C 
BRANCH   31   30
ATOM     30  C20 UNL A   1       3.094  12.226  22.441  1.00  0.00    +0.000 C 
ATOM    127  H28 UNL A   1       2.590  11.404  21.975  1.00  0.00    +0.000 H 
ATOM    128  H29 UNL A   1       3.464  12.951  21.748  1.00  0.00    +0.000 H 
BRANCH   30   29
ATOM    125  H26 UNL A   1       4.657  12.417  23.866  1.00  0.00    +0.000 H 
ATOM     29  C19 UNL A   1       4.319  11.675  23.172  1.00  0.00    +0.000 C 
ATOM    126  H27 UNL A   1       4.006  10.768  23.645  1.00  0.00    +0.000 H 
BRANCH   29   28
ATOM    124  H25 UNL A   1       5.250  11.613  21.273  1.00  0.00    +0.000 H 
ATOM    123  H24 UNL A   1       5.646  10.247  22.319  1.00  0.00    +0.000 H 
ATOM     28  C18 UNL A   1       5.490  11.305  22.269  1.00  0.00    +0.000 C 
BRANCH   28   27
ATOM    122  H23 UNL A   1       7.046  11.746  23.561  1.00  0.00    +0.000 H 
ATOM     27  N5  UNL A   1       6.711  11.976  22.664  1.00  0.00    +0.000 N 
BRANCH   27   25
ATOM     25  C17 UNL A   1       7.461  12.880  21.976  1.00  0.00    +0.000 C 
ATOM     26  O4  UNL A   1       7.134  14.068  22.064  1.00  0.00    +0.000 O 
BRANCH   25   22
ATOM    118  H19 UNL A   1       9.246  13.343  20.978  1.00  0.00    +0.000 H 
ATOM     22  C15 UNL A   1       8.629  12.474  21.068  1.00  0.00    +0.000 C 
BRANCH   22   21
ATOM    117  H18 UNL A   1       9.133  10.860  22.364  1.00  0.00    +0.000 H 
ATOM     21  N4  UNL A   1       9.491  11.445  21.657  1.00  0.00    +0.000 N 
BRANCH   21   19
ATOM     19  C14 UNL A   1      10.776  11.287  21.245  1.00  0.00    +0.000 C 
ATOM     20  O2  UNL A   1      11.229  12.163  20.505  1.00  0.00    +0.000 O 
BRANCH   19   16
ATOM    113  H14 UNL A   1      11.051   9.585  22.455  1.00  0.00    +0.000 H 
ATOM     16  C12 UNL A   1      11.620  10.076  21.694  1.00  0.00    +0.000 C 
BRANCH   16   15
ATOM     15  N3  UNL A   1      11.776   9.168  20.569  1.00  0.00    +0.000 N 
ATOM    112  H13 UNL A   1      12.688   8.959  20.265  1.00  0.00    +0.000 H 
BRANCH   15   13
ATOM     13  C11 UNL A   1      10.721   8.586  19.907  1.00  0.00    +0.000 C 
ATOM     14  O1  UNL A   1      10.535   8.945  18.741  1.00  0.00    +0.000 O 
BRANCH   13    2
ATOM      2  C1  UNL A   1       9.855   7.471  20.558  1.00  0.00    +0.000 C 
ATOM    103  H4  UNL A   1      10.509   6.919  21.200  1.00  0.00    +0.000 H 
BRANCH    2    1
ATOM      1  N1  UNL A   1       8.825   8.054  21.445  1.00  0.00    +0.000 N 
ATOM    100  H1  UNL A   1       8.459   8.908  21.023  1.00  0.00    +0.000 H 
ATOM    101  H2  UNL A   1       9.241   8.273  22.350  1.00  0.00    +0.000 H 
ATOM    102  H3  UNL A   1       8.067   7.385  21.571  1.00  0.00    +0.000 H 
ENDBRANCH    2    1
BRANCH    2    3
ATOM    105  H6  UNL A   1       8.769   5.739  20.291  1.00  0.00    +0.000 H 
ATOM      3  C2  UNL A   1       9.434   6.286  19.656  1.00  0.00    +0.000 C 
ATOM    104  H5  UNL A   1       9.045   6.715  18.756  1.00  0.00    +0.000 H 
BRANCH    3    4
ATOM      4  C3  UNL A   1      10.426   5.224  19.230  1.00  0.00    +0.000 C 
ATOM      5  C4  UNL A   1      11.104   5.069  18.032  1.00  0.00    +0.000 C 
ATOM      6  N2  UNL A   1      12.002   4.041  18.166  1.00  0.00    +0.000 N 
ATOM      7  C5  UNL A   1      11.824   3.412  19.371  1.00  0.00    +0.000 C 
ATOM      8  C6  UNL A   1      12.475   2.294  19.910  1.00  0.00    +0.000 C 
ATOM      9  C7  UNL A   1      12.019   1.810  21.139  1.00  0.00    +0.000 C 
ATOM    106  H7  UNL A   1      10.958   5.634  17.181  1.00  0.00    +0.000 H 
ATOM     11  C9  UNL A   1      10.366   3.580  21.277  1.00  0.00    +0.000 C 
ATOM     12  C10 UNL A   1      10.801   4.089  20.035  1.00  0.00    +0.000 C 
ATOM     10  C8  UNL A   1      10.968   2.432  21.807  1.00  0.00    +0.000 C 
ATOM    107  H8  UNL A   1      12.677   3.791  17.494  1.00  0.00    +0.000 H 
ATOM    111  H12 UNL A   1       9.608   4.052  21.794  1.00  0.00    +0.000 H 
ATOM    108  H9  UNL A   1      13.262   1.845  19.416  1.00  0.00    +0.000 H 
ATOM    110  H11 UNL A   1      10.629   2.043  22.700  1.00  0.00    +0.000 H 
ATOM    109  H10 UNL A   1      12.469   0.981  21.557  1.00  0.00    +0.000 H 
ENDBRANCH    3    4
ENDBRANCH    2    3
ENDBRANCH   13    2
ENDBRANCH   15   13
ENDBRANCH   16   15
BRANCH   16   17
ATOM     17  C13 UNL A   1      12.844  10.304  22.593  1.00  0.00    +0.000 C 
ATOM    114  H15 UNL A   1      13.714  10.222  21.975  1.00  0.00    +0.000 H 
ATOM    115  H16 UNL A   1      12.756   9.566  23.362  1.00  0.00    +0.000 H 
BRANCH   17   18
ATOM     18  S1  UNL A   1      12.958  11.889  23.487  1.00  0.00    +0.000 S 
ATOM    116  H17 UNL A   1      11.842  12.064  24.244  1.00  0.00    +0.000 H 
ENDBRANCH   17   18
ENDBRANCH   16   17
ENDBRANCH   19   16
ENDBRANCH   21   19
ENDBRANCH   22   21
BRANCH   22   23
ATOM    119  H20 UNL A   1       8.963  12.317  18.963  1.00  0.00    +0.000 H 
ATOM     23  C16 UNL A   1       8.164  12.117  19.646  1.00  0.00    +0.000 C 
ATOM    120  H21 UNL A   1       7.302  12.712  19.425  1.00  0.00    +0.000 H 
BRANCH   23   24
ATOM    121  H22 UNL A   1       8.060  10.412  18.656  1.00  0.00    +0.000 H 
ATOM     24  O3  UNL A   1       7.791  10.745  19.525  1.00  0.00    +0.000 O 
ENDBRANCH   23   24
ENDBRANCH   22   23
ENDBRANCH   25   22
ENDBRANCH   27   25
ENDBRANCH   28   27
ENDBRANCH   29   28
ENDBRANCH   30   29
ENDBRANCH   31   30
ENDBRANCH   32   31
ENDBRANCH   33   32
ENDBRANCH   34   33
ENDBRANCH   35   34
ENDBRANCH   37   35
ENDBRANCH   41   40
BRANCH   45   46
ATOM     46  C33 UNL A   1       9.448  10.816  27.725  1.00  0.00    +0.000 C 
ATOM     47  C34 UNL A   1       8.740  11.614  28.637  1.00  0.00    +0.000 C 
ATOM     48  F1  UNL A   1       7.688  11.111  29.300  1.00  0.00    +0.000 F 
ATOM     49  C35 UNL A   1       9.086  12.947  28.843  1.00  0.00    +0.000 C 
ATOM     50  F2  UNL A   1       8.365  13.702  29.683  1.00  0.00    +0.000 F 
ATOM     51  C36 UNL A   1      10.166  13.498  28.170  1.00  0.00    +0.000 C 
ATOM     52  F3  UNL A   1      10.502  14.779  28.373  1.00  0.00    +0.000 F 
ATOM     53  C37 UNL A   1      10.893  12.722  27.280  1.00  0.00    +0.000 C 
ATOM     54  F4  UNL A   1      11.944  13.249  26.636  1.00  0.00    +0.000 F 
ATOM     55  C38 UNL A   1      10.531  11.397  27.050  1.00  0.00    +0.000 C 
ATOM     56  F5  UNL A   1      11.245  10.677  26.170  1.00  0.00    +0.000 F 
ENDBRANCH   45   46
BRANCH   62   63
ATOM     65  F6  UNL A   1      10.846   4.827  31.561  1.00  0.00    +0.000 F 
ATOM     66  C46 UNL A   1      12.926   3.730  31.680  1.00  0.00    +0.000 C 
ATOM     67  F7  UNL A   1      12.864   3.761  33.019  1.00  0.00    +0.000 F 
ATOM     68  C47 UNL A   1      14.024   3.164  31.050  1.00  0.00    +0.000 C 
ATOM     69  F8  UNL A   1      15.014   2.629  31.779  1.00  0.00    +0.000 F 
ATOM     70  C48 UNL A   1      14.101   3.158  29.666  1.00  0.00    +0.000 C 
ATOM     71  F9  UNL A   1      15.155   2.600  29.056  1.00  0.00    +0.000 F 
ATOM     72  C49 UNL A   1      13.085   3.733  28.909  1.00  0.00    +0.000 C 
ATOM     73  F10 UNL A   1      13.191   3.724  27.572  1.00  0.00    +0.000 F 
ATOM     63  C44 UNL A   1      11.960   4.303  29.525  1.00  0.00    +0.000 C 
ATOM     64  C45 UNL A   1      11.894   4.280  30.926  1.00  0.00    +0.000 C 
ENDBRANCH   62   63
BRANCH   77   78
ATOM     78  C53 UNL A   1       6.962   1.365  25.664  1.00  0.00    +0.000 C 
ATOM     79  C54 UNL A   1       5.943   0.693  26.354  1.00  0.00    +0.000 C 
ATOM     80  F11 UNL A   1       5.279   1.317  27.338  1.00  0.00    +0.000 F 
ATOM     81  C55 UNL A   1       5.631  -0.633  26.065  1.00  0.00    +0.000 C 
ATOM     82  F12 UNL A   1       4.683  -1.266  26.770  1.00  0.00    +0.000 F 
ATOM     83  C56 UNL A   1       6.311  -1.305  25.059  1.00  0.00    +0.000 C 
ATOM     84  F13 UNL A   1       6.008  -2.579  24.779  1.00  0.00    +0.000 F 
ATOM     85  C57 UNL A   1       7.310  -0.655  24.351  1.00  0.00    +0.000 C 
ATOM     86  F14 UNL A   1       7.961  -1.296  23.369  1.00  0.00    +0.000 F 
ATOM     87  C58 UNL A   1       7.641   0.664  24.658  1.00  0.00    +0.000 C 
ATOM     88  F15 UNL A   1       8.619   1.263  23.963  1.00  0.00    +0.000 F 
ENDBRANCH   77   78
TORSDOF 28
ENDMDL
MODEL 7
REMARK VINA RESULT:      -6.2      1.928      3.925
ROOT
ATOM    138  H39 UNL A   1      13.534  46.725   3.023  1.00  0.00    +0.000 H 
ATOM    139  H40 UNL A   1      15.147  46.849   0.977  1.00  0.00    +0.000 H 
ATOM    140  H41 UNL A   1      15.006  50.589   2.750  1.00  0.00    +0.000 H 
ATOM    141  H42 UNL A   1      16.640  56.761   2.737  1.00  0.00    +0.000 H 
ATOM    142  H43 UNL A   1      15.076  56.629   4.736  1.00  0.00    +0.000 H 
ATOM    143  H44 UNL A   1      15.313  52.835   3.055  1.00  0.00    +0.000 H 
ATOM    144  H45 UNL A   1      18.474  53.224  -0.828  1.00  0.00    +0.000 H 
ATOM    145  H46 UNL A   1      17.939  50.774  -1.340  1.00  0.00    +0.000 H 
ATOM    146  H47 UNL A   1      12.076  50.251   6.798  1.00  0.00    +0.000 H 
ATOM    147  H48 UNL A   1      12.174  52.800   7.024  1.00  0.00    +0.000 H 
ATOM     41  C29 UNL A   1      13.953  54.046   5.176  1.00  0.00    +0.000 C 
ATOM     42  C30 UNL A   1      13.560  52.597   5.240  1.00  0.00    +0.000 C 
ATOM     43  N7  UNL A   1      13.934  51.604   4.474  1.00  0.00    +0.000 N 
ATOM     44  C31 UNL A   1      13.314  50.474   4.991  1.00  0.00    +0.000 C 
ATOM     45  C32 UNL A   1      13.334  49.206   4.513  1.00  0.00    +0.000 C 
ATOM     57  C39 UNL A   1      14.036  48.802   3.325  1.00  0.00    +0.000 C 
ATOM     58  C40 UNL A   1      14.057  47.560   2.715  1.00  0.00    +0.000 C 
ATOM     59  C41 UNL A   1      14.911  47.631   1.608  1.00  0.00    +0.000 C 
ATOM     60  C42 UNL A   1      15.385  48.930   1.502  1.00  0.00    +0.000 C 
ATOM     61  N8  UNL A   1      14.843  49.636   2.563  1.00  0.00    +0.000 N 
ATOM     62  C43 UNL A   1      16.267  49.484   0.508  1.00  0.00    +0.000 C 
ATOM     74  C50 UNL A   1      16.676  50.775   0.464  1.00  0.00    +0.000 C 
ATOM     75  N9  UNL A   1      16.363  51.822   1.321  1.00  0.00    +0.000 N 
ATOM     76  C51 UNL A   1      17.019  52.864   0.872  1.00  0.00    +0.000 C 
ATOM     77  C52 UNL A   1      17.031  54.274   1.395  1.00  0.00    +0.000 C 
ATOM     89  C59 UNL A   1      16.271  54.586   2.461  1.00  0.00    +0.000 C 
ATOM     90  C60 UNL A   1      16.157  55.910   3.066  1.00  0.00    +0.000 C 
ATOM     91  C61 UNL A   1      15.324  55.842   4.116  1.00  0.00    +0.000 C 
ATOM     92  C62 UNL A   1      14.824  54.472   4.241  1.00  0.00    +0.000 C 
ATOM     93  N10 UNL A   1      15.445  53.795   3.224  1.00  0.00    +0.000 N 
ATOM     94  C63 UNL A   1      17.844  52.590  -0.312  1.00  0.00    +0.000 C 
ATOM     95  C64 UNL A   1      17.567  51.315  -0.543  1.00  0.00    +0.000 C 
ATOM     96  C65 UNL A   1      12.582  50.892   6.166  1.00  0.00    +0.000 C 
ATOM     97  C66 UNL A   1      12.645  52.206   6.324  1.00  0.00    +0.000 C 
ENDROOT
BRANCH   41   40
ATOM     98  C67 UNL A   1      12.201  55.655   5.940  1.00  0.00    +0.000 C 
ATOM     99  C68 UNL A   1      11.721  56.595   6.849  1.00  0.00    +0.000 C 
ATOM     37  C25 UNL A   1      12.404  56.818   8.048  1.00  0.00    +0.000 C 
ATOM     38  C26 UNL A   1      13.624  56.182   8.290  1.00  0.00    +0.000 C 
ATOM     39  C27 UNL A   1      14.141  55.294   7.347  1.00  0.00    +0.000 C 
ATOM    136  H37 UNL A   1      14.142  56.370   9.163  1.00  0.00    +0.000 H 
ATOM     40  C28 UNL A   1      13.423  55.007   6.175  1.00  0.00    +0.000 C 
ATOM    137  H38 UNL A   1      15.055  54.845   7.512  1.00  0.00    +0.000 H 
ATOM    148  H49 UNL A   1      11.656  55.435   5.092  1.00  0.00    +0.000 H 
ATOM    149  H50 UNL A   1      10.862  57.127   6.636  1.00  0.00    +0.000 H 
BRANCH   37   35
ATOM     35  C24 UNL A   1      11.874  57.744   9.073  1.00  0.00    +0.000 C 
ATOM     36  O5  UNL A   1      12.364  58.856   9.203  1.00  0.00    +0.000 O 
BRANCH   35   34
ATOM     34  N6  UNL A   1      10.842  57.345   9.884  1.00  0.00    +0.000 N 
ATOM    135  H36 UNL A   1       9.941  57.583   9.568  1.00  0.00    +0.000 H 
BRANCH   34   33
ATOM     33  C23 UNL A   1      10.890  56.621  11.141  1.00  0.00    +0.000 C 
ATOM    133  H34 UNL A   1      11.412  57.216  11.861  1.00  0.00    +0.000 H 
ATOM    134  H35 UNL A   1       9.883  56.430  11.448  1.00  0.00    +0.000 H 
BRANCH   33   32
ATOM    131  H32 UNL A   1      11.660  55.039   9.966  1.00  0.00    +0.000 H 
ATOM    132  H33 UNL A   1      12.555  55.399  11.473  1.00  0.00    +0.000 H 
ATOM     32  C22 UNL A   1      11.599  55.280  11.007  1.00  0.00    +0.000 C 
BRANCH   32   31
ATOM    129  H30 UNL A   1       9.975  54.459  12.097  1.00  0.00    +0.000 H 
ATOM    130  H31 UNL A   1      10.832  53.331  10.999  1.00  0.00    +0.000 H 
ATOM     31  C21 UNL A   1      10.917  54.112  11.725  1.00  0.00    +0.000 C 
BRANCH   31   30
ATOM     30  C20 UNL A   1      11.698  53.514  12.898  1.00  0.00    +0.000 C 
ATOM    127  H28 UNL A   1      11.020  53.392  13.718  1.00  0.00    +0.000 H 
ATOM    128  H29 UNL A   1      12.109  52.593  12.540  1.00  0.00    +0.000 H 
BRANCH   30   29
ATOM    125  H26 UNL A   1      12.905  55.259  12.829  1.00  0.00    +0.000 H 
ATOM     29  C19 UNL A   1      12.885  54.346  13.386  1.00  0.00    +0.000 C 
ATOM    126  H27 UNL A   1      12.738  54.494  14.436  1.00  0.00    +0.000 H 
BRANCH   29   28
ATOM    124  H25 UNL A   1      14.382  53.017  14.071  1.00  0.00    +0.000 H 
ATOM    123  H24 UNL A   1      15.003  54.424  13.205  1.00  0.00    +0.000 H 
ATOM     28  C18 UNL A   1      14.244  53.671  13.236  1.00  0.00    +0.000 C 
BRANCH   28   27
ATOM    122  H23 UNL A   1      13.750  53.183  11.285  1.00  0.00    +0.000 H 
ATOM     27  N5  UNL A   1      14.321  52.877  12.027  1.00  0.00    +0.000 N 
BRANCH   27   25
ATOM     25  C17 UNL A   1      15.069  51.771  11.767  1.00  0.00    +0.000 C 
ATOM     26  O4  UNL A   1      16.278  51.835  12.016  1.00  0.00    +0.000 O 
BRANCH   25   22
ATOM    118  H19 UNL A   1      15.047  49.687  11.538  1.00  0.00    +0.000 H 
ATOM     22  C15 UNL A   1      14.488  50.502  11.130  1.00  0.00    +0.000 C 
BRANCH   22   21
ATOM    117  H18 UNL A   1      12.373  50.751  11.073  1.00  0.00    +0.000 H 
ATOM     21  N4  UNL A   1      13.095  50.247  11.512  1.00  0.00    +0.000 N 
BRANCH   21   19
ATOM     19  C14 UNL A   1      12.787  49.329  12.464  1.00  0.00    +0.000 C 
ATOM     20  O2  UNL A   1      12.996  49.657  13.635  1.00  0.00    +0.000 O 
BRANCH   19   16
ATOM    113  H14 UNL A   1      11.281  47.866  12.638  1.00  0.00    +0.000 H 
ATOM     16  C12 UNL A   1      12.195  47.953  12.091  1.00  0.00    +0.000 C 
BRANCH   16   15
ATOM     15  N3  UNL A   1      11.891  47.942  10.669  1.00  0.00    +0.000 N 
ATOM    112  H13 UNL A   1      12.631  48.079  10.035  1.00  0.00    +0.000 H 
BRANCH   15   13
ATOM     13  C11 UNL A   1      10.628  47.750  10.161  1.00  0.00    +0.000 C 
ATOM     14  O1  UNL A   1      10.192  46.596  10.184  1.00  0.00    +0.000 O 
BRANCH   13    2
ATOM      2  C1  UNL A   1       9.754  48.935   9.658  1.00  0.00    +0.000 C 
ATOM    103  H4  UNL A   1       8.802  48.518   9.403  1.00  0.00    +0.000 H 
BRANCH    2    1
ATOM      1  N1  UNL A   1       9.489  49.895  10.752  1.00  0.00    +0.000 N 
ATOM    100  H1  UNL A   1      10.168  50.655  10.707  1.00  0.00    +0.000 H 
ATOM    101  H2  UNL A   1       9.572  49.417  11.650  1.00  0.00    +0.000 H 
ATOM    102  H3  UNL A   1       8.547  50.272  10.652  1.00  0.00    +0.000 H 
ENDBRANCH    2    1
BRANCH    2    3
ATOM    105  H6  UNL A   1      10.320  50.535   8.488  1.00  0.00    +0.000 H 
ATOM      3  C2  UNL A   1      10.087  49.516   8.263  1.00  0.00    +0.000 C 
ATOM    104  H5  UNL A   1      10.853  48.894   7.851  1.00  0.00    +0.000 H 
BRANCH    3    4
ATOM      4  C3  UNL A   1       9.026  49.654   7.190  1.00  0.00    +0.000 C 
ATOM      5  C4  UNL A   1       8.941  50.544   6.133  1.00  0.00    +0.000 C 
ATOM      6  N2  UNL A   1       7.873  50.191   5.347  1.00  0.00    +0.000 N 
ATOM      7  C5  UNL A   1       7.158  49.185   5.945  1.00  0.00    +0.000 C 
ATOM      8  C6  UNL A   1       5.979  48.550   5.534  1.00  0.00    +0.000 C 
ATOM      9  C7  UNL A   1       5.417  47.607   6.399  1.00  0.00    +0.000 C 
ATOM    106  H7  UNL A   1       9.575  51.340   5.964  1.00  0.00    +0.000 H 
ATOM     11  C9  UNL A   1       7.229  47.909   7.982  1.00  0.00    +0.000 C 
ATOM     12  C10 UNL A   1       7.818  48.869   7.132  1.00  0.00    +0.000 C 
ATOM     10  C8  UNL A   1       6.022  47.303   7.615  1.00  0.00    +0.000 C 
ATOM    107  H8  UNL A   1       7.653  50.601   4.479  1.00  0.00    +0.000 H 
ATOM    111  H12 UNL A   1       7.686  47.654   8.871  1.00  0.00    +0.000 H 
ATOM    108  H9  UNL A   1       5.541  48.771   4.626  1.00  0.00    +0.000 H 
ATOM    110  H11 UNL A   1       5.577  46.623   8.251  1.00  0.00    +0.000 H 
ATOM    109  H10 UNL A   1       4.542  47.131   6.131  1.00  0.00    +0.000 H 
ENDBRANCH    3    4
ENDBRANCH    2    3
ENDBRANCH   13    2
ENDBRANCH   15   13
ENDBRANCH   16   15
BRANCH   16   17
ATOM     17  C13 UNL A   1      12.812  46.681  12.691  1.00  0.00    +0.000 C 
ATOM    114  H15 UNL A   1      13.588  46.988  13.360  1.00  0.00    +0.000 H 
ATOM    115  H16 UNL A   1      13.132  46.111  11.845  1.00  0.00    +0.000 H 
BRANCH   17   18
ATOM     18  S1  UNL A   1      11.710  45.557  13.613  1.00  0.00    +0.000 S 
ATOM    116  H17 UNL A   1      12.352  44.380  13.841  1.00  0.00    +0.000 H 
ENDBRANCH   17   18
ENDBRANCH   16   17
ENDBRANCH   19   16
ENDBRANCH   21   19
ENDBRANCH   22   21
BRANCH   22   23
ATOM    119  H20 UNL A   1      13.755  50.332   9.130  1.00  0.00    +0.000 H 
ATOM     23  C16 UNL A   1      14.703  50.463   9.608  1.00  0.00    +0.000 C 
ATOM    120  H21 UNL A   1      15.366  49.650   9.392  1.00  0.00    +0.000 H 
BRANCH   23   24
ATOM    121  H22 UNL A   1      15.031  51.803   8.195  1.00  0.00    +0.000 H 
ATOM     24  O3  UNL A   1      15.305  51.659   9.114  1.00  0.00    +0.000 O 
ENDBRANCH   23   24
ENDBRANCH   22   23
ENDBRANCH   25   22
ENDBRANCH   27   25
ENDBRANCH   28   27
ENDBRANCH   29   28
ENDBRANCH   30   29
ENDBRANCH   31   30
ENDBRANCH   32   31
ENDBRANCH   33   32
ENDBRANCH   34   33
ENDBRANCH   35   34
ENDBRANCH   37   35
ENDBRANCH   41   40
BRANCH   45   46
ATOM     46  C33 UNL A   1      12.568  48.165   5.275  1.00  0.00    +0.000 C 
ATOM     47  C34 UNL A   1      13.116  47.522   6.396  1.00  0.00    +0.000 C 
ATOM     48  F1  UNL A   1      14.370  47.795   6.786  1.00  0.00    +0.000 F 
ATOM     49  C35 UNL A   1      12.389  46.564   7.099  1.00  0.00    +0.000 C 
ATOM     50  F2  UNL A   1      12.951  45.930   8.137  1.00  0.00    +0.000 F 
ATOM     51  C36 UNL A   1      11.092  46.258   6.720  1.00  0.00    +0.000 C 
ATOM     52  F3  UNL A   1      10.392  45.341   7.401  1.00  0.00    +0.000 F 
ATOM     53  C37 UNL A   1      10.523  46.895   5.627  1.00  0.00    +0.000 C 
ATOM     54  F4  UNL A   1       9.265  46.607   5.265  1.00  0.00    +0.000 F 
ATOM     55  C38 UNL A   1      11.257  47.832   4.904  1.00  0.00    +0.000 C 
ATOM     56  F5  UNL A   1      10.684  48.420   3.842  1.00  0.00    +0.000 F 
ENDBRANCH   45   46
BRANCH   62   63
ATOM     65  F6  UNL A   1      18.802  48.152   0.568  1.00  0.00    +0.000 F 
ATOM     66  C46 UNL A   1      18.437  47.071  -1.491  1.00  0.00    +0.000 C 
ATOM     67  F7  UNL A   1      19.646  46.500  -1.404  1.00  0.00    +0.000 F 
ATOM     68  C47 UNL A   1      17.632  46.823  -2.592  1.00  0.00    +0.000 C 
ATOM     69  F8  UNL A   1      18.052  45.995  -3.559  1.00  0.00    +0.000 F 
ATOM     70  C48 UNL A   1      16.393  47.436  -2.695  1.00  0.00    +0.000 C 
ATOM     71  F9  UNL A   1      15.608  47.187  -3.752  1.00  0.00    +0.000 F 
ATOM     72  C49 UNL A   1      15.964  48.313  -1.703  1.00  0.00    +0.000 C 
ATOM     73  F10 UNL A   1      14.766  48.902  -1.835  1.00  0.00    +0.000 F 
ATOM     63  C44 UNL A   1      16.759  48.572  -0.576  1.00  0.00    +0.000 C 
ATOM     64  C45 UNL A   1      18.000  47.924  -0.483  1.00  0.00    +0.000 C 
ENDBRANCH   62   63
BRANCH   77   78
ATOM     78  C53 UNL A   1      17.844  55.326   0.733  1.00  0.00    +0.000 C 
ATOM     79  C54 UNL A   1      17.395  55.953  -0.438  1.00  0.00    +0.000 C 
ATOM     80  F11 UNL A   1      16.225  55.589  -0.983  1.00  0.00    +0.000 F 
ATOM     81  C55 UNL A   1      18.162  56.925  -1.075  1.00  0.00    +0.000 C 
ATOM     82  F12 UNL A   1      17.730  57.476  -2.217  1.00  0.00    +0.000 F 
ATOM     83  C56 UNL A   1      19.382  57.311  -0.537  1.00  0.00    +0.000 C 
ATOM     84  F13 UNL A   1      20.119  58.248  -1.148  1.00  0.00    +0.000 F 
ATOM     85  C57 UNL A   1      19.838  56.718   0.630  1.00  0.00    +0.000 C 
ATOM     86  F14 UNL A   1      21.010  57.097   1.160  1.00  0.00    +0.000 F 
ATOM     87  C58 UNL A   1      19.083  55.726   1.253  1.00  0.00    +0.000 C 
ATOM     88  F15 UNL A   1      19.555  55.163   2.375  1.00  0.00    +0.000 F 
ENDBRANCH   77   78
TORSDOF 28
ENDMDL
MODEL 8
REMARK VINA RESULT:      -6.2      4.863      9.158
ROOT
ATOM    138  H39 UNL A   1      20.662  52.962  -5.853  1.00  0.00    +0.000 H 
ATOM    139  H40 UNL A   1      22.861  54.322  -6.198  1.00  0.00    +0.000 H 
ATOM    140  H41 UNL A   1      20.782  55.991  -3.029  1.00  0.00    +0.000 H 
ATOM    141  H42 UNL A   1      20.187  60.586   1.365  1.00  0.00    +0.000 H 
ATOM    142  H43 UNL A   1      18.053  59.248   1.701  1.00  0.00    +0.000 H 
ATOM    143  H44 UNL A   1      20.191  57.473  -1.391  1.00  0.00    +0.000 H 
ATOM    144  H45 UNL A   1      24.398  60.167  -1.903  1.00  0.00    +0.000 H 
ATOM    145  H46 UNL A   1      24.952  58.676  -3.909  1.00  0.00    +0.000 H 
ATOM    146  H47 UNL A   1      16.683  53.219  -2.261  1.00  0.00    +0.000 H 
ATOM    147  H48 UNL A   1      15.851  54.990  -0.610  1.00  0.00    +0.000 H 
ATOM     41  C29 UNL A   1      17.745  57.060  -0.100  1.00  0.00    +0.000 C 
ATOM     42  C30 UNL A   1      17.850  55.942  -1.099  1.00  0.00    +0.000 C 
ATOM     43  N7  UNL A   1      18.813  55.677  -1.946  1.00  0.00    +0.000 N 
ATOM     44  C31 UNL A   1      18.430  54.514  -2.600  1.00  0.00    +0.000 C 
ATOM     45  C32 UNL A   1      19.059  53.869  -3.612  1.00  0.00    +0.000 C 
ATOM     57  C39 UNL A   1      20.291  54.310  -4.210  1.00  0.00    +0.000 C 
ATOM     58  C40 UNL A   1      20.968  53.770  -5.289  1.00  0.00    +0.000 C 
ATOM     59  C41 UNL A   1      22.141  54.510  -5.484  1.00  0.00    +0.000 C 
ATOM     60  C42 UNL A   1      22.169  55.539  -4.554  1.00  0.00    +0.000 C 
ATOM     61  N8  UNL A   1      21.030  55.401  -3.778  1.00  0.00    +0.000 N 
ATOM     62  C43 UNL A   1      23.162  56.568  -4.386  1.00  0.00    +0.000 C 
ATOM     74  C50 UNL A   1      23.112  57.553  -3.457  1.00  0.00    +0.000 C 
ATOM     75  N9  UNL A   1      22.145  57.797  -2.492  1.00  0.00    +0.000 N 
ATOM     76  C51 UNL A   1      22.556  58.847  -1.825  1.00  0.00    +0.000 C 
ATOM     77  C52 UNL A   1      21.890  59.569  -0.686  1.00  0.00    +0.000 C 
ATOM     89  C59 UNL A   1      20.691  59.141  -0.249  1.00  0.00    +0.000 C 
ATOM     90  C60 UNL A   1      19.912  59.750   0.825  1.00  0.00    +0.000 C 
ATOM     91  C61 UNL A   1      18.780  59.048   0.996  1.00  0.00    +0.000 C 
ATOM     92  C62 UNL A   1      18.743  57.955   0.024  1.00  0.00    +0.000 C 
ATOM     93  N10 UNL A   1      19.922  58.082  -0.666  1.00  0.00    +0.000 N 
ATOM     94  C63 UNL A   1      23.848  59.378  -2.280  1.00  0.00    +0.000 C 
ATOM     95  C64 UNL A   1      24.123  58.580  -3.302  1.00  0.00    +0.000 C 
ATOM     96  C65 UNL A   1      17.175  54.094  -2.019  1.00  0.00    +0.000 C 
ATOM     97  C66 UNL A   1      16.738  54.979  -1.135  1.00  0.00    +0.000 C 
ENDROOT
BRANCH   41   40
ATOM     98  C67 UNL A   1      15.441  57.898   0.384  1.00  0.00    +0.000 C 
ATOM     99  C68 UNL A   1      14.347  58.034   1.234  1.00  0.00    +0.000 C 
ATOM     37  C25 UNL A   1      14.317  57.344   2.450  1.00  0.00    +0.000 C 
ATOM     38  C26 UNL A   1      15.428  56.606   2.865  1.00  0.00    +0.000 C 
ATOM     39  C27 UNL A   1      16.554  56.528   2.045  1.00  0.00    +0.000 C 
ATOM    136  H37 UNL A   1      15.416  56.121   3.776  1.00  0.00    +0.000 H 
ATOM     40  C28 UNL A   1      16.561  57.156   0.789  1.00  0.00    +0.000 C 
ATOM    137  H38 UNL A   1      17.386  56.007   2.363  1.00  0.00    +0.000 H 
ATOM    148  H49 UNL A   1      15.429  58.346  -0.546  1.00  0.00    +0.000 H 
ATOM    149  H50 UNL A   1      13.557  58.644   0.966  1.00  0.00    +0.000 H 
BRANCH   37   35
ATOM     35  C24 UNL A   1      13.132  57.396   3.334  1.00  0.00    +0.000 C 
ATOM     36  O5  UNL A   1      12.164  58.070   3.017  1.00  0.00    +0.000 O 
BRANCH   35   34
ATOM     34  N6  UNL A   1      13.132  56.698   4.515  1.00  0.00    +0.000 N 
ATOM    135  H36 UNL A   1      13.060  55.720   4.427  1.00  0.00    +0.000 H 
BRANCH   34   33
ATOM     33  C23 UNL A   1      13.224  57.195   5.875  1.00  0.00    +0.000 C 
ATOM    133  H34 UNL A   1      14.106  57.794   5.964  1.00  0.00    +0.000 H 
ATOM    134  H35 UNL A   1      12.342  57.768   6.075  1.00  0.00    +0.000 H 
BRANCH   33   32
ATOM    131  H32 UNL A   1      12.541  56.250   7.640  1.00  0.00    +0.000 H 
ATOM    132  H33 UNL A   1      13.137  55.160   6.353  1.00  0.00    +0.000 H 
ATOM     32  C22 UNL A   1      13.290  56.069   6.898  1.00  0.00    +0.000 C 
BRANCH   32   31
ATOM    129  H30 UNL A   1      15.375  55.685   6.872  1.00  0.00    +0.000 H 
ATOM    130  H31 UNL A   1      14.808  56.846   8.113  1.00  0.00    +0.000 H 
ATOM     31  C21 UNL A   1      14.636  55.918   7.610  1.00  0.00    +0.000 C 
BRANCH   31   30
ATOM     30  C20 UNL A   1      14.691  54.837   8.692  1.00  0.00    +0.000 C 
ATOM    127  H28 UNL A   1      15.637  54.913   9.189  1.00  0.00    +0.000 H 
ATOM    128  H29 UNL A   1      13.854  55.018   9.333  1.00  0.00    +0.000 H 
BRANCH   30   29
ATOM    125  H26 UNL A   1      13.526  53.266   7.864  1.00  0.00    +0.000 H 
ATOM     29  C19 UNL A   1      14.537  53.400   8.191  1.00  0.00    +0.000 C 
ATOM    126  H27 UNL A   1      15.254  53.275   7.406  1.00  0.00    +0.000 H 
BRANCH   29   28
ATOM    124  H25 UNL A   1      14.023  52.278   9.910  1.00  0.00    +0.000 H 
ATOM    123  H24 UNL A   1      15.753  52.579   9.731  1.00  0.00    +0.000 H 
ATOM     28  C18 UNL A   1      14.845  52.324   9.226  1.00  0.00    +0.000 C 
BRANCH   28   27
ATOM    122  H23 UNL A   1      14.230  50.411   8.727  1.00  0.00    +0.000 H 
ATOM     27  N5  UNL A   1      14.998  51.018   8.619  1.00  0.00    +0.000 N 
BRANCH   27   25
ATOM     25  C17 UNL A   1      16.050  50.508   7.922  1.00  0.00    +0.000 C 
ATOM     26  O4  UNL A   1      17.138  51.081   8.043  1.00  0.00    +0.000 O 
BRANCH   25   22
ATOM    118  H19 UNL A   1      14.988  49.455   6.453  1.00  0.00    +0.000 H 
ATOM     22  C15 UNL A   1      15.916  49.316   6.965  1.00  0.00    +0.000 C 
BRANCH   22   21
ATOM    117  H18 UNL A   1      17.885  49.423   6.159  1.00  0.00    +0.000 H 
ATOM     21  N4  UNL A   1      16.939  49.299   5.915  1.00  0.00    +0.000 N 
BRANCH   21   19
ATOM     19  C14 UNL A   1      16.603  49.115   4.612  1.00  0.00    +0.000 C 
ATOM     20  O2  UNL A   1      16.725  47.970   4.168  1.00  0.00    +0.000 O 
BRANCH   19   16
ATOM    113  H14 UNL A   1      16.708  50.300   2.874  1.00  0.00    +0.000 H 
ATOM     16  C12 UNL A   1      16.086  50.281   3.744  1.00  0.00    +0.000 C 
BRANCH   16   15
ATOM     15  N3  UNL A   1      14.720  49.993   3.335  1.00  0.00    +0.000 N 
ATOM    112  H13 UNL A   1      14.005  50.104   4.001  1.00  0.00    +0.000 H 
BRANCH   15   13
ATOM     13  C11 UNL A   1      14.374  49.577   2.072  1.00  0.00    +0.000 C 
ATOM     14  O1  UNL A   1      14.105  48.380   1.938  1.00  0.00    +0.000 O 
BRANCH   13    2
ATOM      2  C1  UNL A   1      14.244  50.573   0.884  1.00  0.00    +0.000 C 
ATOM    103  H4  UNL A   1      13.706  50.056   0.117  1.00  0.00    +0.000 H 
BRANCH    2    1
ATOM      1  N1  UNL A   1      13.397  51.727   1.255  1.00  0.00    +0.000 N 
ATOM    100  H1  UNL A   1      13.235  51.718   2.262  1.00  0.00    +0.000 H 
ATOM    101  H2  UNL A   1      12.503  51.664   0.766  1.00  0.00    +0.000 H 
ATOM    102  H3  UNL A   1      13.868  52.592   0.993  1.00  0.00    +0.000 H 
ENDBRANCH    2    1
BRANCH    2    3
ATOM    105  H6  UNL A   1      15.139  50.937  -0.937  1.00  0.00    +0.000 H 
ATOM      3  C2  UNL A   1      15.521  50.860   0.059  1.00  0.00    +0.000 C 
ATOM    104  H5  UNL A   1      15.979  51.719   0.500  1.00  0.00    +0.000 H 
BRANCH    3    4
ATOM      4  C3  UNL A   1      16.615  49.822  -0.092  1.00  0.00    +0.000 C 
ATOM      5  C4  UNL A   1      17.848  49.733   0.531  1.00  0.00    +0.000 C 
ATOM      6  N2  UNL A   1      18.432  48.542   0.181  1.00  0.00    +0.000 N 
ATOM      7  C5  UNL A   1      17.683  47.914  -0.781  1.00  0.00    +0.000 C 
ATOM      8  C6  UNL A   1      17.915  46.711  -1.461  1.00  0.00    +0.000 C 
ATOM      9  C7  UNL A   1      17.016  46.355  -2.469  1.00  0.00    +0.000 C 
ATOM    106  H7  UNL A   1      18.260  50.444   1.155  1.00  0.00    +0.000 H 
ATOM     11  C9  UNL A   1      15.677  48.331  -2.040  1.00  0.00    +0.000 C 
ATOM     12  C10 UNL A   1      16.571  48.720  -1.020  1.00  0.00    +0.000 C 
ATOM     10  C8  UNL A   1      15.921  47.161  -2.769  1.00  0.00    +0.000 C 
ATOM    107  H8  UNL A   1      19.268  48.190   0.565  1.00  0.00    +0.000 H 
ATOM    111  H12 UNL A   1      14.846  48.906  -2.248  1.00  0.00    +0.000 H 
ATOM    108  H9  UNL A   1      18.722  46.111  -1.227  1.00  0.00    +0.000 H 
ATOM    110  H11 UNL A   1      15.284  46.893  -3.534  1.00  0.00    +0.000 H 
ATOM    109  H10 UNL A   1      17.165  45.481  -2.998  1.00  0.00    +0.000 H 
ENDBRANCH    3    4
ENDBRANCH    2    3
ENDBRANCH   13    2
ENDBRANCH   15   13
ENDBRANCH   16   15
BRANCH   16   17
ATOM     17  C13 UNL A   1      16.412  51.725   4.152  1.00  0.00    +0.000 C 
ATOM    114  H15 UNL A   1      17.161  51.680   4.915  1.00  0.00    +0.000 H 
ATOM    115  H16 UNL A   1      15.473  52.140   4.452  1.00  0.00    +0.000 H 
BRANCH   17   18
ATOM     18  S1  UNL A   1      17.022  52.856   2.858  1.00  0.00    +0.000 S 
ATOM    116  H17 UNL A   1      18.364  53.022   2.996  1.00  0.00    +0.000 H 
ENDBRANCH   17   18
ENDBRANCH   16   17
ENDBRANCH   19   16
ENDBRANCH   21   19
ENDBRANCH   22   21
BRANCH   22   23
ATOM    119  H20 UNL A   1      15.392  48.158   8.682  1.00  0.00    +0.000 H 
ATOM     23  C16 UNL A   1      15.808  47.978   7.714  1.00  0.00    +0.000 C 
ATOM    120  H21 UNL A   1      16.792  47.561   7.782  1.00  0.00    +0.000 H 
BRANCH   23   24
ATOM    121  H22 UNL A   1      14.206  47.491   6.667  1.00  0.00    +0.000 H 
ATOM     24  O3  UNL A   1      14.983  47.037   7.027  1.00  0.00    +0.000 O 
ENDBRANCH   23   24
ENDBRANCH   22   23
ENDBRANCH   25   22
ENDBRANCH   27   25
ENDBRANCH   28   27
ENDBRANCH   29   28
ENDBRANCH   30   29
ENDBRANCH   31   30
ENDBRANCH   32   31
ENDBRANCH   33   32
ENDBRANCH   34   33
ENDBRANCH   35   34
ENDBRANCH   37   35
ENDBRANCH   41   40
BRANCH   45   46
ATOM     46  C33 UNL A   1      18.420  52.618  -4.142  1.00  0.00    +0.000 C 
ATOM     47  C34 UNL A   1      17.471  52.659  -5.175  1.00  0.00    +0.000 C 
ATOM     48  F1  UNL A   1      17.076  53.836  -5.684  1.00  0.00    +0.000 F 
ATOM     49  C35 UNL A   1      16.893  51.490  -5.664  1.00  0.00    +0.000 C 
ATOM     50  F2  UNL A   1      15.954  51.558  -6.618  1.00  0.00    +0.000 F 
ATOM     51  C36 UNL A   1      17.278  50.258  -5.157  1.00  0.00    +0.000 C 
ATOM     52  F3  UNL A   1      16.726  49.134  -5.632  1.00  0.00    +0.000 F 
ATOM     53  C37 UNL A   1      18.228  50.193  -4.150  1.00  0.00    +0.000 C 
ATOM     54  F4  UNL A   1      18.610  49.003  -3.665  1.00  0.00    +0.000 F 
ATOM     55  C38 UNL A   1      18.787  51.362  -3.639  1.00  0.00    +0.000 C 
ATOM     56  F5  UNL A   1      19.693  51.267  -2.653  1.00  0.00    +0.000 F 
ENDBRANCH   45   46
BRANCH   62   63
ATOM     65  F6  UNL A   1      23.163  57.846  -6.951  1.00  0.00    +0.000 F 
ATOM     66  C46 UNL A   1      25.389  57.232  -7.408  1.00  0.00    +0.000 C 
ATOM     67  F7  UNL A   1      25.309  57.833  -8.603  1.00  0.00    +0.000 F 
ATOM     68  C47 UNL A   1      26.564  56.599  -7.029  1.00  0.00    +0.000 C 
ATOM     69  F8  UNL A   1      27.625  56.606  -7.849  1.00  0.00    +0.000 F 
ATOM     70  C48 UNL A   1      26.638  55.953  -5.805  1.00  0.00    +0.000 C 
ATOM     71  F9  UNL A   1      27.775  55.352  -5.432  1.00  0.00    +0.000 F 
ATOM     72  C49 UNL A   1      25.530  55.925  -4.963  1.00  0.00    +0.000 C 
ATOM     73  F10 UNL A   1      25.625  55.282  -3.790  1.00  0.00    +0.000 F 
ATOM     63  C44 UNL A   1      24.334  56.567  -5.322  1.00  0.00    +0.000 C 
ATOM     64  C45 UNL A   1      24.289  57.232  -6.556  1.00  0.00    +0.000 C 
ENDBRANCH   62   63
BRANCH   77   78
ATOM     78  C53 UNL A   1      22.523  60.760  -0.064  1.00  0.00    +0.000 C 
ATOM     79  C54 UNL A   1      22.260  62.050  -0.547  1.00  0.00    +0.000 C 
ATOM     80  F11 UNL A   1      21.443  62.216  -1.597  1.00  0.00    +0.000 F 
ATOM     81  C55 UNL A   1      22.867  63.169   0.019  1.00  0.00    +0.000 C 
ATOM     82  F12 UNL A   1      22.633  64.386  -0.490  1.00  0.00    +0.000 F 
ATOM     83  C56 UNL A   1      23.726  63.022   1.099  1.00  0.00    +0.000 C 
ATOM     84  F13 UNL A   1      24.307  64.099   1.645  1.00  0.00    +0.000 F 
ATOM     85  C57 UNL A   1      23.986  61.759   1.605  1.00  0.00    +0.000 C 
ATOM     86  F14 UNL A   1      24.805  61.614   2.658  1.00  0.00    +0.000 F 
ATOM     87  C58 UNL A   1      23.400  60.636   1.023  1.00  0.00    +0.000 C 
ATOM     88  F15 UNL A   1      23.679  59.425   1.527  1.00  0.00    +0.000 F 
ENDBRANCH   77   78
TORSDOF 28
ENDMDL
MODEL 9
REMARK VINA RESULT:      -6.1     36.282     42.781
ROOT
ATOM    138  H39 UNL A   1      12.025  10.908  16.277  1.00  0.00    +0.000 H 
ATOM    139  H40 UNL A   1      12.054  13.152  14.947  1.00  0.00    +0.000 H 
ATOM    140  H41 UNL A   1      11.537  14.027  18.961  1.00  0.00    +0.000 H 
ATOM    141  H42 UNL A   1      10.455  18.305  23.576  1.00  0.00    +0.000 H 
ATOM    142  H43 UNL A   1      10.440  16.115  24.866  1.00  0.00    +0.000 H 
ATOM    143  H44 UNL A   1      11.100  15.225  20.860  1.00  0.00    +0.000 H 
ATOM    144  H45 UNL A   1      11.171  19.628  18.446  1.00  0.00    +0.000 H 
ATOM    145  H46 UNL A   1      11.401  18.287  16.277  1.00  0.00    +0.000 H 
ATOM    146  H47 UNL A   1      11.710   9.713  21.499  1.00  0.00    +0.000 H 
ATOM    147  H48 UNL A   1      10.960  10.972  23.599  1.00  0.00    +0.000 H 
ATOM     41  C29 UNL A   1      10.805  13.798  23.246  1.00  0.00    +0.000 C 
ATOM     42  C30 UNL A   1      11.085  12.754  22.201  1.00  0.00    +0.000 C 
ATOM     43  N7  UNL A   1      11.311  12.904  20.921  1.00  0.00    +0.000 N 
ATOM     44  C31 UNL A   1      11.553  11.629  20.428  1.00  0.00    +0.000 C 
ATOM     45  C32 UNL A   1      11.776  11.248  19.147  1.00  0.00    +0.000 C 
ATOM     57  C39 UNL A   1      11.794  12.150  18.027  1.00  0.00    +0.000 C 
ATOM     58  C40 UNL A   1      11.935  11.853  16.682  1.00  0.00    +0.000 C 
ATOM     59  C41 UNL A   1      11.935  13.056  15.967  1.00  0.00    +0.000 C 
ATOM     60  C42 UNL A   1      11.748  14.099  16.862  1.00  0.00    +0.000 C 
ATOM     61  N8  UNL A   1      11.666  13.528  18.122  1.00  0.00    +0.000 N 
ATOM     62  C43 UNL A   1      11.651  15.509  16.589  1.00  0.00    +0.000 C 
ATOM     74  C50 UNL A   1      11.453  16.471  17.523  1.00  0.00    +0.000 C 
ATOM     75  N9  UNL A   1      11.303  16.339  18.896  1.00  0.00    +0.000 N 
ATOM     76  C51 UNL A   1      11.157  17.555  19.362  1.00  0.00    +0.000 C 
ATOM     77  C52 UNL A   1      10.931  18.008  20.779  1.00  0.00    +0.000 C 
ATOM     89  C59 UNL A   1      10.836  17.086  21.755  1.00  0.00    +0.000 C 
ATOM     90  C60 UNL A   1      10.593  17.367  23.167  1.00  0.00    +0.000 C 
ATOM     91  C61 UNL A   1      10.576  16.209  23.847  1.00  0.00    +0.000 C 
ATOM     92  C62 UNL A   1      10.780  15.102  22.912  1.00  0.00    +0.000 C 
ATOM     93  N10 UNL A   1      10.934  15.717  21.695  1.00  0.00    +0.000 N 
ATOM     94  C63 UNL A   1      11.222  18.603  18.335  1.00  0.00    +0.000 C 
ATOM     95  C64 UNL A   1      11.361  17.887  17.228  1.00  0.00    +0.000 C 
ATOM     96  C65 UNL A   1      11.500  10.723  21.553  1.00  0.00    +0.000 C 
ATOM     97  C66 UNL A   1      11.145  11.357  22.661  1.00  0.00    +0.000 C 
ENDROOT
BRANCH   41   40
ATOM     98  C67 UNL A   1       9.321  13.053  25.113  1.00  0.00    +0.000 C 
ATOM     99  C68 UNL A   1       9.115  12.727  26.451  1.00  0.00    +0.000 C 
ATOM     37  C25 UNL A   1      10.203  12.645  27.325  1.00  0.00    +0.000 C 
ATOM     38  C26 UNL A   1      11.483  12.994  26.887  1.00  0.00    +0.000 C 
ATOM     39  C27 UNL A   1      11.678  13.389  25.563  1.00  0.00    +0.000 C 
ATOM    136  H37 UNL A   1      12.281  12.960  27.541  1.00  0.00    +0.000 H 
ATOM     40  C28 UNL A   1      10.603  13.401  24.661  1.00  0.00    +0.000 C 
ATOM    137  H38 UNL A   1      12.618  13.674  25.246  1.00  0.00    +0.000 H 
ATOM    148  H49 UNL A   1       8.529  13.039  24.452  1.00  0.00    +0.000 H 
ATOM    149  H50 UNL A   1       8.159  12.548  26.797  1.00  0.00    +0.000 H 
BRANCH   37   35
ATOM     35  C24 UNL A   1      10.029  12.215  28.730  1.00  0.00    +0.000 C 
ATOM     36  O5  UNL A   1      10.997  11.857  29.383  1.00  0.00    +0.000 O 
BRANCH   35   34
ATOM     34  N6  UNL A   1       8.776  12.208  29.290  1.00  0.00    +0.000 N 
ATOM    135  H36 UNL A   1       8.406  13.094  29.507  1.00  0.00    +0.000 H 
BRANCH   34   33
ATOM     33  C23 UNL A   1       7.920  11.081  29.607  1.00  0.00    +0.000 C 
ATOM    133  H34 UNL A   1       7.950  10.912  30.664  1.00  0.00    +0.000 H 
ATOM    134  H35 UNL A   1       6.930  11.319  29.278  1.00  0.00    +0.000 H 
BRANCH   33   32
ATOM    131  H32 UNL A   1       9.336   9.968  28.497  1.00  0.00    +0.000 H 
ATOM    132  H33 UNL A   1       8.316   9.027  29.626  1.00  0.00    +0.000 H 
ATOM     32  C22 UNL A   1       8.355   9.807  28.895  1.00  0.00    +0.000 C 
BRANCH   32   31
ATOM    129  H30 UNL A   1       7.249  10.217  27.133  1.00  0.00    +0.000 H 
ATOM    130  H31 UNL A   1       7.971   8.580  27.242  1.00  0.00    +0.000 H 
ATOM     31  C21 UNL A   1       7.445   9.363  27.748  1.00  0.00    +0.000 C 
BRANCH   31   30
ATOM     30  C20 UNL A   1       6.101   8.763  28.168  1.00  0.00    +0.000 C 
ATOM    127  H28 UNL A   1       6.285   8.045  28.941  1.00  0.00    +0.000 H 
ATOM    128  H29 UNL A   1       5.496   9.587  28.483  1.00  0.00    +0.000 H 
BRANCH   30   29
ATOM    125  H26 UNL A   1       4.292   8.360  27.131  1.00  0.00    +0.000 H 
ATOM     29  C19 UNL A   1       5.318   8.066  27.053  1.00  0.00    +0.000 C 
ATOM    126  H27 UNL A   1       5.775   8.363  26.133  1.00  0.00    +0.000 H 
BRANCH   29   28
ATOM    124  H25 UNL A   1       5.013   6.219  28.040  1.00  0.00    +0.000 H 
ATOM    123  H24 UNL A   1       6.389   6.231  26.935  1.00  0.00    +0.000 H 
ATOM     28  C18 UNL A   1       5.377   6.543  27.088  1.00  0.00    +0.000 C 
BRANCH   28   27
ATOM    122  H23 UNL A   1       3.659   6.363  25.946  1.00  0.00    +0.000 H 
ATOM     27  N5  UNL A   1       4.544   5.947  26.063  1.00  0.00    +0.000 N 
BRANCH   27   25
ATOM     25  C17 UNL A   1       4.808   4.897  25.239  1.00  0.00    +0.000 C 
ATOM     26  O4  UNL A   1       4.670   3.763  25.709  1.00  0.00    +0.000 O 
BRANCH   25   22
ATOM    118  H19 UNL A   1       5.291   4.099  23.361  1.00  0.00    +0.000 H 
ATOM     22  C15 UNL A   1       5.319   5.072  23.803  1.00  0.00    +0.000 C 
BRANCH   22   21
ATOM    117  H18 UNL A   1       3.568   5.545  22.687  1.00  0.00    +0.000 H 
ATOM     21  N4  UNL A   1       4.441   5.901  22.972  1.00  0.00    +0.000 N 
BRANCH   21   19
ATOM     19  C14 UNL A   1       4.813   7.149  22.586  1.00  0.00    +0.000 C 
ATOM     20  O2  UNL A   1       5.309   7.253  21.462  1.00  0.00    +0.000 O 
BRANCH   19   16
ATOM    113  H14 UNL A   1       4.406   7.972  24.482  1.00  0.00    +0.000 H 
ATOM     16  C12 UNL A   1       4.611   8.368  23.510  1.00  0.00    +0.000 C 
BRANCH   16   15
ATOM     15  N3  UNL A   1       5.850   9.126  23.567  1.00  0.00    +0.000 N 
ATOM    112  H13 UNL A   1       6.633   8.705  23.988  1.00  0.00    +0.000 H 
BRANCH   15   13
ATOM     13  C11 UNL A   1       5.989  10.398  23.063  1.00  0.00    +0.000 C 
ATOM     14  O1  UNL A   1       5.999  11.320  23.884  1.00  0.00    +0.000 O 
BRANCH   13    2
ATOM      2  C1  UNL A   1       6.209  10.664  21.546  1.00  0.00    +0.000 C 
ATOM    103  H4  UNL A   1       6.235   9.704  21.075  1.00  0.00    +0.000 H 
BRANCH    2    1
ATOM      1  N1  UNL A   1       5.046  11.364  20.961  1.00  0.00    +0.000 N 
ATOM    100  H1  UNL A   1       4.563  11.888  21.691  1.00  0.00    +0.000 H 
ATOM    101  H2  UNL A   1       4.407  10.681  20.554  1.00  0.00    +0.000 H 
ATOM    102  H3  UNL A   1       5.366  12.006  20.236  1.00  0.00    +0.000 H 
ENDBRANCH    2    1
BRANCH    2    3
ATOM    105  H6  UNL A   1       8.107  11.294  22.046  1.00  0.00    +0.000 H 
ATOM      3  C2  UNL A   1       7.619  11.128  21.108  1.00  0.00    +0.000 C 
ATOM    104  H5  UNL A   1       7.999  10.369  20.459  1.00  0.00    +0.000 H 
BRANCH    3    4
ATOM      4  C3  UNL A   1       7.830  12.447  20.394  1.00  0.00    +0.000 C 
ATOM      5  C4  UNL A   1       8.301  12.701  19.116  1.00  0.00    +0.000 C 
ATOM      6  N2  UNL A   1       8.182  14.044  18.864  1.00  0.00    +0.000 N 
ATOM      7  C5  UNL A   1       7.791  14.706  19.999  1.00  0.00    +0.000 C 
ATOM      8  C6  UNL A   1       7.590  16.075  20.222  1.00  0.00    +0.000 C 
ATOM      9  C7  UNL A   1       7.275  16.480  21.521  1.00  0.00    +0.000 C 
ATOM    106  H7  UNL A   1       8.678  11.997  18.463  1.00  0.00    +0.000 H 
ATOM     11  C9  UNL A   1       7.299  14.180  22.295  1.00  0.00    +0.000 C 
ATOM     12  C10 UNL A   1       7.624  13.742  20.993  1.00  0.00    +0.000 C 
ATOM     10  C8  UNL A   1       7.149  15.549  22.549  1.00  0.00    +0.000 C 
ATOM    107  H8  UNL A   1       8.353  14.471  17.993  1.00  0.00    +0.000 H 
ATOM    111  H12 UNL A   1       7.173  13.496  23.056  1.00  0.00    +0.000 H 
ATOM    108  H9  UNL A   1       7.674  16.759  19.453  1.00  0.00    +0.000 H 
ATOM    110  H11 UNL A   1       6.942  15.871  23.507  1.00  0.00    +0.000 H 
ATOM    109  H10 UNL A   1       7.134  17.482  21.721  1.00  0.00    +0.000 H 
ENDBRANCH    3    4
ENDBRANCH    2    3
ENDBRANCH   13    2
ENDBRANCH   15   13
ENDBRANCH   16   15
BRANCH   16   17
ATOM     17  C13 UNL A   1       3.299   9.164  23.431  1.00  0.00    +0.000 C 
ATOM    114  H15 UNL A   1       3.547  10.199  23.533  1.00  0.00    +0.000 H 
ATOM    115  H16 UNL A   1       2.689   8.757  24.209  1.00  0.00    +0.000 H 
BRANCH   17   18
ATOM     18  S1  UNL A   1       2.293   8.992  21.920  1.00  0.00    +0.000 S 
ATOM    116  H17 UNL A   1       0.984   8.848  22.261  1.00  0.00    +0.000 H 
ENDBRANCH   17   18
ENDBRANCH   16   17
ENDBRANCH   19   16
ENDBRANCH   21   19
ENDBRANCH   22   21
BRANCH   22   23
ATOM    119  H20 UNL A   1       7.209   5.424  24.736  1.00  0.00    +0.000 H 
ATOM     23  C16 UNL A   1       6.786   5.531  23.759  1.00  0.00    +0.000 C 
ATOM    120  H21 UNL A   1       6.800   6.551  23.435  1.00  0.00    +0.000 H 
BRANCH   23   24
ATOM    121  H22 UNL A   1       7.576   3.840  23.114  1.00  0.00    +0.000 H 
ATOM     24  O3  UNL A   1       7.565   4.769  22.838  1.00  0.00    +0.000 O 
ENDBRANCH   23   24
ENDBRANCH   22   23
ENDBRANCH   25   22
ENDBRANCH   27   25
ENDBRANCH   28   27
ENDBRANCH   29   28
ENDBRANCH   30   29
ENDBRANCH   31   30
ENDBRANCH   32   31
ENDBRANCH   33   32
ENDBRANCH   34   33
ENDBRANCH   35   34
ENDBRANCH   37   35
ENDBRANCH   41   40
BRANCH   45   46
ATOM     46  C33 UNL A   1      12.012   9.788  18.888  1.00  0.00    +0.000 C 
ATOM     47  C34 UNL A   1      13.286   9.214  19.023  1.00  0.00    +0.000 C 
ATOM     48  F1  UNL A   1      14.341   9.978  19.342  1.00  0.00    +0.000 F 
ATOM     49  C35 UNL A   1      13.487   7.856  18.789  1.00  0.00    +0.000 C 
ATOM     50  F2  UNL A   1      14.721   7.340  18.877  1.00  0.00    +0.000 F 
ATOM     51  C36 UNL A   1      12.418   7.040  18.454  1.00  0.00    +0.000 C 
ATOM     52  F3  UNL A   1      12.612   5.733  18.236  1.00  0.00    +0.000 F 
ATOM     53  C37 UNL A   1      11.147   7.583  18.336  1.00  0.00    +0.000 C 
ATOM     54  F4  UNL A   1      10.109   6.794  18.022  1.00  0.00    +0.000 F 
ATOM     55  C38 UNL A   1      10.946   8.946  18.540  1.00  0.00    +0.000 C 
ATOM     56  F5  UNL A   1       9.707   9.443  18.403  1.00  0.00    +0.000 F 
ENDBRANCH   45   46
BRANCH   62   63
ATOM     65  F6  UNL A   1      14.113  16.259  15.329  1.00  0.00    +0.000 F 
ATOM     66  C46 UNL A   1      13.082  16.682  13.256  1.00  0.00    +0.000 C 
ATOM     67  F7  UNL A   1      14.267  17.039  12.741  1.00  0.00    +0.000 F 
ATOM     68  C47 UNL A   1      11.943  16.724  12.466  1.00  0.00    +0.000 C 
ATOM     69  F8  UNL A   1      12.029  17.101  11.183  1.00  0.00    +0.000 F 
ATOM     70  C48 UNL A   1      10.713  16.381  13.007  1.00  0.00    +0.000 C 
ATOM     71  F9  UNL A   1       9.614  16.409  12.242  1.00  0.00    +0.000 F 
ATOM     72  C49 UNL A   1      10.619  16.011  14.345  1.00  0.00    +0.000 C 
ATOM     73  F10 UNL A   1       9.414  15.697  14.845  1.00  0.00    +0.000 F 
ATOM     63  C44 UNL A   1      11.759  15.952  15.160  1.00  0.00    +0.000 C 
ATOM     64  C45 UNL A   1      12.996  16.284  14.586  1.00  0.00    +0.000 C 
ENDBRANCH   62   63
BRANCH   77   78
ATOM     78  C53 UNL A   1      10.782  19.449  21.104  1.00  0.00    +0.000 C 
ATOM     79  C54 UNL A   1      11.889  20.220  21.485  1.00  0.00    +0.000 C 
ATOM     80  F11 UNL A   1      13.100  19.650  21.578  1.00  0.00    +0.000 F 
ATOM     81  C55 UNL A   1      11.751  21.567  21.812  1.00  0.00    +0.000 C 
ATOM     82  F12 UNL A   1      12.818  22.269  22.216  1.00  0.00    +0.000 F 
ATOM     83  C56 UNL A   1      10.507  22.177  21.735  1.00  0.00    +0.000 C 
ATOM     84  F13 UNL A   1      10.376  23.473  22.047  1.00  0.00    +0.000 F 
ATOM     85  C57 UNL A   1       9.401  21.439  21.343  1.00  0.00    +0.000 C 
ATOM     86  F14 UNL A   1       8.200  22.028  21.255  1.00  0.00    +0.000 F 
ATOM     87  C58 UNL A   1       9.534  20.085  21.042  1.00  0.00    +0.000 C 
ATOM     88  F15 UNL A   1       8.444  19.394  20.676  1.00  0.00    +0.000 F 
ENDBRANCH   77   78
TORSDOF 28
ENDMDL
MODEL 10
REMARK VINA RESULT:      -6.1      3.086      7.540
ROOT
ATOM    138  H39 UNL A   1      18.247  50.687  -2.404  1.00  0.00    +0.000 H 
ATOM    139  H40 UNL A   1      18.799  53.231  -2.247  1.00  0.00    +0.000 H 
ATOM    140  H41 UNL A   1      16.369  52.228   0.953  1.00  0.00    +0.000 H 
ATOM    141  H42 UNL A   1      12.983  53.994   6.070  1.00  0.00    +0.000 H 
ATOM    142  H43 UNL A   1      12.459  51.512   5.916  1.00  0.00    +0.000 H 
ATOM    143  H44 UNL A   1      15.011  52.469   2.778  1.00  0.00    +0.000 H 
ATOM    144  H45 UNL A   1      16.013  57.368   3.239  1.00  0.00    +0.000 H 
ATOM    145  H46 UNL A   1      17.326  57.172   1.050  1.00  0.00    +0.000 H 
ATOM    146  H47 UNL A   1      15.516  47.298   0.736  1.00  0.00    +0.000 H 
ATOM    147  H48 UNL A   1      13.785  47.562   2.605  1.00  0.00    +0.000 H 
ATOM     41  C29 UNL A   1      13.676  50.192   3.701  1.00  0.00    +0.000 C 
ATOM     42  C30 UNL A   1      14.477  49.720   2.520  1.00  0.00    +0.000 C 
ATOM     43  N7  UNL A   1      15.284  50.398   1.744  1.00  0.00    +0.000 N 
ATOM     44  C31 UNL A   1      15.798  49.478   0.839  1.00  0.00    +0.000 C 
ATOM     45  C32 UNL A   1      16.629  49.698  -0.208  1.00  0.00    +0.000 C 
ATOM     57  C39 UNL A   1      17.139  50.991  -0.577  1.00  0.00    +0.000 C 
ATOM     58  C40 UNL A   1      17.925  51.331  -1.665  1.00  0.00    +0.000 C 
ATOM     59  C41 UNL A   1      18.208  52.699  -1.588  1.00  0.00    +0.000 C 
ATOM     60  C42 UNL A   1      17.560  53.220  -0.479  1.00  0.00    +0.000 C 
ATOM     61  N8  UNL A   1      16.911  52.161   0.133  1.00  0.00    +0.000 N 
ATOM     62  C43 UNL A   1      17.536  54.582  -0.012  1.00  0.00    +0.000 C 
ATOM     74  C50 UNL A   1      16.864  55.018   1.081  1.00  0.00    +0.000 C 
ATOM     75  N9  UNL A   1      16.078  54.298   1.970  1.00  0.00    +0.000 N 
ATOM     76  C51 UNL A   1      15.665  55.159   2.867  1.00  0.00    +0.000 C 
ATOM     77  C52 UNL A   1      14.762  54.938   4.049  1.00  0.00    +0.000 C 
ATOM     89  C59 UNL A   1      14.255  53.710   4.268  1.00  0.00    +0.000 C 
ATOM     90  C60 UNL A   1      13.347  53.347   5.353  1.00  0.00    +0.000 C 
ATOM     91  C61 UNL A   1      13.064  52.038   5.265  1.00  0.00    +0.000 C 
ATOM     92  C62 UNL A   1      13.750  51.476   4.101  1.00  0.00    +0.000 C 
ATOM     93  N10 UNL A   1      14.439  52.539   3.575  1.00  0.00    +0.000 N 
ATOM     94  C63 UNL A   1      16.163  56.526   2.661  1.00  0.00    +0.000 C 
ATOM     95  C64 UNL A   1      16.854  56.394   1.537  1.00  0.00    +0.000 C 
ATOM     96  C65 UNL A   1      15.255  48.186   1.194  1.00  0.00    +0.000 C 
ATOM     97  C66 UNL A   1      14.379  48.291   2.183  1.00  0.00    +0.000 C 
ENDROOT
BRANCH   41   40
ATOM     98  C67 UNL A   1      11.493  49.049   4.112  1.00  0.00    +0.000 C 
ATOM     99  C68 UNL A   1      10.687  48.190   4.854  1.00  0.00    +0.000 C 
ATOM     37  C25 UNL A   1      11.243  47.430   5.888  1.00  0.00    +0.000 C 
ATOM     38  C26 UNL A   1      12.580  47.611   6.250  1.00  0.00    +0.000 C 
ATOM     39  C27 UNL A   1      13.369  48.525   5.552  1.00  0.00    +0.000 C 
ATOM    136  H37 UNL A   1      12.981  47.070   7.033  1.00  0.00    +0.000 H 
ATOM     40  C28 UNL A   1      12.838  49.235   4.464  1.00  0.00    +0.000 C 
ATOM    137  H38 UNL A   1      14.349  48.679   5.837  1.00  0.00    +0.000 H 
ATOM    148  H49 UNL A   1      11.099  49.551   3.301  1.00  0.00    +0.000 H 
ATOM    149  H50 UNL A   1       9.679  48.114   4.641  1.00  0.00    +0.000 H 
BRANCH   37   35
ATOM     35  C24 UNL A   1      10.434  46.444   6.637  1.00  0.00    +0.000 C 
ATOM     36  O5  UNL A   1      10.869  45.318   6.829  1.00  0.00    +0.000 O 
BRANCH   35   34
ATOM     34  N6  UNL A   1       9.190  46.793   7.100  1.00  0.00    +0.000 N 
ATOM    135  H36 UNL A   1       8.524  46.998   6.405  1.00  0.00    +0.000 H 
BRANCH   34   33
ATOM     33  C23 UNL A   1       8.718  46.901   8.467  1.00  0.00    +0.000 C 
ATOM    133  H34 UNL A   1       7.777  47.410   8.467  1.00  0.00    +0.000 H 
ATOM    134  H35 UNL A   1       8.626  45.911   8.862  1.00  0.00    +0.000 H 
BRANCH   33   32
ATOM    131  H32 UNL A   1      10.495  48.015   8.741  1.00  0.00    +0.000 H 
ATOM    132  H33 UNL A   1       9.125  48.460   9.802  1.00  0.00    +0.000 H 
ATOM     32  C22 UNL A   1       9.690  47.668   9.354  1.00  0.00    +0.000 C 
BRANCH   32   31
ATOM    129  H30 UNL A   1      10.655  47.555  11.239  1.00  0.00    +0.000 H 
ATOM    130  H31 UNL A   1       9.497  46.238  10.871  1.00  0.00    +0.000 H 
ATOM     31  C21 UNL A   1      10.287  46.863  10.510  1.00  0.00    +0.000 C 
BRANCH   31   30
ATOM     30  C20 UNL A   1      11.432  45.919  10.134  1.00  0.00    +0.000 C 
ATOM    127  H28 UNL A   1      11.004  44.993   9.808  1.00  0.00    +0.000 H 
ATOM    128  H29 UNL A   1      11.992  46.423   9.375  1.00  0.00    +0.000 H 
BRANCH   30   29
ATOM    125  H26 UNL A   1      12.872  44.661  11.057  1.00  0.00    +0.000 H 
ATOM     29  C19 UNL A   1      12.423  45.612  11.258  1.00  0.00    +0.000 C 
ATOM    126  H27 UNL A   1      13.127  46.417  11.268  1.00  0.00    +0.000 H 
BRANCH   29   28
ATOM    124  H25 UNL A   1      11.212  44.677  12.720  1.00  0.00    +0.000 H 
ATOM    123  H24 UNL A   1      11.221  46.440  12.806  1.00  0.00    +0.000 H 
ATOM     28  C18 UNL A   1      11.811  45.560  12.653  1.00  0.00    +0.000 C 
BRANCH   28   27
ATOM    122  H23 UNL A   1      13.526  44.816  13.544  1.00  0.00    +0.000 H 
ATOM     27  N5  UNL A   1      12.826  45.494  13.685  1.00  0.00    +0.000 N 
BRANCH   27   25
ATOM     25  C17 UNL A   1      12.951  46.232  14.821  1.00  0.00    +0.000 C 
ATOM     26  O4  UNL A   1      13.842  45.903  15.612  1.00  0.00    +0.000 O 
BRANCH   25   22
ATOM    118  H19 UNL A   1      12.579  48.062  15.773  1.00  0.00    +0.000 H 
ATOM     22  C15 UNL A   1      12.006  47.388  15.173  1.00  0.00    +0.000 C 
BRANCH   22   21
ATOM    117  H18 UNL A   1      10.690  48.026  13.625  1.00  0.00    +0.000 H 
ATOM     21  N4  UNL A   1      11.586  48.169  14.006  1.00  0.00    +0.000 N 
BRANCH   21   19
ATOM     19  C14 UNL A   1      12.414  49.086  13.441  1.00  0.00    +0.000 C 
ATOM     20  O2  UNL A   1      12.800  48.847  12.294  1.00  0.00    +0.000 O 
BRANCH   19   16
ATOM    113  H14 UNL A   1      13.635  50.071  14.847  1.00  0.00    +0.000 H 
ATOM     16  C12 UNL A   1      12.835  50.362  14.199  1.00  0.00    +0.000 C 
BRANCH   16   15
ATOM     15  N3  UNL A   1      13.341  51.333  13.241  1.00  0.00    +0.000 N 
ATOM    112  H13 UNL A   1      12.688  51.863  12.731  1.00  0.00    +0.000 H 
BRANCH   15   13
ATOM     13  C11 UNL A   1      14.678  51.551  13.011  1.00  0.00    +0.000 C 
ATOM     14  O1  UNL A   1      15.427  51.478  13.989  1.00  0.00    +0.000 O 
BRANCH   13    2
ATOM      2  C1  UNL A   1      15.238  51.794  11.580  1.00  0.00    +0.000 C 
ATOM    103  H4  UNL A   1      15.206  52.852  11.421  1.00  0.00    +0.000 H 
BRANCH    2    1
ATOM      1  N1  UNL A   1      16.668  51.422  11.504  1.00  0.00    +0.000 N 
ATOM    100  H1  UNL A   1      17.196  52.192  11.092  1.00  0.00    +0.000 H 
ATOM    101  H2  UNL A   1      16.772  50.590  10.924  1.00  0.00    +0.000 H 
ATOM    102  H3  UNL A   1      17.019  51.231  12.442  1.00  0.00    +0.000 H 
ENDBRANCH    2    1
BRANCH    2    3
ATOM    105  H6  UNL A   1      15.016  51.403   9.568  1.00  0.00    +0.000 H 
ATOM      3  C2  UNL A   1      14.332  51.396  10.390  1.00  0.00    +0.000 C 
ATOM    104  H5  UNL A   1      13.866  50.473  10.661  1.00  0.00    +0.000 H 
BRANCH    3    4
ATOM      4  C3  UNL A   1      13.225  52.307   9.900  1.00  0.00    +0.000 C 
ATOM      5  C4  UNL A   1      12.946  53.624  10.228  1.00  0.00    +0.000 C 
ATOM      6  N2  UNL A   1      11.930  54.071   9.423  1.00  0.00    +0.000 N 
ATOM      7  C5  UNL A   1      11.426  53.035   8.679  1.00  0.00    +0.000 C 
ATOM      8  C6  UNL A   1      10.364  53.014   7.765  1.00  0.00    +0.000 C 
ATOM      9  C7  UNL A   1      10.008  51.780   7.215  1.00  0.00    +0.000 C 
ATOM    106  H7  UNL A   1      13.423  54.176  10.958  1.00  0.00    +0.000 H 
ATOM     11  C9  UNL A   1      11.795  50.671   8.425  1.00  0.00    +0.000 C 
ATOM     12  C10 UNL A   1      12.173  51.902   9.001  1.00  0.00    +0.000 C 
ATOM     10  C8  UNL A   1      10.701  50.620   7.552  1.00  0.00    +0.000 C 
ATOM    107  H8  UNL A   1      11.609  55.001   9.384  1.00  0.00    +0.000 H 
ATOM    111  H12 UNL A   1      12.322  49.812   8.645  1.00  0.00    +0.000 H 
ATOM    108  H9  UNL A   1       9.861  53.879   7.510  1.00  0.00    +0.000 H 
ATOM    110  H11 UNL A   1      10.406  49.715   7.155  1.00  0.00    +0.000 H 
ATOM    109  H10 UNL A   1       9.222  51.728   6.548  1.00  0.00    +0.000 H 
ENDBRANCH    3    4
ENDBRANCH    2    3
ENDBRANCH   13    2
ENDBRANCH   15   13
ENDBRANCH   16   15
BRANCH   16   17
ATOM     17  C13 UNL A   1      11.949  50.889  15.337  1.00  0.00    +0.000 C 
ATOM    114  H15 UNL A   1      12.563  51.502  15.962  1.00  0.00    +0.000 H 
ATOM    115  H16 UNL A   1      11.553  50.010  15.801  1.00  0.00    +0.000 H 
BRANCH   17   18
ATOM     18  S1  UNL A   1      10.480  51.870  14.885  1.00  0.00    +0.000 S 
ATOM    116  H17 UNL A   1      10.558  52.225  13.575  1.00  0.00    +0.000 H 
ENDBRANCH   17   18
ENDBRANCH   16   17
ENDBRANCH   19   16
ENDBRANCH   21   19
ENDBRANCH   22   21
BRANCH   22   23
ATOM    119  H20 UNL A   1      11.202  46.447  16.915  1.00  0.00    +0.000 H 
ATOM     23  C16 UNL A   1      10.821  46.929  16.039  1.00  0.00    +0.000 C 
ATOM    120  H21 UNL A   1      10.226  46.260  15.451  1.00  0.00    +0.000 H 
BRANCH   23   24
ATOM    121  H22 UNL A   1       9.060  47.736  16.423  1.00  0.00    +0.000 H 
ATOM     24  O3  UNL A   1       9.988  48.016  16.439  1.00  0.00    +0.000 O 
ENDBRANCH   23   24
ENDBRANCH   22   23
ENDBRANCH   25   22
ENDBRANCH   27   25
ENDBRANCH   28   27
ENDBRANCH   29   28
ENDBRANCH   30   29
ENDBRANCH   31   30
ENDBRANCH   32   31
ENDBRANCH   33   32
ENDBRANCH   34   33
ENDBRANCH   35   34
ENDBRANCH   37   35
ENDBRANCH   41   40
BRANCH   45   46
ATOM     46  C33 UNL A   1      17.033  48.512  -1.034  1.00  0.00    +0.000 C 
ATOM     47  C34 UNL A   1      16.361  48.180  -2.221  1.00  0.00    +0.000 C 
ATOM     48  F1  UNL A   1      15.301  48.897  -2.621  1.00  0.00    +0.000 F 
ATOM     49  C35 UNL A   1      16.754  47.082  -2.983  1.00  0.00    +0.000 C 
ATOM     50  F2  UNL A   1      16.067  46.756  -4.087  1.00  0.00    +0.000 F 
ATOM     51  C36 UNL A   1      17.844  46.319  -2.596  1.00  0.00    +0.000 C 
ATOM     52  F3  UNL A   1      18.225  45.267  -3.333  1.00  0.00    +0.000 F 
ATOM     53  C37 UNL A   1      18.535  46.642  -1.437  1.00  0.00    +0.000 C 
ATOM     54  F4  UNL A   1      19.597  45.911  -1.066  1.00  0.00    +0.000 F 
ATOM     55  C38 UNL A   1      18.128  47.721  -0.657  1.00  0.00    +0.000 C 
ATOM     56  F5  UNL A   1      18.807  47.998   0.466  1.00  0.00    +0.000 F 
ENDBRANCH   45   46
BRANCH   62   63
ATOM     65  F6  UNL A   1      16.415  56.086  -2.177  1.00  0.00    +0.000 F 
ATOM     66  C46 UNL A   1      18.404  57.287  -2.554  1.00  0.00    +0.000 C 
ATOM     67  F7  UNL A   1      17.819  57.937  -3.570  1.00  0.00    +0.000 F 
ATOM     68  C47 UNL A   1      19.725  57.557  -2.229  1.00  0.00    +0.000 C 
ATOM     69  F8  UNL A   1      20.410  58.482  -2.916  1.00  0.00    +0.000 F 
ATOM     70  C48 UNL A   1      20.339  56.865  -1.197  1.00  0.00    +0.000 C 
ATOM     71  F9  UNL A   1      21.611  57.134  -0.873  1.00  0.00    +0.000 F 
ATOM     72  C49 UNL A   1      19.637  55.889  -0.497  1.00  0.00    +0.000 C 
ATOM     73  F10 UNL A   1      20.259  55.225   0.489  1.00  0.00    +0.000 F 
ATOM     63  C44 UNL A   1      18.296  55.605  -0.802  1.00  0.00    +0.000 C 
ATOM     64  C45 UNL A   1      17.689  56.332  -1.837  1.00  0.00    +0.000 C 
ENDBRANCH   62   63
BRANCH   77   78
ATOM     78  C53 UNL A   1      14.401  56.060   4.954  1.00  0.00    +0.000 C 
ATOM     79  C54 UNL A   1      13.182  56.738   4.809  1.00  0.00    +0.000 C 
ATOM     80  F11 UNL A   1      12.334  56.386   3.832  1.00  0.00    +0.000 F 
ATOM     81  C55 UNL A   1      12.848  57.804   5.641  1.00  0.00    +0.000 C 
ATOM     82  F12 UNL A   1      11.696  58.463   5.453  1.00  0.00    +0.000 F 
ATOM     83  C56 UNL A   1      13.713  58.194   6.653  1.00  0.00    +0.000 C 
ATOM     84  F13 UNL A   1      13.390  59.218   7.454  1.00  0.00    +0.000 F 
ATOM     85  C57 UNL A   1      14.916  57.527   6.826  1.00  0.00    +0.000 C 
ATOM     86  F14 UNL A   1      15.749  57.892   7.811  1.00  0.00    +0.000 F 
ATOM     87  C58 UNL A   1      15.263  56.477   5.977  1.00  0.00    +0.000 C 
ATOM     88  F15 UNL A   1      16.437  55.857   6.162  1.00  0.00    +0.000 F 
ENDBRANCH   77   78
TORSDOF 28
ENDMDL
