MODEL 1
REMARK VINA RESULT:     -11.8      0.000      0.000
ROOT
ATOM     28  C19 UNL A   1      25.869  36.317  45.689  1.00  0.00    +0.000 C 
ATOM     29  C20 UNL A   1      27.167  36.148  44.947  1.00  0.00    +0.000 C 
ATOM     30  N5  UNL A   1      28.278  36.831  45.057  1.00  0.00    +0.000 N 
ATOM     31  C21 UNL A   1      29.177  36.238  44.180  1.00  0.00    +0.000 C 
ATOM     32  C22 UNL A   1      30.445  36.614  43.887  1.00  0.00    +0.000 C 
ATOM     44  C29 UNL A   1      31.105  37.758  44.461  1.00  0.00    +0.000 C 
ATOM     45  C30 UNL A   1      32.360  38.265  44.171  1.00  0.00    +0.000 C 
ATOM     46  C31 UNL A   1      32.596  39.357  45.013  1.00  0.00    +0.000 C 
ATOM     47  C32 UNL A   1      31.467  39.563  45.790  1.00  0.00    +0.000 C 
ATOM     48  N6  UNL A   1      30.562  38.572  45.443  1.00  0.00    +0.000 N 
ATOM     49  C33 UNL A   1      31.231  40.587  46.775  1.00  0.00    +0.000 C 
ATOM     61  C40 UNL A   1      30.088  40.726  47.490  1.00  0.00    +0.000 C 
ATOM     62  N7  UNL A   1      28.931  39.960  47.447  1.00  0.00    +0.000 N 
ATOM     63  C41 UNL A   1      28.121  40.479  48.337  1.00  0.00    +0.000 C 
ATOM     64  C42 UNL A   1      26.718  40.072  48.696  1.00  0.00    +0.000 C 
ATOM     76  C49 UNL A   1      26.139  39.053  48.032  1.00  0.00    +0.000 C 
ATOM     77  C50 UNL A   1      24.783  38.560  48.255  1.00  0.00    +0.000 C 
ATOM     78  C51 UNL A   1      24.559  37.515  47.444  1.00  0.00    +0.000 C 
ATOM     79  C52 UNL A   1      25.746  37.284  46.619  1.00  0.00    +0.000 C 
ATOM     80  N8  UNL A   1      26.631  38.247  47.034  1.00  0.00    +0.000 N 
ATOM     81  C53 UNL A   1      28.685  41.623  49.065  1.00  0.00    +0.000 C 
ATOM     82  C54 UNL A   1      29.867  41.759  48.480  1.00  0.00    +0.000 C 
ATOM     83  C55 UNL A   1      28.499  35.109  43.580  1.00  0.00    +0.000 C 
ATOM     84  C56 UNL A   1      27.234  35.049  43.972  1.00  0.00    +0.000 C 
ATOM    117  H22 UNL A   1      33.009  37.901  43.457  1.00  0.00    +0.000 H 
ATOM    118  H23 UNL A   1      33.464  39.915  45.049  1.00  0.00    +0.000 H 
ATOM    119  H24 UNL A   1      29.666  38.462  45.838  1.00  0.00    +0.000 H 
ATOM    120  H25 UNL A   1      24.106  38.952  48.928  1.00  0.00    +0.000 H 
ATOM    121  H26 UNL A   1      23.688  36.962  47.408  1.00  0.00    +0.000 H 
ATOM    122  H27 UNL A   1      27.533  38.351  46.654  1.00  0.00    +0.000 H 
ATOM    123  H28 UNL A   1      28.271  42.177  49.831  1.00  0.00    +0.000 H 
ATOM    124  H29 UNL A   1      30.543  42.506  48.702  1.00  0.00    +0.000 H 
ATOM    125  H30 UNL A   1      28.943  34.439  42.933  1.00  0.00    +0.000 H 
ATOM    126  H31 UNL A   1      26.490  34.400  43.670  1.00  0.00    +0.000 H 
ENDROOT
BRANCH   28   27
ATOM    115  H20 UNL A   1      23.566  32.365  46.338  1.00  0.00    +0.000 H 
ATOM    116  H21 UNL A   1      25.351  33.928  46.845  1.00  0.00    +0.000 H 
ATOM     85  C57 UNL A   1      23.740  35.725  44.515  1.00  0.00    +0.000 C 
ATOM     86  C58 UNL A   1      22.669  34.862  44.287  1.00  0.00    +0.000 C 
ATOM     24  C15 UNL A   1      22.634  33.611  44.910  1.00  0.00    +0.000 C 
ATOM     25  C16 UNL A   1      23.611  33.273  45.851  1.00  0.00    +0.000 C 
ATOM     26  C17 UNL A   1      24.647  34.166  46.130  1.00  0.00    +0.000 C 
ATOM     27  C18 UNL A   1      24.736  35.388  45.444  1.00  0.00    +0.000 C 
ATOM    127  H32 UNL A   1      23.800  36.617  43.998  1.00  0.00    +0.000 H 
ATOM    128  H33 UNL A   1      21.901  35.148  43.659  1.00  0.00    +0.000 H 
BRANCH   24   22
ATOM     22  C14 UNL A   1      21.561  32.634  44.623  1.00  0.00    +0.000 C 
ATOM     23  O4  UNL A   1      21.795  31.668  43.903  1.00  0.00    +0.000 O 
BRANCH   22   21
ATOM    114  H19 UNL A   1      20.262  32.887  46.123  1.00  0.00    +0.000 H 
ATOM     21  N4  UNL A   1      20.303  32.809  45.142  1.00  0.00    +0.000 N 
BRANCH   21   20
ATOM    113  H18 UNL A   1      19.219  32.938  43.409  1.00  0.00    +0.000 H 
ATOM     20  C13 UNL A   1      19.025  32.896  44.460  1.00  0.00    +0.000 C 
ATOM    112  H17 UNL A   1      18.514  33.772  44.800  1.00  0.00    +0.000 H 
BRANCH   20   19
ATOM     19  C12 UNL A   1      18.142  31.680  44.723  1.00  0.00    +0.000 C 
ATOM    110  H15 UNL A   1      18.572  31.127  45.532  1.00  0.00    +0.000 H 
ATOM    111  H16 UNL A   1      17.167  32.063  44.938  1.00  0.00    +0.000 H 
BRANCH   19   18
ATOM     18  C11 UNL A   1      17.971  30.727  43.537  1.00  0.00    +0.000 C 
ATOM    108  H13 UNL A   1      17.111  31.041  42.984  1.00  0.00    +0.000 H 
ATOM    109  H14 UNL A   1      18.887  30.783  42.984  1.00  0.00    +0.000 H 
BRANCH   18   17
ATOM     17  C10 UNL A   1      17.788  29.249  43.894  1.00  0.00    +0.000 C 
ATOM    106  H11 UNL A   1      18.229  28.664  43.114  1.00  0.00    +0.000 H 
ATOM    107  H12 UNL A   1      18.255  29.117  44.847  1.00  0.00    +0.000 H 
BRANCH   17   16
ATOM    105  H10 UNL A   1      15.763  29.339  43.350  1.00  0.00    +0.000 H 
ATOM    104  H9  UNL A   1      16.048  28.977  45.078  1.00  0.00    +0.000 H 
ATOM     16  C9  UNL A   1      16.340  28.789  44.066  1.00  0.00    +0.000 C 
BRANCH   16   15
ATOM    103  H8  UNL A   1      15.721  26.845  44.656  1.00  0.00    +0.000 H 
ATOM    102  H7  UNL A   1      17.015  26.859  43.464  1.00  0.00    +0.000 H 
ATOM     15  C8  UNL A   1      16.094  27.312  43.768  1.00  0.00    +0.000 C 
BRANCH   15   14
ATOM    101  H6  UNL A   1      14.204  26.999  43.058  1.00  0.00    +0.000 H 
ATOM     14  N3  UNL A   1      15.114  27.148  42.715  1.00  0.00    +0.000 N 
BRANCH   14   12
ATOM     12  C7  UNL A   1      15.171  27.154  41.344  1.00  0.00    +0.000 C 
ATOM     13  O3  UNL A   1      15.454  28.216  40.794  1.00  0.00    +0.000 O 
BRANCH   12   11
ATOM    129  H34 UNL A   1      15.459  26.429  38.489  1.00  0.00    +0.000 H 
ATOM    130  H35 UNL A   1      13.802  26.663  38.725  1.00  0.00    +0.000 H 
ATOM    131  H36 UNL A   1      13.418  24.341  38.304  1.00  0.00    +0.000 H 
ATOM      9  N1  UNL A   1      14.655  23.862  39.953  1.00  0.00    +0.000 N 
ATOM     10  N2  UNL A   1      14.776  24.758  40.985  1.00  0.00    +0.000 N 
ATOM     11  C6  UNL A   1      14.856  25.947  40.470  1.00  0.00    +0.000 C 
ATOM     87  C59 UNL A   1      14.614  26.024  39.006  1.00  0.00    +0.000 C 
ATOM     88  C60 UNL A   1      14.402  24.547  38.667  1.00  0.00    +0.000 C 
BRANCH    9    8
ATOM     99  H4  UNL A   1      12.337  20.138  38.640  1.00  0.00    +0.000 H 
ATOM    100  H5  UNL A   1      13.578  22.172  38.162  1.00  0.00    +0.000 H 
ATOM      5  C2  UNL A   1      12.383  20.398  40.737  1.00  0.00    +0.000 C 
ATOM      6  C3  UNL A   1      12.664  20.740  39.412  1.00  0.00    +0.000 C 
ATOM      7  C4  UNL A   1      13.389  21.906  39.141  1.00  0.00    +0.000 C 
ATOM    136  H41 UNL A   1      12.609  20.950  42.763  1.00  0.00    +0.000 H 
ATOM    135  H40 UNL A   1      13.878  22.956  42.279  1.00  0.00    +0.000 H 
ATOM      8  C5  UNL A   1      13.865  22.717  40.182  1.00  0.00    +0.000 C 
ATOM     94  C65 UNL A   1      13.557  22.356  41.502  1.00  0.00    +0.000 C 
ATOM     95  C66 UNL A   1      12.824  21.204  41.787  1.00  0.00    +0.000 C 
BRANCH    5    2
ATOM      2  S1  UNL A   1      11.483  18.909  41.094  1.00  0.00    +0.000 S 
ATOM      3  O1  UNL A   1      10.183  19.295  41.613  1.00  0.00    +0.000 O 
ATOM      4  O2  UNL A   1      12.368  18.060  41.865  1.00  0.00    +0.000 O 
BRANCH    2    1
ATOM      1  C1  UNL A   1      11.216  18.157  39.512  1.00  0.00    +0.000 C 
ATOM     98  H3  UNL A   1      11.988  17.441  39.322  1.00  0.00    +0.000 H 
ATOM     97  H2  UNL A   1      10.265  17.666  39.506  1.00  0.00    +0.000 H 
ATOM     96  H1  UNL A   1      11.233  18.910  38.751  1.00  0.00    +0.000 H 
ENDBRANCH    2    1
ENDBRANCH    5    2
ENDBRANCH    9    8
BRANCH   88   89
ATOM    132  H37 UNL A   1      14.375  25.126  35.839  1.00  0.00    +0.000 H 
ATOM    133  H38 UNL A   1      16.023  23.934  34.265  1.00  0.00    +0.000 H 
ATOM    134  H39 UNL A   1      17.598  22.405  35.526  1.00  0.00    +0.000 H 
ATOM     89  C61 UNL A   1      15.219  24.052  37.482  1.00  0.00    +0.000 C 
ATOM     90  C62 UNL A   1      15.074  24.438  36.159  1.00  0.00    +0.000 C 
ATOM     91  C63 UNL A   1      15.992  23.786  35.286  1.00  0.00    +0.000 C 
ATOM     92  C64 UNL A   1      16.831  22.935  35.967  1.00  0.00    +0.000 C 
ATOM     93  S2  UNL A   1      16.450  22.860  37.627  1.00  0.00    +0.000 S 
ENDBRANCH   88   89
ENDBRANCH   12   11
ENDBRANCH   14   12
ENDBRANCH   15   14
ENDBRANCH   16   15
ENDBRANCH   17   16
ENDBRANCH   18   17
ENDBRANCH   19   18
ENDBRANCH   20   19
ENDBRANCH   21   20
ENDBRANCH   22   21
ENDBRANCH   24   22
ENDBRANCH   28   27
BRANCH   32   33
ATOM     33  C23 UNL A   1      31.208  35.784  42.895  1.00  0.00    +0.000 C 
ATOM     34  C24 UNL A   1      31.341  36.176  41.554  1.00  0.00    +0.000 C 
ATOM     35  F1  UNL A   1      30.728  37.284  41.110  1.00  0.00    +0.000 F 
ATOM     36  C25 UNL A   1      32.078  35.411  40.654  1.00  0.00    +0.000 C 
ATOM     37  F2  UNL A   1      32.155  35.781  39.369  1.00  0.00    +0.000 F 
ATOM     38  C26 UNL A   1      32.724  34.261  41.082  1.00  0.00    +0.000 C 
ATOM     39  F3  UNL A   1      33.442  33.532  40.218  1.00  0.00    +0.000 F 
ATOM     40  C27 UNL A   1      32.621  33.864  42.407  1.00  0.00    +0.000 C 
ATOM     41  F4  UNL A   1      33.256  32.760  42.826  1.00  0.00    +0.000 F 
ATOM     42  C28 UNL A   1      31.861  34.611  43.303  1.00  0.00    +0.000 C 
ATOM     43  F5  UNL A   1      31.772  34.195  44.576  1.00  0.00    +0.000 F 
ENDBRANCH   32   33
BRANCH   49   50
ATOM     50  C34 UNL A   1      32.318  41.593  47.015  1.00  0.00    +0.000 C 
ATOM     51  C35 UNL A   1      32.228  42.905  46.527  1.00  0.00    +0.000 C 
ATOM     52  F6  UNL A   1      31.174  43.280  45.787  1.00  0.00    +0.000 F 
ATOM     53  C36 UNL A   1      33.245  43.826  46.762  1.00  0.00    +0.000 C 
ATOM     54  F7  UNL A   1      33.163  45.059  46.242  1.00  0.00    +0.000 F 
ATOM     55  C37 UNL A   1      34.351  43.467  47.518  1.00  0.00    +0.000 C 
ATOM     56  F8  UNL A   1      35.327  44.357  47.747  1.00  0.00    +0.000 F 
ATOM     57  C38 UNL A   1      34.450  42.181  48.029  1.00  0.00    +0.000 C 
ATOM     58  F9  UNL A   1      35.511  41.836  48.772  1.00  0.00    +0.000 F 
ATOM     59  C39 UNL A   1      33.450  41.249  47.770  1.00  0.00    +0.000 C 
ATOM     60  F10 UNL A   1      33.581  40.009  48.267  1.00  0.00    +0.000 F 
ENDBRANCH   49   50
BRANCH   64   65
ATOM     65  C43 UNL A   1      25.964  40.792  49.755  1.00  0.00    +0.000 C 
ATOM     66  C44 UNL A   1      26.020  40.374  51.092  1.00  0.00    +0.000 C 
ATOM     67  F11 UNL A   1      26.753  39.302  51.427  1.00  0.00    +0.000 F 
ATOM     68  C45 UNL A   1      25.287  41.025  52.082  1.00  0.00    +0.000 C 
ATOM     69  F12 UNL A   1      25.319  40.573  53.342  1.00  0.00    +0.000 F 
ATOM     70  C46 UNL A   1      24.510  42.128  51.760  1.00  0.00    +0.000 C 
ATOM     71  F13 UNL A   1      23.807  42.756  52.712  1.00  0.00    +0.000 F 
ATOM     72  C47 UNL A   1      24.458  42.575  50.448  1.00  0.00    +0.000 C 
ATOM     73  F14 UNL A   1      23.721  43.649  50.136  1.00  0.00    +0.000 F 
ATOM     74  C48 UNL A   1      25.167  41.906  49.453  1.00  0.00    +0.000 C 
ATOM     75  F15 UNL A   1      25.085  42.351  48.190  1.00  0.00    +0.000 F 
ENDBRANCH   64   65
TORSDOF 19
ENDMDL
MODEL 2
REMARK VINA RESULT:     -11.7     40.027     46.817
ROOT
ATOM     28  C19 UNL A   1      53.188  20.044  11.581  1.00  0.00    +0.000 C 
ATOM     29  C20 UNL A   1      52.936  20.655  12.932  1.00  0.00    +0.000 C 
ATOM     30  N5  UNL A   1      53.759  20.801  13.941  1.00  0.00    +0.000 N 
ATOM     31  C21 UNL A   1      53.038  21.463  14.926  1.00  0.00    +0.000 C 
ATOM     32  C22 UNL A   1      53.427  21.795  16.180  1.00  0.00    +0.000 C 
ATOM     44  C29 UNL A   1      54.722  21.492  16.733  1.00  0.00    +0.000 C 
ATOM     45  C30 UNL A   1      55.185  21.719  18.018  1.00  0.00    +0.000 C 
ATOM     46  C31 UNL A   1      56.520  21.307  18.081  1.00  0.00    +0.000 C 
ATOM     47  C32 UNL A   1      56.873  20.774  16.851  1.00  0.00    +0.000 C 
ATOM     48  N6  UNL A   1      55.761  20.899  16.033  1.00  0.00    +0.000 N 
ATOM     49  C33 UNL A   1      58.129  20.195  16.452  1.00  0.00    +0.000 C 
ATOM     61  C40 UNL A   1      58.392  19.684  15.224  1.00  0.00    +0.000 C 
ATOM     62  N7  UNL A   1      57.560  19.599  14.116  1.00  0.00    +0.000 N 
ATOM     63  C41 UNL A   1      58.276  19.046  13.168  1.00  0.00    +0.000 C 
ATOM     64  C42 UNL A   1      57.876  18.684  11.764  1.00  0.00    +0.000 C 
ATOM     76  C49 UNL A   1      56.610  18.907  11.362  1.00  0.00    +0.000 C 
ATOM     77  C50 UNL A   1      56.072  18.591  10.043  1.00  0.00    +0.000 C 
ATOM     78  C51 UNL A   1      54.791  18.985   9.987  1.00  0.00    +0.000 C 
ATOM     79  C52 UNL A   1      54.406  19.553  11.280  1.00  0.00    +0.000 C 
ATOM     80  N8  UNL A   1      55.548  19.462  12.036  1.00  0.00    +0.000 N 
ATOM     81  C53 UNL A   1      59.658  18.741  13.562  1.00  0.00    +0.000 C 
ATOM     82  C54 UNL A   1      59.663  19.109  14.835  1.00  0.00    +0.000 C 
ATOM     83  C55 UNL A   1      51.726  21.735  14.377  1.00  0.00    +0.000 C 
ATOM     84  C56 UNL A   1      51.591  21.199  13.173  1.00  0.00    +0.000 C 
ATOM    117  H22 UNL A   1      54.639  22.122  18.795  1.00  0.00    +0.000 H 
ATOM    118  H23 UNL A   1      57.138  21.385  18.904  1.00  0.00    +0.000 H 
ATOM    119  H24 UNL A   1      55.716  20.609  15.093  1.00  0.00    +0.000 H 
ATOM    120  H25 UNL A   1      56.594  18.138   9.277  1.00  0.00    +0.000 H 
ATOM    121  H26 UNL A   1      54.175  18.901   9.163  1.00  0.00    +0.000 H 
ATOM    122  H27 UNL A   1      55.601  19.764  12.971  1.00  0.00    +0.000 H 
ATOM    123  H28 UNL A   1      60.425  18.344  12.997  1.00  0.00    +0.000 H 
ATOM    124  H29 UNL A   1      60.469  18.999  15.469  1.00  0.00    +0.000 H 
ATOM    125  H30 UNL A   1      50.992  22.276  14.862  1.00  0.00    +0.000 H 
ATOM    126  H31 UNL A   1      50.759  21.171  12.563  1.00  0.00    +0.000 H 
ENDROOT
BRANCH   28   27
ATOM    115  H20 UNL A   1      50.686  21.964   8.205  1.00  0.00    +0.000 H 
ATOM    116  H21 UNL A   1      52.522  21.958   9.791  1.00  0.00    +0.000 H 
ATOM     85  C57 UNL A   1      51.302  18.894  10.405  1.00  0.00    +0.000 C 
ATOM     86  C58 UNL A   1      50.301  18.868   9.435  1.00  0.00    +0.000 C 
ATOM     24  C15 UNL A   1      50.039  20.008   8.670  1.00  0.00    +0.000 C 
ATOM     25  C16 UNL A   1      50.856  21.135   8.795  1.00  0.00    +0.000 C 
ATOM     26  C17 UNL A   1      51.902  21.137   9.719  1.00  0.00    +0.000 C 
ATOM     27  C18 UNL A   1      52.117  20.027  10.552  1.00  0.00    +0.000 C 
ATOM    127  H32 UNL A   1      51.445  18.075  11.018  1.00  0.00    +0.000 H 
ATOM    128  H33 UNL A   1      49.754  18.005   9.281  1.00  0.00    +0.000 H 
BRANCH   24   22
ATOM     22  C14 UNL A   1      48.926  20.046   7.695  1.00  0.00    +0.000 C 
ATOM     23  O4  UNL A   1      48.395  21.118   7.420  1.00  0.00    +0.000 O 
BRANCH   22   21
ATOM    114  H19 UNL A   1      47.559  18.626   7.354  1.00  0.00    +0.000 H 
ATOM     21  N4  UNL A   1      48.475  18.890   7.109  1.00  0.00    +0.000 N 
BRANCH   21   20
ATOM    113  H18 UNL A   1      49.439  17.124   6.724  1.00  0.00    +0.000 H 
ATOM     20  C13 UNL A   1      49.149  18.000   6.182  1.00  0.00    +0.000 C 
ATOM    112  H17 UNL A   1      49.998  18.507   5.775  1.00  0.00    +0.000 H 
BRANCH   20   19
ATOM     19  C12 UNL A   1      48.244  17.561   5.035  1.00  0.00    +0.000 C 
ATOM    110  H15 UNL A   1      48.850  17.449   4.160  1.00  0.00    +0.000 H 
ATOM    111  H16 UNL A   1      47.783  16.650   5.354  1.00  0.00    +0.000 H 
BRANCH   19   18
ATOM     18  C11 UNL A   1      47.100  18.521   4.699  1.00  0.00    +0.000 C 
ATOM    108  H13 UNL A   1      46.307  18.344   5.394  1.00  0.00    +0.000 H 
ATOM    109  H14 UNL A   1      47.519  19.505   4.760  1.00  0.00    +0.000 H 
BRANCH   18   17
ATOM     17  C10 UNL A   1      46.525  18.399   3.285  1.00  0.00    +0.000 C 
ATOM    106  H11 UNL A   1      46.759  19.298   2.754  1.00  0.00    +0.000 H 
ATOM    107  H12 UNL A   1      46.968  17.522   2.861  1.00  0.00    +0.000 H 
BRANCH   17   16
ATOM    105  H10 UNL A   1      44.688  17.966   4.204  1.00  0.00    +0.000 H 
ATOM    104  H9  UNL A   1      44.822  17.394   2.514  1.00  0.00    +0.000 H 
ATOM     16  C9  UNL A   1      45.012  18.187   3.207  1.00  0.00    +0.000 C 
BRANCH   16   15
ATOM    103  H8  UNL A   1      44.700  19.837   1.907  1.00  0.00    +0.000 H 
ATOM    102  H7  UNL A   1      44.174  20.115   3.563  1.00  0.00    +0.000 H 
ATOM     15  C8  UNL A   1      44.214  19.409   2.759  1.00  0.00    +0.000 C 
BRANCH   15   14
ATOM    101  H6  UNL A   1      42.722  19.052   1.410  1.00  0.00    +0.000 H 
ATOM     14  N3  UNL A   1      42.865  19.042   2.383  1.00  0.00    +0.000 N 
BRANCH   14   12
ATOM     12  C7  UNL A   1      41.740  18.681   3.082  1.00  0.00    +0.000 C 
ATOM     13  O3  UNL A   1      41.864  17.814   3.945  1.00  0.00    +0.000 O 
BRANCH   12   11
ATOM    129  H34 UNL A   1      39.121  18.688   4.460  1.00  0.00    +0.000 H 
ATOM    130  H35 UNL A   1      38.927  17.656   3.135  1.00  0.00    +0.000 H 
ATOM    131  H36 UNL A   1      37.365  19.189   2.173  1.00  0.00    +0.000 H 
ATOM      9  N1  UNL A   1      38.878  20.668   2.136  1.00  0.00    +0.000 N 
ATOM     10  N2  UNL A   1      40.193  20.284   2.053  1.00  0.00    +0.000 N 
ATOM     11  C6  UNL A   1      40.352  19.248   2.819  1.00  0.00    +0.000 C 
ATOM     87  C59 UNL A   1      39.103  18.680   3.389  1.00  0.00    +0.000 C 
ATOM     88  C60 UNL A   1      38.061  19.656   2.838  1.00  0.00    +0.000 C 
BRANCH    9    8
ATOM     99  H4  UNL A   1      38.810  23.365  -1.564  1.00  0.00    +0.000 H 
ATOM    100  H5  UNL A   1      39.823  22.580   0.501  1.00  0.00    +0.000 H 
ATOM      5  C2  UNL A   1      37.088  22.152  -1.382  1.00  0.00    +0.000 C 
ATOM      6  C3  UNL A   1      38.331  22.656  -0.987  1.00  0.00    +0.000 C 
ATOM      7  C4  UNL A   1      38.917  22.193   0.196  1.00  0.00    +0.000 C 
ATOM    136  H41 UNL A   1      35.515  20.826  -0.903  1.00  0.00    +0.000 H 
ATOM    135  H40 UNL A   1      36.551  20.022   1.134  1.00  0.00    +0.000 H 
ATOM      8  C5  UNL A   1      38.289  21.208   0.974  1.00  0.00    +0.000 C 
ATOM     94  C65 UNL A   1      37.037  20.730   0.560  1.00  0.00    +0.000 C 
ATOM     95  C66 UNL A   1      36.435  21.191  -0.610  1.00  0.00    +0.000 C 
BRANCH    5    2
ATOM      2  S1  UNL A   1      36.346  22.716  -2.893  1.00  0.00    +0.000 S 
ATOM      3  O1  UNL A   1      36.835  21.868  -3.967  1.00  0.00    +0.000 O 
ATOM      4  O2  UNL A   1      36.529  24.152  -2.939  1.00  0.00    +0.000 O 
BRANCH    2    1
ATOM      1  C1  UNL A   1      34.618  22.373  -2.698  1.00  0.00    +0.000 C 
ATOM     98  H3  UNL A   1      34.279  21.771  -3.515  1.00  0.00    +0.000 H 
ATOM     97  H2  UNL A   1      34.460  21.848  -1.779  1.00  0.00    +0.000 H 
ATOM     96  H1  UNL A   1      34.071  23.293  -2.681  1.00  0.00    +0.000 H 
ENDBRANCH    2    1
ENDBRANCH    5    2
ENDBRANCH    9    8
BRANCH   88   89
ATOM    132  H37 UNL A   1      37.361  22.309   3.736  1.00  0.00    +0.000 H 
ATOM    133  H38 UNL A   1      35.619  22.618   5.603  1.00  0.00    +0.000 H 
ATOM    134  H39 UNL A   1      34.635  20.410   6.355  1.00  0.00    +0.000 H 
ATOM     89  C61 UNL A   1      37.092  20.195   3.881  1.00  0.00    +0.000 C 
ATOM     90  C62 UNL A   1      36.872  21.526   4.197  1.00  0.00    +0.000 C 
ATOM     91  C63 UNL A   1      35.901  21.701   5.225  1.00  0.00    +0.000 C 
ATOM     92  C64 UNL A   1      35.385  20.500   5.651  1.00  0.00    +0.000 C 
ATOM     93  S2  UNL A   1      36.135  19.176   4.882  1.00  0.00    +0.000 S 
ENDBRANCH   88   89
ENDBRANCH   12   11
ENDBRANCH   14   12
ENDBRANCH   15   14
ENDBRANCH   16   15
ENDBRANCH   17   16
ENDBRANCH   18   17
ENDBRANCH   19   18
ENDBRANCH   20   19
ENDBRANCH   21   20
ENDBRANCH   22   21
ENDBRANCH   24   22
ENDBRANCH   28   27
BRANCH   32   33
ATOM     33  C23 UNL A   1      52.442  22.522  17.048  1.00  0.00    +0.000 C 
ATOM     34  C24 UNL A   1      51.697  21.856  18.034  1.00  0.00    +0.000 C 
ATOM     35  F1  UNL A   1      51.806  20.527  18.181  1.00  0.00    +0.000 F 
ATOM     36  C25 UNL A   1      50.809  22.550  18.852  1.00  0.00    +0.000 C 
ATOM     37  F2  UNL A   1      50.077  21.886  19.757  1.00  0.00    +0.000 F 
ATOM     38  C26 UNL A   1      50.674  23.924  18.727  1.00  0.00    +0.000 C 
ATOM     39  F3  UNL A   1      49.829  24.592  19.523  1.00  0.00    +0.000 F 
ATOM     40  C27 UNL A   1      51.414  24.606  17.772  1.00  0.00    +0.000 C 
ATOM     41  F4  UNL A   1      51.295  25.936  17.657  1.00  0.00    +0.000 F 
ATOM     42  C28 UNL A   1      52.280  23.911  16.932  1.00  0.00    +0.000 C 
ATOM     43  F5  UNL A   1      52.973  24.597  16.011  1.00  0.00    +0.000 F 
ENDBRANCH   32   33
BRANCH   49   50
ATOM     50  C34 UNL A   1      59.226  20.127  17.473  1.00  0.00    +0.000 C 
ATOM     51  C35 UNL A   1      60.016  21.244  17.781  1.00  0.00    +0.000 C 
ATOM     52  F6  UNL A   1      59.832  22.402  17.128  1.00  0.00    +0.000 F 
ATOM     53  C36 UNL A   1      61.028  21.164  18.734  1.00  0.00    +0.000 C 
ATOM     54  F7  UNL A   1      61.804  22.229  18.975  1.00  0.00    +0.000 F 
ATOM     55  C37 UNL A   1      61.246  19.979  19.421  1.00  0.00    +0.000 C 
ATOM     56  F8  UNL A   1      62.218  19.906  20.341  1.00  0.00    +0.000 F 
ATOM     57  C38 UNL A   1      60.463  18.868  19.148  1.00  0.00    +0.000 C 
ATOM     58  F9  UNL A   1      60.663  17.727  19.821  1.00  0.00    +0.000 F 
ATOM     59  C39 UNL A   1      59.471  18.936  18.174  1.00  0.00    +0.000 C 
ATOM     60  F10 UNL A   1      58.739  17.840  17.923  1.00  0.00    +0.000 F 
ENDBRANCH   49   50
BRANCH   64   65
ATOM     65  C43 UNL A   1      58.854  18.068  10.829  1.00  0.00    +0.000 C 
ATOM     66  C44 UNL A   1      59.635  18.860   9.976  1.00  0.00    +0.000 C 
ATOM     67  F11 UNL A   1      59.496  20.193   9.989  1.00  0.00    +0.000 F 
ATOM     68  C45 UNL A   1      60.527  18.284   9.074  1.00  0.00    +0.000 C 
ATOM     69  F12 UNL A   1      61.222  19.062   8.235  1.00  0.00    +0.000 F 
ATOM     70  C46 UNL A   1      60.679  16.906   9.031  1.00  0.00    +0.000 C 
ATOM     71  F13 UNL A   1      61.539  16.352   8.164  1.00  0.00    +0.000 F 
ATOM     72  C47 UNL A   1      59.935  16.103   9.881  1.00  0.00    +0.000 C 
ATOM     73  F14 UNL A   1      60.091  14.773   9.853  1.00  0.00    +0.000 F 
ATOM     74  C48 UNL A   1      59.021  16.677  10.763  1.00  0.00    +0.000 C 
ATOM     75  F15 UNL A   1      58.303  15.874  11.562  1.00  0.00    +0.000 F 
ENDBRANCH   64   65
TORSDOF 19
ENDMDL
MODEL 3
REMARK VINA RESULT:     -11.7      0.807      7.233
ROOT
ATOM     28  C19 UNL A   1      25.861  36.159  45.457  1.00  0.00    +0.000 C 
ATOM     29  C20 UNL A   1      25.753  37.324  46.402  1.00  0.00    +0.000 C 
ATOM     30  N5  UNL A   1      26.660  38.210  46.730  1.00  0.00    +0.000 N 
ATOM     31  C21 UNL A   1      26.031  39.092  47.600  1.00  0.00    +0.000 C 
ATOM     32  C22 UNL A   1      26.561  40.148  48.261  1.00  0.00    +0.000 C 
ATOM     44  C29 UNL A   1      27.941  40.550  48.175  1.00  0.00    +0.000 C 
ATOM     45  C30 UNL A   1      28.591  41.559  48.864  1.00  0.00    +0.000 C 
ATOM     46  C31 UNL A   1      29.915  41.613  48.417  1.00  0.00    +0.000 C 
ATOM     47  C32 UNL A   1      30.105  40.603  47.487  1.00  0.00    +0.000 C 
ATOM     48  N6  UNL A   1      28.884  39.962  47.345  1.00  0.00    +0.000 N 
ATOM     49  C33 UNL A   1      31.309  40.249  46.780  1.00  0.00    +0.000 C 
ATOM     61  C40 UNL A   1      31.414  39.235  45.888  1.00  0.00    +0.000 C 
ATOM     62  N7  UNL A   1      30.442  38.339  45.463  1.00  0.00    +0.000 N 
ATOM     63  C41 UNL A   1      31.025  37.564  44.583  1.00  0.00    +0.000 C 
ATOM     64  C42 UNL A   1      30.457  36.397  43.821  1.00  0.00    +0.000 C 
ATOM     76  C49 UNL A   1      29.182  36.024  44.042  1.00  0.00    +0.000 C 
ATOM     77  C50 UNL A   1      28.503  34.906  43.396  1.00  0.00    +0.000 C 
ATOM     78  C51 UNL A   1      27.234  34.855  43.830  1.00  0.00    +0.000 C 
ATOM     79  C52 UNL A   1      27.020  35.919  44.812  1.00  0.00    +0.000 C 
ATOM     80  N8  UNL A   1      28.231  36.560  44.877  1.00  0.00    +0.000 N 
ATOM     81  C53 UNL A   1      32.433  37.898  44.329  1.00  0.00    +0.000 C 
ATOM     82  C54 UNL A   1      32.631  38.893  45.181  1.00  0.00    +0.000 C 
ATOM     83  C55 UNL A   1      24.653  38.665  47.711  1.00  0.00    +0.000 C 
ATOM     84  C56 UNL A   1      24.446  37.540  47.041  1.00  0.00    +0.000 C 
ATOM    117  H22 UNL A   1      28.171  42.166  49.585  1.00  0.00    +0.000 H 
ATOM    118  H23 UNL A   1      30.630  42.290  48.727  1.00  0.00    +0.000 H 
ATOM    119  H24 UNL A   1      28.712  39.202  46.743  1.00  0.00    +0.000 H 
ATOM    120  H25 UNL A   1      28.930  34.258  42.716  1.00  0.00    +0.000 H 
ATOM    121  H26 UNL A   1      26.523  34.174  43.521  1.00  0.00    +0.000 H 
ATOM    122  H27 UNL A   1      28.403  37.330  45.466  1.00  0.00    +0.000 H 
ATOM    123  H28 UNL A   1      33.095  37.470  43.664  1.00  0.00    +0.000 H 
ATOM    124  H29 UNL A   1      33.537  39.365  45.323  1.00  0.00    +0.000 H 
ATOM    125  H30 UNL A   1      23.927  39.171  48.242  1.00  0.00    +0.000 H 
ATOM    126  H31 UNL A   1      23.591  36.965  46.984  1.00  0.00    +0.000 H 
ENDROOT
BRANCH   28   27
ATOM    115  H20 UNL A   1      21.821  35.232  43.416  1.00  0.00    +0.000 H 
ATOM    116  H21 UNL A   1      23.806  36.586  43.751  1.00  0.00    +0.000 H 
ATOM     85  C57 UNL A   1      24.540  34.069  45.845  1.00  0.00    +0.000 C 
ATOM     86  C58 UNL A   1      23.439  33.253  45.588  1.00  0.00    +0.000 C 
ATOM     24  C15 UNL A   1      22.419  33.702  44.744  1.00  0.00    +0.000 C 
ATOM     25  C16 UNL A   1      22.557  34.917  44.067  1.00  0.00    +0.000 C 
ATOM     26  C17 UNL A   1      23.692  35.703  44.272  1.00  0.00    +0.000 C 
ATOM     27  C18 UNL A   1      24.680  35.300  45.185  1.00  0.00    +0.000 C 
ATOM    127  H32 UNL A   1      25.256  33.766  46.524  1.00  0.00    +0.000 H 
ATOM    128  H33 UNL A   1      23.379  32.317  46.019  1.00  0.00    +0.000 H 
BRANCH   24   22
ATOM     22  C14 UNL A   1      21.194  32.902  44.519  1.00  0.00    +0.000 C 
ATOM     23  O4  UNL A   1      21.190  32.028  43.656  1.00  0.00    +0.000 O 
BRANCH   22   21
ATOM    114  H19 UNL A   1      20.047  32.725  46.148  1.00  0.00    +0.000 H 
ATOM     21  N4  UNL A   1      20.062  33.140  45.255  1.00  0.00    +0.000 N 
BRANCH   21   20
ATOM    113  H18 UNL A   1      19.187  34.697  44.252  1.00  0.00    +0.000 H 
ATOM     20  C13 UNL A   1      18.882  33.913  44.913  1.00  0.00    +0.000 C 
ATOM    112  H17 UNL A   1      18.456  34.304  45.813  1.00  0.00    +0.000 H 
BRANCH   20   19
ATOM     19  C12 UNL A   1      17.828  33.079  44.192  1.00  0.00    +0.000 C 
ATOM    110  H15 UNL A   1      16.870  33.513  44.391  1.00  0.00    +0.000 H 
ATOM    111  H16 UNL A   1      18.098  33.092  43.157  1.00  0.00    +0.000 H 
BRANCH   19   18
ATOM     18  C11 UNL A   1      17.772  31.603  44.598  1.00  0.00    +0.000 C 
ATOM    108  H13 UNL A   1      18.606  31.107  44.148  1.00  0.00    +0.000 H 
ATOM    109  H14 UNL A   1      17.787  31.594  45.668  1.00  0.00    +0.000 H 
BRANCH   18   17
ATOM     17  C10 UNL A   1      16.501  30.852  44.191  1.00  0.00    +0.000 C 
ATOM    106  H11 UNL A   1      15.986  30.568  45.085  1.00  0.00    +0.000 H 
ATOM    107  H12 UNL A   1      15.947  31.524  43.571  1.00  0.00    +0.000 H 
BRANCH   17   16
ATOM    105  H10 UNL A   1      16.477  28.763  43.989  1.00  0.00    +0.000 H 
ATOM    104  H9  UNL A   1      17.741  29.584  43.026  1.00  0.00    +0.000 H 
ATOM     16  C9  UNL A   1      16.723  29.590  43.355  1.00  0.00    +0.000 C 
BRANCH   16   15
ATOM    103  H8  UNL A   1      16.232  30.083  41.348  1.00  0.00    +0.000 H 
ATOM    102  H7  UNL A   1      14.838  29.787  42.380  1.00  0.00    +0.000 H 
ATOM     15  C8  UNL A   1      15.827  29.468  42.125  1.00  0.00    +0.000 C 
BRANCH   15   14
ATOM    101  H6  UNL A   1      16.395  27.931  40.905  1.00  0.00    +0.000 H 
ATOM     14  N3  UNL A   1      15.776  28.101  41.651  1.00  0.00    +0.000 N 
BRANCH   14   12
ATOM     12  C7  UNL A   1      15.058  26.988  42.010  1.00  0.00    +0.000 C 
ATOM     13  O3  UNL A   1      14.665  26.919  43.172  1.00  0.00    +0.000 O 
BRANCH   12   11
ATOM    129  H34 UNL A   1      15.255  26.454  39.105  1.00  0.00    +0.000 H 
ATOM    130  H35 UNL A   1      13.600  26.583  39.425  1.00  0.00    +0.000 H 
ATOM    131  H36 UNL A   1      13.317  24.274  38.875  1.00  0.00    +0.000 H 
ATOM      9  N1  UNL A   1      14.650  23.763  40.437  1.00  0.00    +0.000 N 
ATOM     10  N2  UNL A   1      14.772  24.600  41.518  1.00  0.00    +0.000 N 
ATOM     11  C6  UNL A   1      14.767  25.821  41.076  1.00  0.00    +0.000 C 
ATOM     87  C59 UNL A   1      14.455  25.974  39.631  1.00  0.00    +0.000 C 
ATOM     88  C60 UNL A   1      14.305  24.510  39.209  1.00  0.00    +0.000 C 
BRANCH    9    8
ATOM     99  H4  UNL A   1      13.362  20.080  42.833  1.00  0.00    +0.000 H 
ATOM    100  H5  UNL A   1      14.734  22.060  42.514  1.00  0.00    +0.000 H 
ATOM      5  C2  UNL A   1      12.384  20.247  40.966  1.00  0.00    +0.000 C 
ATOM      6  C3  UNL A   1      13.277  20.636  41.968  1.00  0.00    +0.000 C 
ATOM      7  C4  UNL A   1      14.057  21.784  41.786  1.00  0.00    +0.000 C 
ATOM    136  H41 UNL A   1      11.605  20.700  39.056  1.00  0.00    +0.000 H 
ATOM    135  H40 UNL A   1      12.949  22.694  38.764  1.00  0.00    +0.000 H 
ATOM      8  C5  UNL A   1      13.931  22.565  40.627  1.00  0.00    +0.000 C 
ATOM     94  C65 UNL A   1      13.036  22.143  39.633  1.00  0.00    +0.000 C 
ATOM     95  C66 UNL A   1      12.262  20.995  39.795  1.00  0.00    +0.000 C 
BRANCH    5    2
ATOM      2  S1  UNL A   1      11.373  18.805  41.195  1.00  0.00    +0.000 S 
ATOM      3  O1  UNL A   1      10.058  19.253  41.621  1.00  0.00    +0.000 O 
ATOM      4  O2  UNL A   1      12.141  17.880  42.004  1.00  0.00    +0.000 O 
BRANCH    2    1
ATOM      1  C1  UNL A   1      11.195  18.120  39.571  1.00  0.00    +0.000 C 
ATOM     98  H3  UNL A   1      11.773  18.693  38.876  1.00  0.00    +0.000 H 
ATOM     97  H2  UNL A   1      11.540  17.107  39.571  1.00  0.00    +0.000 H 
ATOM     96  H1  UNL A   1      10.164  18.145  39.283  1.00  0.00    +0.000 H 
ENDBRANCH    2    1
ENDBRANCH    5    2
ENDBRANCH    9    8
BRANCH   88   89
ATOM    132  H37 UNL A   1      16.553  22.767  38.713  1.00  0.00    +0.000 H 
ATOM    133  H38 UNL A   1      17.500  22.534  36.334  1.00  0.00    +0.000 H 
ATOM    134  H39 UNL A   1      16.170  23.876  34.650  1.00  0.00    +0.000 H 
ATOM     89  C61 UNL A   1      15.092  24.133  37.962  1.00  0.00    +0.000 C 
ATOM     90  C62 UNL A   1      16.169  23.263  37.894  1.00  0.00    +0.000 C 
ATOM     91  C63 UNL A   1      16.690  23.125  36.576  1.00  0.00    +0.000 C 
ATOM     92  C64 UNL A   1      15.984  23.874  35.665  1.00  0.00    +0.000 C 
ATOM     93  S2  UNL A   1      14.765  24.803  36.412  1.00  0.00    +0.000 S 
ENDBRANCH   88   89
ENDBRANCH   12   11
ENDBRANCH   14   12
ENDBRANCH   15   14
ENDBRANCH   16   15
ENDBRANCH   17   16
ENDBRANCH   18   17
ENDBRANCH   19   18
ENDBRANCH   20   19
ENDBRANCH   21   20
ENDBRANCH   22   21
ENDBRANCH   24   22
ENDBRANCH   28   27
BRANCH   32   33
ATOM     33  C23 UNL A   1      25.649  40.948  49.145  1.00  0.00    +0.000 C 
ATOM     34  C24 UNL A   1      24.945  42.062  48.662  1.00  0.00    +0.000 C 
ATOM     35  F1  UNL A   1      25.124  42.479  47.399  1.00  0.00    +0.000 F 
ATOM     36  C25 UNL A   1      24.078  42.776  49.486  1.00  0.00    +0.000 C 
ATOM     37  F2  UNL A   1      23.451  43.862  49.015  1.00  0.00    +0.000 F 
ATOM     38  C26 UNL A   1      23.871  42.370  50.796  1.00  0.00    +0.000 C 
ATOM     39  F3  UNL A   1      23.028  43.050  51.584  1.00  0.00    +0.000 F 
ATOM     40  C27 UNL A   1      24.542  41.261  51.290  1.00  0.00    +0.000 C 
ATOM     41  F4  UNL A   1      24.333  40.859  52.551  1.00  0.00    +0.000 F 
ATOM     42  C28 UNL A   1      25.432  40.563  50.477  1.00  0.00    +0.000 C 
ATOM     43  F5  UNL A   1      26.074  39.502  50.987  1.00  0.00    +0.000 F 
ENDBRANCH   32   33
BRANCH   49   50
ATOM     50  C34 UNL A   1      32.549  41.043  47.066  1.00  0.00    +0.000 C 
ATOM     51  C35 UNL A   1      33.543  40.569  47.934  1.00  0.00    +0.000 C 
ATOM     52  F6  UNL A   1      33.382  39.398  48.570  1.00  0.00    +0.000 F 
ATOM     53  C36 UNL A   1      34.689  41.318  48.187  1.00  0.00    +0.000 C 
ATOM     54  F7  UNL A   1      35.601  40.869  49.060  1.00  0.00    +0.000 F 
ATOM     55  C37 UNL A   1      34.882  42.535  47.549  1.00  0.00    +0.000 C 
ATOM     56  F8  UNL A   1      35.988  43.252  47.790  1.00  0.00    +0.000 F 
ATOM     57  C38 UNL A   1      33.922  43.013  46.670  1.00  0.00    +0.000 C 
ATOM     58  F9  UNL A   1      34.112  44.181  46.042  1.00  0.00    +0.000 F 
ATOM     59  C39 UNL A   1      32.761  42.281  46.439  1.00  0.00    +0.000 C 
ATOM     60  F10 UNL A   1      31.845  42.776  45.594  1.00  0.00    +0.000 F 
ENDBRANCH   49   50
BRANCH   64   65
ATOM     65  C43 UNL A   1      31.292  35.646  42.847  1.00  0.00    +0.000 C 
ATOM     66  C44 UNL A   1      31.393  36.061  41.511  1.00  0.00    +0.000 C 
ATOM     67  F11 UNL A   1      30.721  37.144  41.096  1.00  0.00    +0.000 F 
ATOM     68  C45 UNL A   1      32.146  35.340  40.588  1.00  0.00    +0.000 C 
ATOM     69  F12 UNL A   1      32.184  35.730  39.307  1.00  0.00    +0.000 F 
ATOM     70  C46 UNL A   1      32.840  34.207  40.989  1.00  0.00    +0.000 C 
ATOM     71  F13 UNL A   1      33.566  33.514  40.101  1.00  0.00    +0.000 F 
ATOM     72  C47 UNL A   1      32.774  33.791  42.310  1.00  0.00    +0.000 C 
ATOM     73  F14 UNL A   1      33.455  32.706  42.704  1.00  0.00    +0.000 F 
ATOM     74  C48 UNL A   1      31.997  34.495  43.227  1.00  0.00    +0.000 C 
ATOM     75  F15 UNL A   1      31.939  34.059  44.494  1.00  0.00    +0.000 F 
ENDBRANCH   64   65
TORSDOF 19
ENDMDL
MODEL 4
REMARK VINA RESULT:     -11.6     41.928     46.047
ROOT
ATOM     28  C19 UNL A   1      13.993  53.889   5.039  1.00  0.00    +0.000 C 
ATOM     29  C20 UNL A   1      14.942  54.312   3.952  1.00  0.00    +0.000 C 
ATOM     30  N5  UNL A   1      15.424  53.612   2.956  1.00  0.00    +0.000 N 
ATOM     31  C21 UNL A   1      16.215  54.488   2.224  1.00  0.00    +0.000 C 
ATOM     32  C22 UNL A   1      16.975  54.230   1.133  1.00  0.00    +0.000 C 
ATOM     44  C29 UNL A   1      17.105  52.932   0.523  1.00  0.00    +0.000 C 
ATOM     45  C30 UNL A   1      17.909  52.553  -0.538  1.00  0.00    +0.000 C 
ATOM     46  C31 UNL A   1      17.663  51.205  -0.814  1.00  0.00    +0.000 C 
ATOM     47  C32 UNL A   1      16.745  50.728   0.108  1.00  0.00    +0.000 C 
ATOM     48  N6  UNL A   1      16.407  51.801   0.919  1.00  0.00    +0.000 N 
ATOM     49  C33 UNL A   1      16.215  49.396   0.239  1.00  0.00    +0.000 C 
ATOM     61  C40 UNL A   1      15.320  49.007   1.181  1.00  0.00    +0.000 C 
ATOM     62  N7  UNL A   1      14.733  49.756   2.192  1.00  0.00    +0.000 N 
ATOM     63  C41 UNL A   1      13.928  48.940   2.825  1.00  0.00    +0.000 C 
ATOM     64  C42 UNL A   1      13.059  49.203   4.025  1.00  0.00    +0.000 C 
ATOM     76  C49 UNL A   1      13.081  50.422   4.597  1.00  0.00    +0.000 C 
ATOM     77  C50 UNL A   1      12.311  50.818   5.773  1.00  0.00    +0.000 C 
ATOM     78  C51 UNL A   1      12.552  52.112   6.038  1.00  0.00    +0.000 C 
ATOM     79  C52 UNL A   1      13.520  52.628   5.068  1.00  0.00    +0.000 C 
ATOM     80  N8  UNL A   1      13.780  51.554   4.255  1.00  0.00    +0.000 N 
ATOM     81  C53 UNL A   1      13.894  47.580   2.269  1.00  0.00    +0.000 C 
ATOM     82  C54 UNL A   1      14.792  47.664   1.298  1.00  0.00    +0.000 C 
ATOM     83  C55 UNL A   1      16.109  55.784   2.860  1.00  0.00    +0.000 C 
ATOM     84  C56 UNL A   1      15.387  55.714   3.969  1.00  0.00    +0.000 C 
ATOM    117  H22 UNL A   1      18.576  53.162  -1.038  1.00  0.00    +0.000 H 
ATOM    118  H23 UNL A   1      18.094  50.656  -1.576  1.00  0.00    +0.000 H 
ATOM    119  H24 UNL A   1      15.767  51.764   1.666  1.00  0.00    +0.000 H 
ATOM    120  H25 UNL A   1      11.684  50.203   6.314  1.00  0.00    +0.000 H 
ATOM    121  H26 UNL A   1      12.123  52.656   6.802  1.00  0.00    +0.000 H 
ATOM    122  H27 UNL A   1      14.408  51.590   3.498  1.00  0.00    +0.000 H 
ATOM    123  H28 UNL A   1      13.322  46.772   2.558  1.00  0.00    +0.000 H 
ATOM    124  H29 UNL A   1      15.079  46.873   0.702  1.00  0.00    +0.000 H 
ATOM    125  H30 UNL A   1      16.541  56.648   2.497  1.00  0.00    +0.000 H 
ATOM    126  H31 UNL A   1      15.189  56.451   4.664  1.00  0.00    +0.000 H 
ENDROOT
BRANCH   28   27
ATOM    115  H20 UNL A   1      14.382  56.205   9.018  1.00  0.00    +0.000 H 
ATOM    116  H21 UNL A   1      15.220  54.700   7.309  1.00  0.00    +0.000 H 
ATOM     85  C57 UNL A   1      12.299  55.528   5.880  1.00  0.00    +0.000 C 
ATOM     86  C58 UNL A   1      11.859  56.456   6.823  1.00  0.00    +0.000 C 
ATOM     24  C15 UNL A   1      12.591  56.662   7.996  1.00  0.00    +0.000 C 
ATOM     25  C16 UNL A   1      13.824  56.025   8.169  1.00  0.00    +0.000 C 
ATOM     26  C17 UNL A   1      14.297  55.148   7.193  1.00  0.00    +0.000 C 
ATOM     27  C18 UNL A   1      13.526  54.869   6.053  1.00  0.00    +0.000 C 
ATOM    127  H32 UNL A   1      11.720  55.325   5.050  1.00  0.00    +0.000 H 
ATOM    128  H33 UNL A   1      10.993  56.992   6.654  1.00  0.00    +0.000 H 
BRANCH   24   22
ATOM     22  C14 UNL A   1      12.109  57.572   9.059  1.00  0.00    +0.000 C 
ATOM     23  O4  UNL A   1      12.376  58.769   9.001  1.00  0.00    +0.000 O 
BRANCH   22   21
ATOM    114  H19 UNL A   1      11.283  57.701  10.876  1.00  0.00    +0.000 H 
ATOM     21  N4  UNL A   1      11.381  57.085  10.114  1.00  0.00    +0.000 N 
BRANCH   21   20
ATOM    113  H18 UNL A   1      10.425  55.463   9.305  1.00  0.00    +0.000 H 
ATOM     20  C13 UNL A   1      10.734  55.796  10.274  1.00  0.00    +0.000 C 
ATOM    112  H17 UNL A   1       9.900  55.910  10.933  1.00  0.00    +0.000 H 
BRANCH   20   19
ATOM     19  C12 UNL A   1      11.674  54.741  10.850  1.00  0.00    +0.000 C 
ATOM    110  H15 UNL A   1      12.613  55.212  11.057  1.00  0.00    +0.000 H 
ATOM    111  H16 UNL A   1      11.188  54.356  11.722  1.00  0.00    +0.000 H 
BRANCH   19   18
ATOM     18  C11 UNL A   1      11.939  53.535   9.944  1.00  0.00    +0.000 C 
ATOM    108  H13 UNL A   1      11.013  53.017   9.808  1.00  0.00    +0.000 H 
ATOM    109  H14 UNL A   1      12.349  53.935   9.040  1.00  0.00    +0.000 H 
BRANCH   18   17
ATOM     17  C10 UNL A   1      12.971  52.530  10.463  1.00  0.00    +0.000 C 
ATOM    106  H11 UNL A   1      13.148  52.743  11.496  1.00  0.00    +0.000 H 
ATOM    107  H12 UNL A   1      12.553  51.561  10.288  1.00  0.00    +0.000 H 
BRANCH   17   16
ATOM    105  H10 UNL A   1      14.726  53.524   9.882  1.00  0.00    +0.000 H 
ATOM    104  H9  UNL A   1      14.151  52.299   8.714  1.00  0.00    +0.000 H 
ATOM     16  C9  UNL A   1      14.320  52.543   9.742  1.00  0.00    +0.000 C 
BRANCH   16   15
ATOM    103  H8  UNL A   1      14.929  51.063  11.138  1.00  0.00    +0.000 H 
ATOM    102  H7  UNL A   1      16.229  52.114  10.589  1.00  0.00    +0.000 H 
ATOM     15  C8  UNL A   1      15.356  51.568  10.297  1.00  0.00    +0.000 C 
BRANCH   15   14
ATOM    101  H6  UNL A   1      16.699  50.458   9.231  1.00  0.00    +0.000 H 
ATOM     14  N3  UNL A   1      15.726  50.580   9.305  1.00  0.00    +0.000 N 
BRANCH   14   12
ATOM     12  C7  UNL A   1      15.021  49.774   8.446  1.00  0.00    +0.000 C 
ATOM     13  O3  UNL A   1      15.290  49.852   7.249  1.00  0.00    +0.000 O 
BRANCH   12   11
ATOM    129  H34 UNL A   1      14.736  47.451  10.256  1.00  0.00    +0.000 H 
ATOM    130  H35 UNL A   1      14.636  46.815   8.694  1.00  0.00    +0.000 H 
ATOM    131  H36 UNL A   1      12.358  46.208   9.090  1.00  0.00    +0.000 H 
ATOM      9  N1  UNL A   1      11.899  48.247   9.423  1.00  0.00    +0.000 N 
ATOM     10  N2  UNL A   1      12.660  49.216   8.820  1.00  0.00    +0.000 N 
ATOM     11  C6  UNL A   1      13.901  48.838   8.878  1.00  0.00    +0.000 C 
ATOM     87  C59 UNL A   1      14.123  47.456   9.379  1.00  0.00    +0.000 C 
ATOM     88  C60 UNL A   1      12.688  47.027   9.694  1.00  0.00    +0.000 C 
BRANCH    9    8
ATOM     99  H4  UNL A   1       7.990  45.900   9.001  1.00  0.00    +0.000 H 
ATOM    100  H5  UNL A   1      10.257  46.160   9.837  1.00  0.00    +0.000 H 
ATOM      5  C2  UNL A   1       8.013  47.695   7.884  1.00  0.00    +0.000 C 
ATOM      6  C3  UNL A   1       8.549  46.727   8.736  1.00  0.00    +0.000 C 
ATOM      7  C4  UNL A   1       9.850  46.886   9.226  1.00  0.00    +0.000 C 
ATOM    136  H41 UNL A   1       8.362  49.526   6.890  1.00  0.00    +0.000 H 
ATOM    135  H40 UNL A   1      10.607  49.795   7.759  1.00  0.00    +0.000 H 
ATOM      8  C5  UNL A   1      10.611  48.019   8.898  1.00  0.00    +0.000 C 
ATOM     94  C65 UNL A   1      10.051  48.968   8.030  1.00  0.00    +0.000 C 
ATOM     95  C66 UNL A   1       8.760  48.816   7.524  1.00  0.00    +0.000 C 
BRANCH    5    2
ATOM      2  S1  UNL A   1       6.354  47.516   7.275  1.00  0.00    +0.000 S 
ATOM      3  O1  UNL A   1       6.330  48.014   5.911  1.00  0.00    +0.000 O 
ATOM      4  O2  UNL A   1       5.475  48.072   8.284  1.00  0.00    +0.000 O 
BRANCH    2    1
ATOM      1  C1  UNL A   1       6.092  45.765   7.201  1.00  0.00    +0.000 C 
ATOM     98  H3  UNL A   1       5.858  45.397   8.178  1.00  0.00    +0.000 H 
ATOM     97  H2  UNL A   1       5.279  45.554   6.537  1.00  0.00    +0.000 H 
ATOM     96  H1  UNL A   1       6.978  45.285   6.841  1.00  0.00    +0.000 H 
ENDBRANCH    2    1
ENDBRANCH    5    2
ENDBRANCH    9    8
BRANCH   88   89
ATOM    132  H37 UNL A   1      12.358  44.324  10.653  1.00  0.00    +0.000 H 
ATOM    133  H38 UNL A   1      12.062  43.878  13.168  1.00  0.00    +0.000 H 
ATOM    134  H39 UNL A   1      12.216  46.005  14.532  1.00  0.00    +0.000 H 
ATOM     89  C61 UNL A   1      12.506  46.413  11.075  1.00  0.00    +0.000 C 
ATOM     90  C62 UNL A   1      12.357  45.067  11.369  1.00  0.00    +0.000 C 
ATOM     91  C63 UNL A   1      12.201  44.816  12.762  1.00  0.00    +0.000 C 
ATOM     92  C64 UNL A   1      12.259  45.974  13.501  1.00  0.00    +0.000 C 
ATOM     93  S2  UNL A   1      12.407  47.354  12.511  1.00  0.00    +0.000 S 
ENDBRANCH   88   89
ENDBRANCH   12   11
ENDBRANCH   14   12
ENDBRANCH   15   14
ENDBRANCH   16   15
ENDBRANCH   17   16
ENDBRANCH   18   17
ENDBRANCH   19   18
ENDBRANCH   20   19
ENDBRANCH   21   20
ENDBRANCH   22   21
ENDBRANCH   24   22
ENDBRANCH   28   27
BRANCH   32   33
ATOM     33  C23 UNL A   1      17.736  55.373   0.525  1.00  0.00    +0.000 C 
ATOM     34  C24 UNL A   1      18.991  55.766   1.015  1.00  0.00    +0.000 C 
ATOM     35  F1  UNL A   1      19.517  55.160   2.090  1.00  0.00    +0.000 F 
ATOM     36  C25 UNL A   1      19.698  56.808   0.420  1.00  0.00    +0.000 C 
ATOM     37  F2  UNL A   1      20.875  57.195   0.932  1.00  0.00    +0.000 F 
ATOM     38  C26 UNL A   1      19.182  57.454  -0.693  1.00  0.00    +0.000 C 
ATOM     39  F3  UNL A   1      19.869  58.448  -1.271  1.00  0.00    +0.000 F 
ATOM     40  C27 UNL A   1      17.951  57.070  -1.206  1.00  0.00    +0.000 C 
ATOM     41  F4  UNL A   1      17.457  57.684  -2.290  1.00  0.00    +0.000 F 
ATOM     42  C28 UNL A   1      17.229  56.048  -0.596  1.00  0.00    +0.000 C 
ATOM     43  F5  UNL A   1      16.036  55.708  -1.108  1.00  0.00    +0.000 F 
ENDBRANCH   32   33
BRANCH   49   50
ATOM     50  C34 UNL A   1      16.702  48.349  -0.719  1.00  0.00    +0.000 C 
ATOM     51  C35 UNL A   1      15.948  47.968  -1.838  1.00  0.00    +0.000 C 
ATOM     52  F6  UNL A   1      14.738  48.507  -2.054  1.00  0.00    +0.000 F 
ATOM     53  C36 UNL A   1      16.416  46.996  -2.718  1.00  0.00    +0.000 C 
ATOM     54  F7  UNL A   1      15.656  46.609  -3.752  1.00  0.00    +0.000 F 
ATOM     55  C37 UNL A   1      17.660  46.416  -2.519  1.00  0.00    +0.000 C 
ATOM     56  F8  UNL A   1      18.111  45.484  -3.371  1.00  0.00    +0.000 F 
ATOM     57  C38 UNL A   1      18.432  46.795  -1.431  1.00  0.00    +0.000 C 
ATOM     58  F9  UNL A   1      19.640  46.245  -1.244  1.00  0.00    +0.000 F 
ATOM     59  C39 UNL A   1      17.953  47.742  -0.532  1.00  0.00    +0.000 C 
ATOM     60  F10 UNL A   1      18.717  48.077   0.519  1.00  0.00    +0.000 F 
ENDBRANCH   49   50
BRANCH   64   65
ATOM     65  C43 UNL A   1      12.199  48.131   4.592  1.00  0.00    +0.000 C 
ATOM     66  C44 UNL A   1      12.693  47.246   5.560  1.00  0.00    +0.000 C 
ATOM     67  F11 UNL A   1      13.962  47.354   5.979  1.00  0.00    +0.000 F 
ATOM     68  C45 UNL A   1      11.900  46.219   6.068  1.00  0.00    +0.000 C 
ATOM     69  F12 UNL A   1      12.414  45.356   6.954  1.00  0.00    +0.000 F 
ATOM     70  C46 UNL A   1      10.588  46.077   5.641  1.00  0.00    +0.000 C 
ATOM     71  F13 UNL A   1       9.825  45.089   6.130  1.00  0.00    +0.000 F 
ATOM     72  C47 UNL A   1      10.071  46.955   4.701  1.00  0.00    +0.000 C 
ATOM     73  F14 UNL A   1       8.799  46.831   4.298  1.00  0.00    +0.000 F 
ATOM     74  C48 UNL A   1      10.872  47.964   4.172  1.00  0.00    +0.000 C 
ATOM     75  F15 UNL A   1      10.349  48.789   3.252  1.00  0.00    +0.000 F 
ENDBRANCH   64   65
TORSDOF 19
ENDMDL
MODEL 5
REMARK VINA RESULT:     -11.5      1.550      2.232
ROOT
ATOM     28  C19 UNL A   1      24.505  35.518  46.229  1.00  0.00    +0.000 C 
ATOM     29  C20 UNL A   1      25.923  35.413  45.738  1.00  0.00    +0.000 C 
ATOM     30  N5  UNL A   1      26.930  36.226  45.938  1.00  0.00    +0.000 N 
ATOM     31  C21 UNL A   1      28.020  35.643  45.305  1.00  0.00    +0.000 C 
ATOM     32  C22 UNL A   1      29.280  36.124  45.176  1.00  0.00    +0.000 C 
ATOM     44  C29 UNL A   1      29.720  37.393  45.695  1.00  0.00    +0.000 C 
ATOM     45  C30 UNL A   1      30.954  38.002  45.551  1.00  0.00    +0.000 C 
ATOM     46  C31 UNL A   1      30.937  39.202  46.270  1.00  0.00    +0.000 C 
ATOM     47  C32 UNL A   1      29.675  39.366  46.818  1.00  0.00    +0.000 C 
ATOM     48  N6  UNL A   1      28.940  38.246  46.461  1.00  0.00    +0.000 N 
ATOM     49  C33 UNL A   1      29.176  40.462  47.608  1.00  0.00    +0.000 C 
ATOM     61  C40 UNL A   1      27.917  40.551  48.102  1.00  0.00    +0.000 C 
ATOM     62  N7  UNL A   1      26.861  39.659  47.972  1.00  0.00    +0.000 N 
ATOM     63  C41 UNL A   1      25.863  40.180  48.641  1.00  0.00    +0.000 C 
ATOM     64  C42 UNL A   1      24.462  39.660  48.816  1.00  0.00    +0.000 C 
ATOM     76  C49 UNL A   1      24.105  38.514  48.206  1.00  0.00    +0.000 C 
ATOM     77  C50 UNL A   1      22.782  37.899  48.267  1.00  0.00    +0.000 C 
ATOM     78  C51 UNL A   1      22.802  36.750  47.574  1.00  0.00    +0.000 C 
ATOM     79  C52 UNL A   1      24.132  36.564  46.991  1.00  0.00    +0.000 C 
ATOM     80  N8  UNL A   1      24.837  37.661  47.416  1.00  0.00    +0.000 N 
ATOM     81  C53 UNL A   1      26.182  41.456  49.296  1.00  0.00    +0.000 C 
ATOM     82  C54 UNL A   1      27.430  41.658  48.900  1.00  0.00    +0.000 C 
ATOM     83  C55 UNL A   1      27.565  34.383  44.755  1.00  0.00    +0.000 C 
ATOM     84  C56 UNL A   1      26.262  34.225  44.939  1.00  0.00    +0.000 C 
ATOM    117  H22 UNL A   1      31.750  37.635  45.007  1.00  0.00    +0.000 H 
ATOM    118  H23 UNL A   1      31.730  39.855  46.374  1.00  0.00    +0.000 H 
ATOM    119  H24 UNL A   1      28.003  38.081  46.715  1.00  0.00    +0.000 H 
ATOM    120  H25 UNL A   1      21.964  38.286  48.763  1.00  0.00    +0.000 H 
ATOM    121  H26 UNL A   1      22.006  36.102  47.469  1.00  0.00    +0.000 H 
ATOM    122  H27 UNL A   1      25.778  37.823  47.178  1.00  0.00    +0.000 H 
ATOM    123  H28 UNL A   1      25.590  42.042  49.905  1.00  0.00    +0.000 H 
ATOM    124  H29 UNL A   1      27.985  42.496  49.129  1.00  0.00    +0.000 H 
ATOM    125  H30 UNL A   1      28.176  33.699  44.282  1.00  0.00    +0.000 H 
ATOM    126  H31 UNL A   1      25.646  33.467  44.608  1.00  0.00    +0.000 H 
ENDROOT
BRANCH   28   27
ATOM    115  H20 UNL A   1      21.140  33.602  43.709  1.00  0.00    +0.000 H 
ATOM    116  H21 UNL A   1      22.828  35.296  44.119  1.00  0.00    +0.000 H 
ATOM     85  C57 UNL A   1      23.396  33.346  46.789  1.00  0.00    +0.000 C 
ATOM     86  C58 UNL A   1      22.483  32.331  46.507  1.00  0.00    +0.000 C 
ATOM     24  C15 UNL A   1      21.620  32.451  45.414  1.00  0.00    +0.000 C 
ATOM     25  C16 UNL A   1      21.752  33.531  44.536  1.00  0.00    +0.000 C 
ATOM     26  C17 UNL A   1      22.712  34.514  44.782  1.00  0.00    +0.000 C 
ATOM     27  C18 UNL A   1      23.524  34.445  45.926  1.00  0.00    +0.000 C 
ATOM    127  H32 UNL A   1      23.981  33.289  47.638  1.00  0.00    +0.000 H 
ATOM    128  H33 UNL A   1      22.446  31.490  47.104  1.00  0.00    +0.000 H 
BRANCH   24   22
ATOM     22  C14 UNL A   1      20.579  31.437  45.135  1.00  0.00    +0.000 C 
ATOM     23  O4  UNL A   1      20.897  30.362  44.634  1.00  0.00    +0.000 O 
BRANCH   22   21
ATOM    114  H19 UNL A   1      18.951  31.374  46.295  1.00  0.00    +0.000 H 
ATOM     21  N4  UNL A   1      19.262  31.695  45.418  1.00  0.00    +0.000 N 
BRANCH   21   20
ATOM    113  H18 UNL A   1      18.720  32.662  43.695  1.00  0.00    +0.000 H 
ATOM     20  C13 UNL A   1      18.260  32.372  44.616  1.00  0.00    +0.000 C 
ATOM    112  H17 UNL A   1      17.903  33.222  45.159  1.00  0.00    +0.000 H 
BRANCH   20   19
ATOM     19  C12 UNL A   1      17.075  31.471  44.282  1.00  0.00    +0.000 C 
ATOM    110  H15 UNL A   1      16.830  30.908  45.160  1.00  0.00    +0.000 H 
ATOM    111  H16 UNL A   1      16.290  32.121  43.959  1.00  0.00    +0.000 H 
BRANCH   19   18
ATOM     18  C11 UNL A   1      17.308  30.482  43.136  1.00  0.00    +0.000 C 
ATOM    108  H13 UNL A   1      16.424  30.464  42.534  1.00  0.00    +0.000 H 
ATOM    109  H14 UNL A   1      18.178  30.834  42.620  1.00  0.00    +0.000 H 
BRANCH   18   17
ATOM     17  C10 UNL A   1      17.623  29.043  43.555  1.00  0.00    +0.000 C 
ATOM    106  H11 UNL A   1      17.872  28.490  42.673  1.00  0.00    +0.000 H 
ATOM    107  H12 UNL A   1      18.424  29.110  44.260  1.00  0.00    +0.000 H 
BRANCH   17   16
ATOM    105  H10 UNL A   1      16.327  28.825  45.191  1.00  0.00    +0.000 H 
ATOM    104  H9  UNL A   1      16.792  27.287  44.408  1.00  0.00    +0.000 H 
ATOM     16  C9  UNL A   1      16.491  28.304  44.270  1.00  0.00    +0.000 C 
BRANCH   16   15
ATOM    103  H8  UNL A   1      15.050  29.243  43.024  1.00  0.00    +0.000 H 
ATOM    102  H7  UNL A   1      14.364  28.175  44.243  1.00  0.00    +0.000 H 
ATOM     15  C8  UNL A   1      15.154  28.307  43.533  1.00  0.00    +0.000 C 
BRANCH   15   14
ATOM    101  H6  UNL A   1      14.989  26.353  42.962  1.00  0.00    +0.000 H 
ATOM     14  N3  UNL A   1      15.095  27.242  42.554  1.00  0.00    +0.000 N 
BRANCH   14   12
ATOM     12  C7  UNL A   1      15.154  27.196  41.184  1.00  0.00    +0.000 C 
ATOM     13  O3  UNL A   1      15.424  28.240  40.594  1.00  0.00    +0.000 O 
BRANCH   12   11
ATOM    129  H34 UNL A   1      15.514  26.343  38.373  1.00  0.00    +0.000 H 
ATOM    130  H35 UNL A   1      13.852  26.591  38.556  1.00  0.00    +0.000 H 
ATOM    131  H36 UNL A   1      13.470  24.254  38.229  1.00  0.00    +0.000 H 
ATOM      9  N1  UNL A   1      14.662  23.846  39.929  1.00  0.00    +0.000 N 
ATOM     10  N2  UNL A   1      14.760  24.787  40.923  1.00  0.00    +0.000 N 
ATOM     11  C6  UNL A   1      14.858  25.952  40.358  1.00  0.00    +0.000 C 
ATOM     87  C59 UNL A   1      14.654  25.964  38.886  1.00  0.00    +0.000 C 
ATOM     88  C60 UNL A   1      14.445  24.473  38.609  1.00  0.00    +0.000 C 
BRANCH    9    8
ATOM     99  H4  UNL A   1      11.626  20.611  38.796  1.00  0.00    +0.000 H 
ATOM    100  H5  UNL A   1      12.872  22.644  38.325  1.00  0.00    +0.000 H 
ATOM      5  C2  UNL A   1      12.381  20.398  40.759  1.00  0.00    +0.000 C 
ATOM      6  C3  UNL A   1      12.254  21.012  39.510  1.00  0.00    +0.000 C 
ATOM      7  C4  UNL A   1      12.982  22.176  39.238  1.00  0.00    +0.000 C 
ATOM    136  H41 UNL A   1      13.316  20.478  42.651  1.00  0.00    +0.000 H 
ATOM    135  H40 UNL A   1      14.583  22.483  42.159  1.00  0.00    +0.000 H 
ATOM      8  C5  UNL A   1      13.861  22.715  40.190  1.00  0.00    +0.000 C 
ATOM     94  C65 UNL A   1      13.959  22.085  41.439  1.00  0.00    +0.000 C 
ATOM     95  C66 UNL A   1      13.230  20.932  41.729  1.00  0.00    +0.000 C 
BRANCH    5    2
ATOM      2  S1  UNL A   1      11.479  18.909  41.107  1.00  0.00    +0.000 S 
ATOM      3  O1  UNL A   1      10.160  19.293  41.579  1.00  0.00    +0.000 O 
ATOM      4  O2  UNL A   1      12.344  18.076  41.919  1.00  0.00    +0.000 O 
BRANCH    2    1
ATOM      1  C1  UNL A   1      11.268  18.133  39.528  1.00  0.00    +0.000 C 
ATOM     98  H3  UNL A   1      10.315  18.402  39.123  1.00  0.00    +0.000 H 
ATOM     97  H2  UNL A   1      12.042  18.460  38.864  1.00  0.00    +0.000 H 
ATOM     96  H1  UNL A   1      11.322  17.070  39.642  1.00  0.00    +0.000 H 
ENDBRANCH    2    1
ENDBRANCH    5    2
ENDBRANCH    9    8
BRANCH   88   89
ATOM    132  H37 UNL A   1      14.669  25.105  35.800  1.00  0.00    +0.000 H 
ATOM    133  H38 UNL A   1      16.299  23.787  34.310  1.00  0.00    +0.000 H 
ATOM    134  H39 UNL A   1      17.630  22.088  35.634  1.00  0.00    +0.000 H 
ATOM     89  C61 UNL A   1      15.290  23.923  37.468  1.00  0.00    +0.000 C 
ATOM     90  C62 UNL A   1      15.275  24.346  36.148  1.00  0.00    +0.000 C 
ATOM     91  C63 UNL A   1      16.184  23.623  35.322  1.00  0.00    +0.000 C 
ATOM     92  C64 UNL A   1      16.888  22.683  36.037  1.00  0.00    +0.000 C 
ATOM     93  S2  UNL A   1      16.388  22.614  37.665  1.00  0.00    +0.000 S 
ENDBRANCH   88   89
ENDBRANCH   12   11
ENDBRANCH   14   12
ENDBRANCH   15   14
ENDBRANCH   16   15
ENDBRANCH   17   16
ENDBRANCH   18   17
ENDBRANCH   19   18
ENDBRANCH   20   19
ENDBRANCH   21   20
ENDBRANCH   22   21
ENDBRANCH   24   22
ENDBRANCH   28   27
BRANCH   32   33
ATOM     33  C23 UNL A   1      30.278  35.279  44.440  1.00  0.00    +0.000 C 
ATOM     34  C24 UNL A   1      30.941  34.209  45.062  1.00  0.00    +0.000 C 
ATOM     35  F1  UNL A   1      30.739  33.956  46.364  1.00  0.00    +0.000 F 
ATOM     36  C25 UNL A   1      31.841  33.416  44.357  1.00  0.00    +0.000 C 
ATOM     37  F2  UNL A   1      32.495  32.428  44.984  1.00  0.00    +0.000 F 
ATOM     38  C26 UNL A   1      32.071  33.651  43.010  1.00  0.00    +0.000 C 
ATOM     39  F3  UNL A   1      32.929  32.879  42.330  1.00  0.00    +0.000 F 
ATOM     40  C27 UNL A   1      31.414  34.691  42.369  1.00  0.00    +0.000 C 
ATOM     41  F4  UNL A   1      31.625  34.912  41.064  1.00  0.00    +0.000 F 
ATOM     42  C28 UNL A   1      30.535  35.505  43.079  1.00  0.00    +0.000 C 
ATOM     43  F5  UNL A   1      29.924  36.510  42.434  1.00  0.00    +0.000 F 
ENDBRANCH   32   33
BRANCH   49   50
ATOM     50  C34 UNL A   1      30.106  41.604  47.890  1.00  0.00    +0.000 C 
ATOM     51  C35 UNL A   1      30.095  42.772  47.112  1.00  0.00    +0.000 C 
ATOM     52  F6  UNL A   1      29.270  42.874  46.059  1.00  0.00    +0.000 F 
ATOM     53  C36 UNL A   1      30.963  43.824  47.389  1.00  0.00    +0.000 C 
ATOM     54  F7  UNL A   1      30.971  44.908  46.601  1.00  0.00    +0.000 F 
ATOM     55  C37 UNL A   1      31.832  43.746  48.467  1.00  0.00    +0.000 C 
ATOM     56  F8  UNL A   1      32.664  44.762  48.734  1.00  0.00    +0.000 F 
ATOM     57  C38 UNL A   1      31.845  42.610  49.263  1.00  0.00    +0.000 C 
ATOM     58  F9  UNL A   1      32.673  42.539  50.314  1.00  0.00    +0.000 F 
ATOM     59  C39 UNL A   1      31.000  41.544  48.970  1.00  0.00    +0.000 C 
ATOM     60  F10 UNL A   1      31.045  40.453  49.750  1.00  0.00    +0.000 F 
ENDBRANCH   49   50
BRANCH   64   65
ATOM     65  C43 UNL A   1      23.470  40.406  49.635  1.00  0.00    +0.000 C 
ATOM     66  C44 UNL A   1      23.205  40.037  50.961  1.00  0.00    +0.000 C 
ATOM     67  F11 UNL A   1      23.842  38.989  51.503  1.00  0.00    +0.000 F 
ATOM     68  C45 UNL A   1      22.251  40.712  51.719  1.00  0.00    +0.000 C 
ATOM     69  F12 UNL A   1      21.981  40.305  52.966  1.00  0.00    +0.000 F 
ATOM     70  C46 UNL A   1      21.567  41.790  51.178  1.00  0.00    +0.000 C 
ATOM     71  F13 UNL A   1      20.651  42.441  51.908  1.00  0.00    +0.000 F 
ATOM     72  C47 UNL A   1      21.830  42.189  49.876  1.00  0.00    +0.000 C 
ATOM     73  F14 UNL A   1      21.183  43.240  49.354  1.00  0.00    +0.000 F 
ATOM     74  C48 UNL A   1      22.762  41.496  49.107  1.00  0.00    +0.000 C 
ATOM     75  F15 UNL A   1      22.984  41.894  47.845  1.00  0.00    +0.000 F 
ENDBRANCH   64   65
TORSDOF 19
ENDMDL
MODEL 6
REMARK VINA RESULT:     -11.4     20.505     25.926
ROOT
ATOM     28  C19 UNL A   1      40.529  28.105  29.053  1.00  0.00    +0.000 C 
ATOM     29  C20 UNL A   1      41.910  28.248  29.633  1.00  0.00    +0.000 C 
ATOM     30  N5  UNL A   1      42.410  29.226  30.347  1.00  0.00    +0.000 N 
ATOM     31  C21 UNL A   1      43.706  28.840  30.663  1.00  0.00    +0.000 C 
ATOM     32  C22 UNL A   1      44.653  29.534  31.338  1.00  0.00    +0.000 C 
ATOM     44  C29 UNL A   1      44.467  30.862  31.861  1.00  0.00    +0.000 C 
ATOM     45  C30 UNL A   1      45.389  31.678  32.493  1.00  0.00    +0.000 C 
ATOM     46  C31 UNL A   1      44.743  32.859  32.872  1.00  0.00    +0.000 C 
ATOM     47  C32 UNL A   1      43.431  32.802  32.430  1.00  0.00    +0.000 C 
ATOM     48  N6  UNL A   1      43.274  31.569  31.816  1.00  0.00    +0.000 N 
ATOM     49  C33 UNL A   1      42.397  33.796  32.558  1.00  0.00    +0.000 C 
ATOM     61  C40 UNL A   1      41.133  33.665  32.087  1.00  0.00    +0.000 C 
ATOM     62  N7  UNL A   1      40.560  32.601  31.403  1.00  0.00    +0.000 N 
ATOM     63  C41 UNL A   1      39.315  32.942  31.181  1.00  0.00    +0.000 C 
ATOM     64  C42 UNL A   1      38.238  32.185  30.452  1.00  0.00    +0.000 C 
ATOM     76  C49 UNL A   1      38.531  30.992  29.901  1.00  0.00    +0.000 C 
ATOM     77  C50 UNL A   1      37.600  30.155  29.150  1.00  0.00    +0.000 C 
ATOM     78  C51 UNL A   1      38.224  29.025  28.785  1.00  0.00    +0.000 C 
ATOM     79  C52 UNL A   1      39.612  29.072  29.249  1.00  0.00    +0.000 C 
ATOM     80  N8  UNL A   1      39.705  30.277  29.897  1.00  0.00    +0.000 N 
ATOM     81  C53 UNL A   1      38.948  34.256  31.725  1.00  0.00    +0.000 C 
ATOM     82  C54 UNL A   1      40.102  34.672  32.227  1.00  0.00    +0.000 C 
ATOM     83  C55 UNL A   1      43.901  27.518  30.106  1.00  0.00    +0.000 C 
ATOM     84  C56 UNL A   1      42.844  27.135  29.404  1.00  0.00    +0.000 C 
ATOM    117  H22 UNL A   1      46.383  31.454  32.655  1.00  0.00    +0.000 H 
ATOM    118  H23 UNL A   1      45.170  33.642  33.393  1.00  0.00    +0.000 H 
ATOM    119  H24 UNL A   1      42.439  31.243  31.408  1.00  0.00    +0.000 H 
ATOM    120  H25 UNL A   1      36.620  30.394  28.935  1.00  0.00    +0.000 H 
ATOM    121  H26 UNL A   1      37.795  28.246  28.261  1.00  0.00    +0.000 H 
ATOM    122  H27 UNL A   1      40.533  30.600  30.320  1.00  0.00    +0.000 H 
ATOM    123  H28 UNL A   1      38.032  34.732  31.718  1.00  0.00    +0.000 H 
ATOM    124  H29 UNL A   1      40.247  35.596  32.662  1.00  0.00    +0.000 H 
ATOM    125  H30 UNL A   1      44.752  26.950  30.238  1.00  0.00    +0.000 H 
ATOM    126  H31 UNL A   1      42.711  26.279  28.843  1.00  0.00    +0.000 H 
ENDROOT
BRANCH   28   27
ATOM    115  H20 UNL A   1      40.364  25.462  25.267  1.00  0.00    +0.000 H 
ATOM    116  H21 UNL A   1      41.103  27.415  26.501  1.00  0.00    +0.000 H 
ATOM     85  C57 UNL A   1      39.408  25.870  28.950  1.00  0.00    +0.000 C 
ATOM     86  C58 UNL A   1      39.056  24.710  28.262  1.00  0.00    +0.000 C 
ATOM     24  C15 UNL A   1      39.356  24.585  26.903  1.00  0.00    +0.000 C 
ATOM     25  C16 UNL A   1      40.111  25.571  26.261  1.00  0.00    +0.000 C 
ATOM     26  C17 UNL A   1      40.522  26.702  26.968  1.00  0.00    +0.000 C 
ATOM     27  C18 UNL A   1      40.150  26.875  28.311  1.00  0.00    +0.000 C 
ATOM    127  H32 UNL A   1      39.121  25.991  29.934  1.00  0.00    +0.000 H 
ATOM    128  H33 UNL A   1      38.575  23.942  28.758  1.00  0.00    +0.000 H 
BRANCH   24   22
ATOM     22  C14 UNL A   1      38.919  23.407  26.120  1.00  0.00    +0.000 C 
ATOM     23  O4  UNL A   1      37.905  23.477  25.431  1.00  0.00    +0.000 O 
BRANCH   22   21
ATOM    114  H19 UNL A   1      39.114  21.422  25.968  1.00  0.00    +0.000 H 
ATOM     21  N4  UNL A   1      39.631  22.235  26.171  1.00  0.00    +0.000 N 
BRANCH   21   20
ATOM    113  H18 UNL A   1      41.336  22.776  27.170  1.00  0.00    +0.000 H 
ATOM     20  C13 UNL A   1      41.032  22.017  26.480  1.00  0.00    +0.000 C 
ATOM    112  H17 UNL A   1      41.595  22.066  25.572  1.00  0.00    +0.000 H 
BRANCH   20   19
ATOM     19  C12 UNL A   1      41.279  20.663  27.138  1.00  0.00    +0.000 C 
ATOM    110  H15 UNL A   1      42.144  20.751  27.762  1.00  0.00    +0.000 H 
ATOM    111  H16 UNL A   1      40.385  20.429  27.677  1.00  0.00    +0.000 H 
BRANCH   19   18
ATOM     18  C11 UNL A   1      41.509  19.498  26.172  1.00  0.00    +0.000 C 
ATOM    108  H13 UNL A   1      40.722  18.788  26.319  1.00  0.00    +0.000 H 
ATOM    109  H14 UNL A   1      41.526  19.930  25.193  1.00  0.00    +0.000 H 
BRANCH   18   17
ATOM     17  C10 UNL A   1      42.843  18.762  26.327  1.00  0.00    +0.000 C 
ATOM    106  H11 UNL A   1      43.328  19.139  27.203  1.00  0.00    +0.000 H 
ATOM    107  H12 UNL A   1      42.602  17.722  26.383  1.00  0.00    +0.000 H 
BRANCH   17   16
ATOM    105  H10 UNL A   1      43.612  19.863  24.713  1.00  0.00    +0.000 H 
ATOM    104  H9  UNL A   1      43.648  18.090  24.482  1.00  0.00    +0.000 H 
ATOM     16  C9  UNL A   1      43.813  18.907  25.153  1.00  0.00    +0.000 C 
BRANCH   16   15
ATOM    103  H8  UNL A   1      45.791  18.156  24.971  1.00  0.00    +0.000 H 
ATOM    102  H7  UNL A   1      45.381  18.723  26.585  1.00  0.00    +0.000 H 
ATOM     15  C8  UNL A   1      45.291  18.914  25.536  1.00  0.00    +0.000 C 
BRANCH   15   14
ATOM    101  H6  UNL A   1      46.885  20.165  25.272  1.00  0.00    +0.000 H 
ATOM     14  N3  UNL A   1      45.902  20.192  25.233  1.00  0.00    +0.000 N 
BRANCH   14   12
ATOM     12  C7  UNL A   1      45.417  21.432  24.904  1.00  0.00    +0.000 C 
ATOM     13  O3  UNL A   1      45.025  21.598  23.751  1.00  0.00    +0.000 O 
BRANCH   12   11
ATOM    129  H34 UNL A   1      45.903  24.346  24.734  1.00  0.00    +0.000 H 
ATOM    130  H35 UNL A   1      47.220  23.723  25.589  1.00  0.00    +0.000 H 
ATOM    131  H36 UNL A   1      46.511  24.907  27.541  1.00  0.00    +0.000 H 
ATOM      9  N1  UNL A   1      44.687  23.835  27.498  1.00  0.00    +0.000 N 
ATOM     10  N2  UNL A   1      44.653  22.586  26.931  1.00  0.00    +0.000 N 
ATOM     11  C6  UNL A   1      45.384  22.618  25.858  1.00  0.00    +0.000 C 
ATOM     87  C59 UNL A   1      46.162  23.867  25.655  1.00  0.00    +0.000 C 
ATOM     88  C60 UNL A   1      45.711  24.691  26.863  1.00  0.00    +0.000 C 
BRANCH    9    8
ATOM     99  H4  UNL A   1      43.052  22.686  31.617  1.00  0.00    +0.000 H 
ATOM    100  H5  UNL A   1      42.988  22.621  29.189  1.00  0.00    +0.000 H 
ATOM      5  C2  UNL A   1      44.681  24.030  31.709  1.00  0.00    +0.000 C 
ATOM      6  C3  UNL A   1      43.730  23.234  31.065  1.00  0.00    +0.000 C 
ATOM      7  C4  UNL A   1      43.704  23.189  29.667  1.00  0.00    +0.000 C 
ATOM    136  H41 UNL A   1      46.300  25.362  31.451  1.00  0.00    +0.000 H 
ATOM    135  H40 UNL A   1      46.252  25.261  29.031  1.00  0.00    +0.000 H 
ATOM      8  C5  UNL A   1      44.639  23.907  28.905  1.00  0.00    +0.000 C 
ATOM     94  C65 UNL A   1      45.573  24.708  29.578  1.00  0.00    +0.000 C 
ATOM     95  C66 UNL A   1      45.603  24.772  30.971  1.00  0.00    +0.000 C 
BRANCH    5    2
ATOM      2  S1  UNL A   1      44.738  24.077  33.484  1.00  0.00    +0.000 S 
ATOM      3  O1  UNL A   1      44.003  25.252  33.917  1.00  0.00    +0.000 O 
ATOM      4  O2  UNL A   1      46.123  23.885  33.863  1.00  0.00    +0.000 O 
BRANCH    2    1
ATOM      1  C1  UNL A   1      43.811  22.657  33.999  1.00  0.00    +0.000 C 
ATOM     98  H3  UNL A   1      43.340  22.210  33.149  1.00  0.00    +0.000 H 
ATOM     97  H2  UNL A   1      44.470  21.948  34.456  1.00  0.00    +0.000 H 
ATOM     96  H1  UNL A   1      43.064  22.955  34.705  1.00  0.00    +0.000 H 
ENDBRANCH    2    1
ENDBRANCH    5    2
ENDBRANCH    9    8
BRANCH   88   89
ATOM    132  H37 UNL A   1      43.352  25.820  25.640  1.00  0.00    +0.000 H 
ATOM    133  H38 UNL A   1      43.171  28.362  25.298  1.00  0.00    +0.000 H 
ATOM    134  H39 UNL A   1      45.175  29.590  26.239  1.00  0.00    +0.000 H 
ATOM     89  C61 UNL A   1      45.274  26.110  26.527  1.00  0.00    +0.000 C 
ATOM     90  C62 UNL A   1      44.084  26.489  25.926  1.00  0.00    +0.000 C 
ATOM     91  C63 UNL A   1      43.977  27.897  25.743  1.00  0.00    +0.000 C 
ATOM     92  C64 UNL A   1      45.077  28.562  26.231  1.00  0.00    +0.000 C 
ATOM     93  S2  UNL A   1      46.262  27.487  26.818  1.00  0.00    +0.000 S 
ENDBRANCH   88   89
ENDBRANCH   12   11
ENDBRANCH   14   12
ENDBRANCH   15   14
ENDBRANCH   16   15
ENDBRANCH   17   16
ENDBRANCH   18   17
ENDBRANCH   19   18
ENDBRANCH   20   19
ENDBRANCH   21   20
ENDBRANCH   22   21
ENDBRANCH   24   22
ENDBRANCH   28   27
BRANCH   32   33
ATOM     33  C23 UNL A   1      45.985  28.874  31.549  1.00  0.00    +0.000 C 
ATOM     34  C24 UNL A   1      46.260  28.118  32.698  1.00  0.00    +0.000 C 
ATOM     35  F1  UNL A   1      45.346  28.019  33.676  1.00  0.00    +0.000 F 
ATOM     36  C25 UNL A   1      47.490  27.487  32.865  1.00  0.00    +0.000 C 
ATOM     37  F2  UNL A   1      47.745  26.806  33.990  1.00  0.00    +0.000 F 
ATOM     38  C26 UNL A   1      48.455  27.569  31.872  1.00  0.00    +0.000 C 
ATOM     39  F3  UNL A   1      49.633  26.951  32.028  1.00  0.00    +0.000 F 
ATOM     40  C27 UNL A   1      48.199  28.295  30.719  1.00  0.00    +0.000 C 
ATOM     41  F4  UNL A   1      49.125  28.365  29.752  1.00  0.00    +0.000 F 
ATOM     42  C28 UNL A   1      46.981  28.952  30.563  1.00  0.00    +0.000 C 
ATOM     43  F5  UNL A   1      46.768  29.657  29.441  1.00  0.00    +0.000 F 
ENDBRANCH   32   33
BRANCH   49   50
ATOM     50  C34 UNL A   1      42.744  35.085  33.242  1.00  0.00    +0.000 C 
ATOM     51  C35 UNL A   1      42.622  35.237  34.631  1.00  0.00    +0.000 C 
ATOM     52  F6  UNL A   1      42.144  34.233  35.382  1.00  0.00    +0.000 F 
ATOM     53  C36 UNL A   1      42.951  36.440  35.251  1.00  0.00    +0.000 C 
ATOM     54  F7  UNL A   1      42.778  36.581  36.572  1.00  0.00    +0.000 F 
ATOM     55  C37 UNL A   1      43.443  37.499  34.501  1.00  0.00    +0.000 C 
ATOM     56  F8  UNL A   1      43.763  38.654  35.100  1.00  0.00    +0.000 F 
ATOM     57  C38 UNL A   1      43.592  37.362  33.129  1.00  0.00    +0.000 C 
ATOM     58  F9  UNL A   1      44.080  38.379  32.405  1.00  0.00    +0.000 F 
ATOM     59  C39 UNL A   1      43.235  36.172  32.503  1.00  0.00    +0.000 C 
ATOM     60  F10 UNL A   1      43.378  36.076  31.173  1.00  0.00    +0.000 F 
ENDBRANCH   49   50
BRANCH   64   65
ATOM     65  C43 UNL A   1      36.869  32.749  30.319  1.00  0.00    +0.000 C 
ATOM     66  C44 UNL A   1      36.483  33.442  29.163  1.00  0.00    +0.000 C 
ATOM     67  F11 UNL A   1      37.359  33.614  28.163  1.00  0.00    +0.000 F 
ATOM     68  C45 UNL A   1      35.212  34.002  29.050  1.00  0.00    +0.000 C 
ATOM     69  F12 UNL A   1      34.887  34.703  27.957  1.00  0.00    +0.000 F 
ATOM     70  C46 UNL A   1      34.291  33.850  30.076  1.00  0.00    +0.000 C 
ATOM     71  F13 UNL A   1      33.068  34.387  29.967  1.00  0.00    +0.000 F 
ATOM     72  C47 UNL A   1      34.643  33.148  31.219  1.00  0.00    +0.000 C 
ATOM     73  F14 UNL A   1      33.751  32.987  32.206  1.00  0.00    +0.000 F 
ATOM     74  C48 UNL A   1      35.923  32.614  31.346  1.00  0.00    +0.000 C 
ATOM     75  F15 UNL A   1      36.240  31.954  32.469  1.00  0.00    +0.000 F 
ENDBRANCH   64   65
TORSDOF 19
ENDMDL
MODEL 7
REMARK VINA RESULT:     -11.4     20.019     24.992
ROOT
ATOM     28  C19 UNL A   1      41.910  26.897  27.714  1.00  0.00    +0.000 C 
ATOM     29  C20 UNL A   1      43.317  27.149  27.243  1.00  0.00    +0.000 C 
ATOM     30  N5  UNL A   1      44.081  28.194  27.442  1.00  0.00    +0.000 N 
ATOM     31  C21 UNL A   1      45.294  27.898  26.835  1.00  0.00    +0.000 C 
ATOM     32  C22 UNL A   1      46.393  28.681  26.714  1.00  0.00    +0.000 C 
ATOM     44  C29 UNL A   1      46.487  30.027  27.215  1.00  0.00    +0.000 C 
ATOM     45  C30 UNL A   1      47.529  30.929  27.076  1.00  0.00    +0.000 C 
ATOM     46  C31 UNL A   1      47.195  32.095  27.772  1.00  0.00    +0.000 C 
ATOM     47  C32 UNL A   1      45.923  31.941  28.300  1.00  0.00    +0.000 C 
ATOM     48  N6  UNL A   1      45.503  30.666  27.955  1.00  0.00    +0.000 N 
ATOM     49  C33 UNL A   1      45.148  32.885  29.063  1.00  0.00    +0.000 C 
ATOM     61  C40 UNL A   1      43.899  32.659  29.539  1.00  0.00    +0.000 C 
ATOM     62  N7  UNL A   1      43.107  31.526  29.411  1.00  0.00    +0.000 N 
ATOM     63  C41 UNL A   1      41.997  31.786  30.057  1.00  0.00    +0.000 C 
ATOM     64  C42 UNL A   1      40.771  30.930  30.223  1.00  0.00    +0.000 C 
ATOM     76  C49 UNL A   1      40.728  29.722  29.629  1.00  0.00    +0.000 C 
ATOM     77  C50 UNL A   1      39.604  28.792  29.684  1.00  0.00    +0.000 C 
ATOM     78  C51 UNL A   1      39.926  27.676  29.013  1.00  0.00    +0.000 C 
ATOM     79  C52 UNL A   1      41.270  27.825  28.451  1.00  0.00    +0.000 C 
ATOM     80  N8  UNL A   1      41.667  29.071  28.865  1.00  0.00    +0.000 N 
ATOM     81  C53 UNL A   1      41.970  33.111  30.692  1.00  0.00    +0.000 C 
ATOM     82  C54 UNL A   1      43.134  33.617  30.308  1.00  0.00    +0.000 C 
ATOM     83  C55 UNL A   1      45.183  26.556  26.303  1.00  0.00    +0.000 C 
ATOM     84  C56 UNL A   1      43.960  26.075  26.472  1.00  0.00    +0.000 C 
ATOM    117  H22 UNL A   1      48.401  30.767  26.550  1.00  0.00    +0.000 H 
ATOM    118  H23 UNL A   1      47.794  32.929  27.875  1.00  0.00    +0.000 H 
ATOM    119  H24 UNL A   1      44.634  30.271  28.199  1.00  0.00    +0.000 H 
ATOM    120  H25 UNL A   1      38.706  28.966  30.161  1.00  0.00    +0.000 H 
ATOM    121  H26 UNL A   1      39.323  26.845  28.909  1.00  0.00    +0.000 H 
ATOM    122  H27 UNL A   1      42.540  29.463  28.637  1.00  0.00    +0.000 H 
ATOM    123  H28 UNL A   1      41.238  33.536  31.281  1.00  0.00    +0.000 H 
ATOM    124  H29 UNL A   1      43.454  34.572  30.530  1.00  0.00    +0.000 H 
ATOM    125  H30 UNL A   1      45.956  26.043  25.851  1.00  0.00    +0.000 H 
ATOM    126  H31 UNL A   1      43.563  25.179  26.146  1.00  0.00    +0.000 H 
ENDROOT
BRANCH   28   27
ATOM    115  H20 UNL A   1      41.316  22.345  28.238  1.00  0.00    +0.000 H 
ATOM    116  H21 UNL A   1      42.332  24.468  28.827  1.00  0.00    +0.000 H 
ATOM     85  C57 UNL A   1      40.219  25.549  26.455  1.00  0.00    +0.000 C 
ATOM     86  C58 UNL A   1      39.578  24.342  26.179  1.00  0.00    +0.000 C 
ATOM     24  C15 UNL A   1      40.016  23.163  26.788  1.00  0.00    +0.000 C 
ATOM     25  C16 UNL A   1      41.018  23.210  27.762  1.00  0.00    +0.000 C 
ATOM     26  C17 UNL A   1      41.613  24.430  28.088  1.00  0.00    +0.000 C 
ATOM     27  C18 UNL A   1      41.239  25.606  27.418  1.00  0.00    +0.000 C 
ATOM    127  H32 UNL A   1      39.942  26.405  25.950  1.00  0.00    +0.000 H 
ATOM    128  H33 UNL A   1      38.779  24.320  25.525  1.00  0.00    +0.000 H 
BRANCH   24   22
ATOM     22  C14 UNL A   1      39.419  21.851  26.451  1.00  0.00    +0.000 C 
ATOM     23  O4  UNL A   1      40.067  20.824  26.630  1.00  0.00    +0.000 O 
BRANCH   22   21
ATOM    114  H19 UNL A   1      37.526  22.467  26.244  1.00  0.00    +0.000 H 
ATOM     21  N4  UNL A   1      38.153  21.776  25.927  1.00  0.00    +0.000 N 
BRANCH   21   20
ATOM    113  H18 UNL A   1      37.314  19.953  25.516  1.00  0.00    +0.000 H 
ATOM     20  C13 UNL A   1      37.601  20.830  24.975  1.00  0.00    +0.000 C 
ATOM    112  H17 UNL A   1      38.345  20.611  24.239  1.00  0.00    +0.000 H 
BRANCH   20   19
ATOM     19  C12 UNL A   1      36.359  21.370  24.272  1.00  0.00    +0.000 C 
ATOM    110  H15 UNL A   1      36.157  20.742  23.429  1.00  0.00    +0.000 H 
ATOM    111  H16 UNL A   1      35.579  21.366  25.005  1.00  0.00    +0.000 H 
BRANCH   19   18
ATOM     18  C11 UNL A   1      36.465  22.813  23.773  1.00  0.00    +0.000 C 
ATOM    108  H13 UNL A   1      37.294  23.272  24.267  1.00  0.00    +0.000 H 
ATOM    109  H14 UNL A   1      36.576  22.746  22.710  1.00  0.00    +0.000 H 
BRANCH   18   17
ATOM     17  C10 UNL A   1      35.231  23.689  24.009  1.00  0.00    +0.000 C 
ATOM    106  H11 UNL A   1      35.283  24.520  23.337  1.00  0.00    +0.000 H 
ATOM    107  H12 UNL A   1      34.385  23.056  23.845  1.00  0.00    +0.000 H 
BRANCH   17   16
ATOM    105  H10 UNL A   1      34.490  25.130  25.342  1.00  0.00    +0.000 H 
ATOM    104  H9  UNL A   1      36.057  24.415  25.823  1.00  0.00    +0.000 H 
ATOM     16  C9  UNL A   1      35.078  24.240  25.427  1.00  0.00    +0.000 C 
BRANCH   16   15
ATOM    103  H8  UNL A   1      34.733  23.472  27.378  1.00  0.00    +0.000 H 
ATOM    102  H7  UNL A   1      34.461  22.309  26.086  1.00  0.00    +0.000 H 
ATOM     15  C8  UNL A   1      34.332  23.325  26.396  1.00  0.00    +0.000 C 
BRANCH   15   14
ATOM    101  H6  UNL A   1      32.491  23.399  27.279  1.00  0.00    +0.000 H 
ATOM     14  N3  UNL A   1      32.918  23.637  26.425  1.00  0.00    +0.000 N 
BRANCH   14   12
ATOM     12  C7  UNL A   1      32.041  24.191  25.527  1.00  0.00    +0.000 C 
ATOM     13  O3  UNL A   1      31.368  23.421  24.845  1.00  0.00    +0.000 O 
BRANCH   12   11
ATOM    129  H34 UNL A   1      30.725  25.935  23.531  1.00  0.00    +0.000 H 
ATOM    130  H35 UNL A   1      32.381  26.073  23.222  1.00  0.00    +0.000 H 
ATOM    131  H36 UNL A   1      32.310  28.369  23.884  1.00  0.00    +0.000 H 
ATOM      9  N1  UNL A   1      31.648  27.770  25.803  1.00  0.00    +0.000 N 
ATOM     10  N2  UNL A   1      31.992  26.528  26.275  1.00  0.00    +0.000 N 
ATOM     11  C6  UNL A   1      31.892  25.688  25.291  1.00  0.00    +0.000 C 
ATOM     87  C59 UNL A   1      31.637  26.296  23.959  1.00  0.00    +0.000 C 
ATOM     88  C60 UNL A   1      31.538  27.777  24.329  1.00  0.00    +0.000 C 
BRANCH    9    8
ATOM     99  H4  UNL A   1      31.942  32.123  27.191  1.00  0.00    +0.000 H 
ATOM    100  H5  UNL A   1      30.771  30.292  26.104  1.00  0.00    +0.000 H 
ATOM      5  C2  UNL A   1      33.699  31.007  27.562  1.00  0.00    +0.000 C 
ATOM      6  C3  UNL A   1      32.399  31.203  27.089  1.00  0.00    +0.000 C 
ATOM      7  C4  UNL A   1      31.723  30.143  26.474  1.00  0.00    +0.000 C 
ATOM    136  H41 UNL A   1      35.284  29.627  27.776  1.00  0.00    +0.000 H 
ATOM    135  H40 UNL A   1      34.094  27.798  26.725  1.00  0.00    +0.000 H 
ATOM      8  C5  UNL A   1      32.321  28.879  26.355  1.00  0.00    +0.000 C 
ATOM     94  C65 UNL A   1      33.631  28.715  26.827  1.00  0.00    +0.000 C 
ATOM     95  C66 UNL A   1      34.322  29.766  27.430  1.00  0.00    +0.000 C 
BRANCH    5    2
ATOM      2  S1  UNL A   1      34.558  32.338  28.364  1.00  0.00    +0.000 S 
ATOM      3  O1  UNL A   1      35.826  32.519  27.679  1.00  0.00    +0.000 O 
ATOM      4  O2  UNL A   1      34.514  32.067  29.786  1.00  0.00    +0.000 O 
BRANCH    2    1
ATOM      1  C1  UNL A   1      33.571  33.772  28.032  1.00  0.00    +0.000 C 
ATOM     98  H3  UNL A   1      33.922  34.592  28.623  1.00  0.00    +0.000 H 
ATOM     97  H2  UNL A   1      33.645  34.023  26.994  1.00  0.00    +0.000 H 
ATOM     96  H1  UNL A   1      32.549  33.567  28.276  1.00  0.00    +0.000 H 
ENDBRANCH    2    1
ENDBRANCH    5    2
ENDBRANCH    9    8
BRANCH   88   89
ATOM    132  H37 UNL A   1      30.957  30.520  23.636  1.00  0.00    +0.000 H 
ATOM    133  H38 UNL A   1      28.643  31.151  22.709  1.00  0.00    +0.000 H 
ATOM    134  H39 UNL A   1      27.153  29.125  22.424  1.00  0.00    +0.000 H 
ATOM     89  C61 UNL A   1      30.316  28.485  23.760  1.00  0.00    +0.000 C 
ATOM     90  C62 UNL A   1      30.198  29.838  23.481  1.00  0.00    +0.000 C 
ATOM     91  C63 UNL A   1      28.920  30.189  22.959  1.00  0.00    +0.000 C 
ATOM     92  C64 UNL A   1      28.102  29.092  22.828  1.00  0.00    +0.000 C 
ATOM     93  S2  UNL A   1      28.839  27.673  23.417  1.00  0.00    +0.000 S 
ENDBRANCH   88   89
ENDBRANCH   12   11
ENDBRANCH   14   12
ENDBRANCH   15   14
ENDBRANCH   16   15
ENDBRANCH   17   16
ENDBRANCH   18   17
ENDBRANCH   19   18
ENDBRANCH   20   19
ENDBRANCH   21   20
ENDBRANCH   22   21
ENDBRANCH   24   22
ENDBRANCH   28   27
BRANCH   32   33
ATOM     33  C23 UNL A   1      47.586  28.106  26.007  1.00  0.00    +0.000 C 
ATOM     34  C24 UNL A   1      48.690  27.605  26.713  1.00  0.00    +0.000 C 
ATOM     35  F1  UNL A   1      48.729  27.686  28.052  1.00  0.00    +0.000 F 
ATOM     36  C25 UNL A   1      49.776  27.047  26.044  1.00  0.00    +0.000 C 
ATOM     37  F2  UNL A   1      50.838  26.614  26.737  1.00  0.00    +0.000 F 
ATOM     38  C26 UNL A   1      49.766  26.947  24.661  1.00  0.00    +0.000 C 
ATOM     39  F3  UNL A   1      50.806  26.400  24.019  1.00  0.00    +0.000 F 
ATOM     40  C27 UNL A   1      48.677  27.420  23.943  1.00  0.00    +0.000 C 
ATOM     41  F4  UNL A   1      48.659  27.312  22.607  1.00  0.00    +0.000 F 
ATOM     42  C28 UNL A   1      47.602  28.005  24.608  1.00  0.00    +0.000 C 
ATOM     43  F5  UNL A   1      46.569  28.463  23.884  1.00  0.00    +0.000 F 
ENDBRANCH   32   33
BRANCH   49   50
ATOM     50  C34 UNL A   1      45.753  34.231  29.336  1.00  0.00    +0.000 C 
ATOM     51  C35 UNL A   1      45.567  35.312  28.462  1.00  0.00    +0.000 C 
ATOM     52  F6  UNL A   1      44.872  35.151  27.326  1.00  0.00    +0.000 F 
ATOM     53  C36 UNL A   1      46.133  36.555  28.731  1.00  0.00    +0.000 C 
ATOM     54  F7  UNL A   1      45.987  37.559  27.856  1.00  0.00    +0.000 F 
ATOM     55  C37 UNL A   1      46.863  36.752  29.895  1.00  0.00    +0.000 C 
ATOM     56  F8  UNL A   1      47.403  37.950  30.154  1.00  0.00    +0.000 F 
ATOM     57  C38 UNL A   1      47.040  35.702  30.784  1.00  0.00    +0.000 C 
ATOM     58  F9  UNL A   1      47.733  35.894  31.915  1.00  0.00    +0.000 F 
ATOM     59  C39 UNL A   1      46.502  34.450  30.502  1.00  0.00    +0.000 C 
ATOM     60  F10 UNL A   1      46.703  33.452  31.375  1.00  0.00    +0.000 F 
ENDBRANCH   49   50
BRANCH   64   65
ATOM     65  C43 UNL A   1      39.608  31.411  31.014  1.00  0.00    +0.000 C 
ATOM     66  C44 UNL A   1      39.372  30.938  32.312  1.00  0.00    +0.000 C 
ATOM     67  F11 UNL A   1      40.197  30.028  32.851  1.00  0.00    +0.000 F 
ATOM     68  C45 UNL A   1      38.264  31.360  33.042  1.00  0.00    +0.000 C 
ATOM     69  F12 UNL A   1      38.035  30.853  34.260  1.00  0.00    +0.000 F 
ATOM     70  C46 UNL A   1      37.388  32.290  32.502  1.00  0.00    +0.000 C 
ATOM     71  F13 UNL A   1      36.323  32.698  33.206  1.00  0.00    +0.000 F 
ATOM     72  C47 UNL A   1      37.614  32.791  31.229  1.00  0.00    +0.000 C 
ATOM     73  F14 UNL A   1      36.778  33.701  30.710  1.00  0.00    +0.000 F 
ATOM     74  C48 UNL A   1      38.706  32.346  30.486  1.00  0.00    +0.000 C 
ATOM     75  F15 UNL A   1      38.889  32.836  29.251  1.00  0.00    +0.000 F 
ENDBRANCH   64   65
TORSDOF 19
ENDMDL
MODEL 8
REMARK VINA RESULT:     -11.3     41.829     45.957
ROOT
ATOM     28  C19 UNL A   1      13.949  53.806   5.120  1.00  0.00    +0.000 C 
ATOM     29  C20 UNL A   1      14.878  54.265   4.029  1.00  0.00    +0.000 C 
ATOM     30  N5  UNL A   1      15.371  53.587   3.023  1.00  0.00    +0.000 N 
ATOM     31  C21 UNL A   1      16.132  54.492   2.293  1.00  0.00    +0.000 C 
ATOM     32  C22 UNL A   1      16.890  54.265   1.194  1.00  0.00    +0.000 C 
ATOM     44  C29 UNL A   1      17.050  52.977   0.571  1.00  0.00    +0.000 C 
ATOM     45  C30 UNL A   1      17.857  52.630  -0.500  1.00  0.00    +0.000 C 
ATOM     46  C31 UNL A   1      17.646  51.278  -0.787  1.00  0.00    +0.000 C 
ATOM     47  C32 UNL A   1      16.748  50.768   0.138  1.00  0.00    +0.000 C 
ATOM     48  N6  UNL A   1      16.388  51.823   0.962  1.00  0.00    +0.000 N 
ATOM     49  C33 UNL A   1      16.256  49.420   0.261  1.00  0.00    +0.000 C 
ATOM     61  C40 UNL A   1      15.380  48.998   1.206  1.00  0.00    +0.000 C 
ATOM     62  N7  UNL A   1      14.781  49.721   2.228  1.00  0.00    +0.000 N 
ATOM     63  C41 UNL A   1      14.004  48.877   2.860  1.00  0.00    +0.000 C 
ATOM     64  C42 UNL A   1      13.138  49.105   4.070  1.00  0.00    +0.000 C 
ATOM     76  C49 UNL A   1      13.130  50.319   4.653  1.00  0.00    +0.000 C 
ATOM     77  C50 UNL A   1      12.360  50.683   5.838  1.00  0.00    +0.000 C 
ATOM     78  C51 UNL A   1      12.567  51.980   6.113  1.00  0.00    +0.000 C 
ATOM     79  C52 UNL A   1      13.512  52.532   5.140  1.00  0.00    +0.000 C 
ATOM     80  N8  UNL A   1      13.795  51.473   4.315  1.00  0.00    +0.000 N 
ATOM     81  C53 UNL A   1      14.003  47.522   2.292  1.00  0.00    +0.000 C 
ATOM     82  C54 UNL A   1      14.891  47.640   1.315  1.00  0.00    +0.000 C 
ATOM     83  C55 UNL A   1      15.995  55.778   2.942  1.00  0.00    +0.000 C 
ATOM     84  C56 UNL A   1      15.284  55.678   4.056  1.00  0.00    +0.000 C 
ATOM    117  H22 UNL A   1      18.502  53.261  -0.999  1.00  0.00    +0.000 H 
ATOM    118  H23 UNL A   1      18.085  50.748  -1.557  1.00  0.00    +0.000 H 
ATOM    119  H24 UNL A   1      15.754  51.762   1.713  1.00  0.00    +0.000 H 
ATOM    120  H25 UNL A   1      11.754  50.046   6.378  1.00  0.00    +0.000 H 
ATOM    121  H26 UNL A   1      12.129  52.505   6.886  1.00  0.00    +0.000 H 
ATOM    122  H27 UNL A   1      14.416  51.534   3.553  1.00  0.00    +0.000 H 
ATOM    123  H28 UNL A   1      13.456  46.696   2.578  1.00  0.00    +0.000 H 
ATOM    124  H29 UNL A   1      15.195  46.862   0.709  1.00  0.00    +0.000 H 
ATOM    125  H30 UNL A   1      16.400  56.657   2.584  1.00  0.00    +0.000 H 
ATOM    126  H31 UNL A   1      15.072  56.404   4.759  1.00  0.00    +0.000 H 
ENDROOT
BRANCH   28   27
ATOM    115  H20 UNL A   1      14.219  55.968   9.194  1.00  0.00    +0.000 H 
ATOM    116  H21 UNL A   1      15.092  54.500   7.471  1.00  0.00    +0.000 H 
ATOM     85  C57 UNL A   1      12.266  55.465   5.941  1.00  0.00    +0.000 C 
ATOM     86  C58 UNL A   1      11.809  56.372   6.896  1.00  0.00    +0.000 C 
ATOM     24  C15 UNL A   1      12.491  56.514   8.108  1.00  0.00    +0.000 C 
ATOM     25  C16 UNL A   1      13.696  55.835   8.315  1.00  0.00    +0.000 C 
ATOM     26  C17 UNL A   1      14.189  54.979   7.329  1.00  0.00    +0.000 C 
ATOM     27  C18 UNL A   1      13.464  54.764   6.146  1.00  0.00    +0.000 C 
ATOM    127  H32 UNL A   1      11.720  55.309   5.079  1.00  0.00    +0.000 H 
ATOM    128  H33 UNL A   1      10.967  56.939   6.708  1.00  0.00    +0.000 H 
BRANCH   24   22
ATOM     22  C14 UNL A   1      11.986  57.401   9.180  1.00  0.00    +0.000 C 
ATOM     23  O4  UNL A   1      12.179  58.611   9.110  1.00  0.00    +0.000 O 
BRANCH   22   21
ATOM    114  H19 UNL A   1      11.144  57.511  10.992  1.00  0.00    +0.000 H 
ATOM     21  N4  UNL A   1      11.318  56.878  10.258  1.00  0.00    +0.000 N 
BRANCH   21   20
ATOM    113  H18 UNL A   1      10.611  55.101   9.521  1.00  0.00    +0.000 H 
ATOM     20  C13 UNL A   1      10.830  55.528  10.478  1.00  0.00    +0.000 C 
ATOM    112  H17 UNL A   1       9.957  55.575  11.094  1.00  0.00    +0.000 H 
BRANCH   20   19
ATOM     19  C12 UNL A   1      11.865  54.639  11.159  1.00  0.00    +0.000 C 
ATOM    110  H15 UNL A   1      12.832  55.064  10.985  1.00  0.00    +0.000 H 
ATOM    111  H16 UNL A   1      11.593  54.607  12.193  1.00  0.00    +0.000 H 
BRANCH   19   18
ATOM     18  C11 UNL A   1      11.895  53.185  10.682  1.00  0.00    +0.000 C 
ATOM    108  H13 UNL A   1      11.019  52.698  11.058  1.00  0.00    +0.000 H 
ATOM    109  H14 UNL A   1      11.941  53.229   9.613  1.00  0.00    +0.000 H 
BRANCH   18   17
ATOM     17  C10 UNL A   1      13.114  52.367  11.120  1.00  0.00    +0.000 C 
ATOM    106  H11 UNL A   1      13.331  52.618  12.137  1.00  0.00    +0.000 H 
ATOM    107  H12 UNL A   1      12.848  51.342  10.977  1.00  0.00    +0.000 H 
BRANCH   17   16
ATOM    105  H10 UNL A   1      14.707  53.591  10.511  1.00  0.00    +0.000 H 
ATOM    104  H9  UNL A   1      14.145  52.436   9.266  1.00  0.00    +0.000 H 
ATOM     16  C9  UNL A   1      14.384  52.592  10.298  1.00  0.00    +0.000 C 
BRANCH   16   15
ATOM    103  H8  UNL A   1      15.269  51.078  11.496  1.00  0.00    +0.000 H 
ATOM    102  H7  UNL A   1      16.406  52.278  10.896  1.00  0.00    +0.000 H 
ATOM     15  C8  UNL A   1      15.553  51.678  10.657  1.00  0.00    +0.000 C 
BRANCH   15   14
ATOM    101  H6  UNL A   1      16.851  50.772   9.365  1.00  0.00    +0.000 H 
ATOM     14  N3  UNL A   1      15.886  50.799   9.555  1.00  0.00    +0.000 N 
BRANCH   14   12
ATOM     12  C7  UNL A   1      15.155  49.995   8.717  1.00  0.00    +0.000 C 
ATOM     13  O3  UNL A   1      15.403  50.059   7.514  1.00  0.00    +0.000 O 
BRANCH   12   11
ATOM    129  H34 UNL A   1      14.817  47.855  10.733  1.00  0.00    +0.000 H 
ATOM    130  H35 UNL A   1      14.820  47.065   9.238  1.00  0.00    +0.000 H 
ATOM    131  H36 UNL A   1      12.536  46.439   9.567  1.00  0.00    +0.000 H 
ATOM      9  N1  UNL A   1      12.015  48.488   9.668  1.00  0.00    +0.000 N 
ATOM     10  N2  UNL A   1      12.790  49.412   9.013  1.00  0.00    +0.000 N 
ATOM     11  C6  UNL A   1      14.033  49.076   9.178  1.00  0.00    +0.000 C 
ATOM     87  C59 UNL A   1      14.255  47.757   9.827  1.00  0.00    +0.000 C 
ATOM     88  C60 UNL A   1      12.814  47.323  10.103  1.00  0.00    +0.000 C 
BRANCH    9    8
ATOM     99  H4  UNL A   1       8.493  49.214   6.835  1.00  0.00    +0.000 H 
ATOM    100  H5  UNL A   1      10.583  49.887   7.876  1.00  0.00    +0.000 H 
ATOM      5  C2  UNL A   1       8.321  47.420   7.940  1.00  0.00    +0.000 C 
ATOM      6  C3  UNL A   1       8.932  48.615   7.551  1.00  0.00    +0.000 C 
ATOM      7  C4  UNL A   1      10.142  48.993   8.144  1.00  0.00    +0.000 C 
ATOM    136  H41 UNL A   1       8.452  45.724   9.192  1.00  0.00    +0.000 H 
ATOM    135  H40 UNL A   1      10.555  46.385  10.196  1.00  0.00    +0.000 H 
ATOM      8  C5  UNL A   1      10.765  48.174   9.098  1.00  0.00    +0.000 C 
ATOM     94  C65 UNL A   1      10.122  46.986   9.478  1.00  0.00    +0.000 C 
ATOM     95  C66 UNL A   1       8.910  46.603   8.905  1.00  0.00    +0.000 C 
BRANCH    5    2
ATOM      2  S1  UNL A   1       6.798  46.918   7.178  1.00  0.00    +0.000 S 
ATOM      3  O1  UNL A   1       6.836  45.474   7.026  1.00  0.00    +0.000 O 
ATOM      4  O2  UNL A   1       6.599  47.780   6.031  1.00  0.00    +0.000 O 
BRANCH    2    1
ATOM      1  C1  UNL A   1       5.552  47.287   8.383  1.00  0.00    +0.000 C 
ATOM     98  H3  UNL A   1       5.980  47.870   9.172  1.00  0.00    +0.000 H 
ATOM     97  H2  UNL A   1       4.761  47.841   7.920  1.00  0.00    +0.000 H 
ATOM     96  H1  UNL A   1       5.161  46.375   8.784  1.00  0.00    +0.000 H 
ENDBRANCH    2    1
ENDBRANCH    5    2
ENDBRANCH    9    8
BRANCH   88   89
ATOM    132  H37 UNL A   1      12.531  48.664  12.645  1.00  0.00    +0.000 H 
ATOM    133  H38 UNL A   1      12.134  47.295  14.785  1.00  0.00    +0.000 H 
ATOM    134  H39 UNL A   1      11.934  44.818  14.302  1.00  0.00    +0.000 H 
ATOM     89  C61 UNL A   1      12.565  46.843  11.527  1.00  0.00    +0.000 C 
ATOM     90  C62 UNL A   1      12.455  47.635  12.659  1.00  0.00    +0.000 C 
ATOM     91  C63 UNL A   1      12.226  46.880  13.845  1.00  0.00    +0.000 C 
ATOM     92  C64 UNL A   1      12.143  45.532  13.586  1.00  0.00    +0.000 C 
ATOM     93  S2  UNL A   1      12.431  45.180  11.943  1.00  0.00    +0.000 S 
ENDBRANCH   88   89
ENDBRANCH   12   11
ENDBRANCH   14   12
ENDBRANCH   15   14
ENDBRANCH   16   15
ENDBRANCH   17   16
ENDBRANCH   18   17
ENDBRANCH   19   18
ENDBRANCH   20   19
ENDBRANCH   21   20
ENDBRANCH   22   21
ENDBRANCH   24   22
ENDBRANCH   28   27
BRANCH   32   33
ATOM     33  C23 UNL A   1      17.614  55.434   0.591  1.00  0.00    +0.000 C 
ATOM     34  C24 UNL A   1      17.026  56.233  -0.402  1.00  0.00    +0.000 C 
ATOM     35  F1  UNL A   1      15.812  55.926  -0.884  1.00  0.00    +0.000 F 
ATOM     36  C25 UNL A   1      17.698  57.332  -0.929  1.00  0.00    +0.000 C 
ATOM     37  F2  UNL A   1      17.134  58.055  -1.907  1.00  0.00    +0.000 F 
ATOM     38  C26 UNL A   1      18.954  57.676  -0.451  1.00  0.00    +0.000 C 
ATOM     39  F3  UNL A   1      19.594  58.741  -0.951  1.00  0.00    +0.000 F 
ATOM     40  C27 UNL A   1      19.547  56.912   0.543  1.00  0.00    +0.000 C 
ATOM     41  F4  UNL A   1      20.755  57.250   1.016  1.00  0.00    +0.000 F 
ATOM     42  C28 UNL A   1      18.890  55.794   1.051  1.00  0.00    +0.000 C 
ATOM     43  F5  UNL A   1      19.495  55.069   2.003  1.00  0.00    +0.000 F 
ENDBRANCH   32   33
BRANCH   49   50
ATOM     50  C34 UNL A   1      16.764  48.396  -0.710  1.00  0.00    +0.000 C 
ATOM     51  C35 UNL A   1      18.012  47.778  -0.543  1.00  0.00    +0.000 C 
ATOM     52  F6  UNL A   1      18.807  48.126   0.481  1.00  0.00    +0.000 F 
ATOM     53  C36 UNL A   1      18.467  46.827  -1.452  1.00  0.00    +0.000 C 
ATOM     54  F7  UNL A   1      19.684  46.287  -1.302  1.00  0.00    +0.000 F 
ATOM     55  C37 UNL A   1      17.671  46.450  -2.524  1.00  0.00    +0.000 C 
ATOM     56  F8  UNL A   1      18.110  45.531  -3.396  1.00  0.00    +0.000 F 
ATOM     57  C38 UNL A   1      16.424  47.033  -2.697  1.00  0.00    +0.000 C 
ATOM     58  F9  UNL A   1      15.648  46.660  -3.723  1.00  0.00    +0.000 F 
ATOM     59  C39 UNL A   1      15.980  48.006  -1.806  1.00  0.00    +0.000 C 
ATOM     60  F10 UNL A   1      14.775  48.561  -2.008  1.00  0.00    +0.000 F 
ENDBRANCH   49   50
BRANCH   64   65
ATOM     65  C43 UNL A   1      12.312  48.005   4.633  1.00  0.00    +0.000 C 
ATOM     66  C44 UNL A   1      11.059  47.691   4.088  1.00  0.00    +0.000 C 
ATOM     67  F11 UNL A   1      10.586  48.397   3.051  1.00  0.00    +0.000 F 
ATOM     68  C45 UNL A   1      10.268  46.684   4.636  1.00  0.00    +0.000 C 
ATOM     69  F12 UNL A   1       9.053  46.440   4.128  1.00  0.00    +0.000 F 
ATOM     70  C46 UNL A   1      10.728  45.948   5.718  1.00  0.00    +0.000 C 
ATOM     71  F13 UNL A   1       9.968  44.978   6.243  1.00  0.00    +0.000 F 
ATOM     72  C47 UNL A   1      11.975  46.224   6.259  1.00  0.00    +0.000 C 
ATOM     73  F14 UNL A   1      12.430  45.506   7.294  1.00  0.00    +0.000 F 
ATOM     74  C48 UNL A   1      12.754  47.251   5.730  1.00  0.00    +0.000 C 
ATOM     75  F15 UNL A   1      13.949  47.507   6.284  1.00  0.00    +0.000 F 
ENDBRANCH   64   65
TORSDOF 19
ENDMDL
MODEL 9
REMARK VINA RESULT:     -11.2     45.429     50.581
ROOT
ATOM     28  C19 UNL A   1      29.189 -13.904  30.756  1.00  0.00    +0.000 C 
ATOM     29  C20 UNL A   1      28.956 -14.021  32.237  1.00  0.00    +0.000 C 
ATOM     30  N5  UNL A   1      27.958 -13.571  32.956  1.00  0.00    +0.000 N 
ATOM     31  C21 UNL A   1      28.209 -13.989  34.257  1.00  0.00    +0.000 C 
ATOM     32  C22 UNL A   1      27.499 -13.726  35.380  1.00  0.00    +0.000 C 
ATOM     44  C29 UNL A   1      26.307 -12.919  35.416  1.00  0.00    +0.000 C 
ATOM     45  C30 UNL A   1      25.560 -12.533  36.516  1.00  0.00    +0.000 C 
ATOM     46  C31 UNL A   1      24.461 -11.797  36.061  1.00  0.00    +0.000 C 
ATOM     47  C32 UNL A   1      24.551 -11.680  34.683  1.00  0.00    +0.000 C 
ATOM     48  N6  UNL A   1      25.686 -12.377  34.301  1.00  0.00    +0.000 N 
ATOM     49  C33 UNL A   1      23.668 -10.984  33.783  1.00  0.00    +0.000 C 
ATOM     61  C40 UNL A   1      23.834 -10.909  32.439  1.00  0.00    +0.000 C 
ATOM     62  N7  UNL A   1      24.839 -11.452  31.650  1.00  0.00    +0.000 N 
ATOM     63  C41 UNL A   1      24.548 -11.121  30.416  1.00  0.00    +0.000 C 
ATOM     64  C42 UNL A   1      25.306 -11.414  29.150  1.00  0.00    +0.000 C 
ATOM     76  C49 UNL A   1      26.470 -12.086  29.222  1.00  0.00    +0.000 C 
ATOM     77  C50 UNL A   1      27.323 -12.425  28.086  1.00  0.00    +0.000 C 
ATOM     78  C51 UNL A   1      28.378 -13.128  28.526  1.00  0.00    +0.000 C 
ATOM     79  C52 UNL A   1      28.293 -13.261  29.981  1.00  0.00    +0.000 C 
ATOM     80  N8  UNL A   1      27.131 -12.609  30.307  1.00  0.00    +0.000 N 
ATOM     81  C53 UNL A   1      23.306 -10.348  30.281  1.00  0.00    +0.000 C 
ATOM     82  C54 UNL A   1      22.935 -10.209  31.545  1.00  0.00    +0.000 C 
ATOM     83  C55 UNL A   1      29.426 -14.771  34.222  1.00  0.00    +0.000 C 
ATOM     84  C56 UNL A   1      29.962 -14.767  33.009  1.00  0.00    +0.000 C 
ATOM    117  H22 UNL A   1      25.777 -12.750  37.500  1.00  0.00    +0.000 H 
ATOM    118  H23 UNL A   1      23.709 -11.407  36.652  1.00  0.00    +0.000 H 
ATOM    119  H24 UNL A   1      26.005 -12.474  33.374  1.00  0.00    +0.000 H 
ATOM    120  H25 UNL A   1      27.144 -12.166  27.104  1.00  0.00    +0.000 H 
ATOM    121  H26 UNL A   1      29.130 -13.513  27.933  1.00  0.00    +0.000 H 
ATOM    122  H27 UNL A   1      26.801 -12.524  31.231  1.00  0.00    +0.000 H 
ATOM    123  H28 UNL A   1      22.844 -10.002  29.426  1.00  0.00    +0.000 H 
ATOM    124  H29 UNL A   1      22.111  -9.671  31.854  1.00  0.00    +0.000 H 
ATOM    125  H30 UNL A   1      29.825 -15.266  35.035  1.00  0.00    +0.000 H 
ATOM    126  H31 UNL A   1      30.853 -15.179  32.691  1.00  0.00    +0.000 H 
ENDROOT
BRANCH   28   27
ATOM    115  H20 UNL A   1      31.427 -17.469  28.851  1.00  0.00    +0.000 H 
ATOM    116  H21 UNL A   1      29.443 -16.403  29.753  1.00  0.00    +0.000 H 
ATOM     85  C57 UNL A   1      31.565 -13.814  29.976  1.00  0.00    +0.000 C 
ATOM     86  C58 UNL A   1      32.679 -14.403  29.381  1.00  0.00    +0.000 C 
ATOM     24  C15 UNL A   1      32.648 -15.753  29.021  1.00  0.00    +0.000 C 
ATOM     25  C16 UNL A   1      31.462 -16.482  29.150  1.00  0.00    +0.000 C 
ATOM     26  C17 UNL A   1      30.326 -15.873  29.684  1.00  0.00    +0.000 C 
ATOM     27  C18 UNL A   1      30.375 -14.542  30.129  1.00  0.00    +0.000 C 
ATOM    127  H32 UNL A   1      31.616 -12.837  30.307  1.00  0.00    +0.000 H 
ATOM    128  H33 UNL A   1      33.527 -13.841  29.204  1.00  0.00    +0.000 H 
BRANCH   24   22
ATOM     22  C14 UNL A   1      33.840 -16.435  28.469  1.00  0.00    +0.000 C 
ATOM     23  O4  UNL A   1      34.562 -17.094  29.212  1.00  0.00    +0.000 O 
BRANCH   22   21
ATOM    114  H19 UNL A   1      33.527 -15.779  26.605  1.00  0.00    +0.000 H 
ATOM     21  N4  UNL A   1      34.152 -16.322  27.137  1.00  0.00    +0.000 N 
BRANCH   21   20
ATOM    113  H18 UNL A   1      34.930 -17.796  25.946  1.00  0.00    +0.000 H 
ATOM     20  C13 UNL A   1      35.266 -16.886  26.398  1.00  0.00    +0.000 C 
ATOM    112  H17 UNL A   1      36.074 -17.061  27.076  1.00  0.00    +0.000 H 
BRANCH   20   19
ATOM     19  C12 UNL A   1      35.751 -15.964  25.284  1.00  0.00    +0.000 C 
ATOM    110  H15 UNL A   1      36.819 -15.918  25.335  1.00  0.00    +0.000 H 
ATOM    111  H16 UNL A   1      35.384 -16.384  24.371  1.00  0.00    +0.000 H 
BRANCH   19   18
ATOM     18  C11 UNL A   1      35.213 -14.532  25.339  1.00  0.00    +0.000 C 
ATOM    108  H13 UNL A   1      34.425 -14.449  24.620  1.00  0.00    +0.000 H 
ATOM    109  H14 UNL A   1      34.895 -14.378  26.350  1.00  0.00    +0.000 H 
BRANCH   18   17
ATOM     17  C10 UNL A   1      36.234 -13.428  25.050  1.00  0.00    +0.000 C 
ATOM    106  H11 UNL A   1      37.125 -13.651  25.599  1.00  0.00    +0.000 H 
ATOM    107  H12 UNL A   1      36.372 -13.424  23.989  1.00  0.00    +0.000 H 
BRANCH   17   16
ATOM    105  H10 UNL A   1      36.652 -11.531  25.846  1.00  0.00    +0.000 H 
ATOM    104  H9  UNL A   1      34.972 -12.087  26.105  1.00  0.00    +0.000 H 
ATOM     16  C9  UNL A   1      35.794 -12.011  25.423  1.00  0.00    +0.000 C 
BRANCH   16   15
ATOM    103  H8  UNL A   1      34.644 -11.694  23.665  1.00  0.00    +0.000 H 
ATOM    102  H7  UNL A   1      36.211 -10.894  23.657  1.00  0.00    +0.000 H 
ATOM     15  C8  UNL A   1      35.354 -11.143  24.247  1.00  0.00    +0.000 C 
BRANCH   15   14
ATOM    101  H6  UNL A   1      34.686  -9.227  24.011  1.00  0.00    +0.000 H 
ATOM     14  N3  UNL A   1      34.724  -9.923  24.706  1.00  0.00    +0.000 N 
BRANCH   14   12
ATOM     12  C7  UNL A   1      34.166  -9.520  25.893  1.00  0.00    +0.000 C 
ATOM     13  O3  UNL A   1      34.864  -8.843  26.645  1.00  0.00    +0.000 O 
BRANCH   12   11
ATOM    129  H34 UNL A   1      32.698  -9.626  28.461  1.00  0.00    +0.000 H 
ATOM    130  H35 UNL A   1      32.977 -11.239  28.039  1.00  0.00    +0.000 H 
ATOM    131  H36 UNL A   1      30.626 -11.570  27.761  1.00  0.00    +0.000 H 
ATOM      9  N1  UNL A   1      30.618 -10.080  26.259  1.00  0.00    +0.000 N 
ATOM     10  N2  UNL A   1      31.760  -9.849  25.535  1.00  0.00    +0.000 N 
ATOM     11  C6  UNL A   1      32.767  -9.904  26.353  1.00  0.00    +0.000 C 
ATOM     87  C59 UNL A   1      32.443 -10.365  27.729  1.00  0.00    +0.000 C 
ATOM     88  C60 UNL A   1      30.928 -10.553  27.624  1.00  0.00    +0.000 C 
BRANCH    9    8
ATOM     99  H4  UNL A   1      26.503 -10.385  24.274  1.00  0.00    +0.000 H 
ATOM    100  H5  UNL A   1      28.205  -9.167  25.509  1.00  0.00    +0.000 H 
ATOM      5  C2  UNL A   1      27.587 -12.200  24.234  1.00  0.00    +0.000 C 
ATOM      6  C3  UNL A   1      27.379 -10.855  24.552  1.00  0.00    +0.000 C 
ATOM      7  C4  UNL A   1      28.366 -10.153  25.253  1.00  0.00    +0.000 C 
ATOM    136  H41 UNL A   1      28.916 -13.836  24.371  1.00  0.00    +0.000 H 
ATOM    135  H40 UNL A   1      30.622 -12.602  25.569  1.00  0.00    +0.000 H 
ATOM      8  C5  UNL A   1      29.573 -10.772  25.611  1.00  0.00    +0.000 C 
ATOM     94  C65 UNL A   1      29.750 -12.126  25.291  1.00  0.00    +0.000 C 
ATOM     95  C66 UNL A   1      28.769 -12.841  24.604  1.00  0.00    +0.000 C 
BRANCH    5    2
ATOM      2  S1  UNL A   1      26.351 -13.094  23.325  1.00  0.00    +0.000 S 
ATOM      3  O1  UNL A   1      25.481 -13.745  24.289  1.00  0.00    +0.000 O 
ATOM      4  O2  UNL A   1      27.050 -13.865  22.317  1.00  0.00    +0.000 O 
BRANCH    2    1
ATOM      1  C1  UNL A   1      25.396 -11.841  22.516  1.00  0.00    +0.000 C 
ATOM     98  H3  UNL A   1      24.369 -12.140  22.482  1.00  0.00    +0.000 H 
ATOM     97  H2  UNL A   1      25.481 -10.922  23.058  1.00  0.00    +0.000 H 
ATOM     96  H1  UNL A   1      25.760 -11.701  21.519  1.00  0.00    +0.000 H 
ENDBRANCH    2    1
ENDBRANCH    5    2
ENDBRANCH    9    8
BRANCH   88   89
ATOM    132  H37 UNL A   1      28.743  -8.668  27.695  1.00  0.00    +0.000 H 
ATOM    133  H38 UNL A   1      27.795  -7.881  29.953  1.00  0.00    +0.000 H 
ATOM    134  H39 UNL A   1      28.924  -9.029  31.906  1.00  0.00    +0.000 H 
ATOM     89  C61 UNL A   1      30.135  -9.900  28.747  1.00  0.00    +0.000 C 
ATOM     90  C62 UNL A   1      29.095  -8.995  28.608  1.00  0.00    +0.000 C 
ATOM     91  C63 UNL A   1      28.562  -8.564  29.857  1.00  0.00    +0.000 C 
ATOM     92  C64 UNL A   1      29.193  -9.168  30.919  1.00  0.00    +0.000 C 
ATOM     93  S2  UNL A   1      30.473 -10.173  30.412  1.00  0.00    +0.000 S 
ENDBRANCH   88   89
ENDBRANCH   12   11
ENDBRANCH   14   12
ENDBRANCH   15   14
ENDBRANCH   16   15
ENDBRANCH   17   16
ENDBRANCH   18   17
ENDBRANCH   19   18
ENDBRANCH   20   19
ENDBRANCH   21   20
ENDBRANCH   22   21
ENDBRANCH   24   22
ENDBRANCH   28   27
BRANCH   32   33
ATOM     33  C23 UNL A   1      27.993 -14.312  36.671  1.00  0.00    +0.000 C 
ATOM     34  C24 UNL A   1      29.009 -13.697  37.419  1.00  0.00    +0.000 C 
ATOM     35  F1  UNL A   1      29.612 -12.591  36.957  1.00  0.00    +0.000 F 
ATOM     36  C25 UNL A   1      29.435 -14.237  38.630  1.00  0.00    +0.000 C 
ATOM     37  F2  UNL A   1      30.437 -13.657  39.304  1.00  0.00    +0.000 F 
ATOM     38  C26 UNL A   1      28.831 -15.379  39.134  1.00  0.00    +0.000 C 
ATOM     39  F3  UNL A   1      29.234 -15.889  40.305  1.00  0.00    +0.000 F 
ATOM     40  C27 UNL A   1      27.812 -15.993  38.422  1.00  0.00    +0.000 C 
ATOM     41  F4  UNL A   1      27.218 -17.089  38.914  1.00  0.00    +0.000 F 
ATOM     42  C28 UNL A   1      27.404 -15.473  37.196  1.00  0.00    +0.000 C 
ATOM     43  F5  UNL A   1      26.424 -16.097  36.525  1.00  0.00    +0.000 F 
ENDBRANCH   32   33
BRANCH   49   50
ATOM     50  C34 UNL A   1      22.489 -10.267  34.370  1.00  0.00    +0.000 C 
ATOM     51  C35 UNL A   1      21.195 -10.804  34.309  1.00  0.00    +0.000 C 
ATOM     52  F6  UNL A   1      20.975 -11.966  33.675  1.00  0.00    +0.000 F 
ATOM     53  C36 UNL A   1      20.112 -10.126  34.861  1.00  0.00    +0.000 C 
ATOM     54  F7  UNL A   1      18.877 -10.633  34.745  1.00  0.00    +0.000 F 
ATOM     55  C37 UNL A   1      20.306  -8.920  35.518  1.00  0.00    +0.000 C 
ATOM     56  F8  UNL A   1      19.263  -8.271  36.054  1.00  0.00    +0.000 F 
ATOM     57  C38 UNL A   1      21.581  -8.381  35.611  1.00  0.00    +0.000 C 
ATOM     58  F9  UNL A   1      21.772  -7.223  36.256  1.00  0.00    +0.000 F 
ATOM     59  C39 UNL A   1      22.661  -9.041  35.031  1.00  0.00    +0.000 C 
ATOM     60  F10 UNL A   1      23.879  -8.488  35.126  1.00  0.00    +0.000 F 
ENDBRANCH   49   50
BRANCH   64   65
ATOM     65  C43 UNL A   1      24.794 -10.953  27.833  1.00  0.00    +0.000 C 
ATOM     66  C44 UNL A   1      25.143  -9.694  27.323  1.00  0.00    +0.000 C 
ATOM     67  F11 UNL A   1      25.941  -8.883  28.032  1.00  0.00    +0.000 F 
ATOM     68  C45 UNL A   1      24.637  -9.245  26.105  1.00  0.00    +0.000 C 
ATOM     69  F12 UNL A   1      24.945  -8.018  25.666  1.00  0.00    +0.000 F 
ATOM     70  C46 UNL A   1      23.798 -10.059  25.358  1.00  0.00    +0.000 C 
ATOM     71  F13 UNL A   1      23.313  -9.628  24.185  1.00  0.00    +0.000 F 
ATOM     72  C47 UNL A   1      23.458 -11.317  25.831  1.00  0.00    +0.000 C 
ATOM     73  F14 UNL A   1      22.661 -12.112  25.104  1.00  0.00    +0.000 F 
ATOM     74  C48 UNL A   1      23.940 -11.755  27.062  1.00  0.00    +0.000 C 
ATOM     75  F15 UNL A   1      23.581 -12.970  27.502  1.00  0.00    +0.000 F 
ENDBRANCH   64   65
TORSDOF 19
ENDMDL
MODEL 10
REMARK VINA RESULT:     -11.2     25.610     31.899
ROOT
ATOM     28  C19 UNL A   1       6.843  26.321  21.447  1.00  0.00    +0.000 C 
ATOM     29  C20 UNL A   1       6.600  26.753  20.027  1.00  0.00    +0.000 C 
ATOM     30  N5  UNL A   1       6.125  27.888  19.577  1.00  0.00    +0.000 N 
ATOM     31  C21 UNL A   1       6.147  27.786  18.192  1.00  0.00    +0.000 C 
ATOM     32  C22 UNL A   1       5.704  28.675  17.272  1.00  0.00    +0.000 C 
ATOM     44  C29 UNL A   1       5.095  29.939  17.594  1.00  0.00    +0.000 C 
ATOM     45  C30 UNL A   1       4.545  30.875  16.735  1.00  0.00    +0.000 C 
ATOM     46  C31 UNL A   1       4.120  31.970  17.495  1.00  0.00    +0.000 C 
ATOM     47  C32 UNL A   1       4.356  31.693  18.832  1.00  0.00    +0.000 C 
ATOM     48  N6  UNL A   1       4.959  30.446  18.877  1.00  0.00    +0.000 N 
ATOM     49  C33 UNL A   1       4.054  32.505  19.983  1.00  0.00    +0.000 C 
ATOM     61  C40 UNL A   1       4.311  32.155  21.267  1.00  0.00    +0.000 C 
ATOM     62  N7  UNL A   1       4.892  30.994  21.758  1.00  0.00    +0.000 N 
ATOM     63  C41 UNL A   1       4.941  31.136  23.059  1.00  0.00    +0.000 C 
ATOM     64  C42 UNL A   1       5.443  30.175  24.102  1.00  0.00    +0.000 C 
ATOM     76  C49 UNL A   1       5.900  28.968  23.718  1.00  0.00    +0.000 C 
ATOM     77  C50 UNL A   1       6.398  27.928  24.612  1.00  0.00    +0.000 C 
ATOM     78  C51 UNL A   1       6.803  26.878  23.880  1.00  0.00    +0.000 C 
ATOM     79  C52 UNL A   1       6.561  27.159  22.464  1.00  0.00    +0.000 C 
ATOM     80  N8  UNL A   1       6.020  28.420  22.463  1.00  0.00    +0.000 N 
ATOM     81  C53 UNL A   1       4.416  32.421  23.541  1.00  0.00    +0.000 C 
ATOM     82  C54 UNL A   1       4.006  32.985  22.414  1.00  0.00    +0.000 C 
ATOM     83  C55 UNL A   1       6.728  26.499  17.873  1.00  0.00    +0.000 C 
ATOM     84  C56 UNL A   1       6.965  25.796  18.972  1.00  0.00    +0.000 C 
ATOM    117  H22 UNL A   1       4.463  30.782  15.711  1.00  0.00    +0.000 H 
ATOM    118  H23 UNL A   1       3.700  32.837  17.123  1.00  0.00    +0.000 H 
ATOM    119  H24 UNL A   1       5.248  29.988  19.700  1.00  0.00    +0.000 H 
ATOM    120  H25 UNL A   1       6.434  27.990  25.641  1.00  0.00    +0.000 H 
ATOM    121  H26 UNL A   1       7.218  26.012  24.256  1.00  0.00    +0.000 H 
ATOM    122  H27 UNL A   1       5.743  28.888  21.643  1.00  0.00    +0.000 H 
ATOM    123  H28 UNL A   1       4.377  32.789  24.504  1.00  0.00    +0.000 H 
ATOM    124  H29 UNL A   1       3.529  33.898  22.361  1.00  0.00    +0.000 H 
ATOM    125  H30 UNL A   1       6.931  26.172  16.915  1.00  0.00    +0.000 H 
ATOM    126  H31 UNL A   1       7.315  24.829  19.062  1.00  0.00    +0.000 H 
ENDROOT
BRANCH   28   27
ATOM    115  H20 UNL A   1       6.682  21.968  22.986  1.00  0.00    +0.000 H 
ATOM    116  H21 UNL A   1       5.654  24.085  22.396  1.00  0.00    +0.000 H 
ATOM     85  C57 UNL A   1       8.812  24.777  21.496  1.00  0.00    +0.000 C 
ATOM     86  C58 UNL A   1       9.382  23.532  21.758  1.00  0.00    +0.000 C 
ATOM     24  C15 UNL A   1       8.619  22.524  22.354  1.00  0.00    +0.000 C 
ATOM     25  C16 UNL A   1       7.254  22.724  22.580  1.00  0.00    +0.000 C 
ATOM     26  C17 UNL A   1       6.667  23.948  22.255  1.00  0.00    +0.000 C 
ATOM     27  C18 UNL A   1       7.446  24.995  21.737  1.00  0.00    +0.000 C 
ATOM    127  H32 UNL A   1       9.396  25.542  21.124  1.00  0.00    +0.000 H 
ATOM    128  H33 UNL A   1      10.369  23.355  21.509  1.00  0.00    +0.000 H 
BRANCH   24   22
ATOM     22  C14 UNL A   1       9.214  21.222  22.727  1.00  0.00    +0.000 C 
ATOM     23  O4  UNL A   1       8.758  20.596  23.679  1.00  0.00    +0.000 O 
BRANCH   22   21
ATOM    114  H19 UNL A   1      10.058  20.316  21.155  1.00  0.00    +0.000 H 
ATOM     21  N4  UNL A   1      10.281  20.718  22.026  1.00  0.00    +0.000 N 
BRANCH   21   20
ATOM    113  H18 UNL A   1      12.108  19.792  21.974  1.00  0.00    +0.000 H 
ATOM     20  C13 UNL A   1      11.688  20.689  22.379  1.00  0.00    +0.000 C 
ATOM    112  H17 UNL A   1      11.775  20.715  23.445  1.00  0.00    +0.000 H 
BRANCH   20   19
ATOM     19  C12 UNL A   1      12.458  21.869  21.794  1.00  0.00    +0.000 C 
ATOM    110  H15 UNL A   1      12.338  21.848  20.731  1.00  0.00    +0.000 H 
ATOM    111  H16 UNL A   1      12.051  22.745  22.253  1.00  0.00    +0.000 H 
BRANCH   19   18
ATOM     18  C11 UNL A   1      13.958  21.888  22.101  1.00  0.00    +0.000 C 
ATOM    108  H13 UNL A   1      14.192  22.833  22.544  1.00  0.00    +0.000 H 
ATOM    109  H14 UNL A   1      14.135  21.051  22.746  1.00  0.00    +0.000 H 
BRANCH   18   17
ATOM     17  C10 UNL A   1      14.884  21.690  20.897  1.00  0.00    +0.000 C 
ATOM    106  H11 UNL A   1      15.478  20.818  21.078  1.00  0.00    +0.000 H 
ATOM    107  H12 UNL A   1      14.245  21.605  20.044  1.00  0.00    +0.000 H 
BRANCH   17   16
ATOM    105  H10 UNL A   1      16.451  22.965  21.467  1.00  0.00    +0.000 H 
ATOM    104  H9  UNL A   1      15.242  23.718  20.386  1.00  0.00    +0.000 H 
ATOM     16  C9  UNL A   1      15.833  22.852  20.600  1.00  0.00    +0.000 C 
BRANCH   16   15
ATOM    103  H8  UNL A   1      17.692  23.153  19.618  1.00  0.00    +0.000 H 
ATOM    102  H7  UNL A   1      16.320  22.983  18.529  1.00  0.00    +0.000 H 
ATOM     15  C8  UNL A   1      16.782  22.624  19.425  1.00  0.00    +0.000 C 
BRANCH   15   14
ATOM    101  H6  UNL A   1      16.493  20.762  18.635  1.00  0.00    +0.000 H 
ATOM     14  N3  UNL A   1      17.091  21.218  19.270  1.00  0.00    +0.000 N 
BRANCH   14   12
ATOM     12  C7  UNL A   1      18.033  20.379  19.809  1.00  0.00    +0.000 C 
ATOM     13  O3  UNL A   1      18.935  19.991  19.070  1.00  0.00    +0.000 O 
BRANCH   12   11
ATOM    129  H34 UNL A   1      19.070  18.028  21.277  1.00  0.00    +0.000 H 
ATOM    130  H35 UNL A   1      17.400  17.789  21.174  1.00  0.00    +0.000 H 
ATOM    131  H36 UNL A   1      17.224  18.013  23.547  1.00  0.00    +0.000 H 
ATOM      9  N1  UNL A   1      18.014  19.970  23.397  1.00  0.00    +0.000 N 
ATOM     10  N2  UNL A   1      17.834  20.681  22.237  1.00  0.00    +0.000 N 
ATOM     11  C6  UNL A   1      17.998  19.864  21.241  1.00  0.00    +0.000 C 
ATOM     87  C59 UNL A   1      18.136  18.431  21.611  1.00  0.00    +0.000 C 
ATOM     88  C60 UNL A   1      18.074  18.516  23.137  1.00  0.00    +0.000 C 
BRANCH    9    8
ATOM     99  H4  UNL A   1      17.302  22.119  27.377  1.00  0.00    +0.000 H 
ATOM    100  H5  UNL A   1      18.740  21.395  25.556  1.00  0.00    +0.000 H 
ATOM      5  C2  UNL A   1      15.584  21.131  26.640  1.00  0.00    +0.000 C 
ATOM      6  C3  UNL A   1      16.923  21.530  26.619  1.00  0.00    +0.000 C 
ATOM      7  C4  UNL A   1      17.745  21.121  25.563  1.00  0.00    +0.000 C 
ATOM    136  H41 UNL A   1      14.075  20.041  25.642  1.00  0.00    +0.000 H 
ATOM    135  H40 UNL A   1      15.507  19.357  23.812  1.00  0.00    +0.000 H 
ATOM      8  C5  UNL A   1      17.235  20.345  24.510  1.00  0.00    +0.000 C 
ATOM     94  C65 UNL A   1      15.891  19.949  24.565  1.00  0.00    +0.000 C 
ATOM     95  C66 UNL A   1      15.063  20.338  25.618  1.00  0.00    +0.000 C 
BRANCH    5    2
ATOM      2  S1  UNL A   1      14.525  21.662  27.964  1.00  0.00    +0.000 S 
ATOM      3  O1  UNL A   1      13.275  22.109  27.375  1.00  0.00    +0.000 O 
ATOM      4  O2  UNL A   1      15.311  22.547  28.799  1.00  0.00    +0.000 O 
BRANCH    2    1
ATOM      1  C1  UNL A   1      14.177  20.185  28.879  1.00  0.00    +0.000 C 
ATOM     98  H3  UNL A   1      14.580  19.340  28.360  1.00  0.00    +0.000 H 
ATOM     97  H2  UNL A   1      14.624  20.253  29.849  1.00  0.00    +0.000 H 
ATOM     96  H1  UNL A   1      13.118  20.069  28.982  1.00  0.00    +0.000 H 
ENDBRANCH    2    1
ENDBRANCH    5    2
ENDBRANCH    9    8
BRANCH   88   89
ATOM    132  H37 UNL A   1      19.588  18.998  25.549  1.00  0.00    +0.000 H 
ATOM    133  H38 UNL A   1      21.410  17.337  26.277  1.00  0.00    +0.000 H 
ATOM    134  H39 UNL A   1      21.547  15.340  24.727  1.00  0.00    +0.000 H 
ATOM     89  C61 UNL A   1      19.185  17.761  23.854  1.00  0.00    +0.000 C 
ATOM     90  C62 UNL A   1      19.819  18.138  25.027  1.00  0.00    +0.000 C 
ATOM     91  C63 UNL A   1      20.823  17.215  25.438  1.00  0.00    +0.000 C 
ATOM     92  C64 UNL A   1      20.915  16.143  24.582  1.00  0.00    +0.000 C 
ATOM     93  S2  UNL A   1      19.863  16.301  23.249  1.00  0.00    +0.000 S 
ENDBRANCH   88   89
ENDBRANCH   12   11
ENDBRANCH   14   12
ENDBRANCH   15   14
ENDBRANCH   16   15
ENDBRANCH   17   16
ENDBRANCH   18   17
ENDBRANCH   19   18
ENDBRANCH   20   19
ENDBRANCH   21   20
ENDBRANCH   22   21
ENDBRANCH   24   22
ENDBRANCH   28   27
BRANCH   32   33
ATOM     33  C23 UNL A   1       5.854  28.314  15.822  1.00  0.00    +0.000 C 
ATOM     34  C24 UNL A   1       4.771  27.843  15.064  1.00  0.00    +0.000 C 
ATOM     35  F1  UNL A   1       3.577  27.645  15.642  1.00  0.00    +0.000 F 
ATOM     36  C25 UNL A   1       4.920  27.542  13.712  1.00  0.00    +0.000 C 
ATOM     37  F2  UNL A   1       3.882  27.054  13.019  1.00  0.00    +0.000 F 
ATOM     38  C26 UNL A   1       6.141  27.738  13.085  1.00  0.00    +0.000 C 
ATOM     39  F3  UNL A   1       6.279  27.458  11.782  1.00  0.00    +0.000 F 
ATOM     40  C27 UNL A   1       7.221  28.218  13.811  1.00  0.00    +0.000 C 
ATOM     41  F4  UNL A   1       8.398  28.420  13.203  1.00  0.00    +0.000 F 
ATOM     42  C28 UNL A   1       7.083  28.493  15.169  1.00  0.00    +0.000 C 
ATOM     43  F5  UNL A   1       8.149  28.946  15.846  1.00  0.00    +0.000 F 
ENDBRANCH   32   33
BRANCH   49   50
ATOM     50  C34 UNL A   1       3.384  33.828  19.752  1.00  0.00    +0.000 C 
ATOM     51  C35 UNL A   1       4.124  34.999  19.535  1.00  0.00    +0.000 C 
ATOM     52  F6  UNL A   1       5.465  34.969  19.574  1.00  0.00    +0.000 F 
ATOM     53  C36 UNL A   1       3.486  36.218  19.320  1.00  0.00    +0.000 C 
ATOM     54  F7  UNL A   1       4.212  37.334  19.167  1.00  0.00    +0.000 F 
ATOM     55  C37 UNL A   1       2.101  36.283  19.280  1.00  0.00    +0.000 C 
ATOM     56  F8  UNL A   1       1.489  37.457  19.069  1.00  0.00    +0.000 F 
ATOM     57  C38 UNL A   1       1.350  35.132  19.470  1.00  0.00    +0.000 C 
ATOM     58  F9  UNL A   1       0.013  35.191  19.419  1.00  0.00    +0.000 F 
ATOM     59  C39 UNL A   1       1.985  33.918  19.717  1.00  0.00    +0.000 C 
ATOM     60  F10 UNL A   1       1.231  32.826  19.910  1.00  0.00    +0.000 F 
ENDBRANCH   49   50
BRANCH   64   65
ATOM     65  C43 UNL A   1       5.422  30.537  25.543  1.00  0.00    +0.000 C 
ATOM     66  C44 UNL A   1       6.496  31.218  26.133  1.00  0.00    +0.000 C 
ATOM     67  F11 UNL A   1       7.567  31.543  25.395  1.00  0.00    +0.000 F 
ATOM     68  C45 UNL A   1       6.494  31.528  27.491  1.00  0.00    +0.000 C 
ATOM     69  F12 UNL A   1       7.555  32.134  28.038  1.00  0.00    +0.000 F 
ATOM     70  C46 UNL A   1       5.404  31.191  28.280  1.00  0.00    +0.000 C 
ATOM     71  F13 UNL A   1       5.401  31.491  29.587  1.00  0.00    +0.000 F 
ATOM     72  C47 UNL A   1       4.320  30.538  27.714  1.00  0.00    +0.000 C 
ATOM     73  F14 UNL A   1       3.258  30.225  28.470  1.00  0.00    +0.000 F 
ATOM     74  C48 UNL A   1       4.333  30.202  26.362  1.00  0.00    +0.000 C 
ATOM     75  F15 UNL A   1       3.278  29.555  25.846  1.00  0.00    +0.000 F 
ENDBRANCH   64   65
TORSDOF 19
ENDMDL
