MODEL 1
REMARK VINA RESULT:      -9.0      0.000      0.000
ROOT
ATOM    140  H42 UNL A   1      12.976  27.089  -9.187  1.00  0.00    +0.000 H 
ATOM    141  H43 UNL A   1      14.883  27.690 -10.860  1.00  0.00    +0.000 H 
ATOM    142  H44 UNL A   1      12.742  31.137 -10.036  1.00  0.00    +0.000 H 
ATOM    143  H45 UNL A   1      11.610  37.324 -11.143  1.00  0.00    +0.000 H 
ATOM    144  H46 UNL A   1       9.820  36.756  -9.431  1.00  0.00    +0.000 H 
ATOM    145  H47 UNL A   1      12.008  33.301 -10.174  1.00  0.00    +0.000 H 
ATOM    146  H48 UNL A   1      15.616  34.615 -13.416  1.00  0.00    +0.000 H 
ATOM    147  H49 UNL A   1      16.314  32.153 -13.440  1.00  0.00    +0.000 H 
ATOM    148  H50 UNL A   1       9.287  30.006  -6.592  1.00  0.00    +0.000 H 
ATOM    149  H51 UNL A   1       8.265  32.331  -6.918  1.00  0.00    +0.000 H 
ATOM     40  C31 UNL A   1       9.792  34.021  -8.627  1.00  0.00    +0.000 C 
ATOM     41  C32 UNL A   1      10.023  32.566  -8.330  1.00  0.00    +0.000 C 
ATOM     42  N5  UNL A   1      10.954  31.763  -8.784  1.00  0.00    +0.000 N 
ATOM     43  C33 UNL A   1      10.736  30.543  -8.161  1.00  0.00    +0.000 C 
ATOM     44  C34 UNL A   1      11.385  29.368  -8.348  1.00  0.00    +0.000 C 
ATOM     56  C41 UNL A   1      12.479  29.186  -9.267  1.00  0.00    +0.000 C 
ATOM     57  C42 UNL A   1      13.172  28.027  -9.569  1.00  0.00    +0.000 C 
ATOM     58  C43 UNL A   1      14.184  28.348 -10.480  1.00  0.00    +0.000 C 
ATOM     59  C44 UNL A   1      14.089  29.695 -10.787  1.00  0.00    +0.000 C 
ATOM     60  N6  UNL A   1      13.042  30.199 -10.031  1.00  0.00    +0.000 N 
ATOM     61  C45 UNL A   1      14.894  30.468 -11.699  1.00  0.00    +0.000 C 
ATOM     73  C52 UNL A   1      14.728  31.789 -11.957  1.00  0.00    +0.000 C 
ATOM     74  N7  UNL A   1      13.790  32.668 -11.435  1.00  0.00    +0.000 N 
ATOM     75  C53 UNL A   1      14.042  33.833 -11.982  1.00  0.00    +0.000 C 
ATOM     76  C54 UNL A   1      13.323  35.141 -11.808  1.00  0.00    +0.000 C 
ATOM     88  C61 UNL A   1      12.264  35.204 -10.978  1.00  0.00    +0.000 C 
ATOM     89  C62 UNL A   1      11.464  36.397 -10.712  1.00  0.00    +0.000 C 
ATOM     90  C63 UNL A   1      10.511  36.094  -9.817  1.00  0.00    +0.000 C 
ATOM     91  C64 UNL A   1      10.608  34.674  -9.476  1.00  0.00    +0.000 C 
ATOM     92  N8  UNL A   1      11.684  34.230 -10.204  1.00  0.00    +0.000 N 
ATOM     93  C65 UNL A   1      15.195  33.829 -12.894  1.00  0.00    +0.000 C 
ATOM     94  C66 UNL A   1      15.549  32.552 -12.874  1.00  0.00    +0.000 C 
ATOM     95  C67 UNL A   1       9.626  30.724  -7.251  1.00  0.00    +0.000 C 
ATOM     96  C68 UNL A   1       9.101  31.935  -7.374  1.00  0.00    +0.000 C 
ENDROOT
BRANCH   40   39
ATOM     97  C69 UNL A   1       7.443  34.866  -8.550  1.00  0.00    +0.000 C 
ATOM     98  C70 UNL A   1       6.421  35.584  -7.935  1.00  0.00    +0.000 C 
ATOM     36  C27 UNL A   1       6.608  36.106  -6.653  1.00  0.00    +0.000 C 
ATOM     37  C28 UNL A   1       7.863  36.021  -6.043  1.00  0.00    +0.000 C 
ATOM     38  C29 UNL A   1       8.912  35.369  -6.694  1.00  0.00    +0.000 C 
ATOM     39  C30 UNL A   1       8.702  34.759  -7.940  1.00  0.00    +0.000 C 
ATOM    138  H40 UNL A   1       8.014  36.440  -5.111  1.00  0.00    +0.000 H 
ATOM    139  H41 UNL A   1       9.845  35.334  -6.255  1.00  0.00    +0.000 H 
ATOM    150  H52 UNL A   1       7.274  34.409  -9.460  1.00  0.00    +0.000 H 
ATOM    151  H53 UNL A   1       5.525  35.731  -8.427  1.00  0.00    +0.000 H 
BRANCH   36   34
ATOM     34  C26 UNL A   1       5.509  36.782  -5.925  1.00  0.00    +0.000 C 
ATOM     35  O5  UNL A   1       5.769  37.701  -5.155  1.00  0.00    +0.000 O 
BRANCH   34   33
ATOM     33  N4  UNL A   1       4.210  36.377  -6.092  1.00  0.00    +0.000 N 
ATOM    137  H39 UNL A   1       3.732  36.804  -6.839  1.00  0.00    +0.000 H 
BRANCH   33   32
ATOM    136  H38 UNL A   1       2.429  35.440  -5.706  1.00  0.00    +0.000 H 
ATOM    135  H37 UNL A   1       3.474  35.675  -4.297  1.00  0.00    +0.000 H 
ATOM     32  C25 UNL A   1       3.431  35.412  -5.334  1.00  0.00    +0.000 C 
BRANCH   32   31
ATOM    133  H35 UNL A   1       3.103  33.329  -5.484  1.00  0.00    +0.000 H 
ATOM    134  H36 UNL A   1       4.487  33.973  -6.421  1.00  0.00    +0.000 H 
ATOM     31  C24 UNL A   1       3.946  33.988  -5.498  1.00  0.00    +0.000 C 
BRANCH   31   30
ATOM    131  H33 UNL A   1       5.283  34.384  -3.902  1.00  0.00    +0.000 H 
ATOM    132  H34 UNL A   1       4.385  32.831  -3.814  1.00  0.00    +0.000 H 
ATOM     30  C23 UNL A   1       4.931  33.519  -4.423  1.00  0.00    +0.000 C 
BRANCH   30   29
ATOM    129  H31 UNL A   1       5.918  31.699  -4.891  1.00  0.00    +0.000 H 
ATOM    130  H32 UNL A   1       6.351  33.117  -5.909  1.00  0.00    +0.000 H 
ATOM     29  C22 UNL A   1       6.156  32.742  -4.925  1.00  0.00    +0.000 C 
BRANCH   29   28
ATOM     28  C21 UNL A   1       7.458  32.950  -4.141  1.00  0.00    +0.000 C 
ATOM    127  H29 UNL A   1       8.135  33.503  -4.758  1.00  0.00    +0.000 H 
ATOM    128  H30 UNL A   1       7.193  33.468  -3.243  1.00  0.00    +0.000 H 
BRANCH   28   27
ATOM     27  C20 UNL A   1       8.149  31.664  -3.711  1.00  0.00    +0.000 C 
ATOM    125  H27 UNL A   1       7.478  31.108  -3.091  1.00  0.00    +0.000 H 
ATOM    126  H28 UNL A   1       8.411  31.132  -4.603  1.00  0.00    +0.000 H 
BRANCH   27   26
ATOM     26  N3  UNL A   1       9.375  31.889  -2.973  1.00  0.00    +0.000 N 
ATOM    124  H26 UNL A   1      10.198  31.435  -3.265  1.00  0.00    +0.000 H 
BRANCH   26   24
ATOM     25  O4  UNL A   1       9.910  33.843  -2.029  1.00  0.00    +0.000 O 
ATOM     24  C19 UNL A   1       9.422  32.717  -1.875  1.00  0.00    +0.000 C 
BRANCH   24   16
ATOM    116  H18 UNL A   1       8.429  31.316  -0.665  1.00  0.00    +0.000 H 
ATOM     16  C11 UNL A   1       8.930  32.241  -0.475  1.00  0.00    +0.000 C 
BRANCH   16   15
ATOM    115  H17 UNL A   1       9.846  30.942   0.899  1.00  0.00    +0.000 H 
ATOM     15  N2  UNL A   1       9.966  31.830   0.492  1.00  0.00    +0.000 N 
BRANCH   15   13
ATOM     13  C10 UNL A   1      11.074  32.529   0.892  1.00  0.00    +0.000 C 
ATOM     14  O3  UNL A   1      10.892  33.628   1.424  1.00  0.00    +0.000 O 
BRANCH   13   12
ATOM      8  N1  UNL A   1      13.401  32.732  -0.069  1.00  0.00    +0.000 N 
ATOM      9  C6  UNL A   1      14.589  33.114   0.661  1.00  0.00    +0.000 C 
ATOM     10  C7  UNL A   1      14.647  32.133   1.817  1.00  0.00    +0.000 C 
ATOM     11  C8  UNL A   1      13.179  31.836   2.106  1.00  0.00    +0.000 C 
ATOM     12  C9  UNL A   1      12.486  31.921   0.733  1.00  0.00    +0.000 C 
ATOM    108  H10 UNL A   1      14.508  34.119   1.020  1.00  0.00    +0.000 H 
ATOM    109  H11 UNL A   1      15.471  33.086   0.055  1.00  0.00    +0.000 H 
ATOM    110  H12 UNL A   1      15.124  32.571   2.668  1.00  0.00    +0.000 H 
ATOM    111  H13 UNL A   1      15.212  31.253   1.588  1.00  0.00    +0.000 H 
ATOM    112  H14 UNL A   1      12.773  32.562   2.780  1.00  0.00    +0.000 H 
ATOM    114  H16 UNL A   1      12.315  30.976   0.262  1.00  0.00    +0.000 H 
ATOM    113  H15 UNL A   1      13.042  30.882   2.572  1.00  0.00    +0.000 H 
BRANCH    8    6
ATOM      6  C5  UNL A   1      13.192  32.874  -1.413  1.00  0.00    +0.000 C 
ATOM      7  O2  UNL A   1      13.371  33.935  -1.984  1.00  0.00    +0.000 O 
BRANCH    6    5
ATOM      1  C1  UNL A   1      12.521  30.131  -3.732  1.00  0.00    +0.000 C 
ATOM      2  C2  UNL A   1      13.476  31.132  -3.067  1.00  0.00    +0.000 C 
ATOM     99  H1  UNL A   1      13.031  29.625  -4.524  1.00  0.00    +0.000 H 
ATOM    100  H2  UNL A   1      11.675  30.654  -4.128  1.00  0.00    +0.000 H 
ATOM    101  H3  UNL A   1      12.191  29.417  -3.007  1.00  0.00    +0.000 H 
ATOM      3  C3  UNL A   1      14.655  30.374  -2.450  1.00  0.00    +0.000 C 
ATOM      4  C4  UNL A   1      13.945  32.112  -4.159  1.00  0.00    +0.000 C 
ATOM      5  O1  UNL A   1      12.696  31.763  -2.013  1.00  0.00    +0.000 O 
ATOM    102  H4  UNL A   1      15.228  29.911  -3.227  1.00  0.00    +0.000 H 
ATOM    103  H5  UNL A   1      14.287  29.622  -1.783  1.00  0.00    +0.000 H 
ATOM    104  H6  UNL A   1      15.276  31.057  -1.909  1.00  0.00    +0.000 H 
ATOM    105  H7  UNL A   1      14.510  31.581  -4.897  1.00  0.00    +0.000 H 
ATOM    106  H8  UNL A   1      14.558  32.871  -3.719  1.00  0.00    +0.000 H 
ATOM    107  H9  UNL A   1      13.092  32.566  -4.621  1.00  0.00    +0.000 H 
ENDBRANCH    6    5
ENDBRANCH    8    6
ENDBRANCH   13   12
ENDBRANCH   15   13
ENDBRANCH   16   15
BRANCH   16   17
ATOM     17  C12 UNL A   1       7.927  33.257   0.117  1.00  0.00    +0.000 C 
ATOM    117  H19 UNL A   1       7.974  34.146  -0.477  1.00  0.00    +0.000 H 
ATOM    118  H20 UNL A   1       8.223  33.396   1.135  1.00  0.00    +0.000 H 
BRANCH   17   18
ATOM     18  C13 UNL A   1       6.485  32.808   0.168  1.00  0.00    +0.000 C 
ATOM     19  C14 UNL A   1       5.948  32.032  -0.869  1.00  0.00    +0.000 C 
ATOM     20  C15 UNL A   1       4.597  31.680  -0.868  1.00  0.00    +0.000 C 
ATOM     21  C16 UNL A   1       3.778  32.072   0.189  1.00  0.00    +0.000 C 
ATOM     22  C17 UNL A   1       4.314  32.804   1.248  1.00  0.00    +0.000 C 
ATOM     23  C18 UNL A   1       5.660  33.174   1.238  1.00  0.00    +0.000 C 
ATOM    119  H21 UNL A   1       6.556  31.719  -1.642  1.00  0.00    +0.000 H 
ATOM    120  H22 UNL A   1       4.205  31.131  -1.648  1.00  0.00    +0.000 H 
ATOM    122  H24 UNL A   1       3.712  33.074   2.042  1.00  0.00    +0.000 H 
ATOM    123  H25 UNL A   1       6.048  33.721   2.021  1.00  0.00    +0.000 H 
ATOM    121  H23 UNL A   1       2.778  31.821   0.188  1.00  0.00    +0.000 H 
ENDBRANCH   17   18
ENDBRANCH   16   17
ENDBRANCH   24   16
ENDBRANCH   26   24
ENDBRANCH   27   26
ENDBRANCH   28   27
ENDBRANCH   29   28
ENDBRANCH   30   29
ENDBRANCH   31   30
ENDBRANCH   32   31
ENDBRANCH   33   32
ENDBRANCH   34   33
ENDBRANCH   36   34
ENDBRANCH   40   39
BRANCH   44   45
ATOM     45  C35 UNL A   1      10.925  28.189  -7.537  1.00  0.00    +0.000 C 
ATOM     46  C36 UNL A   1       9.757  27.481  -7.865  1.00  0.00    +0.000 C 
ATOM     47  F1  UNL A   1       9.012  27.858  -8.915  1.00  0.00    +0.000 F 
ATOM     48  C37 UNL A   1       9.320  26.414  -7.084  1.00  0.00    +0.000 C 
ATOM     49  F2  UNL A   1       8.170  25.796  -7.381  1.00  0.00    +0.000 F 
ATOM     50  C38 UNL A   1      10.063  26.007  -5.987  1.00  0.00    +0.000 C 
ATOM     51  F3  UNL A   1       9.641  24.980  -5.235  1.00  0.00    +0.000 F 
ATOM     52  C39 UNL A   1      11.237  26.670  -5.663  1.00  0.00    +0.000 C 
ATOM     53  F4  UNL A   1      11.962  26.267  -4.610  1.00  0.00    +0.000 F 
ATOM     54  C40 UNL A   1      11.658  27.759  -6.421  1.00  0.00    +0.000 C 
ATOM     55  F5  UNL A   1      12.786  28.393  -6.066  1.00  0.00    +0.000 F 
ENDBRANCH   44   45
BRANCH   61   62
ATOM     65  C48 UNL A   1      18.285  28.992 -12.641  1.00  0.00    +0.000 C 
ATOM     66  F7  UNL A   1      19.536  28.964 -12.163  1.00  0.00    +0.000 F 
ATOM     67  C49 UNL A   1      17.987  28.361 -13.840  1.00  0.00    +0.000 C 
ATOM     68  F8  UNL A   1      18.944  27.705 -14.509  1.00  0.00    +0.000 F 
ATOM     69  C50 UNL A   1      16.698  28.417 -14.348  1.00  0.00    +0.000 C 
ATOM     70  F9  UNL A   1      16.405  27.796 -15.499  1.00  0.00    +0.000 F 
ATOM     71  C51 UNL A   1      15.708  29.118 -13.666  1.00  0.00    +0.000 C 
ATOM     72  F10 UNL A   1      14.474  29.167 -14.190  1.00  0.00    +0.000 F 
ATOM     62  C46 UNL A   1      15.984  29.755 -12.445  1.00  0.00    +0.000 C 
ATOM     63  C47 UNL A   1      17.290  29.669 -11.940  1.00  0.00    +0.000 C 
ATOM     64  F6  UNL A   1      17.608  30.274 -10.786  1.00  0.00    +0.000 F 
ENDBRANCH   61   62
BRANCH   76   77
ATOM     77  C55 UNL A   1      13.737  36.349 -12.567  1.00  0.00    +0.000 C 
ATOM     78  C56 UNL A   1      13.186  36.626 -13.825  1.00  0.00    +0.000 C 
ATOM     79  F11 UNL A   1      12.297  35.780 -14.367  1.00  0.00    +0.000 F 
ATOM     80  C57 UNL A   1      13.569  37.754 -14.548  1.00  0.00    +0.000 C 
ATOM     81  F12 UNL A   1      13.053  37.975 -15.764  1.00  0.00    +0.000 F 
ATOM     82  C58 UNL A   1      14.492  38.641 -14.013  1.00  0.00    +0.000 C 
ATOM     83  F13 UNL A   1      14.854  39.731 -14.704  1.00  0.00    +0.000 F 
ATOM     84  C59 UNL A   1      15.042  38.395 -12.765  1.00  0.00    +0.000 C 
ATOM     85  F14 UNL A   1      15.923  39.257 -12.240  1.00  0.00    +0.000 F 
ATOM     86  C60 UNL A   1      14.680  37.253 -12.054  1.00  0.00    +0.000 C 
ATOM     87  F15 UNL A   1      15.234  37.035 -10.852  1.00  0.00    +0.000 F 
ENDBRANCH   76   77
TORSDOF 22
ENDMDL
MODEL 2
REMARK VINA RESULT:      -8.9     19.868     24.304
ROOT
ATOM    140  H42 UNL A   1      18.040  50.975  -2.563  1.00  0.00    +0.000 H 
ATOM    141  H43 UNL A   1      18.477  53.536  -2.350  1.00  0.00    +0.000 H 
ATOM    142  H44 UNL A   1      16.471  52.272   1.045  1.00  0.00    +0.000 H 
ATOM    143  H45 UNL A   1      13.565  53.641   6.564  1.00  0.00    +0.000 H 
ATOM    144  H46 UNL A   1      13.236  51.126   6.402  1.00  0.00    +0.000 H 
ATOM    145  H47 UNL A   1      15.327  52.354   3.025  1.00  0.00    +0.000 H 
ATOM    146  H48 UNL A   1      16.069  57.293   3.575  1.00  0.00    +0.000 H 
ATOM    147  H49 UNL A   1      17.161  57.258   1.260  1.00  0.00    +0.000 H 
ATOM    148  H50 UNL A   1      15.923  47.304   0.739  1.00  0.00    +0.000 H 
ATOM    149  H51 UNL A   1      14.408  47.389   2.800  1.00  0.00    +0.000 H 
ATOM     40  C31 UNL A   1      14.278  49.959   4.019  1.00  0.00    +0.000 C 
ATOM     41  C32 UNL A   1      14.955  49.588   2.730  1.00  0.00    +0.000 C 
ATOM     42  N5  UNL A   1      15.617  50.346   1.891  1.00  0.00    +0.000 N 
ATOM     43  C33 UNL A   1      16.069  49.496   0.890  1.00  0.00    +0.000 C 
ATOM     44  C34 UNL A   1      16.741  49.806  -0.245  1.00  0.00    +0.000 C 
ATOM     56  C41 UNL A   1      17.132  51.142  -0.614  1.00  0.00    +0.000 C 
ATOM     57  C42 UNL A   1      17.771  51.569  -1.764  1.00  0.00    +0.000 C 
ATOM     58  C43 UNL A   1      17.990  52.947  -1.656  1.00  0.00    +0.000 C 
ATOM     59  C44 UNL A   1      17.439  53.388  -0.463  1.00  0.00    +0.000 C 
ATOM     60  N6  UNL A   1      16.922  52.268   0.169  1.00  0.00    +0.000 N 
ATOM     61  C45 UNL A   1      17.392  54.729   0.063  1.00  0.00    +0.000 C 
ATOM     73  C52 UNL A   1      16.820  55.083   1.240  1.00  0.00    +0.000 C 
ATOM     74  N7  UNL A   1      16.172  54.283   2.171  1.00  0.00    +0.000 N 
ATOM     75  C53 UNL A   1      15.803  55.083   3.142  1.00  0.00    +0.000 C 
ATOM     76  C54 UNL A   1      15.038  54.767   4.396  1.00  0.00    +0.000 C 
ATOM     88  C61 UNL A   1      14.651  53.498   4.629  1.00  0.00    +0.000 C 
ATOM     89  C62 UNL A   1      13.900  53.041   5.794  1.00  0.00    +0.000 C 
ATOM     90  C63 UNL A   1      13.716  51.714   5.702  1.00  0.00    +0.000 C 
ATOM     91  C64 UNL A   1      14.302  51.234   4.450  1.00  0.00    +0.000 C 
ATOM     92  N8  UNL A   1      14.845  52.361   3.884  1.00  0.00    +0.000 N 
ATOM     93  C65 UNL A   1      16.205  56.484   2.948  1.00  0.00    +0.000 C 
ATOM     94  C66 UNL A   1      16.783  56.436   1.757  1.00  0.00    +0.000 C 
ATOM     95  C67 UNL A   1      15.660  48.157   1.256  1.00  0.00    +0.000 C 
ATOM     96  C68 UNL A   1      14.903  48.170   2.343  1.00  0.00    +0.000 C 
ENDROOT
BRANCH   40   39
ATOM     97  C69 UNL A   1      12.251  48.705   4.762  1.00  0.00    +0.000 C 
ATOM     98  C70 UNL A   1      11.628  47.751   5.562  1.00  0.00    +0.000 C 
ATOM     36  C27 UNL A   1      12.394  46.915   6.379  1.00  0.00    +0.000 C 
ATOM     37  C28 UNL A   1      13.772  47.125   6.491  1.00  0.00    +0.000 C 
ATOM     38  C29 UNL A   1      14.387  48.133   5.747  1.00  0.00    +0.000 C 
ATOM     39  C30 UNL A   1      13.636  48.912   4.853  1.00  0.00    +0.000 C 
ATOM    138  H40 UNL A   1      14.334  46.533   7.123  1.00  0.00    +0.000 H 
ATOM    139  H41 UNL A   1      15.398  48.307   5.854  1.00  0.00    +0.000 H 
ATOM    150  H52 UNL A   1      11.692  49.261   4.097  1.00  0.00    +0.000 H 
ATOM    151  H53 UNL A   1      10.599  47.661   5.553  1.00  0.00    +0.000 H 
BRANCH   36   34
ATOM     34  C26 UNL A   1      11.777  45.820   7.162  1.00  0.00    +0.000 C 
ATOM     35  O5  UNL A   1      11.633  44.714   6.649  1.00  0.00    +0.000 O 
BRANCH   34   33
ATOM     33  N4  UNL A   1      11.348  46.038   8.446  1.00  0.00    +0.000 N 
ATOM    137  H39 UNL A   1      10.407  46.317   8.530  1.00  0.00    +0.000 H 
BRANCH   33   32
ATOM    136  H38 UNL A   1      12.713  45.069   9.627  1.00  0.00    +0.000 H 
ATOM    135  H37 UNL A   1      11.362  45.812  10.496  1.00  0.00    +0.000 H 
ATOM     32  C25 UNL A   1      12.070  45.921   9.701  1.00  0.00    +0.000 C 
BRANCH   32   31
ATOM    133  H35 UNL A   1      12.495  47.984   9.513  1.00  0.00    +0.000 H 
ATOM    134  H36 UNL A   1      12.995  47.218  11.054  1.00  0.00    +0.000 H 
ATOM     31  C24 UNL A   1      12.943  47.136   9.988  1.00  0.00    +0.000 C 
BRANCH   31   30
ATOM    131  H33 UNL A   1      14.726  46.032   9.681  1.00  0.00    +0.000 H 
ATOM    132  H34 UNL A   1      14.368  47.309   8.469  1.00  0.00    +0.000 H 
ATOM     30  C23 UNL A   1      14.391  47.032   9.502  1.00  0.00    +0.000 C 
BRANCH   30   29
ATOM    129  H31 UNL A   1      14.838  48.789  10.606  1.00  0.00    +0.000 H 
ATOM    130  H32 UNL A   1      15.942  47.392  10.861  1.00  0.00    +0.000 H 
ATOM     29  C22 UNL A   1      15.394  47.989  10.162  1.00  0.00    +0.000 C 
BRANCH   29   28
ATOM     28  C21 UNL A   1      16.448  48.609   9.237  1.00  0.00    +0.000 C 
ATOM    127  H29 UNL A   1      17.361  48.706   9.787  1.00  0.00    +0.000 H 
ATOM    128  H30 UNL A   1      16.536  47.955   8.394  1.00  0.00    +0.000 H 
BRANCH   28   27
ATOM     27  C20 UNL A   1      16.078  49.979   8.685  1.00  0.00    +0.000 C 
ATOM    125  H27 UNL A   1      16.467  50.062   7.693  1.00  0.00    +0.000 H 
ATOM    126  H28 UNL A   1      15.010  50.050   8.707  1.00  0.00    +0.000 H 
BRANCH   27   26
ATOM     26  N3  UNL A   1      16.597  51.076   9.475  1.00  0.00    +0.000 N 
ATOM    124  H26 UNL A   1      17.170  51.748   9.040  1.00  0.00    +0.000 H 
BRANCH   26   24
ATOM     25  O4  UNL A   1      17.262  51.157  11.607  1.00  0.00    +0.000 O 
ATOM     24  C19 UNL A   1      16.314  51.207  10.815  1.00  0.00    +0.000 C 
BRANCH   24   16
ATOM    116  H18 UNL A   1      14.506  50.356  11.466  1.00  0.00    +0.000 H 
ATOM     16  C11 UNL A   1      14.849  51.360  11.327  1.00  0.00    +0.000 C 
BRANCH   16   15
ATOM    115  H17 UNL A   1      14.950  52.867  12.787  1.00  0.00    +0.000 H 
ATOM     15  N2  UNL A   1      14.672  51.929  12.676  1.00  0.00    +0.000 N 
BRANCH   15   13
ATOM     13  C10 UNL A   1      14.166  51.317  13.792  1.00  0.00    +0.000 C 
ATOM     14  O3  UNL A   1      14.969  50.973  14.665  1.00  0.00    +0.000 O 
BRANCH   13   12
ATOM      8  N1  UNL A   1      12.261  49.901  14.655  1.00  0.00    +0.000 N 
ATOM      9  C6  UNL A   1      11.495  50.150  15.855  1.00  0.00    +0.000 C 
ATOM     10  C7  UNL A   1      10.979  51.566  15.678  1.00  0.00    +0.000 C 
ATOM     11  C8  UNL A   1      12.076  52.247  14.865  1.00  0.00    +0.000 C 
ATOM     12  C9  UNL A   1      12.642  51.132  13.964  1.00  0.00    +0.000 C 
ATOM    108  H10 UNL A   1      12.116  50.078  16.724  1.00  0.00    +0.000 H 
ATOM    109  H11 UNL A   1      10.707  49.441  15.994  1.00  0.00    +0.000 H 
ATOM    110  H12 UNL A   1      10.849  52.047  16.625  1.00  0.00    +0.000 H 
ATOM    111  H13 UNL A   1      10.022  51.603  15.199  1.00  0.00    +0.000 H 
ATOM    112  H14 UNL A   1      12.836  52.635  15.509  1.00  0.00    +0.000 H 
ATOM    114  H16 UNL A   1      12.261  51.132  12.965  1.00  0.00    +0.000 H 
ATOM    113  H15 UNL A   1      11.706  53.077  14.300  1.00  0.00    +0.000 H 
BRANCH    8    6
ATOM      6  C5  UNL A   1      12.451  48.689  14.049  1.00  0.00    +0.000 C 
ATOM      7  O2  UNL A   1      12.312  48.540  12.849  1.00  0.00    +0.000 O 
BRANCH    6    5
ATOM      1  C1  UNL A   1      12.248  45.683  16.116  1.00  0.00    +0.000 C 
ATOM      2  C2  UNL A   1      11.918  46.465  14.837  1.00  0.00    +0.000 C 
ATOM     99  H1  UNL A   1      11.692  44.769  16.129  1.00  0.00    +0.000 H 
ATOM    100  H2  UNL A   1      11.988  46.271  16.971  1.00  0.00    +0.000 H 
ATOM    101  H3  UNL A   1      13.295  45.462  16.140  1.00  0.00    +0.000 H 
ATOM      3  C3  UNL A   1      12.347  45.644  13.617  1.00  0.00    +0.000 C 
ATOM      4  C4  UNL A   1      10.400  46.724  14.838  1.00  0.00    +0.000 C 
ATOM      5  O1  UNL A   1      12.718  47.678  14.915  1.00  0.00    +0.000 O 
ATOM    102  H4  UNL A   1      11.757  44.752  13.562  1.00  0.00    +0.000 H 
ATOM    103  H5  UNL A   1      13.380  45.383  13.707  1.00  0.00    +0.000 H 
ATOM    104  H6  UNL A   1      12.202  46.222  12.729  1.00  0.00    +0.000 H 
ATOM    105  H7  UNL A   1       9.878  45.792  14.780  1.00  0.00    +0.000 H 
ATOM    106  H8  UNL A   1      10.141  47.331  13.996  1.00  0.00    +0.000 H 
ATOM    107  H9  UNL A   1      10.125  47.230  15.741  1.00  0.00    +0.000 H 
ENDBRANCH    6    5
ENDBRANCH    8    6
ENDBRANCH   13   12
ENDBRANCH   15   13
ENDBRANCH   16   15
BRANCH   16   17
ATOM     17  C12 UNL A   1      13.977  52.058  10.261  1.00  0.00    +0.000 C 
ATOM    117  H19 UNL A   1      14.579  52.202   9.388  1.00  0.00    +0.000 H 
ATOM    118  H20 UNL A   1      13.640  52.967  10.713  1.00  0.00    +0.000 H 
BRANCH   17   18
ATOM     18  C13 UNL A   1      12.725  51.320   9.845  1.00  0.00    +0.000 C 
ATOM     19  C14 UNL A   1      11.595  51.317  10.676  1.00  0.00    +0.000 C 
ATOM     20  C15 UNL A   1      10.464  50.574  10.335  1.00  0.00    +0.000 C 
ATOM     21  C16 UNL A   1      10.439  49.854   9.143  1.00  0.00    +0.000 C 
ATOM     22  C17 UNL A   1      11.539  49.888   8.287  1.00  0.00    +0.000 C 
ATOM     23  C18 UNL A   1      12.679  50.615   8.637  1.00  0.00    +0.000 C 
ATOM    119  H21 UNL A   1      11.600  51.869  11.548  1.00  0.00    +0.000 H 
ATOM    120  H22 UNL A   1       9.648  50.558  10.966  1.00  0.00    +0.000 H 
ATOM    122  H24 UNL A   1      11.511  49.374   7.394  1.00  0.00    +0.000 H 
ATOM    123  H25 UNL A   1      13.492  50.630   8.002  1.00  0.00    +0.000 H 
ATOM    121  H23 UNL A   1       9.607  49.297   8.893  1.00  0.00    +0.000 H 
ENDBRANCH   17   18
ENDBRANCH   16   17
ENDBRANCH   24   16
ENDBRANCH   26   24
ENDBRANCH   27   26
ENDBRANCH   28   27
ENDBRANCH   29   28
ENDBRANCH   30   29
ENDBRANCH   31   30
ENDBRANCH   32   31
ENDBRANCH   33   32
ENDBRANCH   34   33
ENDBRANCH   36   34
ENDBRANCH   40   39
BRANCH   44   45
ATOM     45  C35 UNL A   1      17.096  48.673  -1.166  1.00  0.00    +0.000 C 
ATOM     46  C36 UNL A   1      16.356  48.410  -2.330  1.00  0.00    +0.000 C 
ATOM     47  F1  UNL A   1      15.292  49.169  -2.638  1.00  0.00    +0.000 F 
ATOM     48  C37 UNL A   1      16.671  47.335  -3.156  1.00  0.00    +0.000 C 
ATOM     49  F2  UNL A   1      15.910  47.067  -4.225  1.00  0.00    +0.000 F 
ATOM     50  C38 UNL A   1      17.758  46.527  -2.859  1.00  0.00    +0.000 C 
ATOM     51  F3  UNL A   1      18.061  45.491  -3.654  1.00  0.00    +0.000 F 
ATOM     52  C39 UNL A   1      18.525  46.787  -1.733  1.00  0.00    +0.000 C 
ATOM     53  F4  UNL A   1      19.584  46.014  -1.454  1.00  0.00    +0.000 F 
ATOM     54  C40 UNL A   1      18.191  47.840  -0.887  1.00  0.00    +0.000 C 
ATOM     55  F5  UNL A   1      18.939  48.049   0.207  1.00  0.00    +0.000 F 
ENDBRANCH   44   45
BRANCH   61   62
ATOM     65  C48 UNL A   1      17.819  57.552  -2.469  1.00  0.00    +0.000 C 
ATOM     66  F7  UNL A   1      17.097  58.176  -3.410  1.00  0.00    +0.000 F 
ATOM     67  C49 UNL A   1      19.140  57.916  -2.255  1.00  0.00    +0.000 C 
ATOM     68  F8  UNL A   1      19.689  58.906  -2.972  1.00  0.00    +0.000 F 
ATOM     69  C50 UNL A   1      19.895  57.248  -1.302  1.00  0.00    +0.000 C 
ATOM     70  F9  UNL A   1      21.167  57.608  -1.084  1.00  0.00    +0.000 F 
ATOM     71  C51 UNL A   1      19.334  56.205  -0.572  1.00  0.00    +0.000 C 
ATOM     72  F10 UNL A   1      20.093  55.568   0.332  1.00  0.00    +0.000 F 
ATOM     62  C46 UNL A   1      17.995  55.826  -0.765  1.00  0.00    +0.000 C 
ATOM     63  C47 UNL A   1      17.245  56.528  -1.720  1.00  0.00    +0.000 C 
ATOM     64  F6  UNL A   1      15.967  56.194  -1.952  1.00  0.00    +0.000 F 
ENDBRANCH   61   62
BRANCH   76   77
ATOM     77  C55 UNL A   1      14.669  55.838   5.357  1.00  0.00    +0.000 C 
ATOM     78  C56 UNL A   1      15.638  56.422   6.183  1.00  0.00    +0.000 C 
ATOM     79  F11 UNL A   1      16.908  55.992   6.132  1.00  0.00    +0.000 F 
ATOM     80  C57 UNL A   1      15.304  57.425   7.091  1.00  0.00    +0.000 C 
ATOM     81  F12 UNL A   1      16.244  57.940   7.894  1.00  0.00    +0.000 F 
ATOM     82  C58 UNL A   1      13.997  57.883   7.169  1.00  0.00    +0.000 C 
ATOM     83  F13 UNL A   1      13.677  58.854   8.035  1.00  0.00    +0.000 F 
ATOM     84  C59 UNL A   1      13.023  57.330   6.352  1.00  0.00    +0.000 C 
ATOM     85  F14 UNL A   1      11.762  57.780   6.416  1.00  0.00    +0.000 F 
ATOM     86  C60 UNL A   1      13.351  56.308   5.465  1.00  0.00    +0.000 C 
ATOM     87  F15 UNL A   1      12.387  55.785   4.693  1.00  0.00    +0.000 F 
ENDBRANCH   76   77
TORSDOF 22
ENDMDL
MODEL 3
REMARK VINA RESULT:      -8.8     43.676     50.103
ROOT
ATOM    140  H42 UNL A   1      49.987  57.733  16.383  1.00  0.00    +0.000 H 
ATOM    141  H43 UNL A   1      52.056  57.519  17.955  1.00  0.00    +0.000 H 
ATOM    142  H44 UNL A   1      49.768  54.090  18.343  1.00  0.00    +0.000 H 
ATOM    143  H45 UNL A   1      48.644  48.508  21.234  1.00  0.00    +0.000 H 
ATOM    144  H46 UNL A   1      46.686  48.672  19.622  1.00  0.00    +0.000 H 
ATOM    145  H47 UNL A   1      49.011  52.086  19.150  1.00  0.00    +0.000 H 
ATOM    146  H48 UNL A   1      52.929  51.533  22.247  1.00  0.00    +0.000 H 
ATOM    147  H49 UNL A   1      53.675  53.870  21.516  1.00  0.00    +0.000 H 
ATOM    148  H50 UNL A   1      45.976  54.403  15.088  1.00  0.00    +0.000 H 
ATOM    149  H51 UNL A   1      44.950  52.311  16.149  1.00  0.00    +0.000 H 
ATOM     40  C31 UNL A   1      46.624  51.080  18.097  1.00  0.00    +0.000 C 
ATOM     41  C32 UNL A   1      46.849  52.384  17.385  1.00  0.00    +0.000 C 
ATOM     42  N5  UNL A   1      47.840  53.234  17.502  1.00  0.00    +0.000 N 
ATOM     43  C33 UNL A   1      47.579  54.246  16.589  1.00  0.00    +0.000 C 
ATOM     44  C34 UNL A   1      48.268  55.393  16.376  1.00  0.00    +0.000 C 
ATOM     56  C41 UNL A   1      49.460  55.765  17.092  1.00  0.00    +0.000 C 
ATOM     57  C42 UNL A   1      50.205  56.927  16.989  1.00  0.00    +0.000 C 
ATOM     58  C43 UNL A   1      51.306  56.818  17.846  1.00  0.00    +0.000 C 
ATOM     59  C44 UNL A   1      51.218  55.613  18.523  1.00  0.00    +0.000 C 
ATOM     60  N6  UNL A   1      50.084  54.974  18.047  1.00  0.00    +0.000 N 
ATOM     61  C45 UNL A   1      52.105  55.081  19.528  1.00  0.00    +0.000 C 
ATOM     73  C52 UNL A   1      51.942  53.891  20.158  1.00  0.00    +0.000 C 
ATOM     74  N7  UNL A   1      50.934  52.950  19.999  1.00  0.00    +0.000 N 
ATOM     75  C53 UNL A   1      51.222  51.969  20.820  1.00  0.00    +0.000 C 
ATOM     76  C54 UNL A   1      50.462  50.701  21.090  1.00  0.00    +0.000 C 
ATOM     88  C61 UNL A   1      49.317  50.465  20.421  1.00  0.00    +0.000 C 
ATOM     89  C62 UNL A   1      48.470  49.287  20.580  1.00  0.00    +0.000 C 
ATOM     90  C63 UNL A   1      47.429  49.380  19.737  1.00  0.00    +0.000 C 
ATOM     91  C64 UNL A   1      47.515  50.645  19.007  1.00  0.00    +0.000 C 
ATOM     92  N8  UNL A   1      48.674  51.217  19.470  1.00  0.00    +0.000 N 
ATOM     93  C65 UNL A   1      52.469  52.165  21.574  1.00  0.00    +0.000 C 
ATOM     94  C66 UNL A   1      52.845  53.368  21.164  1.00  0.00    +0.000 C 
ATOM     95  C67 UNL A   1      46.371  53.877  15.882  1.00  0.00    +0.000 C 
ATOM     96  C68 UNL A   1      45.840  52.775  16.390  1.00  0.00    +0.000 C 
ENDROOT
BRANCH   40   39
ATOM     97  C69 UNL A   1      45.580  49.219  16.800  1.00  0.00    +0.000 C 
ATOM     98  C70 UNL A   1      44.481  48.442  16.443  1.00  0.00    +0.000 C 
ATOM     36  C27 UNL A   1      43.268  48.596  17.120  1.00  0.00    +0.000 C 
ATOM     37  C28 UNL A   1      43.121  49.619  18.062  1.00  0.00    +0.000 C 
ATOM     38  C29 UNL A   1      44.202  50.450  18.363  1.00  0.00    +0.000 C 
ATOM     39  C30 UNL A   1      45.450  50.237  17.756  1.00  0.00    +0.000 C 
ATOM    138  H40 UNL A   1      42.214  49.760  18.534  1.00  0.00    +0.000 H 
ATOM    139  H41 UNL A   1      44.084  51.224  19.035  1.00  0.00    +0.000 H 
ATOM    150  H52 UNL A   1      46.496  49.044  16.358  1.00  0.00    +0.000 H 
ATOM    151  H53 UNL A   1      44.562  47.752  15.680  1.00  0.00    +0.000 H 
BRANCH   36   34
ATOM     34  C26 UNL A   1      42.110  47.717  16.841  1.00  0.00    +0.000 C 
ATOM     35  O5  UNL A   1      41.139  48.165  16.238  1.00  0.00    +0.000 O 
BRANCH   34   33
ATOM     33  N4  UNL A   1      42.106  46.413  17.268  1.00  0.00    +0.000 N 
ATOM    137  H39 UNL A   1      42.214  46.291  18.239  1.00  0.00    +0.000 H 
BRANCH   33   32
ATOM    136  H38 UNL A   1      41.988  45.443  15.467  1.00  0.00    +0.000 H 
ATOM    135  H37 UNL A   1      41.047  44.713  16.777  1.00  0.00    +0.000 H 
ATOM     32  C25 UNL A   1      41.968  45.185  16.505  1.00  0.00    +0.000 C 
BRANCH   32   31
ATOM    133  H35 UNL A   1      43.181  43.557  15.912  1.00  0.00    +0.000 H 
ATOM    134  H36 UNL A   1      43.983  44.807  16.913  1.00  0.00    +0.000 H 
ATOM     31  C24 UNL A   1      43.110  44.208  16.759  1.00  0.00    +0.000 C 
BRANCH   31   30
ATOM    131  H33 UNL A   1      43.191  42.332  17.740  1.00  0.00    +0.000 H 
ATOM    132  H34 UNL A   1      43.635  43.763  18.732  1.00  0.00    +0.000 H 
ATOM     30  C23 UNL A   1      42.965  43.341  18.012  1.00  0.00    +0.000 C 
BRANCH   30   29
ATOM    129  H31 UNL A   1      41.041  44.190  18.300  1.00  0.00    +0.000 H 
ATOM    130  H32 UNL A   1      41.146  42.401  18.448  1.00  0.00    +0.000 H 
ATOM     29  C22 UNL A   1      41.583  43.350  18.681  1.00  0.00    +0.000 C 
BRANCH   29   28
ATOM     28  C21 UNL A   1      41.572  43.442  20.212  1.00  0.00    +0.000 C 
ATOM    127  H29 UNL A   1      41.528  44.476  20.484  1.00  0.00    +0.000 H 
ATOM    128  H30 UNL A   1      40.721  42.885  20.544  1.00  0.00    +0.000 H 
BRANCH   28   27
ATOM     27  C20 UNL A   1      42.786  42.823  20.891  1.00  0.00    +0.000 C 
ATOM    125  H27 UNL A   1      42.469  41.956  21.431  1.00  0.00    +0.000 H 
ATOM    126  H28 UNL A   1      43.491  42.584  20.122  1.00  0.00    +0.000 H 
BRANCH   27   26
ATOM     26  N3  UNL A   1      43.449  43.721  21.814  1.00  0.00    +0.000 N 
ATOM    124  H26 UNL A   1      43.708  44.619  21.503  1.00  0.00    +0.000 H 
BRANCH   26   24
ATOM     25  O4  UNL A   1      42.936  42.590  23.672  1.00  0.00    +0.000 O 
ATOM     24  C19 UNL A   1      43.727  43.358  23.111  1.00  0.00    +0.000 C 
BRANCH   24   16
ATOM    116  H18 UNL A   1      45.766  43.273  23.611  1.00  0.00    +0.000 H 
ATOM     16  C11 UNL A   1      44.963  43.930  23.870  1.00  0.00    +0.000 C 
BRANCH   16   15
ATOM    115  H17 UNL A   1      44.891  46.007  23.562  1.00  0.00    +0.000 H 
ATOM     15  N2  UNL A   1      45.481  45.233  23.412  1.00  0.00    +0.000 N 
BRANCH   15   13
ATOM     13  C10 UNL A   1      46.680  45.501  22.807  1.00  0.00    +0.000 C 
ATOM     14  O3  UNL A   1      47.705  45.312  23.468  1.00  0.00    +0.000 O 
BRANCH   13   12
ATOM      8  N1  UNL A   1      46.657  44.868  20.362  1.00  0.00    +0.000 N 
ATOM      9  C6  UNL A   1      45.532  44.997  19.463  1.00  0.00    +0.000 C 
ATOM     10  C7  UNL A   1      45.139  46.459  19.569  1.00  0.00    +0.000 C 
ATOM     11  C8  UNL A   1      45.495  46.821  21.008  1.00  0.00    +0.000 C 
ATOM     12  C9  UNL A   1      46.731  45.960  21.332  1.00  0.00    +0.000 C 
ATOM    108  H10 UNL A   1      44.726  44.364  19.771  1.00  0.00    +0.000 H 
ATOM    109  H11 UNL A   1      45.771  44.708  18.462  1.00  0.00    +0.000 H 
ATOM    110  H12 UNL A   1      44.092  46.587  19.390  1.00  0.00    +0.000 H 
ATOM    111  H13 UNL A   1      45.636  47.076  18.850  1.00  0.00    +0.000 H 
ATOM    112  H14 UNL A   1      44.686  46.585  21.667  1.00  0.00    +0.000 H 
ATOM    114  H16 UNL A   1      47.665  46.472  21.247  1.00  0.00    +0.000 H 
ATOM    113  H15 UNL A   1      45.687  47.867  21.127  1.00  0.00    +0.000 H 
BRANCH    8    6
ATOM      6  C5  UNL A   1      47.699  43.990  20.239  1.00  0.00    +0.000 C 
ATOM      7  O2  UNL A   1      47.868  43.077  21.026  1.00  0.00    +0.000 O 
BRANCH    6    5
ATOM      1  C1  UNL A   1      50.558  45.117  18.262  1.00  0.00    +0.000 C 
ATOM      2  C2  UNL A   1      49.955  44.505  19.534  1.00  0.00    +0.000 C 
ATOM     99  H1  UNL A   1      51.599  45.307  18.417  1.00  0.00    +0.000 H 
ATOM    100  H2  UNL A   1      50.057  46.036  18.036  1.00  0.00    +0.000 H 
ATOM    101  H3  UNL A   1      50.437  44.436  17.446  1.00  0.00    +0.000 H 
ATOM      3  C3  UNL A   1      50.633  43.161  19.820  1.00  0.00    +0.000 C 
ATOM      4  C4  UNL A   1      50.186  45.509  20.679  1.00  0.00    +0.000 C 
ATOM      5  O1  UNL A   1      48.550  44.286  19.224  1.00  0.00    +0.000 O 
ATOM    102  H4  UNL A   1      51.666  43.325  20.048  1.00  0.00    +0.000 H 
ATOM    103  H5  UNL A   1      50.553  42.531  18.959  1.00  0.00    +0.000 H 
ATOM    104  H6  UNL A   1      50.155  42.690  20.652  1.00  0.00    +0.000 H 
ATOM    105  H7  UNL A   1      51.237  45.619  20.851  1.00  0.00    +0.000 H 
ATOM    106  H8  UNL A   1      49.715  45.149  21.570  1.00  0.00    +0.000 H 
ATOM    107  H9  UNL A   1      49.767  46.457  20.412  1.00  0.00    +0.000 H 
ENDBRANCH    6    5
ENDBRANCH    8    6
ENDBRANCH   13   12
ENDBRANCH   15   13
ENDBRANCH   16   15
BRANCH   16   17
ATOM     17  C12 UNL A   1      44.728  43.880  25.396  1.00  0.00    +0.000 C 
ATOM    117  H19 UNL A   1      44.552  42.859  25.666  1.00  0.00    +0.000 H 
ATOM    118  H20 UNL A   1      43.900  44.530  25.583  1.00  0.00    +0.000 H 
BRANCH   17   18
ATOM     18  C13 UNL A   1      45.858  44.399  26.255  1.00  0.00    +0.000 C 
ATOM     19  C14 UNL A   1      47.015  43.629  26.445  1.00  0.00    +0.000 C 
ATOM     20  C15 UNL A   1      48.028  44.066  27.299  1.00  0.00    +0.000 C 
ATOM     21  C16 UNL A   1      47.910  45.295  27.944  1.00  0.00    +0.000 C 
ATOM     22  C17 UNL A   1      46.785  46.090  27.726  1.00  0.00    +0.000 C 
ATOM     23  C18 UNL A   1      45.762  45.644  26.887  1.00  0.00    +0.000 C 
ATOM    119  H21 UNL A   1      47.117  42.728  25.950  1.00  0.00    +0.000 H 
ATOM    120  H22 UNL A   1      48.863  43.481  27.453  1.00  0.00    +0.000 H 
ATOM    122  H24 UNL A   1      46.710  47.011  28.185  1.00  0.00    +0.000 H 
ATOM    123  H25 UNL A   1      44.930  46.234  26.735  1.00  0.00    +0.000 H 
ATOM    121  H23 UNL A   1      48.654  45.617  28.583  1.00  0.00    +0.000 H 
ENDBRANCH   17   18
ENDBRANCH   16   17
ENDBRANCH   24   16
ENDBRANCH   26   24
ENDBRANCH   27   26
ENDBRANCH   28   27
ENDBRANCH   29   28
ENDBRANCH   30   29
ENDBRANCH   31   30
ENDBRANCH   32   31
ENDBRANCH   33   32
ENDBRANCH   34   33
ENDBRANCH   36   34
ENDBRANCH   40   39
BRANCH   44   45
ATOM     45  C35 UNL A   1      47.744  56.326  15.320  1.00  0.00    +0.000 C 
ATOM     46  C36 UNL A   1      47.992  56.107  13.956  1.00  0.00    +0.000 C 
ATOM     47  F1  UNL A   1      48.725  55.054  13.564  1.00  0.00    +0.000 F 
ATOM     48  C37 UNL A   1      47.534  56.999  12.990  1.00  0.00    +0.000 C 
ATOM     49  F2  UNL A   1      47.839  56.803  11.700  1.00  0.00    +0.000 F 
ATOM     50  C38 UNL A   1      46.782  58.102  13.364  1.00  0.00    +0.000 C 
ATOM     51  F3  UNL A   1      46.342  58.961  12.433  1.00  0.00    +0.000 F 
ATOM     52  C39 UNL A   1      46.495  58.321  14.703  1.00  0.00    +0.000 C 
ATOM     53  F4  UNL A   1      45.757  59.379  15.062  1.00  0.00    +0.000 F 
ATOM     54  C40 UNL A   1      46.981  57.450  15.674  1.00  0.00    +0.000 C 
ATOM     55  F5  UNL A   1      46.707  57.704  16.962  1.00  0.00    +0.000 F 
ENDBRANCH   44   45
BRANCH   61   62
ATOM     65  C48 UNL A   1      54.287  57.675  21.279  1.00  0.00    +0.000 C 
ATOM     66  F7  UNL A   1      54.153  58.660  22.178  1.00  0.00    +0.000 F 
ATOM     67  C49 UNL A   1      55.526  57.422  20.710  1.00  0.00    +0.000 C 
ATOM     68  F8  UNL A   1      56.593  58.146  21.074  1.00  0.00    +0.000 F 
ATOM     69  C50 UNL A   1      55.658  56.422  19.758  1.00  0.00    +0.000 C 
ATOM     70  F9  UNL A   1      56.857  56.167  19.217  1.00  0.00    +0.000 F 
ATOM     71  C51 UNL A   1      54.546  55.684  19.362  1.00  0.00    +0.000 C 
ATOM     72  F10 UNL A   1      54.702  54.734  18.429  1.00  0.00    +0.000 F 
ATOM     62  C46 UNL A   1      53.284  55.916  19.932  1.00  0.00    +0.000 C 
ATOM     63  C47 UNL A   1      53.179  56.919  20.908  1.00  0.00    +0.000 C 
ATOM     64  F6  UNL A   1      51.991  57.189  21.471  1.00  0.00    +0.000 F 
ENDBRANCH   61   62
BRANCH   76   77
ATOM     77  C55 UNL A   1      50.935  49.729  22.109  1.00  0.00    +0.000 C 
ATOM     78  C56 UNL A   1      51.854  48.727  21.769  1.00  0.00    +0.000 C 
ATOM     79  F11 UNL A   1      52.292  48.621  20.505  1.00  0.00    +0.000 F 
ATOM     80  C57 UNL A   1      52.302  47.808  22.715  1.00  0.00    +0.000 C 
ATOM     81  F12 UNL A   1      53.153  46.838  22.354  1.00  0.00    +0.000 F 
ATOM     82  C58 UNL A   1      51.860  47.891  24.028  1.00  0.00    +0.000 C 
ATOM     83  F13 UNL A   1      52.297  47.012  24.940  1.00  0.00    +0.000 F 
ATOM     84  C59 UNL A   1      50.960  48.881  24.391  1.00  0.00    +0.000 C 
ATOM     85  F14 UNL A   1      50.542  48.971  25.660  1.00  0.00    +0.000 F 
ATOM     86  C60 UNL A   1      50.490  49.783  23.438  1.00  0.00    +0.000 C 
ATOM     87  F15 UNL A   1      49.614  50.725  23.815  1.00  0.00    +0.000 F 
ENDBRANCH   76   77
TORSDOF 22
ENDMDL
MODEL 4
REMARK VINA RESULT:      -8.8     24.880     30.471
ROOT
ATOM    140  H42 UNL A   1      10.685  49.138  17.662  1.00  0.00    +0.000 H 
ATOM    141  H43 UNL A   1      10.328  50.863  19.585  1.00  0.00    +0.000 H 
ATOM    142  H44 UNL A   1      10.526  52.930  16.003  1.00  0.00    +0.000 H 
ATOM    143  H45 UNL A   1      10.702  58.473  12.836  1.00  0.00    +0.000 H 
ATOM    144  H46 UNL A   1      10.943  56.782  10.955  1.00  0.00    +0.000 H 
ATOM    145  H47 UNL A   1      10.660  54.676  14.528  1.00  0.00    +0.000 H 
ATOM    146  H48 UNL A   1       9.997  58.127  18.121  1.00  0.00    +0.000 H 
ATOM    147  H49 UNL A   1      10.063  56.201  19.805  1.00  0.00    +0.000 H 
ATOM    148  H50 UNL A   1      10.904  49.566  12.312  1.00  0.00    +0.000 H 
ATOM    149  H51 UNL A   1      11.333  51.482  10.669  1.00  0.00    +0.000 H 
ATOM     40  C31 UNL A   1      11.028  54.068  11.824  1.00  0.00    +0.000 C 
ATOM     41  C32 UNL A   1      10.986  52.739  12.524  1.00  0.00    +0.000 C 
ATOM     42  N5  UNL A   1      10.811  52.475  13.796  1.00  0.00    +0.000 N 
ATOM     43  C33 UNL A   1      10.816  51.091  13.898  1.00  0.00    +0.000 C 
ATOM     44  C34 UNL A   1      10.743  50.324  15.013  1.00  0.00    +0.000 C 
ATOM     56  C41 UNL A   1      10.627  50.848  16.349  1.00  0.00    +0.000 C 
ATOM     57  C42 UNL A   1      10.596  50.160  17.549  1.00  0.00    +0.000 C 
ATOM     58  C43 UNL A   1      10.421  51.088  18.581  1.00  0.00    +0.000 C 
ATOM     59  C44 UNL A   1      10.397  52.359  18.030  1.00  0.00    +0.000 C 
ATOM     60  N6  UNL A   1      10.518  52.197  16.659  1.00  0.00    +0.000 N 
ATOM     61  C45 UNL A   1      10.270  53.627  18.703  1.00  0.00    +0.000 C 
ATOM     73  C52 UNL A   1      10.268  54.837  18.090  1.00  0.00    +0.000 C 
ATOM     74  N7  UNL A   1      10.387  55.130  16.738  1.00  0.00    +0.000 N 
ATOM     75  C53 UNL A   1      10.319  56.436  16.645  1.00  0.00    +0.000 C 
ATOM     76  C54 UNL A   1      10.421  57.308  15.425  1.00  0.00    +0.000 C 
ATOM     88  C61 UNL A   1      10.598  56.735  14.219  1.00  0.00    +0.000 C 
ATOM     89  C62 UNL A   1      10.721  57.448  12.951  1.00  0.00    +0.000 C 
ATOM     90  C63 UNL A   1      10.860  56.554  11.958  1.00  0.00    +0.000 C 
ATOM     91  C64 UNL A   1      10.877  55.206  12.527  1.00  0.00    +0.000 C 
ATOM     92  N8  UNL A   1      10.703  55.411  13.873  1.00  0.00    +0.000 N 
ATOM     93  C65 UNL A   1      10.118  57.119  17.930  1.00  0.00    +0.000 C 
ATOM     94  C66 UNL A   1      10.136  56.103  18.781  1.00  0.00    +0.000 C 
ATOM     95  C67 UNL A   1      10.949  50.568  12.556  1.00  0.00    +0.000 C 
ATOM     96  C68 UNL A   1      11.135  51.544  11.680  1.00  0.00    +0.000 C 
ENDROOT
BRANCH   40   39
ATOM     97  C69 UNL A   1      12.442  54.326   9.782  1.00  0.00    +0.000 C 
ATOM     98  C70 UNL A   1      12.591  54.420   8.401  1.00  0.00    +0.000 C 
ATOM     36  C27 UNL A   1      11.494  54.204   7.564  1.00  0.00    +0.000 C 
ATOM     37  C28 UNL A   1      10.221  54.025   8.116  1.00  0.00    +0.000 C 
ATOM     38  C29 UNL A   1      10.059  54.008   9.502  1.00  0.00    +0.000 C 
ATOM     39  C30 UNL A   1      11.173  54.129  10.347  1.00  0.00    +0.000 C 
ATOM    138  H40 UNL A   1       9.403  53.904   7.498  1.00  0.00    +0.000 H 
ATOM    139  H41 UNL A   1       9.116  53.906   9.908  1.00  0.00    +0.000 H 
ATOM    150  H52 UNL A   1      13.270  54.401  10.393  1.00  0.00    +0.000 H 
ATOM    151  H53 UNL A   1      13.512  54.650   7.995  1.00  0.00    +0.000 H 
BRANCH   36   34
ATOM     34  C26 UNL A   1      11.636  54.191   6.090  1.00  0.00    +0.000 C 
ATOM     35  O5  UNL A   1      11.904  55.233   5.497  1.00  0.00    +0.000 O 
BRANCH   34   33
ATOM     33  N4  UNL A   1      11.452  53.031   5.382  1.00  0.00    +0.000 N 
ATOM    137  H39 UNL A   1      10.513  52.788   5.215  1.00  0.00    +0.000 H 
BRANCH   33   32
ATOM    136  H38 UNL A   1      13.131  52.673   4.263  1.00  0.00    +0.000 H 
ATOM    135  H37 UNL A   1      11.925  51.377   4.244  1.00  0.00    +0.000 H 
ATOM     32  C25 UNL A   1      12.432  52.105   4.842  1.00  0.00    +0.000 C 
BRANCH   32   31
ATOM    133  H35 UNL A   1      12.583  51.298   6.790  1.00  0.00    +0.000 H 
ATOM    134  H36 UNL A   1      13.501  50.440   5.514  1.00  0.00    +0.000 H 
ATOM     31  C24 UNL A   1      13.215  51.382   5.931  1.00  0.00    +0.000 C 
BRANCH   31   30
ATOM    131  H33 UNL A   1      15.157  52.119   5.511  1.00  0.00    +0.000 H 
ATOM    132  H34 UNL A   1      14.224  53.015   6.759  1.00  0.00    +0.000 H 
ATOM     30  C23 UNL A   1      14.516  52.064   6.365  1.00  0.00    +0.000 C 
BRANCH   30   29
ATOM    129  H31 UNL A   1      15.550  52.117   8.218  1.00  0.00    +0.000 H 
ATOM    130  H32 UNL A   1      14.646  50.604   7.861  1.00  0.00    +0.000 H 
ATOM     29  C22 UNL A   1      15.295  51.372   7.493  1.00  0.00    +0.000 C 
BRANCH   29   28
ATOM     28  C21 UNL A   1      16.588  50.656   7.083  1.00  0.00    +0.000 C 
ATOM    127  H29 UNL A   1      17.236  51.373   6.623  1.00  0.00    +0.000 H 
ATOM    128  H30 UNL A   1      16.998  50.233   7.976  1.00  0.00    +0.000 H 
BRANCH   28   27
ATOM     27  C20 UNL A   1      16.390  49.502   6.110  1.00  0.00    +0.000 C 
ATOM    125  H27 UNL A   1      15.445  49.624   5.625  1.00  0.00    +0.000 H 
ATOM    126  H28 UNL A   1      17.206  49.528   5.417  1.00  0.00    +0.000 H 
BRANCH   27   26
ATOM     26  N3  UNL A   1      16.412  48.202   6.748  1.00  0.00    +0.000 N 
ATOM    124  H26 UNL A   1      17.279  47.763   6.906  1.00  0.00    +0.000 H 
BRANCH   26   24
ATOM     25  O4  UNL A   1      14.644  46.917   6.280  1.00  0.00    +0.000 O 
ATOM     24  C19 UNL A   1      15.259  47.561   7.138  1.00  0.00    +0.000 C 
BRANCH   24   16
ATOM    116  H18 UNL A   1      14.162  48.598   8.601  1.00  0.00    +0.000 H 
ATOM     16  C11 UNL A   1      14.714  47.681   8.594  1.00  0.00    +0.000 C 
BRANCH   16   15
ATOM    115  H17 UNL A   1      14.017  45.870   9.399  1.00  0.00    +0.000 H 
ATOM     15  N2  UNL A   1      13.684  46.707   9.001  1.00  0.00    +0.000 N 
BRANCH   15   13
ATOM     13  C10 UNL A   1      12.323  46.821   8.897  1.00  0.00    +0.000 C 
ATOM     14  O3  UNL A   1      11.634  46.058   9.581  1.00  0.00    +0.000 O 
BRANCH   13   12
ATOM      8  N1  UNL A   1      10.418  47.528   7.396  1.00  0.00    +0.000 N 
ATOM      9  C6  UNL A   1       9.340  48.421   7.758  1.00  0.00    +0.000 C 
ATOM     10  C7  UNL A   1      10.043  49.676   8.239  1.00  0.00    +0.000 C 
ATOM     11  C8  UNL A   1      11.338  49.148   8.850  1.00  0.00    +0.000 C 
ATOM     12  C9  UNL A   1      11.693  47.912   8.001  1.00  0.00    +0.000 C 
ATOM    108  H10 UNL A   1       8.742  47.997   8.538  1.00  0.00    +0.000 H 
ATOM    109  H11 UNL A   1       8.673  48.611   6.944  1.00  0.00    +0.000 H 
ATOM    110  H12 UNL A   1       9.455  50.187   8.973  1.00  0.00    +0.000 H 
ATOM    111  H13 UNL A   1      10.212  50.385   7.456  1.00  0.00    +0.000 H 
ATOM    112  H14 UNL A   1      11.188  48.873   9.873  1.00  0.00    +0.000 H 
ATOM    114  H16 UNL A   1      12.427  48.088   7.244  1.00  0.00    +0.000 H 
ATOM    113  H15 UNL A   1      12.117  49.881   8.845  1.00  0.00    +0.000 H 
BRANCH    8    6
ATOM      6  C5  UNL A   1      10.382  46.560   6.430  1.00  0.00    +0.000 C 
ATOM      7  O2  UNL A   1       9.575  45.648   6.462  1.00  0.00    +0.000 O 
BRANCH    6    5
ATOM      1  C1  UNL A   1      12.257  46.917   3.315  1.00  0.00    +0.000 C 
ATOM      2  C2  UNL A   1      11.039  47.220   4.198  1.00  0.00    +0.000 C 
ATOM     99  H1  UNL A   1      12.086  47.296   2.329  1.00  0.00    +0.000 H 
ATOM    100  H2  UNL A   1      12.409  45.858   3.269  1.00  0.00    +0.000 H 
ATOM    101  H3  UNL A   1      13.125  47.384   3.730  1.00  0.00    +0.000 H 
ATOM      3  C3  UNL A   1      10.860  48.738   4.310  1.00  0.00    +0.000 C 
ATOM      4  C4  UNL A   1       9.817  46.555   3.538  1.00  0.00    +0.000 C 
ATOM      5  O1  UNL A   1      11.368  46.670   5.505  1.00  0.00    +0.000 O 
ATOM    102  H4  UNL A   1      10.618  49.140   3.348  1.00  0.00    +0.000 H 
ATOM    103  H5  UNL A   1      11.768  49.179   4.662  1.00  0.00    +0.000 H 
ATOM    104  H6  UNL A   1      10.069  48.954   4.996  1.00  0.00    +0.000 H 
ATOM    105  H7  UNL A   1       9.635  47.007   2.585  1.00  0.00    +0.000 H 
ATOM    106  H8  UNL A   1       8.959  46.683   4.163  1.00  0.00    +0.000 H 
ATOM    107  H9  UNL A   1      10.009  45.510   3.405  1.00  0.00    +0.000 H 
ENDBRANCH    6    5
ENDBRANCH    8    6
ENDBRANCH   13   12
ENDBRANCH   15   13
ENDBRANCH   16   15
BRANCH   16   17
ATOM     17  C12 UNL A   1      15.882  47.776   9.600  1.00  0.00    +0.000 C 
ATOM    117  H19 UNL A   1      16.794  47.645   9.056  1.00  0.00    +0.000 H 
ATOM    118  H20 UNL A   1      15.697  47.016  10.331  1.00  0.00    +0.000 H 
BRANCH   17   18
ATOM     18  C13 UNL A   1      15.984  49.070  10.373  1.00  0.00    +0.000 C 
ATOM     19  C14 UNL A   1      14.825  49.754  10.767  1.00  0.00    +0.000 C 
ATOM     20  C15 UNL A   1      14.911  50.988  11.412  1.00  0.00    +0.000 C 
ATOM     21  C16 UNL A   1      16.159  51.535  11.701  1.00  0.00    +0.000 C 
ATOM     22  C17 UNL A   1      17.319  50.842  11.354  1.00  0.00    +0.000 C 
ATOM     23  C18 UNL A   1      17.233  49.616  10.691  1.00  0.00    +0.000 C 
ATOM    119  H21 UNL A   1      13.898  49.340  10.578  1.00  0.00    +0.000 H 
ATOM    120  H22 UNL A   1      14.052  51.495  11.676  1.00  0.00    +0.000 H 
ATOM    122  H24 UNL A   1      18.243  51.237  11.590  1.00  0.00    +0.000 H 
ATOM    123  H25 UNL A   1      18.095  49.112  10.432  1.00  0.00    +0.000 H 
ATOM    121  H23 UNL A   1      16.226  52.452  12.169  1.00  0.00    +0.000 H 
ENDBRANCH   17   18
ENDBRANCH   16   17
ENDBRANCH   24   16
ENDBRANCH   26   24
ENDBRANCH   27   26
ENDBRANCH   28   27
ENDBRANCH   29   28
ENDBRANCH   30   29
ENDBRANCH   31   30
ENDBRANCH   32   31
ENDBRANCH   33   32
ENDBRANCH   34   33
ENDBRANCH   36   34
ENDBRANCH   40   39
BRANCH   44   45
ATOM     45  C35 UNL A   1      10.784  48.833  14.827  1.00  0.00    +0.000 C 
ATOM     46  C36 UNL A   1      11.998  48.143  14.680  1.00  0.00    +0.000 C 
ATOM     47  F1  UNL A   1      13.160  48.813  14.688  1.00  0.00    +0.000 F 
ATOM     48  C37 UNL A   1      12.022  46.767  14.471  1.00  0.00    +0.000 C 
ATOM     49  F2  UNL A   1      13.189  46.141  14.269  1.00  0.00    +0.000 F 
ATOM     50  C38 UNL A   1      10.837  46.047  14.447  1.00  0.00    +0.000 C 
ATOM     51  F3  UNL A   1      10.860  44.722  14.245  1.00  0.00    +0.000 F 
ATOM     52  C39 UNL A   1       9.627  46.702  14.624  1.00  0.00    +0.000 C 
ATOM     53  F4  UNL A   1       8.483  46.004  14.615  1.00  0.00    +0.000 F 
ATOM     54  C40 UNL A   1       9.598  48.083  14.799  1.00  0.00    +0.000 C 
ATOM     55  F5  UNL A   1       8.410  48.689  14.942  1.00  0.00    +0.000 F 
ENDBRANCH   44   45
BRANCH   61   62
ATOM     65  C48 UNL A   1       8.857  53.354  22.237  1.00  0.00    +0.000 C 
ATOM     66  F7  UNL A   1       7.672  53.169  22.834  1.00  0.00    +0.000 F 
ATOM     67  C49 UNL A   1       9.996  53.544  23.005  1.00  0.00    +0.000 C 
ATOM     68  F8  UNL A   1       9.917  53.519  24.342  1.00  0.00    +0.000 F 
ATOM     69  C50 UNL A   1      11.217  53.767  22.386  1.00  0.00    +0.000 C 
ATOM     70  F9  UNL A   1      12.321  53.936  23.125  1.00  0.00    +0.000 F 
ATOM     71  C51 UNL A   1      11.297  53.816  20.997  1.00  0.00    +0.000 C 
ATOM     72  F10 UNL A   1      12.489  54.048  20.427  1.00  0.00    +0.000 F 
ATOM     62  C46 UNL A   1      10.159  53.616  20.200  1.00  0.00    +0.000 C 
ATOM     63  C47 UNL A   1       8.938  53.373  20.847  1.00  0.00    +0.000 C 
ATOM     64  F6  UNL A   1       7.818  53.192  20.130  1.00  0.00    +0.000 F 
ENDBRANCH   61   62
BRANCH   76   77
ATOM     77  C55 UNL A   1      10.371  58.789  15.537  1.00  0.00    +0.000 C 
ATOM     78  C56 UNL A   1      11.534  59.525  15.800  1.00  0.00    +0.000 C 
ATOM     79  F11 UNL A   1      12.701  58.889  15.984  1.00  0.00    +0.000 F 
ATOM     80  C57 UNL A   1      11.499  60.914  15.910  1.00  0.00    +0.000 C 
ATOM     81  F12 UNL A   1      12.619  61.589  16.199  1.00  0.00    +0.000 F 
ATOM     82  C58 UNL A   1      10.304  61.595  15.732  1.00  0.00    +0.000 C 
ATOM     83  F13 UNL A   1      10.272  62.930  15.829  1.00  0.00    +0.000 F 
ATOM     84  C59 UNL A   1       9.143  60.889  15.458  1.00  0.00    +0.000 C 
ATOM     85  F14 UNL A   1       7.990  61.545  15.271  1.00  0.00    +0.000 F 
ATOM     86  C60 UNL A   1       9.172  59.498  15.375  1.00  0.00    +0.000 C 
ATOM     87  F15 UNL A   1       8.032  58.840  15.117  1.00  0.00    +0.000 F 
ENDBRANCH   76   77
TORSDOF 22
ENDMDL
MODEL 5
REMARK VINA RESULT:      -8.7     43.322     49.758
ROOT
ATOM    140  H42 UNL A   1      50.014  57.308  16.447  1.00  0.00    +0.000 H 
ATOM    141  H43 UNL A   1      52.028  57.094  18.088  1.00  0.00    +0.000 H 
ATOM    142  H44 UNL A   1      49.677  53.706  18.465  1.00  0.00    +0.000 H 
ATOM    143  H45 UNL A   1      48.375  48.196  21.420  1.00  0.00    +0.000 H 
ATOM    144  H46 UNL A   1      46.473  48.359  19.742  1.00  0.00    +0.000 H 
ATOM    145  H47 UNL A   1      48.864  51.729  19.284  1.00  0.00    +0.000 H 
ATOM    146  H48 UNL A   1      52.672  51.177  22.515  1.00  0.00    +0.000 H 
ATOM    147  H49 UNL A   1      53.476  53.488  21.765  1.00  0.00    +0.000 H 
ATOM    148  H50 UNL A   1      45.996  54.014  15.084  1.00  0.00    +0.000 H 
ATOM    149  H51 UNL A   1      44.905  51.958  16.149  1.00  0.00    +0.000 H 
ATOM     40  C31 UNL A   1      46.496  50.739  18.172  1.00  0.00    +0.000 C 
ATOM     41  C32 UNL A   1      46.764  52.026  17.445  1.00  0.00    +0.000 C 
ATOM     42  N5  UNL A   1      47.764  52.863  17.578  1.00  0.00    +0.000 N 
ATOM     43  C33 UNL A   1      47.548  53.862  16.638  1.00  0.00    +0.000 C 
ATOM     44  C34 UNL A   1      48.261  54.994  16.427  1.00  0.00    +0.000 C 
ATOM     56  C41 UNL A   1      49.435  55.362  17.174  1.00  0.00    +0.000 C 
ATOM     57  C42 UNL A   1      50.200  56.510  17.074  1.00  0.00    +0.000 C 
ATOM     58  C43 UNL A   1      51.272  56.402  17.968  1.00  0.00    +0.000 C 
ATOM     59  C44 UNL A   1      51.144  55.211  18.664  1.00  0.00    +0.000 C 
ATOM     60  N6  UNL A   1      50.016  54.580  18.163  1.00  0.00    +0.000 N 
ATOM     61  C45 UNL A   1      51.989  54.685  19.706  1.00  0.00    +0.000 C 
ATOM     73  C52 UNL A   1      51.788  53.510  20.352  1.00  0.00    +0.000 C 
ATOM     74  N7  UNL A   1      50.772  52.580  20.178  1.00  0.00    +0.000 N 
ATOM     75  C53 UNL A   1      51.018  51.611  21.026  1.00  0.00    +0.000 C 
ATOM     76  C54 UNL A   1      50.231  50.359  21.294  1.00  0.00    +0.000 C 
ATOM     88  C61 UNL A   1      49.104  50.128  20.593  1.00  0.00    +0.000 C 
ATOM     89  C62 UNL A   1      48.234  48.965  20.746  1.00  0.00    +0.000 C 
ATOM     90  C63 UNL A   1      47.223  49.058  19.868  1.00  0.00    +0.000 C 
ATOM     91  C64 UNL A   1      47.352  50.308  19.118  1.00  0.00    +0.000 C 
ATOM     92  N8  UNL A   1      48.504  50.872  19.608  1.00  0.00    +0.000 N 
ATOM     93  C65 UNL A   1      52.243  51.803  21.816  1.00  0.00    +0.000 C 
ATOM     94  C66 UNL A   1      52.650  52.993  21.396  1.00  0.00    +0.000 C 
ATOM     95  C67 UNL A   1      46.358  53.498  15.900  1.00  0.00    +0.000 C 
ATOM     96  C68 UNL A   1      45.794  52.413  16.410  1.00  0.00    +0.000 C 
ENDROOT
BRANCH   40   39
ATOM     97  C69 UNL A   1      45.478  48.836  16.917  1.00  0.00    +0.000 C 
ATOM     98  C70 UNL A   1      44.379  48.068  16.539  1.00  0.00    +0.000 C 
ATOM     36  C27 UNL A   1      43.135  48.287  17.135  1.00  0.00    +0.000 C 
ATOM     37  C28 UNL A   1      42.963  49.363  18.012  1.00  0.00    +0.000 C 
ATOM     38  C29 UNL A   1      44.047  50.182  18.331  1.00  0.00    +0.000 C 
ATOM     39  C30 UNL A   1      45.321  49.907  17.809  1.00  0.00    +0.000 C 
ATOM    138  H40 UNL A   1      42.035  49.550  18.424  1.00  0.00    +0.000 H 
ATOM    139  H41 UNL A   1      43.912  50.994  18.954  1.00  0.00    +0.000 H 
ATOM    150  H52 UNL A   1      46.412  48.616  16.538  1.00  0.00    +0.000 H 
ATOM    151  H53 UNL A   1      44.484  47.336  15.818  1.00  0.00    +0.000 H 
BRANCH   36   34
ATOM     34  C26 UNL A   1      41.971  47.421  16.837  1.00  0.00    +0.000 C 
ATOM     35  O5  UNL A   1      41.125  47.800  16.032  1.00  0.00    +0.000 O 
BRANCH   34   33
ATOM     33  N4  UNL A   1      41.823  46.212  17.467  1.00  0.00    +0.000 N 
ATOM    137  H39 UNL A   1      41.579  46.264  18.419  1.00  0.00    +0.000 H 
BRANCH   33   32
ATOM    136  H38 UNL A   1      42.701  44.900  16.162  1.00  0.00    +0.000 H 
ATOM    135  H37 UNL A   1      41.021  44.532  16.579  1.00  0.00    +0.000 H 
ATOM     32  C25 UNL A   1      41.970  44.866  16.942  1.00  0.00    +0.000 C 
BRANCH   32   31
ATOM    133  H35 UNL A   1      42.585  42.927  17.522  1.00  0.00    +0.000 H 
ATOM    134  H36 UNL A   1      43.375  44.288  18.378  1.00  0.00    +0.000 H 
ATOM     31  C24 UNL A   1      42.464  43.880  17.994  1.00  0.00    +0.000 C 
BRANCH   31   30
ATOM    131  H33 UNL A   1      41.285  44.665  19.569  1.00  0.00    +0.000 H 
ATOM    132  H34 UNL A   1      40.710  43.125  18.845  1.00  0.00    +0.000 H 
ATOM     30  C23 UNL A   1      41.542  43.695  19.202  1.00  0.00    +0.000 C 
BRANCH   30   29
ATOM    129  H31 UNL A   1      42.211  41.870  20.056  1.00  0.00    +0.000 H 
ATOM    130  H32 UNL A   1      43.051  43.359  20.614  1.00  0.00    +0.000 H 
ATOM     29  C22 UNL A   1      42.121  42.888  20.374  1.00  0.00    +0.000 C 
BRANCH   29   28
ATOM     28  C21 UNL A   1      41.306  42.902  21.673  1.00  0.00    +0.000 C 
ATOM    127  H29 UNL A   1      40.767  43.825  21.721  1.00  0.00    +0.000 H 
ATOM    128  H30 UNL A   1      40.665  42.045  21.639  1.00  0.00    +0.000 H 
BRANCH   28   27
ATOM     27  C20 UNL A   1      42.137  42.770  22.942  1.00  0.00    +0.000 C 
ATOM    125  H27 UNL A   1      41.477  42.595  23.764  1.00  0.00    +0.000 H 
ATOM    126  H28 UNL A   1      42.819  41.959  22.791  1.00  0.00    +0.000 H 
BRANCH   27   26
ATOM     26  N3  UNL A   1      42.931  43.946  23.233  1.00  0.00    +0.000 N 
ATOM    124  H26 UNL A   1      42.613  44.825  22.924  1.00  0.00    +0.000 H 
BRANCH   26   24
ATOM     25  O4  UNL A   1      44.797  44.900  24.008  1.00  0.00    +0.000 O 
ATOM     24  C19 UNL A   1      44.115  43.872  23.928  1.00  0.00    +0.000 C 
BRANCH   24   16
ATOM    116  H18 UNL A   1      44.206  41.772  23.914  1.00  0.00    +0.000 H 
ATOM     16  C11 UNL A   1      44.612  42.531  24.549  1.00  0.00    +0.000 C 
BRANCH   16   15
ATOM    115  H17 UNL A   1      46.493  41.972  25.301  1.00  0.00    +0.000 H 
ATOM     15  N2  UNL A   1      46.058  42.253  24.464  1.00  0.00    +0.000 N 
BRANCH   15   13
ATOM     13  C10 UNL A   1      46.872  42.337  23.365  1.00  0.00    +0.000 C 
ATOM     14  O3  UNL A   1      46.510  41.746  22.343  1.00  0.00    +0.000 O 
BRANCH   13   12
ATOM      8  N1  UNL A   1      48.005  44.528  22.825  1.00  0.00    +0.000 N 
ATOM      9  C6  UNL A   1      48.309  45.581  23.769  1.00  0.00    +0.000 C 
ATOM     10  C7  UNL A   1      49.124  44.889  24.846  1.00  0.00    +0.000 C 
ATOM     11  C8  UNL A   1      48.561  43.471  24.864  1.00  0.00    +0.000 C 
ATOM     12  C9  UNL A   1      48.158  43.194  23.403  1.00  0.00    +0.000 C 
ATOM    108  H10 UNL A   1      47.412  45.994  24.178  1.00  0.00    +0.000 H 
ATOM    109  H11 UNL A   1      48.834  46.397  23.319  1.00  0.00    +0.000 H 
ATOM    110  H12 UNL A   1      48.988  45.366  25.794  1.00  0.00    +0.000 H 
ATOM    111  H13 UNL A   1      50.176  44.916  24.653  1.00  0.00    +0.000 H 
ATOM    112  H14 UNL A   1      47.710  43.411  25.509  1.00  0.00    +0.000 H 
ATOM    114  H16 UNL A   1      48.871  42.625  22.844  1.00  0.00    +0.000 H 
ATOM    113  H15 UNL A   1      49.269  42.758  25.231  1.00  0.00    +0.000 H 
BRANCH    8    6
ATOM      6  C5  UNL A   1      47.816  44.675  21.478  1.00  0.00    +0.000 C 
ATOM      7  O2  UNL A   1      48.688  44.402  20.672  1.00  0.00    +0.000 O 
BRANCH    6    5
ATOM      1  C1  UNL A   1      44.963  46.059  19.663  1.00  0.00    +0.000 C 
ATOM      2  C2  UNL A   1      46.146  45.088  19.777  1.00  0.00    +0.000 C 
ATOM     99  H1  UNL A   1      44.560  46.015  18.673  1.00  0.00    +0.000 H 
ATOM    100  H2  UNL A   1      45.297  47.055  19.869  1.00  0.00    +0.000 H 
ATOM    101  H3  UNL A   1      44.206  45.784  20.368  1.00  0.00    +0.000 H 
ATOM      3  C3  UNL A   1      45.652  43.658  19.541  1.00  0.00    +0.000 C 
ATOM      4  C4  UNL A   1      47.187  45.508  18.722  1.00  0.00    +0.000 C 
ATOM      5  O1  UNL A   1      46.619  45.221  21.148  1.00  0.00    +0.000 O 
ATOM    102  H4  UNL A   1      45.305  43.562  18.532  1.00  0.00    +0.000 H 
ATOM    103  H5  UNL A   1      44.851  43.441  20.215  1.00  0.00    +0.000 H 
ATOM    104  H6  UNL A   1      46.454  42.970  19.708  1.00  0.00    +0.000 H 
ATOM    105  H7  UNL A   1      46.772  45.384  17.743  1.00  0.00    +0.000 H 
ATOM    106  H8  UNL A   1      48.060  44.898  18.819  1.00  0.00    +0.000 H 
ATOM    107  H9  UNL A   1      47.450  46.535  18.870  1.00  0.00    +0.000 H 
ENDBRANCH    6    5
ENDBRANCH    8    6
ENDBRANCH   13   12
ENDBRANCH   15   13
ENDBRANCH   16   15
BRANCH   16   17
ATOM     17  C12 UNL A   1      44.052  42.361  25.978  1.00  0.00    +0.000 C 
ATOM    117  H19 UNL A   1      43.361  43.158  26.157  1.00  0.00    +0.000 H 
ATOM    118  H20 UNL A   1      44.904  42.368  26.626  1.00  0.00    +0.000 H 
BRANCH   17   18
ATOM     18  C13 UNL A   1      43.339  41.058  26.257  1.00  0.00    +0.000 C 
ATOM     19  C14 UNL A   1      44.062  39.926  26.661  1.00  0.00    +0.000 C 
ATOM     20  C15 UNL A   1      43.420  38.701  26.844  1.00  0.00    +0.000 C 
ATOM     21  C16 UNL A   1      42.043  38.602  26.658  1.00  0.00    +0.000 C 
ATOM     22  C17 UNL A   1      41.308  39.732  26.301  1.00  0.00    +0.000 C 
ATOM     23  C18 UNL A   1      41.951  40.954  26.098  1.00  0.00    +0.000 C 
ATOM    119  H21 UNL A   1      45.079  40.000  26.824  1.00  0.00    +0.000 H 
ATOM    120  H22 UNL A   1      43.965  37.868  27.117  1.00  0.00    +0.000 H 
ATOM    122  H24 UNL A   1      40.285  39.664  26.187  1.00  0.00    +0.000 H 
ATOM    123  H25 UNL A   1      41.402  41.784  25.828  1.00  0.00    +0.000 H 
ATOM    121  H23 UNL A   1      41.568  37.695  26.784  1.00  0.00    +0.000 H 
ENDBRANCH   17   18
ENDBRANCH   16   17
ENDBRANCH   24   16
ENDBRANCH   26   24
ENDBRANCH   27   26
ENDBRANCH   28   27
ENDBRANCH   29   28
ENDBRANCH   30   29
ENDBRANCH   31   30
ENDBRANCH   32   31
ENDBRANCH   33   32
ENDBRANCH   34   33
ENDBRANCH   36   34
ENDBRANCH   40   39
BRANCH   44   45
ATOM     45  C35 UNL A   1      47.785  55.914  15.338  1.00  0.00    +0.000 C 
ATOM     46  C36 UNL A   1      47.038  57.069  15.623  1.00  0.00    +0.000 C 
ATOM     47  F1  UNL A   1      46.717  57.368  16.892  1.00  0.00    +0.000 F 
ATOM     48  C37 UNL A   1      46.571  57.893  14.603  1.00  0.00    +0.000 C 
ATOM     49  F2  UNL A   1      45.805  58.953  14.898  1.00  0.00    +0.000 F 
ATOM     50  C38 UNL A   1      46.877  57.605  13.282  1.00  0.00    +0.000 C 
ATOM     51  F3  UNL A   1      46.425  58.399  12.301  1.00  0.00    +0.000 F 
ATOM     52  C39 UNL A   1      47.641  56.489  12.978  1.00  0.00    +0.000 C 
ATOM     53  F4  UNL A   1      47.949  56.219  11.702  1.00  0.00    +0.000 F 
ATOM     54  C40 UNL A   1      48.081  55.644  13.993  1.00  0.00    +0.000 C 
ATOM     55  F5  UNL A   1      48.798  54.559  13.662  1.00  0.00    +0.000 F 
ENDBRANCH   44   45
BRANCH   61   62
ATOM     65  C48 UNL A   1      54.133  57.357  21.386  1.00  0.00    +0.000 C 
ATOM     66  F7  UNL A   1      53.968  58.435  22.166  1.00  0.00    +0.000 F 
ATOM     67  C49 UNL A   1      55.403  56.998  20.962  1.00  0.00    +0.000 C 
ATOM     68  F8  UNL A   1      56.468  57.713  21.350  1.00  0.00    +0.000 F 
ATOM     69  C50 UNL A   1      55.569  55.901  20.130  1.00  0.00    +0.000 C 
ATOM     70  F9  UNL A   1      56.798  55.544  19.731  1.00  0.00    +0.000 F 
ATOM     71  C51 UNL A   1      54.462  55.171  19.709  1.00  0.00    +0.000 C 
ATOM     72  F10 UNL A   1      54.653  54.123  18.892  1.00  0.00    +0.000 F 
ATOM     62  C46 UNL A   1      53.168  55.510  20.133  1.00  0.00    +0.000 C 
ATOM     63  C47 UNL A   1      53.026  56.611  20.990  1.00  0.00    +0.000 C 
ATOM     64  F6  UNL A   1      51.808  56.986  21.412  1.00  0.00    +0.000 F 
ENDBRANCH   61   62
BRANCH   76   77
ATOM     77  C55 UNL A   1      50.655  49.400  22.346  1.00  0.00    +0.000 C 
ATOM     78  C56 UNL A   1      51.531  48.349  22.042  1.00  0.00    +0.000 C 
ATOM     79  F11 UNL A   1      51.969  48.185  20.785  1.00  0.00    +0.000 F 
ATOM     80  C57 UNL A   1      51.934  47.441  23.019  1.00  0.00    +0.000 C 
ATOM     81  F12 UNL A   1      52.743  46.424  22.693  1.00  0.00    +0.000 F 
ATOM     82  C58 UNL A   1      51.490  47.584  24.326  1.00  0.00    +0.000 C 
ATOM     83  F13 UNL A   1      51.884  46.716  25.267  1.00  0.00    +0.000 F 
ATOM     84  C59 UNL A   1      50.633  48.623  24.653  1.00  0.00    +0.000 C 
ATOM     85  F14 UNL A   1      50.213  48.771  25.916  1.00  0.00    +0.000 F 
ATOM     86  C60 UNL A   1      50.207  49.515  23.670  1.00  0.00    +0.000 C 
ATOM     87  F15 UNL A   1      49.372  50.506  24.013  1.00  0.00    +0.000 F 
ENDBRANCH   76   77
TORSDOF 22
ENDMDL
MODEL 6
REMARK VINA RESULT:      -8.7     20.058     24.431
ROOT
ATOM    140  H42 UNL A   1      18.059  50.853  -2.502  1.00  0.00    +0.000 H 
ATOM    141  H43 UNL A   1      18.547  53.409  -2.340  1.00  0.00    +0.000 H 
ATOM    142  H44 UNL A   1      16.469  52.264   1.054  1.00  0.00    +0.000 H 
ATOM    143  H45 UNL A   1      13.517  53.816   6.500  1.00  0.00    +0.000 H 
ATOM    144  H46 UNL A   1      13.138  51.306   6.390  1.00  0.00    +0.000 H 
ATOM    145  H47 UNL A   1      15.299  52.414   3.016  1.00  0.00    +0.000 H 
ATOM    146  H48 UNL A   1      16.139  57.348   3.466  1.00  0.00    +0.000 H 
ATOM    147  H49 UNL A   1      17.260  57.238   1.168  1.00  0.00    +0.000 H 
ATOM    148  H50 UNL A   1      15.820  47.303   0.850  1.00  0.00    +0.000 H 
ATOM    149  H51 UNL A   1      14.279  47.465   2.888  1.00  0.00    +0.000 H 
ATOM     40  C31 UNL A   1      14.187  50.064   4.047  1.00  0.00    +0.000 C 
ATOM     41  C32 UNL A   1      14.873  49.650   2.776  1.00  0.00    +0.000 C 
ATOM     42  N5  UNL A   1      15.563  50.375   1.930  1.00  0.00    +0.000 N 
ATOM     43  C33 UNL A   1      16.010  49.494   0.956  1.00  0.00    +0.000 C 
ATOM     44  C34 UNL A   1      16.704  49.764  -0.176  1.00  0.00    +0.000 C 
ATOM     56  C41 UNL A   1      17.128  51.083  -0.570  1.00  0.00    +0.000 C 
ATOM     57  C42 UNL A   1      17.791  51.471  -1.720  1.00  0.00    +0.000 C 
ATOM     58  C43 UNL A   1      18.038  52.846  -1.640  1.00  0.00    +0.000 C 
ATOM     59  C44 UNL A   1      17.481  53.325  -0.465  1.00  0.00    +0.000 C 
ATOM     60  N6  UNL A   1      16.931  52.230   0.185  1.00  0.00    +0.000 N 
ATOM     61  C45 UNL A   1      17.454  54.678   0.031  1.00  0.00    +0.000 C 
ATOM     73  C52 UNL A   1      16.874  55.070   1.191  1.00  0.00    +0.000 C 
ATOM     74  N7  UNL A   1      16.197  54.305   2.131  1.00  0.00    +0.000 N 
ATOM     75  C53 UNL A   1      15.832  55.135   3.078  1.00  0.00    +0.000 C 
ATOM     76  C54 UNL A   1      15.043  54.863   4.329  1.00  0.00    +0.000 C 
ATOM     88  C61 UNL A   1      14.626  53.607   4.584  1.00  0.00    +0.000 C 
ATOM     89  C62 UNL A   1      13.849  53.192   5.748  1.00  0.00    +0.000 C 
ATOM     90  C63 UNL A   1      13.639  51.868   5.683  1.00  0.00    +0.000 C 
ATOM     91  C64 UNL A   1      14.232  51.348   4.451  1.00  0.00    +0.000 C 
ATOM     92  N8  UNL A   1      14.806  52.450   3.868  1.00  0.00    +0.000 N 
ATOM     93  C65 UNL A   1      16.265  56.522   2.859  1.00  0.00    +0.000 C 
ATOM     94  C66 UNL A   1      16.859  56.435   1.678  1.00  0.00    +0.000 C 
ATOM     95  C67 UNL A   1      15.568  48.172   1.345  1.00  0.00    +0.000 C 
ATOM     96  C68 UNL A   1      14.797  48.225   2.421  1.00  0.00    +0.000 C 
ENDROOT
BRANCH   40   39
ATOM     97  C69 UNL A   1      12.147  48.786   4.707  1.00  0.00    +0.000 C 
ATOM     98  C70 UNL A   1      11.489  47.863   5.517  1.00  0.00    +0.000 C 
ATOM     36  C27 UNL A   1      12.212  47.110   6.447  1.00  0.00    +0.000 C 
ATOM     37  C28 UNL A   1      13.569  47.377   6.655  1.00  0.00    +0.000 C 
ATOM     38  C29 UNL A   1      14.210  48.358   5.897  1.00  0.00    +0.000 C 
ATOM     39  C30 UNL A   1      13.511  49.050   4.896  1.00  0.00    +0.000 C 
ATOM    138  H40 UNL A   1      14.095  46.849   7.369  1.00  0.00    +0.000 H 
ATOM    139  H41 UNL A   1      15.204  48.576   6.073  1.00  0.00    +0.000 H 
ATOM    150  H52 UNL A   1      11.626  49.277   3.964  1.00  0.00    +0.000 H 
ATOM    151  H53 UNL A   1      10.469  47.734   5.431  1.00  0.00    +0.000 H 
BRANCH   36   34
ATOM     34  C26 UNL A   1      11.567  46.046   7.249  1.00  0.00    +0.000 C 
ATOM     35  O5  UNL A   1      11.656  44.876   6.888  1.00  0.00    +0.000 O 
BRANCH   34   33
ATOM     33  N4  UNL A   1      10.857  46.359   8.380  1.00  0.00    +0.000 N 
ATOM    137  H39 UNL A   1       9.975  46.766   8.220  1.00  0.00    +0.000 H 
BRANCH   33   32
ATOM    136  H38 UNL A   1      11.782  45.282   9.857  1.00  0.00    +0.000 H 
ATOM    135  H37 UNL A   1      10.309  46.127  10.355  1.00  0.00    +0.000 H 
ATOM     32  C25 UNL A   1      11.209  46.181   9.778  1.00  0.00    +0.000 C 
BRANCH   32   31
ATOM    133  H35 UNL A   1      11.783  48.216   9.798  1.00  0.00    +0.000 H 
ATOM    134  H36 UNL A   1      11.878  47.361  11.369  1.00  0.00    +0.000 H 
ATOM     31  C24 UNL A   1      12.063  47.323  10.316  1.00  0.00    +0.000 C 
BRANCH   31   30
ATOM    131  H33 UNL A   1      13.839  46.202  10.601  1.00  0.00    +0.000 H 
ATOM    132  H34 UNL A   1      13.764  47.198   9.107  1.00  0.00    +0.000 H 
ATOM     30  C23 UNL A   1      13.575  47.139  10.159  1.00  0.00    +0.000 C 
BRANCH   30   29
ATOM    129  H31 UNL A   1      13.845  49.090  10.951  1.00  0.00    +0.000 H 
ATOM    130  H32 UNL A   1      14.840  47.790  11.695  1.00  0.00    +0.000 H 
ATOM     29  C22 UNL A   1      14.455  48.224  10.796  1.00  0.00    +0.000 C 
BRANCH   29   28
ATOM     28  C21 UNL A   1      15.685  48.658   9.990  1.00  0.00    +0.000 C 
ATOM    127  H29 UNL A   1      16.516  48.733  10.661  1.00  0.00    +0.000 H 
ATOM    128  H30 UNL A   1      15.828  47.918   9.230  1.00  0.00    +0.000 H 
BRANCH   28   27
ATOM     27  C20 UNL A   1      15.532  49.992   9.272  1.00  0.00    +0.000 C 
ATOM    125  H27 UNL A   1      15.889  49.882   8.270  1.00  0.00    +0.000 H 
ATOM    126  H28 UNL A   1      14.494  50.252   9.306  1.00  0.00    +0.000 H 
BRANCH   27   26
ATOM     26  N3  UNL A   1      16.264  51.071   9.903  1.00  0.00    +0.000 N 
ATOM    124  H26 UNL A   1      17.016  51.485   9.420  1.00  0.00    +0.000 H 
BRANCH   26   24
ATOM     25  O4  UNL A   1      16.819  51.496  12.026  1.00  0.00    +0.000 O 
ATOM     24  C19 UNL A   1      15.940  51.535  11.157  1.00  0.00    +0.000 C 
BRANCH   24   16
ATOM    116  H18 UNL A   1      13.856  51.418  10.919  1.00  0.00    +0.000 H 
ATOM     16  C11 UNL A   1      14.506  52.046  11.491  1.00  0.00    +0.000 C 
BRANCH   16   15
ATOM    115  H17 UNL A   1      14.702  51.833  13.572  1.00  0.00    +0.000 H 
ATOM     15  N2  UNL A   1      14.019  51.811  12.864  1.00  0.00    +0.000 N 
BRANCH   15   13
ATOM     13  C10 UNL A   1      12.735  51.569  13.276  1.00  0.00    +0.000 C 
ATOM     14  O3  UNL A   1      12.178  52.444  13.945  1.00  0.00    +0.000 O 
BRANCH   13   12
ATOM      8  N1  UNL A   1      11.167  49.690  13.901  1.00  0.00    +0.000 N 
ATOM      9  C6  UNL A   1       9.783  49.573  13.503  1.00  0.00    +0.000 C 
ATOM     10  C7  UNL A   1       9.824  49.660  11.988  1.00  0.00    +0.000 C 
ATOM     11  C8  UNL A   1      11.014  50.575  11.716  1.00  0.00    +0.000 C 
ATOM     12  C9  UNL A   1      12.006  50.273  12.855  1.00  0.00    +0.000 C 
ATOM    108  H10 UNL A   1       9.201  50.371  13.913  1.00  0.00    +0.000 H 
ATOM    109  H11 UNL A   1       9.330  48.668  13.849  1.00  0.00    +0.000 H 
ATOM    110  H12 UNL A   1       8.920  50.084  11.605  1.00  0.00    +0.000 H 
ATOM    111  H13 UNL A   1       9.919  48.703  11.519  1.00  0.00    +0.000 H 
ATOM    112  H14 UNL A   1      10.713  51.601  11.738  1.00  0.00    +0.000 H 
ATOM    114  H16 UNL A   1      12.795  49.600  12.592  1.00  0.00    +0.000 H 
ATOM    113  H15 UNL A   1      11.442  50.406  10.750  1.00  0.00    +0.000 H 
BRANCH    8    6
ATOM      6  C5  UNL A   1      11.743  49.136  15.012  1.00  0.00    +0.000 C 
ATOM      7  O2  UNL A   1      11.545  49.579  16.129  1.00  0.00    +0.000 O 
BRANCH    6    5
ATOM      1  C1  UNL A   1      13.443  45.904  14.886  1.00  0.00    +0.000 C 
ATOM      2  C2  UNL A   1      12.170  46.755  14.993  1.00  0.00    +0.000 C 
ATOM     99  H1  UNL A   1      13.202  44.877  15.064  1.00  0.00    +0.000 H 
ATOM    100  H2  UNL A   1      14.156  46.235  15.613  1.00  0.00    +0.000 H 
ATOM    101  H3  UNL A   1      13.861  46.007  13.906  1.00  0.00    +0.000 H 
ATOM      3  C3  UNL A   1      11.177  46.318  13.911  1.00  0.00    +0.000 C 
ATOM      4  C4  UNL A   1      11.595  46.543  16.406  1.00  0.00    +0.000 C 
ATOM      5  O1  UNL A   1      12.602  48.121  14.737  1.00  0.00    +0.000 O 
ATOM    102  H4  UNL A   1      10.862  45.313  14.101  1.00  0.00    +0.000 H 
ATOM    103  H5  UNL A   1      11.649  46.368  12.952  1.00  0.00    +0.000 H 
ATOM    104  H6  UNL A   1      10.327  46.967  13.924  1.00  0.00    +0.000 H 
ATOM    105  H7  UNL A   1      11.301  45.521  16.522  1.00  0.00    +0.000 H 
ATOM    106  H8  UNL A   1      10.745  47.177  16.544  1.00  0.00    +0.000 H 
ATOM    107  H9  UNL A   1      12.342  46.784  17.135  1.00  0.00    +0.000 H 
ENDBRANCH    6    5
ENDBRANCH    8    6
ENDBRANCH   13   12
ENDBRANCH   15   13
ENDBRANCH   16   15
BRANCH   16   17
ATOM     17  C12 UNL A   1      14.336  53.512  11.037  1.00  0.00    +0.000 C 
ATOM    117  H19 UNL A   1      15.276  53.845  10.648  1.00  0.00    +0.000 H 
ATOM    118  H20 UNL A   1      14.008  54.047  11.903  1.00  0.00    +0.000 H 
BRANCH   17   18
ATOM     18  C13 UNL A   1      13.284  53.758   9.980  1.00  0.00    +0.000 C 
ATOM     19  C14 UNL A   1      13.072  55.051   9.480  1.00  0.00    +0.000 C 
ATOM     20  C15 UNL A   1      12.050  55.300   8.562  1.00  0.00    +0.000 C 
ATOM     21  C16 UNL A   1      11.253  54.251   8.109  1.00  0.00    +0.000 C 
ATOM     22  C17 UNL A   1      11.485  52.954   8.565  1.00  0.00    +0.000 C 
ATOM     23  C18 UNL A   1      12.494  52.708   9.499  1.00  0.00    +0.000 C 
ATOM    119  H21 UNL A   1      13.676  55.827   9.794  1.00  0.00    +0.000 H 
ATOM    120  H22 UNL A   1      11.885  56.259   8.220  1.00  0.00    +0.000 H 
ATOM    122  H24 UNL A   1      10.910  52.174   8.212  1.00  0.00    +0.000 H 
ATOM    123  H25 UNL A   1      12.657  51.747   9.837  1.00  0.00    +0.000 H 
ATOM    121  H23 UNL A   1      10.491  54.434   7.438  1.00  0.00    +0.000 H 
ENDBRANCH   17   18
ENDBRANCH   16   17
ENDBRANCH   24   16
ENDBRANCH   26   24
ENDBRANCH   27   26
ENDBRANCH   28   27
ENDBRANCH   29   28
ENDBRANCH   30   29
ENDBRANCH   31   30
ENDBRANCH   32   31
ENDBRANCH   33   32
ENDBRANCH   34   33
ENDBRANCH   36   34
ENDBRANCH   40   39
BRANCH   44   45
ATOM     45  C35 UNL A   1      17.048  48.603  -1.067  1.00  0.00    +0.000 C 
ATOM     46  C36 UNL A   1      18.137  47.761  -0.792  1.00  0.00    +0.000 C 
ATOM     47  F1  UNL A   1      18.912  47.989   0.280  1.00  0.00    +0.000 F 
ATOM     48  C37 UNL A   1      18.469  46.712  -1.646  1.00  0.00    +0.000 C 
ATOM     49  F2  UNL A   1      19.551  45.963  -1.396  1.00  0.00    +0.000 F 
ATOM     50  C38 UNL A   1      17.693  46.457  -2.766  1.00  0.00    +0.000 C 
ATOM     51  F3  UNL A   1      18.014  45.447  -3.588  1.00  0.00    +0.000 F 
ATOM     52  C39 UNL A   1      16.593  47.255  -3.041  1.00  0.00    +0.000 C 
ATOM     53  F4  UNL A   1      15.836  47.000  -4.117  1.00  0.00    +0.000 F 
ATOM     54  C40 UNL A   1      16.279  48.326  -2.208  1.00  0.00    +0.000 C 
ATOM     55  F5  UNL A   1      15.222  49.093  -2.516  1.00  0.00    +0.000 F 
ENDBRANCH   44   45
BRANCH   61   62
ATOM     65  C48 UNL A   1      20.021  57.071  -1.467  1.00  0.00    +0.000 C 
ATOM     66  F7  UNL A   1      21.301  57.419  -1.277  1.00  0.00    +0.000 F 
ATOM     67  C49 UNL A   1      19.271  57.702  -2.447  1.00  0.00    +0.000 C 
ATOM     68  F8  UNL A   1      19.830  58.643  -3.221  1.00  0.00    +0.000 F 
ATOM     69  C50 UNL A   1      17.938  57.363  -2.622  1.00  0.00    +0.000 C 
ATOM     70  F9  UNL A   1      17.215  57.961  -3.578  1.00  0.00    +0.000 F 
ATOM     71  C51 UNL A   1      17.349  56.402  -1.805  1.00  0.00    +0.000 C 
ATOM     72  F10 UNL A   1      16.053  56.106  -1.987  1.00  0.00    +0.000 F 
ATOM     62  C46 UNL A   1      18.092  55.743  -0.812  1.00  0.00    +0.000 C 
ATOM     63  C47 UNL A   1      19.444  56.089  -0.667  1.00  0.00    +0.000 C 
ATOM     64  F6  UNL A   1      20.193  55.499   0.278  1.00  0.00    +0.000 F 
ENDBRANCH   61   62
BRANCH   76   77
ATOM     77  C55 UNL A   1      14.683  55.963   5.260  1.00  0.00    +0.000 C 
ATOM     78  C56 UNL A   1      13.384  56.487   5.279  1.00  0.00    +0.000 C 
ATOM     79  F11 UNL A   1      12.460  56.017   4.428  1.00  0.00    +0.000 F 
ATOM     80  C57 UNL A   1      13.036  57.521   6.146  1.00  0.00    +0.000 C 
ATOM     81  F12 UNL A   1      11.797  58.029   6.117  1.00  0.00    +0.000 F 
ATOM     82  C58 UNL A   1      13.975  58.030   7.032  1.00  0.00    +0.000 C 
ATOM     83  F13 UNL A   1      13.638  59.018   7.872  1.00  0.00    +0.000 F 
ATOM     84  C59 UNL A   1      15.263  57.518   7.041  1.00  0.00    +0.000 C 
ATOM     85  F14 UNL A   1      16.168  57.999   7.904  1.00  0.00    +0.000 F 
ATOM     86  C60 UNL A   1      15.619  56.504   6.154  1.00  0.00    +0.000 C 
ATOM     87  F15 UNL A   1      16.875  56.033   6.179  1.00  0.00    +0.000 F 
ENDBRANCH   76   77
TORSDOF 22
ENDMDL
MODEL 7
REMARK VINA RESULT:      -8.7     20.174     24.549
ROOT
ATOM    140  H42 UNL A   1      17.537  50.990  -2.641  1.00  0.00    +0.000 H 
ATOM    141  H43 UNL A   1      17.824  53.580  -2.588  1.00  0.00    +0.000 H 
ATOM    142  H44 UNL A   1      16.196  52.379   1.024  1.00  0.00    +0.000 H 
ATOM    143  H45 UNL A   1      13.683  53.858   6.706  1.00  0.00    +0.000 H 
ATOM    144  H46 UNL A   1      13.504  51.323   6.692  1.00  0.00    +0.000 H 
ATOM    145  H47 UNL A   1      15.219  52.495   3.092  1.00  0.00    +0.000 H 
ATOM    146  H48 UNL A   1      15.686  57.492   3.340  1.00  0.00    +0.000 H 
ATOM    147  H49 UNL A   1      16.579  57.401   0.943  1.00  0.00    +0.000 H 
ATOM    148  H50 UNL A   1      15.946  47.377   1.002  1.00  0.00    +0.000 H 
ATOM    149  H51 UNL A   1      14.606  47.479   3.182  1.00  0.00    +0.000 H 
ATOM     40  C31 UNL A   1      14.415  50.097   4.285  1.00  0.00    +0.000 C 
ATOM     41  C32 UNL A   1      15.003  49.700   2.960  1.00  0.00    +0.000 C 
ATOM     42  N5  UNL A   1      15.542  50.451   2.032  1.00  0.00    +0.000 N 
ATOM     43  C33 UNL A   1      15.962  49.579   1.037  1.00  0.00    +0.000 C 
ATOM     44  C34 UNL A   1      16.515  49.868  -0.165  1.00  0.00    +0.000 C 
ATOM     56  C41 UNL A   1      16.787  51.204  -0.630  1.00  0.00    +0.000 C 
ATOM     57  C42 UNL A   1      17.298  51.608  -1.851  1.00  0.00    +0.000 C 
ATOM     58  C43 UNL A   1      17.436  53.001  -1.827  1.00  0.00    +0.000 C 
ATOM     59  C44 UNL A   1      16.960  53.469  -0.613  1.00  0.00    +0.000 C 
ATOM     60  N6  UNL A   1      16.571  52.355   0.114  1.00  0.00    +0.000 N 
ATOM     61  C45 UNL A   1      16.871  54.831  -0.149  1.00  0.00    +0.000 C 
ATOM     73  C52 UNL A   1      16.378  55.212   1.056  1.00  0.00    +0.000 C 
ATOM     74  N7  UNL A   1      15.864  54.424   2.077  1.00  0.00    +0.000 N 
ATOM     75  C53 UNL A   1      15.527  55.251   3.037  1.00  0.00    +0.000 C 
ATOM     76  C54 UNL A   1      14.892  54.956   4.367  1.00  0.00    +0.000 C 
ATOM     88  C61 UNL A   1      14.609  53.679   4.692  1.00  0.00    +0.000 C 
ATOM     89  C62 UNL A   1      13.989  53.239   5.938  1.00  0.00    +0.000 C 
ATOM     90  C63 UNL A   1      13.884  51.901   5.926  1.00  0.00    +0.000 C 
ATOM     91  C64 UNL A   1      14.392  51.392   4.651  1.00  0.00    +0.000 C 
ATOM     92  N8  UNL A   1      14.812  52.519   3.988  1.00  0.00    +0.000 N 
ATOM     93  C65 UNL A   1      15.820  56.661   2.743  1.00  0.00    +0.000 C 
ATOM     94  C66 UNL A   1      16.298  56.585   1.509  1.00  0.00    +0.000 C 
ATOM     95  C67 UNL A   1      15.673  48.239   1.500  1.00  0.00    +0.000 C 
ATOM     96  C68 UNL A   1      15.011  48.263   2.647  1.00  0.00    +0.000 C 
ENDROOT
BRANCH   40   39
ATOM     97  C69 UNL A   1      14.810  48.407   6.080  1.00  0.00    +0.000 C 
ATOM     98  C70 UNL A   1      14.362  47.407   6.939  1.00  0.00    +0.000 C 
ATOM     36  C27 UNL A   1      12.996  47.126   7.031  1.00  0.00    +0.000 C 
ATOM     37  C28 UNL A   1      12.095  47.757   6.167  1.00  0.00    +0.000 C 
ATOM     38  C29 UNL A   1      12.556  48.704   5.251  1.00  0.00    +0.000 C 
ATOM     39  C30 UNL A   1      13.913  49.059   5.220  1.00  0.00    +0.000 C 
ATOM    138  H40 UNL A   1      11.091  47.522   6.207  1.00  0.00    +0.000 H 
ATOM    139  H41 UNL A   1      11.895  49.146   4.593  1.00  0.00    +0.000 H 
ATOM    150  H52 UNL A   1      15.807  48.671   6.076  1.00  0.00    +0.000 H 
ATOM    151  H53 UNL A   1      15.038  46.873   7.507  1.00  0.00    +0.000 H 
BRANCH   36   34
ATOM     34  C26 UNL A   1      12.472  46.145   8.009  1.00  0.00    +0.000 C 
ATOM     35  O5  UNL A   1      11.672  45.290   7.641  1.00  0.00    +0.000 O 
BRANCH   34   33
ATOM     33  N4  UNL A   1      12.860  46.197   9.324  1.00  0.00    +0.000 N 
ATOM    137  H39 UNL A   1      13.788  46.487   9.475  1.00  0.00    +0.000 H 
BRANCH   33   32
ATOM    136  H38 UNL A   1      12.808  45.594  11.281  1.00  0.00    +0.000 H 
ATOM    135  H37 UNL A   1      11.412  45.106  10.308  1.00  0.00    +0.000 H 
ATOM     32  C25 UNL A   1      12.108  45.889  10.528  1.00  0.00    +0.000 C 
BRANCH   32   31
ATOM    133  H35 UNL A   1      11.509  47.152  12.114  1.00  0.00    +0.000 H 
ATOM    134  H36 UNL A   1      11.701  47.939  10.516  1.00  0.00    +0.000 H 
ATOM     31  C24 UNL A   1      11.338  47.091  11.060  1.00  0.00    +0.000 C 
BRANCH   31   30
ATOM    131  H33 UNL A   1       9.504  46.041  10.918  1.00  0.00    +0.000 H 
ATOM    132  H34 UNL A   1       9.407  47.717  11.556  1.00  0.00    +0.000 H 
ATOM     30  C23 UNL A   1       9.825  47.056  10.827  1.00  0.00    +0.000 C 
BRANCH   30   29
ATOM    129  H31 UNL A   1      10.185  47.996   8.958  1.00  0.00    +0.000 H 
ATOM    130  H32 UNL A   1       8.897  46.742   8.977  1.00  0.00    +0.000 H 
ATOM     29  C22 UNL A   1       9.340  47.582   9.468  1.00  0.00    +0.000 C 
BRANCH   29   28
ATOM     28  C21 UNL A   1       8.247  48.658   9.509  1.00  0.00    +0.000 C 
ATOM    127  H29 UNL A   1       7.296  48.169   9.489  1.00  0.00    +0.000 H 
ATOM    128  H30 UNL A   1       8.409  49.221  10.405  1.00  0.00    +0.000 H 
BRANCH   28   27
ATOM     27  C20 UNL A   1       8.296  49.653   8.358  1.00  0.00    +0.000 C 
ATOM    125  H27 UNL A   1       8.836  49.210   7.548  1.00  0.00    +0.000 H 
ATOM    126  H28 UNL A   1       7.284  49.879   8.093  1.00  0.00    +0.000 H 
BRANCH   27   26
ATOM     26  N3  UNL A   1       8.937  50.904   8.706  1.00  0.00    +0.000 N 
ATOM    124  H26 UNL A   1       8.412  51.596   9.170  1.00  0.00    +0.000 H 
BRANCH   26   24
ATOM     25  O4  UNL A   1      10.528  51.476   7.244  1.00  0.00    +0.000 O 
ATOM     24  C19 UNL A   1      10.255  51.155   8.407  1.00  0.00    +0.000 C 
BRANCH   24   16
ATOM    116  H18 UNL A   1      11.874  51.941   9.493  1.00  0.00    +0.000 H 
ATOM     16  C11 UNL A   1      11.378  50.993   9.477  1.00  0.00    +0.000 C 
BRANCH   16   15
ATOM    115  H17 UNL A   1      10.278  50.154  11.058  1.00  0.00    +0.000 H 
ATOM     15  N2  UNL A   1      10.946  50.855  10.880  1.00  0.00    +0.000 N 
BRANCH   15   13
ATOM     13  C10 UNL A   1      11.358  51.580  11.968  1.00  0.00    +0.000 C 
ATOM     14  O3  UNL A   1      10.828  51.327  13.053  1.00  0.00    +0.000 O 
BRANCH   13   12
ATOM      8  N1  UNL A   1      12.135  53.958  12.311  1.00  0.00    +0.000 N 
ATOM      9  C6  UNL A   1      13.008  54.421  13.366  1.00  0.00    +0.000 C 
ATOM     10  C7  UNL A   1      14.239  53.543  13.242  1.00  0.00    +0.000 C 
ATOM     11  C8  UNL A   1      13.683  52.221  12.721  1.00  0.00    +0.000 C 
ATOM     12  C9  UNL A   1      12.490  52.623  11.833  1.00  0.00    +0.000 C 
ATOM    108  H10 UNL A   1      12.546  54.295  14.323  1.00  0.00    +0.000 H 
ATOM    109  H11 UNL A   1      13.237  55.463  13.283  1.00  0.00    +0.000 H 
ATOM    110  H12 UNL A   1      14.713  53.412  14.192  1.00  0.00    +0.000 H 
ATOM    111  H13 UNL A   1      14.985  53.962  12.599  1.00  0.00    +0.000 H 
ATOM    112  H14 UNL A   1      13.359  51.603  13.532  1.00  0.00    +0.000 H 
ATOM    114  H16 UNL A   1      12.704  52.647  10.785  1.00  0.00    +0.000 H 
ATOM    113  H15 UNL A   1      14.417  51.656  12.185  1.00  0.00    +0.000 H 
BRANCH    8    6
ATOM      6  C5  UNL A   1      11.215  54.708  11.630  1.00  0.00    +0.000 C 
ATOM      7  O2  UNL A   1      10.487  55.503  12.196  1.00  0.00    +0.000 O 
BRANCH    6    5
ATOM      1  C1  UNL A   1      11.310  54.879   7.982  1.00  0.00    +0.000 C 
ATOM      2  C2  UNL A   1      11.843  55.276   9.364  1.00  0.00    +0.000 C 
ATOM     99  H1  UNL A   1      11.785  55.474   7.231  1.00  0.00    +0.000 H 
ATOM    100  H2  UNL A   1      10.252  55.039   7.947  1.00  0.00    +0.000 H 
ATOM    101  H3  UNL A   1      11.519  53.845   7.801  1.00  0.00    +0.000 H 
ATOM      3  C3  UNL A   1      13.347  54.989   9.429  1.00  0.00    +0.000 C 
ATOM      4  C4  UNL A   1      11.546  56.776   9.556  1.00  0.00    +0.000 C 
ATOM      5  O1  UNL A   1      11.141  54.417  10.306  1.00  0.00    +0.000 O 
ATOM    102  H4  UNL A   1      13.861  55.622   8.735  1.00  0.00    +0.000 H 
ATOM    103  H5  UNL A   1      13.525  53.965   9.176  1.00  0.00    +0.000 H 
ATOM    104  H6  UNL A   1      13.704  55.180  10.419  1.00  0.00    +0.000 H 
ATOM    105  H7  UNL A   1      12.094  57.343   8.833  1.00  0.00    +0.000 H 
ATOM    106  H8  UNL A   1      11.840  57.075  10.541  1.00  0.00    +0.000 H 
ATOM    107  H9  UNL A   1      10.498  56.951   9.427  1.00  0.00    +0.000 H 
ENDBRANCH    6    5
ENDBRANCH    8    6
ENDBRANCH   13   12
ENDBRANCH   15   13
ENDBRANCH   16   15
BRANCH   16   17
ATOM     17  C12 UNL A   1      12.378  49.897   9.047  1.00  0.00    +0.000 C 
ATOM    117  H19 UNL A   1      12.373  49.852   7.977  1.00  0.00    +0.000 H 
ATOM    118  H20 UNL A   1      12.045  48.999   9.523  1.00  0.00    +0.000 H 
BRANCH   17   18
ATOM     18  C13 UNL A   1      13.807  50.094   9.496  1.00  0.00    +0.000 C 
ATOM     19  C14 UNL A   1      14.531  51.222   9.082  1.00  0.00    +0.000 C 
ATOM     20  C15 UNL A   1      15.875  51.370   9.429  1.00  0.00    +0.000 C 
ATOM     21  C16 UNL A   1      16.498  50.410  10.222  1.00  0.00    +0.000 C 
ATOM     22  C17 UNL A   1      15.774  49.308  10.678  1.00  0.00    +0.000 C 
ATOM     23  C18 UNL A   1      14.436  49.148  10.315  1.00  0.00    +0.000 C 
ATOM    119  H21 UNL A   1      14.066  51.948   8.515  1.00  0.00    +0.000 H 
ATOM    120  H22 UNL A   1      16.406  52.191   9.098  1.00  0.00    +0.000 H 
ATOM    122  H24 UNL A   1      16.230  48.610  11.285  1.00  0.00    +0.000 H 
ATOM    123  H25 UNL A   1      13.908  48.327  10.650  1.00  0.00    +0.000 H 
ATOM    121  H23 UNL A   1      17.494  50.513  10.472  1.00  0.00    +0.000 H 
ENDBRANCH   17   18
ENDBRANCH   16   17
ENDBRANCH   24   16
ENDBRANCH   26   24
ENDBRANCH   27   26
ENDBRANCH   28   27
ENDBRANCH   29   28
ENDBRANCH   30   29
ENDBRANCH   31   30
ENDBRANCH   32   31
ENDBRANCH   33   32
ENDBRANCH   34   33
ENDBRANCH   36   34
ENDBRANCH   40   39
BRANCH   44   45
ATOM     45  C35 UNL A   1      16.864  48.712  -1.060  1.00  0.00    +0.000 C 
ATOM     46  C36 UNL A   1      18.049  47.979  -0.888  1.00  0.00    +0.000 C 
ATOM     47  F1  UNL A   1      18.913  48.312   0.084  1.00  0.00    +0.000 F 
ATOM     48  C37 UNL A   1      18.380  46.934  -1.746  1.00  0.00    +0.000 C 
ATOM     49  F2  UNL A   1      19.547  46.293  -1.601  1.00  0.00    +0.000 F 
ATOM     50  C38 UNL A   1      17.513  46.572  -2.766  1.00  0.00    +0.000 C 
ATOM     51  F3  UNL A   1      17.832  45.567  -3.593  1.00  0.00    +0.000 F 
ATOM     52  C39 UNL A   1      16.320  47.259  -2.935  1.00  0.00    +0.000 C 
ATOM     53  F4  UNL A   1      15.476  46.900  -3.912  1.00  0.00    +0.000 F 
ATOM     54  C40 UNL A   1      16.003  48.327  -2.099  1.00  0.00    +0.000 C 
ATOM     55  F5  UNL A   1      14.853  48.986  -2.305  1.00  0.00    +0.000 F 
ENDBRANCH   44   45
BRANCH   61   62
ATOM     65  C48 UNL A   1      16.891  57.569  -2.806  1.00  0.00    +0.000 C 
ATOM     66  F7  UNL A   1      16.042  58.130  -3.678  1.00  0.00    +0.000 F 
ATOM     67  C49 UNL A   1      18.212  57.990  -2.758  1.00  0.00    +0.000 C 
ATOM     68  F8  UNL A   1      18.634  58.972  -3.567  1.00  0.00    +0.000 F 
ATOM     69  C50 UNL A   1      19.096  57.388  -1.877  1.00  0.00    +0.000 C 
ATOM     70  F9  UNL A   1      20.369  57.802  -1.819  1.00  0.00    +0.000 F 
ATOM     71  C51 UNL A   1      18.666  56.353  -1.053  1.00  0.00    +0.000 C 
ATOM     72  F10 UNL A   1      19.548  55.779  -0.221  1.00  0.00    +0.000 F 
ATOM     62  C46 UNL A   1      17.331  55.917  -1.077  1.00  0.00    +0.000 C 
ATOM     63  C47 UNL A   1      16.449  56.554  -1.962  1.00  0.00    +0.000 C 
ATOM     64  F6  UNL A   1      15.167  56.164  -2.034  1.00  0.00    +0.000 F 
ENDBRANCH   61   62
BRANCH   76   77
ATOM     77  C55 UNL A   1      14.537  56.051   5.305  1.00  0.00    +0.000 C 
ATOM     78  C56 UNL A   1      13.229  56.553   5.356  1.00  0.00    +0.000 C 
ATOM     79  F11 UNL A   1      12.292  56.063   4.530  1.00  0.00    +0.000 F 
ATOM     80  C57 UNL A   1      12.885  57.582   6.229  1.00  0.00    +0.000 C 
ATOM     81  F12 UNL A   1      11.637  58.067   6.230  1.00  0.00    +0.000 F 
ATOM     82  C58 UNL A   1      13.837  58.111   7.088  1.00  0.00    +0.000 C 
ATOM     83  F13 UNL A   1      13.504  59.095   7.934  1.00  0.00    +0.000 F 
ATOM     84  C59 UNL A   1      15.134  57.623   7.065  1.00  0.00    +0.000 C 
ATOM     85  F14 UNL A   1      16.052  58.123   7.904  1.00  0.00    +0.000 F 
ATOM     86  C60 UNL A   1      15.486  56.612   6.173  1.00  0.00    +0.000 C 
ATOM     87  F15 UNL A   1      16.750  56.165   6.166  1.00  0.00    +0.000 F 
ENDBRANCH   76   77
TORSDOF 22
ENDMDL
MODEL 8
REMARK VINA RESULT:      -8.7     19.391     23.989
ROOT
ATOM    140  H42 UNL A   1      18.463  53.295  -0.985  1.00  0.00    +0.000 H 
ATOM    141  H43 UNL A   1      18.003  50.791  -1.547  1.00  0.00    +0.000 H 
ATOM    142  H44 UNL A   1      15.680  51.840   1.716  1.00  0.00    +0.000 H 
ATOM    143  H45 UNL A   1      11.637  50.176   6.372  1.00  0.00    +0.000 H 
ATOM    144  H46 UNL A   1      12.007  52.645   6.850  1.00  0.00    +0.000 H 
ATOM    145  H47 UNL A   1      14.283  51.640   3.519  1.00  0.00    +0.000 H 
ATOM    146  H48 UNL A   1      13.305  46.801   2.581  1.00  0.00    +0.000 H 
ATOM    147  H49 UNL A   1      15.029  46.950   0.695  1.00  0.00    +0.000 H 
ATOM    148  H50 UNL A   1      16.359  56.727   2.572  1.00  0.00    +0.000 H 
ATOM    149  H51 UNL A   1      15.029  56.486   4.746  1.00  0.00    +0.000 H 
ATOM     40  C31 UNL A   1      13.855  53.914   5.089  1.00  0.00    +0.000 C 
ATOM     41  C32 UNL A   1      14.803  54.354   4.009  1.00  0.00    +0.000 C 
ATOM     42  N5  UNL A   1      15.296  53.669   3.007  1.00  0.00    +0.000 N 
ATOM     43  C33 UNL A   1      16.080  54.561   2.289  1.00  0.00    +0.000 C 
ATOM     44  C34 UNL A   1      16.861  54.323   1.208  1.00  0.00    +0.000 C 
ATOM     56  C41 UNL A   1      17.002  53.034   0.581  1.00  0.00    +0.000 C 
ATOM     57  C42 UNL A   1      17.805  52.675  -0.487  1.00  0.00    +0.000 C 
ATOM     58  C43 UNL A   1      17.570  51.326  -0.777  1.00  0.00    +0.000 C 
ATOM     59  C44 UNL A   1      16.661  50.831   0.144  1.00  0.00    +0.000 C 
ATOM     60  N6  UNL A   1      16.316  51.891   0.968  1.00  0.00    +0.000 N 
ATOM     61  C45 UNL A   1      16.143  49.491   0.263  1.00  0.00    +0.000 C 
ATOM     73  C52 UNL A   1      15.260  49.079   1.206  1.00  0.00    +0.000 C 
ATOM     74  N7  UNL A   1      14.677  49.808   2.233  1.00  0.00    +0.000 N 
ATOM     75  C53 UNL A   1      13.891  48.973   2.868  1.00  0.00    +0.000 C 
ATOM     76  C54 UNL A   1      13.036  49.208   4.082  1.00  0.00    +0.000 C 
ATOM     88  C61 UNL A   1      13.016  50.431   4.646  1.00  0.00    +0.000 C 
ATOM     89  C62 UNL A   1      12.244  50.808   5.826  1.00  0.00    +0.000 C 
ATOM     90  C63 UNL A   1      12.449  52.109   6.086  1.00  0.00    +0.000 C 
ATOM     91  C64 UNL A   1      13.400  52.648   5.113  1.00  0.00    +0.000 C 
ATOM     92  N8  UNL A   1      13.673  51.583   4.290  1.00  0.00    +0.000 N 
ATOM     93  C65 UNL A   1      13.863  47.621   2.293  1.00  0.00    +0.000 C 
ATOM     94  C66 UNL A   1      14.745  47.729   1.310  1.00  0.00    +0.000 C 
ATOM     95  C67 UNL A   1      15.949  55.851   2.931  1.00  0.00    +0.000 C 
ATOM     96  C68 UNL A   1      15.233  55.760   4.042  1.00  0.00    +0.000 C 
ENDROOT
BRANCH   40   39
ATOM     97  C69 UNL A   1      14.082  55.064   7.294  1.00  0.00    +0.000 C 
ATOM     98  C70 UNL A   1      13.620  55.949   8.266  1.00  0.00    +0.000 C 
ATOM     36  C27 UNL A   1      12.508  56.753   8.006  1.00  0.00    +0.000 C 
ATOM     37  C28 UNL A   1      11.780  56.575   6.826  1.00  0.00    +0.000 C 
ATOM     38  C29 UNL A   1      12.198  55.632   5.885  1.00  0.00    +0.000 C 
ATOM     39  C30 UNL A   1      13.369  54.889   6.098  1.00  0.00    +0.000 C 
ATOM    138  H40 UNL A   1      10.935  57.141   6.650  1.00  0.00    +0.000 H 
ATOM    139  H41 UNL A   1      11.642  55.480   5.029  1.00  0.00    +0.000 H 
ATOM    150  H52 UNL A   1      14.952  54.535   7.455  1.00  0.00    +0.000 H 
ATOM    151  H53 UNL A   1      14.101  56.011   9.177  1.00  0.00    +0.000 H 
BRANCH   36   34
ATOM     34  C26 UNL A   1      12.053  57.780   8.972  1.00  0.00    +0.000 C 
ATOM     35  O5  UNL A   1      12.457  58.934   8.864  1.00  0.00    +0.000 O 
BRANCH   34   33
ATOM     33  N4  UNL A   1      11.202  57.447   9.994  1.00  0.00    +0.000 N 
ATOM    137  H39 UNL A   1      10.577  58.157  10.266  1.00  0.00    +0.000 H 
BRANCH   33   32
ATOM    136  H38 UNL A   1      11.133  56.443  11.779  1.00  0.00    +0.000 H 
ATOM    135  H37 UNL A   1      11.876  55.550  10.444  1.00  0.00    +0.000 H 
ATOM     32  C25 UNL A   1      11.082  56.205  10.738  1.00  0.00    +0.000 C 
BRANCH   32   31
ATOM    133  H35 UNL A   1       9.551  54.873  11.332  1.00  0.00    +0.000 H 
ATOM    134  H36 UNL A   1       9.030  56.277  10.349  1.00  0.00    +0.000 H 
ATOM     31  C24 UNL A   1       9.753  55.501  10.490  1.00  0.00    +0.000 C 
BRANCH   31   30
ATOM    131  H33 UNL A   1       8.792  54.064   9.265  1.00  0.00    +0.000 H 
ATOM    132  H34 UNL A   1       9.751  55.318   8.408  1.00  0.00    +0.000 H 
ATOM     30  C23 UNL A   1       9.695  54.635   9.229  1.00  0.00    +0.000 C 
BRANCH   30   29
ATOM    129  H31 UNL A   1      10.623  53.030   8.195  1.00  0.00    +0.000 H 
ATOM    130  H32 UNL A   1      11.728  54.267   8.889  1.00  0.00    +0.000 H 
ATOM     29  C22 UNL A   1      10.861  53.656   9.030  1.00  0.00    +0.000 C 
BRANCH   29   28
ATOM     28  C21 UNL A   1      11.190  52.744  10.219  1.00  0.00    +0.000 C 
ATOM    127  H29 UNL A   1      11.649  53.339  10.981  1.00  0.00    +0.000 H 
ATOM    128  H30 UNL A   1      10.264  52.306  10.531  1.00  0.00    +0.000 H 
BRANCH   28   27
ATOM     27  C20 UNL A   1      12.126  51.589   9.890  1.00  0.00    +0.000 C 
ATOM    125  H27 UNL A   1      11.807  50.727  10.436  1.00  0.00    +0.000 H 
ATOM    126  H28 UNL A   1      12.080  51.437   8.831  1.00  0.00    +0.000 H 
BRANCH   27   26
ATOM     26  N3  UNL A   1      13.509  51.857  10.224  1.00  0.00    +0.000 N 
ATOM    124  H26 UNL A   1      13.966  52.614   9.790  1.00  0.00    +0.000 H 
BRANCH   26   24
ATOM     25  O4  UNL A   1      14.374  51.548  12.261  1.00  0.00    +0.000 O 
ATOM     24  C19 UNL A   1      14.203  51.087  11.127  1.00  0.00    +0.000 C 
BRANCH   24   16
ATOM    116  H18 UNL A   1      14.876  49.165  11.648  1.00  0.00    +0.000 H 
ATOM     16  C11 UNL A   1      14.801  49.703  10.727  1.00  0.00    +0.000 C 
BRANCH   16   15
ATOM    115  H17 UNL A   1      14.043  48.875   8.951  1.00  0.00    +0.000 H 
ATOM     15  N2  UNL A   1      13.939  48.812   9.928  1.00  0.00    +0.000 N 
BRANCH   15   13
ATOM     13  C10 UNL A   1      13.013  47.906  10.375  1.00  0.00    +0.000 C 
ATOM     14  O3  UNL A   1      13.236  46.711  10.158  1.00  0.00    +0.000 O 
BRANCH   13   12
ATOM      8  N1  UNL A   1      10.525  47.736  10.773  1.00  0.00    +0.000 N 
ATOM      9  C6  UNL A   1       9.887  47.032  11.863  1.00  0.00    +0.000 C 
ATOM     10  C7  UNL A   1      10.518  47.626  13.108  1.00  0.00    +0.000 C 
ATOM     11  C8  UNL A   1      11.930  47.986  12.656  1.00  0.00    +0.000 C 
ATOM     12  C9  UNL A   1      11.777  48.376  11.174  1.00  0.00    +0.000 C 
ATOM    108  H10 UNL A   1      10.082  45.982  11.802  1.00  0.00    +0.000 H 
ATOM    109  H11 UNL A   1       8.822  47.137  11.852  1.00  0.00    +0.000 H 
ATOM    110  H12 UNL A   1      10.541  46.911  13.904  1.00  0.00    +0.000 H 
ATOM    111  H13 UNL A   1       9.976  48.467  13.488  1.00  0.00    +0.000 H 
ATOM    112  H14 UNL A   1      12.584  47.145  12.760  1.00  0.00    +0.000 H 
ATOM    114  H16 UNL A   1      11.731  49.429  10.993  1.00  0.00    +0.000 H 
ATOM    113  H15 UNL A   1      12.355  48.774  13.242  1.00  0.00    +0.000 H 
BRANCH    8    6
ATOM      6  C5  UNL A   1       9.976  48.010   9.550  1.00  0.00    +0.000 C 
ATOM      7  O2  UNL A   1       9.996  49.130   9.072  1.00  0.00    +0.000 O 
BRANCH    6    5
ATOM      1  C1  UNL A   1       7.469  45.680   8.271  1.00  0.00    +0.000 C 
ATOM      2  C2  UNL A   1       7.961  47.104   8.566  1.00  0.00    +0.000 C 
ATOM     99  H1  UNL A   1       6.447  45.713   7.957  1.00  0.00    +0.000 H 
ATOM    100  H2  UNL A   1       7.551  45.084   9.156  1.00  0.00    +0.000 H 
ATOM    101  H3  UNL A   1       8.066  45.249   7.495  1.00  0.00    +0.000 H 
ATOM      3  C3  UNL A   1       7.898  47.937   7.282  1.00  0.00    +0.000 C 
ATOM      4  C4  UNL A   1       7.048  47.686   9.662  1.00  0.00    +0.000 C 
ATOM      5  O1  UNL A   1       9.347  46.951   8.981  1.00  0.00    +0.000 O 
ATOM    102  H4  UNL A   1       6.877  48.048   6.979  1.00  0.00    +0.000 H 
ATOM    103  H5  UNL A   1       8.447  47.443   6.508  1.00  0.00    +0.000 H 
ATOM    104  H6  UNL A   1       8.323  48.902   7.461  1.00  0.00    +0.000 H 
ATOM    105  H7  UNL A   1       6.049  47.769   9.288  1.00  0.00    +0.000 H 
ATOM    106  H8  UNL A   1       7.405  48.653   9.947  1.00  0.00    +0.000 H 
ATOM    107  H9  UNL A   1       7.057  47.037  10.514  1.00  0.00    +0.000 H 
ENDBRANCH    6    5
ENDBRANCH    8    6
ENDBRANCH   13   12
ENDBRANCH   15   13
ENDBRANCH   16   15
BRANCH   16   17
ATOM     17  C12 UNL A   1      16.209  49.881  10.118  1.00  0.00    +0.000 C 
ATOM    117  H19 UNL A   1      16.813  49.060  10.445  1.00  0.00    +0.000 H 
ATOM    118  H20 UNL A   1      16.552  50.836  10.455  1.00  0.00    +0.000 H 
BRANCH   17   18
ATOM     18  C13 UNL A   1      16.274  49.931   8.609  1.00  0.00    +0.000 C 
ATOM     19  C14 UNL A   1      16.555  48.771   7.872  1.00  0.00    +0.000 C 
ATOM     20  C15 UNL A   1      16.694  48.826   6.485  1.00  0.00    +0.000 C 
ATOM     21  C16 UNL A   1      16.519  50.036   5.816  1.00  0.00    +0.000 C 
ATOM     22  C17 UNL A   1      16.193  51.186   6.535  1.00  0.00    +0.000 C 
ATOM     23  C18 UNL A   1      16.074  51.136   7.925  1.00  0.00    +0.000 C 
ATOM    119  H21 UNL A   1      16.662  47.868   8.361  1.00  0.00    +0.000 H 
ATOM    120  H22 UNL A   1      16.927  47.972   5.955  1.00  0.00    +0.000 H 
ATOM    122  H24 UNL A   1      16.040  52.076   6.036  1.00  0.00    +0.000 H 
ATOM    123  H25 UNL A   1      15.839  51.992   8.450  1.00  0.00    +0.000 H 
ATOM    121  H23 UNL A   1      16.630  50.081   4.791  1.00  0.00    +0.000 H 
ENDBRANCH   17   18
ENDBRANCH   16   17
ENDBRANCH   24   16
ENDBRANCH   26   24
ENDBRANCH   27   26
ENDBRANCH   28   27
ENDBRANCH   29   28
ENDBRANCH   30   29
ENDBRANCH   31   30
ENDBRANCH   32   31
ENDBRANCH   33   32
ENDBRANCH   34   33
ENDBRANCH   36   34
ENDBRANCH   40   39
BRANCH   44   45
ATOM     45  C35 UNL A   1      17.619  55.487   0.635  1.00  0.00    +0.000 C 
ATOM     46  C36 UNL A   1      17.083  56.282  -0.391  1.00  0.00    +0.000 C 
ATOM     47  F1  UNL A   1      15.872  56.005  -0.897  1.00  0.00    +0.000 F 
ATOM     48  C37 UNL A   1      17.811  57.335  -0.939  1.00  0.00    +0.000 C 
ATOM     49  F2  UNL A   1      17.304  58.038  -1.960  1.00  0.00    +0.000 F 
ATOM     50  C38 UNL A   1      19.070  57.641  -0.445  1.00  0.00    +0.000 C 
ATOM     51  F3  UNL A   1      19.770  58.654  -0.974  1.00  0.00    +0.000 F 
ATOM     52  C39 UNL A   1      19.607  56.891   0.591  1.00  0.00    +0.000 C 
ATOM     53  F4  UNL A   1      20.817  57.195   1.078  1.00  0.00    +0.000 F 
ATOM     54  C40 UNL A   1      18.895  55.816   1.118  1.00  0.00    +0.000 C 
ATOM     55  F5  UNL A   1      19.453  55.095   2.102  1.00  0.00    +0.000 F 
ENDBRANCH   44   45
BRANCH   61   62
ATOM     65  C48 UNL A   1      16.387  47.181  -2.765  1.00  0.00    +0.000 C 
ATOM     66  F7  UNL A   1      15.652  46.844  -3.833  1.00  0.00    +0.000 F 
ATOM     67  C49 UNL A   1      17.615  46.574  -2.549  1.00  0.00    +0.000 C 
ATOM     68  F8  UNL A   1      18.077  45.666  -3.420  1.00  0.00    +0.000 F 
ATOM     69  C50 UNL A   1      18.360  46.901  -1.427  1.00  0.00    +0.000 C 
ATOM     70  F9  UNL A   1      19.553  46.326  -1.224  1.00  0.00    +0.000 F 
ATOM     71  C51 UNL A   1      17.871  47.826  -0.510  1.00  0.00    +0.000 C 
ATOM     72  F10 UNL A   1      18.607  48.112   0.574  1.00  0.00    +0.000 F 
ATOM     62  C46 UNL A   1      16.635  48.462  -0.713  1.00  0.00    +0.000 C 
ATOM     63  C47 UNL A   1      15.908  48.129  -1.865  1.00  0.00    +0.000 C 
ATOM     64  F6  UNL A   1      14.714  48.697  -2.096  1.00  0.00    +0.000 F 
ENDBRANCH   61   62
BRANCH   76   77
ATOM     77  C55 UNL A   1      12.248  48.104   4.688  1.00  0.00    +0.000 C 
ATOM     78  C56 UNL A   1      11.005  47.736   4.155  1.00  0.00    +0.000 C 
ATOM     79  F11 UNL A   1      10.503  48.406   3.107  1.00  0.00    +0.000 F 
ATOM     80  C57 UNL A   1      10.256  46.704   4.717  1.00  0.00    +0.000 C 
ATOM     81  F12 UNL A   1       9.055  46.399   4.210  1.00  0.00    +0.000 F 
ATOM     82  C58 UNL A   1      10.750  46.001   5.806  1.00  0.00    +0.000 C 
ATOM     83  F13 UNL A   1      10.034  45.003   6.340  1.00  0.00    +0.000 F 
ATOM     84  C59 UNL A   1      11.983  46.338   6.343  1.00  0.00    +0.000 C 
ATOM     85  F14 UNL A   1      12.468  45.652   7.386  1.00  0.00    +0.000 F 
ATOM     86  C60 UNL A   1      12.720  47.388   5.799  1.00  0.00    +0.000 C 
ATOM     87  F15 UNL A   1      13.905  47.698   6.343  1.00  0.00    +0.000 F 
ENDBRANCH   76   77
TORSDOF 22
ENDMDL
MODEL 9
REMARK VINA RESULT:      -8.7     16.272     23.508
ROOT
ATOM    140  H42 UNL A   1      12.219  20.750   8.724  1.00  0.00    +0.000 H 
ATOM    141  H43 UNL A   1      12.662  18.522  10.002  1.00  0.00    +0.000 H 
ATOM    142  H44 UNL A   1      15.856  19.223   7.462  1.00  0.00    +0.000 H 
ATOM    143  H45 UNL A   1      21.350  17.287   4.845  1.00  0.00    +0.000 H 
ATOM    144  H46 UNL A   1      20.966  19.512   3.681  1.00  0.00    +0.000 H 
ATOM    145  H47 UNL A   1      17.790  18.875   6.286  1.00  0.00    +0.000 H 
ATOM    146  H48 UNL A   1      18.780  14.552   8.647  1.00  0.00    +0.000 H 
ATOM    147  H49 UNL A   1      16.516  14.816   9.811  1.00  0.00    +0.000 H 
ATOM    148  H50 UNL A   1      15.114  23.657   5.257  1.00  0.00    +0.000 H 
ATOM    149  H51 UNL A   1      17.113  23.183   3.729  1.00  0.00    +0.000 H 
ATOM     40  C31 UNL A   1      18.537  20.813   4.413  1.00  0.00    +0.000 C 
ATOM     41  C32 UNL A   1      17.249  21.313   5.004  1.00  0.00    +0.000 C 
ATOM     42  N5  UNL A   1      16.504  20.781   5.942  1.00  0.00    +0.000 N 
ATOM     43  C33 UNL A   1      15.455  21.669   6.138  1.00  0.00    +0.000 C 
ATOM     44  C34 UNL A   1      14.377  21.540   6.950  1.00  0.00    +0.000 C 
ATOM     56  C41 UNL A   1      14.137  20.404   7.801  1.00  0.00    +0.000 C 
ATOM     57  C42 UNL A   1      13.053  20.152   8.623  1.00  0.00    +0.000 C 
ATOM     58  C43 UNL A   1      13.284  18.947   9.296  1.00  0.00    +0.000 C 
ATOM     59  C44 UNL A   1      14.487  18.420   8.853  1.00  0.00    +0.000 C 
ATOM     60  N6  UNL A   1      15.003  19.328   7.940  1.00  0.00    +0.000 N 
ATOM     61  C45 UNL A   1      15.121  17.184   9.236  1.00  0.00    +0.000 C 
ATOM     73  C52 UNL A   1      16.300  16.729   8.744  1.00  0.00    +0.000 C 
ATOM     74  N7  UNL A   1      17.134  17.312   7.799  1.00  0.00    +0.000 N 
ATOM     75  C53 UNL A   1      18.153  16.497   7.665  1.00  0.00    +0.000 C 
ATOM     76  C54 UNL A   1      19.345  16.607   6.756  1.00  0.00    +0.000 C 
ATOM     88  C61 UNL A   1      19.455  17.674   5.941  1.00  0.00    +0.000 C 
ATOM     89  C62 UNL A   1      20.547  17.914   5.002  1.00  0.00    +0.000 C 
ATOM     90  C63 UNL A   1      20.337  19.085   4.379  1.00  0.00    +0.000 C 
ATOM     91  C64 UNL A   1      19.074  19.657   4.846  1.00  0.00    +0.000 C 
ATOM     92  N8  UNL A   1      18.626  18.756   5.781  1.00  0.00    +0.000 N 
ATOM     93  C65 UNL A   1      18.094  15.315   8.537  1.00  0.00    +0.000 C 
ATOM     94  C66 UNL A   1      16.926  15.484   9.141  1.00  0.00    +0.000 C 
ATOM     95  C67 UNL A   1      15.690  22.801   5.270  1.00  0.00    +0.000 C 
ATOM     96  C68 UNL A   1      16.744  22.596   4.493  1.00  0.00    +0.000 C 
ENDROOT
BRANCH   40   39
ATOM     97  C69 UNL A   1      19.035  21.374   2.032  1.00  0.00    +0.000 C 
ATOM     98  C70 UNL A   1      19.726  22.100   1.064  1.00  0.00    +0.000 C 
ATOM     36  C27 UNL A   1      20.556  23.158   1.445  1.00  0.00    +0.000 C 
ATOM     37  C28 UNL A   1      20.795  23.402   2.801  1.00  0.00    +0.000 C 
ATOM     38  C29 UNL A   1      20.163  22.623   3.771  1.00  0.00    +0.000 C 
ATOM     39  C30 UNL A   1      19.254  21.622   3.395  1.00  0.00    +0.000 C 
ATOM    138  H40 UNL A   1      21.438  24.158   3.083  1.00  0.00    +0.000 H 
ATOM    139  H41 UNL A   1      20.364  22.784   4.771  1.00  0.00    +0.000 H 
ATOM    150  H52 UNL A   1      18.358  20.651   1.744  1.00  0.00    +0.000 H 
ATOM    151  H53 UNL A   1      19.625  21.857   0.066  1.00  0.00    +0.000 H 
BRANCH   36   34
ATOM     34  C26 UNL A   1      21.222  24.018   0.440  1.00  0.00    +0.000 C 
ATOM     35  O5  UNL A   1      22.158  24.735   0.782  1.00  0.00    +0.000 O 
BRANCH   34   33
ATOM     33  N4  UNL A   1      20.788  24.034  -0.861  1.00  0.00    +0.000 N 
ATOM    137  H39 UNL A   1      19.888  24.408  -0.997  1.00  0.00    +0.000 H 
BRANCH   33   32
ATOM    136  H38 UNL A   1      22.497  23.807  -1.968  1.00  0.00    +0.000 H 
ATOM    135  H37 UNL A   1      21.024  24.085  -2.909  1.00  0.00    +0.000 H 
ATOM     32  C25 UNL A   1      21.456  23.582  -2.069  1.00  0.00    +0.000 C 
BRANCH   32   31
ATOM    133  H35 UNL A   1      20.416  21.758  -1.820  1.00  0.00    +0.000 H 
ATOM    134  H36 UNL A   1      21.349  21.926  -3.340  1.00  0.00    +0.000 H 
ATOM     31  C24 UNL A   1      21.327  22.079  -2.281  1.00  0.00    +0.000 C 
BRANCH   31   30
ATOM    131  H33 UNL A   1      22.994  21.836  -0.996  1.00  0.00    +0.000 H 
ATOM    132  H34 UNL A   1      22.005  20.366  -1.295  1.00  0.00    +0.000 H 
ATOM     30  C23 UNL A   1      22.469  21.236  -1.709  1.00  0.00    +0.000 C 
BRANCH   30   29
ATOM    129  H31 UNL A   1      23.055  20.786  -3.699  1.00  0.00    +0.000 H 
ATOM    130  H32 UNL A   1      24.367  21.315  -2.589  1.00  0.00    +0.000 H 
ATOM     29  C22 UNL A   1      23.494  20.712  -2.725  1.00  0.00    +0.000 C 
BRANCH   29   28
ATOM     28  C21 UNL A   1      23.961  19.264  -2.531  1.00  0.00    +0.000 C 
ATOM    127  H29 UNL A   1      23.166  18.715  -2.070  1.00  0.00    +0.000 H 
ATOM    128  H30 UNL A   1      24.215  18.893  -3.503  1.00  0.00    +0.000 H 
BRANCH   28   27
ATOM     27  C20 UNL A   1      25.207  19.111  -1.669  1.00  0.00    +0.000 C 
ATOM    125  H27 UNL A   1      25.769  18.277  -2.030  1.00  0.00    +0.000 H 
ATOM    126  H28 UNL A   1      25.754  20.029  -1.740  1.00  0.00    +0.000 H 
BRANCH   27   26
ATOM     26  N3  UNL A   1      24.913  18.895  -0.268  1.00  0.00    +0.000 N 
ATOM    124  H26 UNL A   1      23.998  18.646  -0.005  1.00  0.00    +0.000 H 
BRANCH   26   24
ATOM     25  O4  UNL A   1      26.992  19.428   0.358  1.00  0.00    +0.000 O 
ATOM     24  C19 UNL A   1      25.874  19.029   0.707  1.00  0.00    +0.000 C 
BRANCH   24   16
ATOM    116  H18 UNL A   1      26.314  17.895   2.420  1.00  0.00    +0.000 H 
ATOM     16  C11 UNL A   1      25.588  18.646   2.191  1.00  0.00    +0.000 C 
BRANCH   16   15
ATOM    115  H17 UNL A   1      26.645  20.263   3.019  1.00  0.00    +0.000 H 
ATOM     15  N2  UNL A   1      25.882  19.670   3.211  1.00  0.00    +0.000 N 
BRANCH   15   13
ATOM     13  C10 UNL A   1      25.227  19.900   4.392  1.00  0.00    +0.000 C 
ATOM     14  O3  UNL A   1      24.528  20.915   4.466  1.00  0.00    +0.000 O 
BRANCH   13   12
ATOM      8  N1  UNL A   1      26.238  19.276   6.621  1.00  0.00    +0.000 N 
ATOM      9  C6  UNL A   1      25.585  19.377   7.907  1.00  0.00    +0.000 C 
ATOM     10  C7  UNL A   1      24.305  18.579   7.736  1.00  0.00    +0.000 C 
ATOM     11  C8  UNL A   1      23.957  18.773   6.264  1.00  0.00    +0.000 C 
ATOM     12  C9  UNL A   1      25.320  18.884   5.553  1.00  0.00    +0.000 C 
ATOM    108  H10 UNL A   1      25.367  20.398   8.143  1.00  0.00    +0.000 H 
ATOM    109  H11 UNL A   1      26.193  19.011   8.707  1.00  0.00    +0.000 H 
ATOM    110  H12 UNL A   1      23.530  18.961   8.366  1.00  0.00    +0.000 H 
ATOM    111  H13 UNL A   1      24.419  17.550   8.005  1.00  0.00    +0.000 H 
ATOM    112  H14 UNL A   1      23.385  19.666   6.126  1.00  0.00    +0.000 H 
ATOM    114  H16 UNL A   1      25.654  17.981   5.087  1.00  0.00    +0.000 H 
ATOM    113  H15 UNL A   1      23.363  17.971   5.879  1.00  0.00    +0.000 H 
BRANCH    8    6
ATOM      6  C5  UNL A   1      27.587  19.302   6.391  1.00  0.00    +0.000 C 
ATOM      7  O2  UNL A   1      28.277  20.251   6.713  1.00  0.00    +0.000 O 
BRANCH    6    5
ATOM      1  C1  UNL A   1      29.286  16.217   5.419  1.00  0.00    +0.000 C 
ATOM      2  C2  UNL A   1      28.578  17.096   6.458  1.00  0.00    +0.000 C 
ATOM     99  H1  UNL A   1      29.705  15.359   5.902  1.00  0.00    +0.000 H 
ATOM    100  H2  UNL A   1      30.066  16.778   4.948  1.00  0.00    +0.000 H 
ATOM    101  H3  UNL A   1      28.581  15.899   4.679  1.00  0.00    +0.000 H 
ATOM      3  C3  UNL A   1      27.424  16.308   7.086  1.00  0.00    +0.000 C 
ATOM      4  C4  UNL A   1      29.628  17.496   7.512  1.00  0.00    +0.000 C 
ATOM      5  O1  UNL A   1      28.047  18.224   5.706  1.00  0.00    +0.000 O 
ATOM    102  H4  UNL A   1      27.817  15.480   7.639  1.00  0.00    +0.000 H 
ATOM    103  H5  UNL A   1      26.777  15.948   6.315  1.00  0.00    +0.000 H 
ATOM    104  H6  UNL A   1      26.873  16.946   7.744  1.00  0.00    +0.000 H 
ATOM    105  H7  UNL A   1      29.972  16.620   8.022  1.00  0.00    +0.000 H 
ATOM    106  H8  UNL A   1      29.189  18.170   8.216  1.00  0.00    +0.000 H 
ATOM    107  H9  UNL A   1      30.455  17.974   7.027  1.00  0.00    +0.000 H 
ENDBRANCH    6    5
ENDBRANCH    8    6
ENDBRANCH   13   12
ENDBRANCH   15   13
ENDBRANCH   16   15
BRANCH   16   17
ATOM     17  C12 UNL A   1      24.170  18.052   2.330  1.00  0.00    +0.000 C 
ATOM    117  H19 UNL A   1      23.617  18.315   1.451  1.00  0.00    +0.000 H 
ATOM    118  H20 UNL A   1      23.771  18.461   3.234  1.00  0.00    +0.000 H 
BRANCH   17   18
ATOM     18  C13 UNL A   1      24.095  16.551   2.492  1.00  0.00    +0.000 C 
ATOM     19  C14 UNL A   1      24.067  15.717   1.365  1.00  0.00    +0.000 C 
ATOM     20  C15 UNL A   1      23.920  14.337   1.506  1.00  0.00    +0.000 C 
ATOM     21  C16 UNL A   1      23.835  13.773   2.777  1.00  0.00    +0.000 C 
ATOM     22  C17 UNL A   1      23.909  14.589   3.906  1.00  0.00    +0.000 C 
ATOM     23  C18 UNL A   1      24.036  15.972   3.765  1.00  0.00    +0.000 C 
ATOM    119  H21 UNL A   1      24.154  16.128   0.422  1.00  0.00    +0.000 H 
ATOM    120  H22 UNL A   1      23.874  13.734   0.670  1.00  0.00    +0.000 H 
ATOM    122  H24 UNL A   1      23.870  14.168   4.847  1.00  0.00    +0.000 H 
ATOM    123  H25 UNL A   1      24.083  16.570   4.604  1.00  0.00    +0.000 H 
ATOM    121  H23 UNL A   1      23.717  12.753   2.883  1.00  0.00    +0.000 H 
ENDBRANCH   17   18
ENDBRANCH   16   17
ENDBRANCH   24   16
ENDBRANCH   26   24
ENDBRANCH   27   26
ENDBRANCH   28   27
ENDBRANCH   29   28
ENDBRANCH   30   29
ENDBRANCH   31   30
ENDBRANCH   32   31
ENDBRANCH   33   32
ENDBRANCH   34   33
ENDBRANCH   36   34
ENDBRANCH   40   39
BRANCH   44   45
ATOM     45  C35 UNL A   1      13.379  22.664   6.954  1.00  0.00    +0.000 C 
ATOM     46  C36 UNL A   1      13.431  23.692   7.909  1.00  0.00    +0.000 C 
ATOM     47  F1  UNL A   1      14.378  23.682   8.860  1.00  0.00    +0.000 F 
ATOM     48  C37 UNL A   1      12.478  24.707   7.925  1.00  0.00    +0.000 C 
ATOM     49  F2  UNL A   1      12.512  25.640   8.886  1.00  0.00    +0.000 F 
ATOM     50  C38 UNL A   1      11.481  24.739   6.962  1.00  0.00    +0.000 C 
ATOM     51  F3  UNL A   1      10.563  25.716   6.980  1.00  0.00    +0.000 F 
ATOM     52  C39 UNL A   1      11.429  23.753   5.988  1.00  0.00    +0.000 C 
ATOM     53  F4  UNL A   1      10.474  23.793   5.050  1.00  0.00    +0.000 F 
ATOM     54  C40 UNL A   1      12.360  22.718   5.990  1.00  0.00    +0.000 C 
ATOM     55  F5  UNL A   1      12.267  21.767   5.049  1.00  0.00    +0.000 F 
ENDBRANCH   44   45
BRANCH   61   62
ATOM     65  C48 UNL A   1      13.936  15.659  12.526  1.00  0.00    +0.000 C 
ATOM     66  F7  UNL A   1      14.176  15.788  13.838  1.00  0.00    +0.000 F 
ATOM     67  C49 UNL A   1      13.027  14.711  12.079  1.00  0.00    +0.000 C 
ATOM     68  F8  UNL A   1      12.373  13.940  12.959  1.00  0.00    +0.000 F 
ATOM     69  C50 UNL A   1      12.802  14.558  10.720  1.00  0.00    +0.000 C 
ATOM     70  F9  UNL A   1      11.914  13.653  10.287  1.00  0.00    +0.000 F 
ATOM     71  C51 UNL A   1      13.497  15.342   9.804  1.00  0.00    +0.000 C 
ATOM     72  F10 UNL A   1      13.268  15.161   8.495  1.00  0.00    +0.000 F 
ATOM     62  C46 UNL A   1      14.413  16.315  10.234  1.00  0.00    +0.000 C 
ATOM     63  C47 UNL A   1      14.611  16.466  11.615  1.00  0.00    +0.000 C 
ATOM     64  F6  UNL A   1      15.488  17.371  12.076  1.00  0.00    +0.000 F 
ENDBRANCH   61   62
BRANCH   76   77
ATOM     77  C55 UNL A   1      20.377  15.539   6.716  1.00  0.00    +0.000 C 
ATOM     78  C56 UNL A   1      21.519  15.618   7.523  1.00  0.00    +0.000 C 
ATOM     79  F11 UNL A   1      21.704  16.682   8.319  1.00  0.00    +0.000 F 
ATOM     80  C57 UNL A   1      22.495  14.624   7.492  1.00  0.00    +0.000 C 
ATOM     81  F12 UNL A   1      23.595  14.744   8.246  1.00  0.00    +0.000 F 
ATOM     82  C58 UNL A   1      22.332  13.517   6.672  1.00  0.00    +0.000 C 
ATOM     83  F13 UNL A   1      23.267  12.556   6.648  1.00  0.00    +0.000 F 
ATOM     84  C59 UNL A   1      21.204  13.410   5.874  1.00  0.00    +0.000 C 
ATOM     85  F14 UNL A   1      21.038  12.335   5.092  1.00  0.00    +0.000 F 
ATOM     86  C60 UNL A   1      20.241  14.417   5.884  1.00  0.00    +0.000 C 
ATOM     87  F15 UNL A   1      19.164  14.291   5.096  1.00  0.00    +0.000 F 
ENDBRANCH   76   77
TORSDOF 22
ENDMDL
MODEL 10
REMARK VINA RESULT:      -8.7     33.558     40.616
ROOT
ATOM    140  H42 UNL A   1      11.440   7.612  15.112  1.00  0.00    +0.000 H 
ATOM    141  H43 UNL A   1       9.907   9.561  15.918  1.00  0.00    +0.000 H 
ATOM    142  H44 UNL A   1      10.039   6.692  18.901  1.00  0.00    +0.000 H 
ATOM    143  H45 UNL A   1       8.006   4.509  24.547  1.00  0.00    +0.000 H 
ATOM    144  H46 UNL A   1       9.585   2.662  23.804  1.00  0.00    +0.000 H 
ATOM    145  H47 UNL A   1       9.539   5.568  20.831  1.00  0.00    +0.000 H 
ATOM    146  H48 UNL A   1       6.539   9.229  22.519  1.00  0.00    +0.000 H 
ATOM    147  H49 UNL A   1       6.916  10.399  20.273  1.00  0.00    +0.000 H 
ATOM    148  H50 UNL A   1      13.229   3.117  17.446  1.00  0.00    +0.000 H 
ATOM    149  H51 UNL A   1      12.492   1.705  19.450  1.00  0.00    +0.000 H 
ATOM     40  C31 UNL A   1      10.739   3.074  21.229  1.00  0.00    +0.000 C 
ATOM     41  C32 UNL A   1      11.250   3.548  19.898  1.00  0.00    +0.000 C 
ATOM     42  N5  UNL A   1      11.005   4.670  19.266  1.00  0.00    +0.000 N 
ATOM     43  C33 UNL A   1      11.760   4.620  18.103  1.00  0.00    +0.000 C 
ATOM     44  C34 UNL A   1      11.799   5.507  17.080  1.00  0.00    +0.000 C 
ATOM     56  C41 UNL A   1      11.030   6.724  17.035  1.00  0.00    +0.000 C 
ATOM     57  C42 UNL A   1      10.958   7.666  16.023  1.00  0.00    +0.000 C 
ATOM     58  C43 UNL A   1      10.122   8.703  16.450  1.00  0.00    +0.000 C 
ATOM     59  C44 UNL A   1       9.630   8.383  17.705  1.00  0.00    +0.000 C 
ATOM     60  N6  UNL A   1      10.200   7.169  18.054  1.00  0.00    +0.000 N 
ATOM     61  C45 UNL A   1       8.710   9.130  18.526  1.00  0.00    +0.000 C 
ATOM     73  C52 UNL A   1       8.263   8.740  19.746  1.00  0.00    +0.000 C 
ATOM     74  N7  UNL A   1       8.564   7.587  20.458  1.00  0.00    +0.000 N 
ATOM     75  C53 UNL A   1       7.895   7.671  21.582  1.00  0.00    +0.000 C 
ATOM     76  C54 UNL A   1       7.818   6.691  22.719  1.00  0.00    +0.000 C 
ATOM     88  C61 UNL A   1       8.519   5.543  22.646  1.00  0.00    +0.000 C 
ATOM     89  C62 UNL A   1       8.539   4.496  23.664  1.00  0.00    +0.000 C 
ATOM     90  C63 UNL A   1       9.364   3.515  23.265  1.00  0.00    +0.000 C 
ATOM     91  C64 UNL A   1       9.899   3.846  21.944  1.00  0.00    +0.000 C 
ATOM     92  N8  UNL A   1       9.352   5.073  21.662  1.00  0.00    +0.000 N 
ATOM     93  C65 UNL A   1       7.114   8.909  21.724  1.00  0.00    +0.000 C 
ATOM     94  C66 UNL A   1       7.341   9.504  20.561  1.00  0.00    +0.000 C 
ATOM     95  C67 UNL A   1      12.519   3.389  18.143  1.00  0.00    +0.000 C 
ATOM     96  C68 UNL A   1      12.182   2.655  19.194  1.00  0.00    +0.000 C 
ENDROOT
BRANCH   40   39
ATOM     97  C69 UNL A   1      12.479   1.695  22.373  1.00  0.00    +0.000 C 
ATOM     98  C70 UNL A   1      12.945   0.482  22.872  1.00  0.00    +0.000 C 
ATOM     36  C27 UNL A   1      12.103  -0.633  22.899  1.00  0.00    +0.000 C 
ATOM     37  C28 UNL A   1      10.839  -0.564  22.305  1.00  0.00    +0.000 C 
ATOM     38  C29 UNL A   1      10.401   0.632  21.733  1.00  0.00    +0.000 C 
ATOM     39  C30 UNL A   1      11.206   1.780  21.790  1.00  0.00    +0.000 C 
ATOM    138  H40 UNL A   1      10.230  -1.398  22.289  1.00  0.00    +0.000 H 
ATOM    139  H41 UNL A   1       9.481   0.672  21.268  1.00  0.00    +0.000 H 
ATOM    150  H52 UNL A   1      13.073   2.536  22.433  1.00  0.00    +0.000 H 
ATOM    151  H53 UNL A   1      13.913   0.405  23.222  1.00  0.00    +0.000 H 
BRANCH   36   34
ATOM     34  C26 UNL A   1      12.528  -1.909  23.518  1.00  0.00    +0.000 C 
ATOM     35  O5  UNL A   1      12.075  -2.968  23.095  1.00  0.00    +0.000 O 
BRANCH   34   33
ATOM     33  N4  UNL A   1      13.406  -1.914  24.572  1.00  0.00    +0.000 N 
ATOM    137  H39 UNL A   1      14.226  -2.440  24.429  1.00  0.00    +0.000 H 
BRANCH   33   32
ATOM    136  H38 UNL A   1      13.248  -2.026  26.611  1.00  0.00    +0.000 H 
ATOM    135  H37 UNL A   1      12.443  -0.634  25.871  1.00  0.00    +0.000 H 
ATOM     32  C25 UNL A   1      13.310  -1.261  25.866  1.00  0.00    +0.000 C 
BRANCH   32   31
ATOM    133  H35 UNL A   1      14.787  -0.562  27.209  1.00  0.00    +0.000 H 
ATOM    134  H36 UNL A   1      15.295  -0.719  25.498  1.00  0.00    +0.000 H 
ATOM     31  C24 UNL A   1      14.532  -0.407  26.181  1.00  0.00    +0.000 C 
BRANCH   31   30
ATOM    131  H33 UNL A   1      15.285   1.487  25.602  1.00  0.00    +0.000 H 
ATOM    132  H34 UNL A   1      13.544   1.193  25.269  1.00  0.00    +0.000 H 
ATOM     30  C23 UNL A   1      14.356   1.097  25.959  1.00  0.00    +0.000 C 
BRANCH   30   29
ATOM    129  H31 UNL A   1      12.902   2.134  27.106  1.00  0.00    +0.000 H 
ATOM    130  H32 UNL A   1      14.202   1.312  28.036  1.00  0.00    +0.000 H 
ATOM     29  C22 UNL A   1      13.946   1.916  27.192  1.00  0.00    +0.000 C 
BRANCH   29   28
ATOM     28  C21 UNL A   1      14.685   3.245  27.398  1.00  0.00    +0.000 C 
ATOM    127  H29 UNL A   1      15.731   3.072  27.251  1.00  0.00    +0.000 H 
ATOM    128  H30 UNL A   1      14.272   3.935  26.692  1.00  0.00    +0.000 H 
BRANCH   28   27
ATOM     27  C20 UNL A   1      14.494   3.867  28.774  1.00  0.00    +0.000 C 
ATOM    125  H27 UNL A   1      15.094   3.328  29.477  1.00  0.00    +0.000 H 
ATOM    126  H28 UNL A   1      14.784   4.895  28.700  1.00  0.00    +0.000 H 
BRANCH   27   26
ATOM     26  N3  UNL A   1      13.120   3.842  29.231  1.00  0.00    +0.000 N 
ATOM    124  H26 UNL A   1      12.838   3.137  29.858  1.00  0.00    +0.000 H 
BRANCH   26   24
ATOM     25  O4  UNL A   1      11.275   4.380  28.090  1.00  0.00    +0.000 O 
ATOM     24  C19 UNL A   1      12.197   4.773  28.814  1.00  0.00    +0.000 C 
BRANCH   24   16
ATOM    116  H18 UNL A   1      13.370   6.498  29.068  1.00  0.00    +0.000 H 
ATOM     16  C11 UNL A   1      12.331   6.279  29.195  1.00  0.00    +0.000 C 
BRANCH   16   15
ATOM    115  H17 UNL A   1      11.590   6.959  27.350  1.00  0.00    +0.000 H 
ATOM     15  N2  UNL A   1      11.704   7.254  28.282  1.00  0.00    +0.000 N 
BRANCH   15   13
ATOM     13  C10 UNL A   1      11.260   8.518  28.570  1.00  0.00    +0.000 C 
ATOM     14  O3  UNL A   1      10.167   8.621  29.135  1.00  0.00    +0.000 O 
BRANCH   13   12
ATOM      8  N1  UNL A   1      11.409  10.863  27.644  1.00  0.00    +0.000 N 
ATOM      9  C6  UNL A   1      11.501  12.078  28.423  1.00  0.00    +0.000 C 
ATOM     10  C7  UNL A   1      12.704  11.854  29.319  1.00  0.00    +0.000 C 
ATOM     11  C8  UNL A   1      12.698  10.347  29.557  1.00  0.00    +0.000 C 
ATOM     12  C9  UNL A   1      12.137   9.750  28.252  1.00  0.00    +0.000 C 
ATOM    108  H10 UNL A   1      10.615  12.223  29.006  1.00  0.00    +0.000 H 
ATOM    109  H11 UNL A   1      11.600  12.950  27.813  1.00  0.00    +0.000 H 
ATOM    110  H12 UNL A   1      12.599  12.387  30.241  1.00  0.00    +0.000 H 
ATOM    111  H13 UNL A   1      13.617  12.202  28.884  1.00  0.00    +0.000 H 
ATOM    112  H14 UNL A   1      12.069  10.099  30.387  1.00  0.00    +0.000 H 
ATOM    114  H16 UNL A   1      12.880   9.378  27.578  1.00  0.00    +0.000 H 
ATOM    113  H15 UNL A   1      13.671   9.969  29.791  1.00  0.00    +0.000 H 
BRANCH    8    6
ATOM      6  C5  UNL A   1      10.917  10.748  26.373  1.00  0.00    +0.000 C 
ATOM      7  O2  UNL A   1       9.722  10.695  26.148  1.00  0.00    +0.000 O 
BRANCH    6    5
ATOM      1  C1  UNL A   1      12.723  10.545  23.204  1.00  0.00    +0.000 C 
ATOM      2  C2  UNL A   1      11.607  11.122  24.085  1.00  0.00    +0.000 C 
ATOM     99  H1  UNL A   1      12.590  10.878  22.196  1.00  0.00    +0.000 H 
ATOM    100  H2  UNL A   1      12.686   9.476  23.234  1.00  0.00    +0.000 H 
ATOM    101  H3  UNL A   1      13.673  10.878  23.566  1.00  0.00    +0.000 H 
ATOM      3  C3  UNL A   1      11.702  12.651  24.086  1.00  0.00    +0.000 C 
ATOM      4  C4  UNL A   1      10.266  10.640  23.500  1.00  0.00    +0.000 C 
ATOM      5  O1  UNL A   1      11.877  10.615  25.423  1.00  0.00    +0.000 O 
ATOM    102  H4  UNL A   1      11.504  13.021  23.101  1.00  0.00    +0.000 H 
ATOM    103  H5  UNL A   1      12.685  12.947  24.387  1.00  0.00    +0.000 H 
ATOM    104  H6  UNL A   1      10.984  13.053  24.770  1.00  0.00    +0.000 H 
ATOM    105  H7  UNL A   1      10.136  11.050  22.521  1.00  0.00    +0.000 H 
ATOM    106  H8  UNL A   1       9.465  10.963  24.131  1.00  0.00    +0.000 H 
ATOM    107  H9  UNL A   1      10.267   9.571  23.443  1.00  0.00    +0.000 H 
ENDBRANCH    6    5
ENDBRANCH    8    6
ENDBRANCH   13   12
ENDBRANCH   15   13
ENDBRANCH   16   15
BRANCH   16   17
ATOM     17  C12 UNL A   1      11.934   6.498  30.671  1.00  0.00    +0.000 C 
ATOM    117  H19 UNL A   1      11.811   5.536  31.123  1.00  0.00    +0.000 H 
ATOM    118  H20 UNL A   1      11.041   7.087  30.647  1.00  0.00    +0.000 H 
BRANCH   17   18
ATOM     18  C13 UNL A   1      12.918   7.282  31.509  1.00  0.00    +0.000 C 
ATOM     19  C14 UNL A   1      14.285   7.267  31.197  1.00  0.00    +0.000 C 
ATOM     20  C15 UNL A   1      15.208   7.924  32.012  1.00  0.00    +0.000 C 
ATOM     21  C16 UNL A   1      14.769   8.632  33.128  1.00  0.00    +0.000 C 
ATOM     22  C17 UNL A   1      13.407   8.692  33.422  1.00  0.00    +0.000 C 
ATOM     23  C18 UNL A   1      12.484   8.018  32.619  1.00  0.00    +0.000 C 
ATOM    119  H21 UNL A   1      14.612   6.764  30.357  1.00  0.00    +0.000 H 
ATOM    120  H22 UNL A   1      16.214   7.886  31.787  1.00  0.00    +0.000 H 
ATOM    122  H24 UNL A   1      13.080   9.236  34.235  1.00  0.00    +0.000 H 
ATOM    123  H25 UNL A   1      11.479   8.061  32.845  1.00  0.00    +0.000 H 
ATOM    121  H23 UNL A   1      15.450   9.111  33.737  1.00  0.00    +0.000 H 
ENDBRANCH   17   18
ENDBRANCH   16   17
ENDBRANCH   24   16
ENDBRANCH   26   24
ENDBRANCH   27   26
ENDBRANCH   28   27
ENDBRANCH   29   28
ENDBRANCH   30   29
ENDBRANCH   31   30
ENDBRANCH   32   31
ENDBRANCH   33   32
ENDBRANCH   34   33
ENDBRANCH   36   34
ENDBRANCH   40   39
BRANCH   44   45
ATOM     45  C35 UNL A   1      12.708   5.189  15.926  1.00  0.00    +0.000 C 
ATOM     46  C36 UNL A   1      14.063   5.559  15.932  1.00  0.00    +0.000 C 
ATOM     47  F1  UNL A   1      14.575   6.226  16.978  1.00  0.00    +0.000 F 
ATOM     48  C37 UNL A   1      14.886   5.293  14.841  1.00  0.00    +0.000 C 
ATOM     49  F2  UNL A   1      16.158   5.713  14.845  1.00  0.00    +0.000 F 
ATOM     50  C38 UNL A   1      14.384   4.614  13.742  1.00  0.00    +0.000 C 
ATOM     51  F3  UNL A   1      15.177   4.358  12.691  1.00  0.00    +0.000 F 
ATOM     52  C39 UNL A   1      13.058   4.209  13.726  1.00  0.00    +0.000 C 
ATOM     53  F4  UNL A   1      12.576   3.540  12.670  1.00  0.00    +0.000 F 
ATOM     54  C40 UNL A   1      12.223   4.504  14.801  1.00  0.00    +0.000 C 
ATOM     55  F5  UNL A   1      10.939   4.120  14.744  1.00  0.00    +0.000 F 
ENDBRANCH   44   45
BRANCH   61   62
ATOM     65  C48 UNL A   1       8.341  12.834  17.688  1.00  0.00    +0.000 C 
ATOM     66  F7  UNL A   1       8.959  13.992  17.958  1.00  0.00    +0.000 F 
ATOM     67  C49 UNL A   1       7.198  12.826  16.903  1.00  0.00    +0.000 C 
ATOM     68  F8  UNL A   1       6.724  13.972  16.396  1.00  0.00    +0.000 F 
ATOM     69  C50 UNL A   1       6.543  11.631  16.650  1.00  0.00    +0.000 C 
ATOM     70  F9  UNL A   1       5.446  11.619  15.880  1.00  0.00    +0.000 F 
ATOM     71  C51 UNL A   1       7.021  10.443  17.195  1.00  0.00    +0.000 C 
ATOM     72  F10 UNL A   1       6.357   9.304  16.944  1.00  0.00    +0.000 F 
ATOM     62  C46 UNL A   1       8.182  10.425  17.984  1.00  0.00    +0.000 C 
ATOM     63  C47 UNL A   1       8.840  11.643  18.211  1.00  0.00    +0.000 C 
ATOM     64  F6  UNL A   1       9.945  11.682  18.971  1.00  0.00    +0.000 F 
ENDBRANCH   61   62
BRANCH   76   77
ATOM     77  C55 UNL A   1       6.951   6.952  23.897  1.00  0.00    +0.000 C 
ATOM     78  C56 UNL A   1       5.637   6.465  23.939  1.00  0.00    +0.000 C 
ATOM     79  F11 UNL A   1       5.143   5.783  22.895  1.00  0.00    +0.000 F 
ATOM     80  C57 UNL A   1       4.814   6.706  25.037  1.00  0.00    +0.000 C 
ATOM     81  F12 UNL A   1       3.551   6.261  25.035  1.00  0.00    +0.000 F 
ATOM     82  C58 UNL A   1       5.298   7.416  26.126  1.00  0.00    +0.000 C 
ATOM     83  F13 UNL A   1       4.510   7.640  27.186  1.00  0.00    +0.000 F 
ATOM     84  C59 UNL A   1       6.599   7.896  26.113  1.00  0.00    +0.000 C 
ATOM     85  F14 UNL A   1       7.074   8.570  27.169  1.00  0.00    +0.000 F 
ATOM     86  C60 UNL A   1       7.414   7.680  25.003  1.00  0.00    +0.000 C 
ATOM     87  F15 UNL A   1       8.664   8.163  25.014  1.00  0.00    +0.000 F 
ENDBRANCH   76   77
TORSDOF 22
ENDMDL
