MODEL 1
REMARK VINA RESULT:     -10.9      0.000      0.000
ROOT
ATOM     33  C22 UNL A   1      38.202  30.058  29.676  1.00  0.00    +0.000 C 
ATOM     34  C23 UNL A   1      39.239  29.100  29.161  1.00  0.00    +0.000 C 
ATOM     35  N6  UNL A   1      40.320  28.658  29.752  1.00  0.00    +0.000 N 
ATOM     36  C24 UNL A   1      40.907  27.775  28.854  1.00  0.00    +0.000 C 
ATOM     37  C25 UNL A   1      42.077  27.101  28.976  1.00  0.00    +0.000 C 
ATOM     49  C32 UNL A   1      42.950  27.189  30.119  1.00  0.00    +0.000 C 
ATOM     50  C33 UNL A   1      44.187  26.596  30.307  1.00  0.00    +0.000 C 
ATOM     51  C34 UNL A   1      44.630  26.907  31.597  1.00  0.00    +0.000 C 
ATOM     52  C35 UNL A   1      43.699  27.741  32.192  1.00  0.00    +0.000 C 
ATOM     53  N7  UNL A   1      42.674  27.909  31.272  1.00  0.00    +0.000 N 
ATOM     54  C36 UNL A   1      43.737  28.339  33.502  1.00  0.00    +0.000 C 
ATOM     66  C43 UNL A   1      42.798  29.184  33.996  1.00  0.00    +0.000 C 
ATOM     67  N8  UNL A   1      41.633  29.642  33.395  1.00  0.00    +0.000 N 
ATOM     68  C44 UNL A   1      41.054  30.417  34.279  1.00  0.00    +0.000 C 
ATOM     69  C45 UNL A   1      39.773  31.197  34.162  1.00  0.00    +0.000 C 
ATOM     81  C52 UNL A   1      39.073  31.141  33.013  1.00  0.00    +0.000 C 
ATOM     82  C53 UNL A   1      37.818  31.839  32.755  1.00  0.00    +0.000 C 
ATOM     83  C54 UNL A   1      37.371  31.500  31.536  1.00  0.00    +0.000 C 
ATOM     84  C55 UNL A   1      38.332  30.593  30.906  1.00  0.00    +0.000 C 
ATOM     85  N9  UNL A   1      39.316  30.445  31.852  1.00  0.00    +0.000 N 
ATOM     86  C56 UNL A   1      41.778  30.521  35.554  1.00  0.00    +0.000 C 
ATOM     87  C57 UNL A   1      42.854  29.785  35.312  1.00  0.00    +0.000 C 
ATOM     88  C58 UNL A   1      40.035  27.704  27.701  1.00  0.00    +0.000 C 
ATOM     89  C59 UNL A   1      39.020  28.549  27.815  1.00  0.00    +0.000 C 
ATOM    118  H24 UNL A   1      44.694  26.024  29.614  1.00  0.00    +0.000 H 
ATOM    119  H25 UNL A   1      45.504  26.571  32.031  1.00  0.00    +0.000 H 
ATOM    120  H26 UNL A   1      41.870  28.459  31.417  1.00  0.00    +0.000 H 
ATOM    121  H27 UNL A   1      37.350  32.489  33.405  1.00  0.00    +0.000 H 
ATOM    122  H28 UNL A   1      36.489  31.827  31.110  1.00  0.00    +0.000 H 
ATOM    123  H29 UNL A   1      40.120  29.894  31.713  1.00  0.00    +0.000 H 
ATOM    124  H30 UNL A   1      41.518  31.033  36.411  1.00  0.00    +0.000 H 
ATOM    125  H31 UNL A   1      43.632  29.656  35.978  1.00  0.00    +0.000 H 
ATOM    126  H32 UNL A   1      40.184  27.077  26.896  1.00  0.00    +0.000 H 
ATOM    127  H33 UNL A   1      38.272  28.762  27.138  1.00  0.00    +0.000 H 
ENDROOT
BRANCH   33   32
ATOM    129  H35 UNL A   1      34.261  28.868  27.608  1.00  0.00    +0.000 H 
ATOM    128  H34 UNL A   1      36.289  28.369  28.839  1.00  0.00    +0.000 H 
ATOM    116  H22 UNL A   1      35.264  32.952  27.594  1.00  0.00    +0.000 H 
ATOM    117  H23 UNL A   1      37.395  32.427  28.631  1.00  0.00    +0.000 H 
ATOM     90  C60 UNL A   1      36.078  29.342  28.568  1.00  0.00    +0.000 C 
ATOM     91  C61 UNL A   1      34.892  29.632  27.896  1.00  0.00    +0.000 C 
ATOM     29  C18 UNL A   1      34.559  30.959  27.612  1.00  0.00    +0.000 C 
ATOM     30  C19 UNL A   1      35.483  31.980  27.861  1.00  0.00    +0.000 C 
ATOM     31  C20 UNL A   1      36.701  31.680  28.474  1.00  0.00    +0.000 C 
ATOM     32  C21 UNL A   1      36.988  30.365  28.878  1.00  0.00    +0.000 C 
BRANCH   29   27
ATOM     27  C17 UNL A   1      33.242  31.320  27.042  1.00  0.00    +0.000 C 
ATOM     28  O5  UNL A   1      32.705  32.373  27.375  1.00  0.00    +0.000 O 
BRANCH   27   26
ATOM     26  N5  UNL A   1      32.607  30.472  26.167  1.00  0.00    +0.000 N 
ATOM    115  H21 UNL A   1      32.719  30.696  25.214  1.00  0.00    +0.000 H 
BRANCH   26   25
ATOM     25  C16 UNL A   1      31.798  29.296  26.434  1.00  0.00    +0.000 C 
ATOM    114  H20 UNL A   1      30.828  29.472  26.017  1.00  0.00    +0.000 H 
ATOM    113  H19 UNL A   1      31.755  29.143  27.492  1.00  0.00    +0.000 H 
BRANCH   25   24
ATOM    112  H18 UNL A   1      33.406  28.202  25.678  1.00  0.00    +0.000 H 
ATOM    111  H17 UNL A   1      31.841  27.890  24.855  1.00  0.00    +0.000 H 
ATOM     24  C15 UNL A   1      32.355  28.033  25.782  1.00  0.00    +0.000 C 
BRANCH   24   23
ATOM    109  H15 UNL A   1      32.655  26.923  27.560  1.00  0.00    +0.000 H 
ATOM    110  H16 UNL A   1      31.174  26.528  26.616  1.00  0.00    +0.000 H 
ATOM     23  C14 UNL A   1      32.221  26.745  26.598  1.00  0.00    +0.000 C 
BRANCH   23   22
ATOM    107  H13 UNL A   1      32.882  24.741  26.772  1.00  0.00    +0.000 H 
ATOM    108  H14 UNL A   1      32.311  25.252  25.143  1.00  0.00    +0.000 H 
ATOM     22  C13 UNL A   1      32.885  25.495  26.013  1.00  0.00    +0.000 C 
BRANCH   22   21
ATOM    105  H11 UNL A   1      34.297  25.672  24.449  1.00  0.00    +0.000 H 
ATOM    106  H12 UNL A   1      34.680  26.551  25.974  1.00  0.00    +0.000 H 
ATOM     21  C12 UNL A   1      34.321  25.652  25.518  1.00  0.00    +0.000 C 
BRANCH   21   20
ATOM     20  C11 UNL A   1      35.309  24.569  25.937  1.00  0.00    +0.000 C 
ATOM    103  H9  UNL A   1      35.954  24.976  26.687  1.00  0.00    +0.000 H 
ATOM    104  H10 UNL A   1      34.727  23.743  26.291  1.00  0.00    +0.000 H 
BRANCH   20   19
ATOM     19  N4  UNL A   1      36.136  24.060  24.855  1.00  0.00    +0.000 N 
ATOM    102  H8  UNL A   1      37.037  24.453  24.806  1.00  0.00    +0.000 H 
BRANCH   19   17
ATOM     17  C10 UNL A   1      35.866  23.118  23.886  1.00  0.00    +0.000 C 
ATOM     18  O4  UNL A   1      36.766  22.778  23.113  1.00  0.00    +0.000 O 
BRANCH   17   16
ATOM    130  H36 UNL A   1      33.586  23.851  22.594  1.00  0.00    +0.000 H 
ATOM     99  H5  UNL A   1      31.097  20.794  24.027  1.00  0.00    +0.000 H 
ATOM    100  H6  UNL A   1      33.057  19.593  24.809  1.00  0.00    +0.000 H 
ATOM     11  C5  UNL A   1      32.164  22.477  23.334  1.00  0.00    +0.000 C 
ATOM     12  C6  UNL A   1      32.031  21.222  23.935  1.00  0.00    +0.000 C 
ATOM     13  C7  UNL A   1      33.155  20.540  24.413  1.00  0.00    +0.000 C 
ATOM     14  C8  UNL A   1      34.410  21.146  24.355  1.00  0.00    +0.000 C 
ATOM     16  C9  UNL A   1      34.560  22.417  23.787  1.00  0.00    +0.000 C 
ATOM     92  C62 UNL A   1      33.453  23.008  23.176  1.00  0.00    +0.000 C 
BRANCH   11   10
ATOM     10  N3  UNL A   1      31.003  23.206  22.975  1.00  0.00    +0.000 N 
BRANCH   10    9
ATOM      9  N2  UNL A   1      30.643  23.931  23.933  1.00  0.00    +0.000 N 
BRANCH    9    8
ATOM     97  H3  UNL A   1      31.614  27.843  21.860  1.00  0.00    +0.000 H 
ATOM     98  H4  UNL A   1      32.038  25.506  22.372  1.00  0.00    +0.000 H 
ATOM    131  H37 UNL A   1      28.508  25.354  24.650  1.00  0.00    +0.000 H 
ATOM    132  H38 UNL A   1      28.083  27.693  24.157  1.00  0.00    +0.000 H 
ATOM      5  C1  UNL A   1      29.819  27.938  22.976  1.00  0.00    +0.000 C 
ATOM      6  C2  UNL A   1      30.956  27.315  22.454  1.00  0.00    +0.000 C 
ATOM      7  C3  UNL A   1      31.195  25.967  22.747  1.00  0.00    +0.000 C 
ATOM      8  C4  UNL A   1      30.303  25.237  23.544  1.00  0.00    +0.000 C 
ATOM     93  C63 UNL A   1      29.168  25.880  24.058  1.00  0.00    +0.000 C 
ATOM     94  C64 UNL A   1      28.922  27.227  23.776  1.00  0.00    +0.000 C 
BRANCH    5    2
ATOM      2  S1  UNL A   1      29.520  29.649  22.636  1.00  0.00    +0.000 S 
ATOM      3  O1  UNL A   1      30.176  30.006  21.402  1.00  0.00    +0.000 O 
ATOM      4  O2  UNL A   1      29.694  30.394  23.862  1.00  0.00    +0.000 O 
BRANCH    2    1
ATOM      1  N1  UNL A   1      27.875  29.690  22.286  1.00  0.00    +0.000 N 
ATOM     95  H1  UNL A   1      27.598  28.812  21.848  1.00  0.00    +0.000 H 
ATOM     96  H2  UNL A   1      27.681  30.464  21.651  1.00  0.00    +0.000 H 
ENDBRANCH    2    1
ENDBRANCH    5    2
ENDBRANCH    9    8
ENDBRANCH   10    9
ENDBRANCH   11   10
BRANCH   14   15
ATOM    101  H7  UNL A   1      35.316  19.886  25.631  1.00  0.00    +0.000 H 
ATOM     15  O3  UNL A   1      35.455  20.438  24.887  1.00  0.00    +0.000 O 
ENDBRANCH   14   15
ENDBRANCH   17   16
ENDBRANCH   19   17
ENDBRANCH   20   19
ENDBRANCH   21   20
ENDBRANCH   22   21
ENDBRANCH   23   22
ENDBRANCH   24   23
ENDBRANCH   25   24
ENDBRANCH   26   25
ENDBRANCH   27   26
ENDBRANCH   29   27
ENDBRANCH   33   32
BRANCH   37   38
ATOM     38  C26 UNL A   1      42.485  26.198  27.846  1.00  0.00    +0.000 C 
ATOM     39  C27 UNL A   1      41.946  24.912  27.699  1.00  0.00    +0.000 C 
ATOM     40  F1  UNL A   1      41.087  24.431  28.609  1.00  0.00    +0.000 F 
ATOM     41  C28 UNL A   1      42.314  24.099  26.629  1.00  0.00    +0.000 C 
ATOM     42  F2  UNL A   1      41.820  22.856  26.533  1.00  0.00    +0.000 F 
ATOM     43  C29 UNL A   1      43.197  24.568  25.669  1.00  0.00    +0.000 C 
ATOM     44  F3  UNL A   1      43.541  23.788  24.634  1.00  0.00    +0.000 F 
ATOM     45  C30 UNL A   1      43.728  25.844  25.784  1.00  0.00    +0.000 C 
ATOM     46  F4  UNL A   1      44.570  26.305  24.850  1.00  0.00    +0.000 F 
ATOM     47  C31 UNL A   1      43.386  26.647  26.869  1.00  0.00    +0.000 C 
ATOM     48  F5  UNL A   1      43.927  27.871  26.959  1.00  0.00    +0.000 F 
ENDBRANCH   37   38
BRANCH   54   55
ATOM     65  F10 UNL A   1      46.121  29.894  33.546  1.00  0.00    +0.000 F 
ATOM     55  C37 UNL A   1      44.911  28.025  34.385  1.00  0.00    +0.000 C 
ATOM     56  C38 UNL A   1      44.909  26.911  35.239  1.00  0.00    +0.000 C 
ATOM     57  F6  UNL A   1      43.824  26.126  35.322  1.00  0.00    +0.000 F 
ATOM     58  C39 UNL A   1      46.009  26.624  36.044  1.00  0.00    +0.000 C 
ATOM     59  F7  UNL A   1      45.965  25.585  36.889  1.00  0.00    +0.000 F 
ATOM     60  C40 UNL A   1      47.143  27.419  35.983  1.00  0.00    +0.000 C 
ATOM     61  F8  UNL A   1      48.204  27.137  36.752  1.00  0.00    +0.000 F 
ATOM     62  C41 UNL A   1      47.174  28.513  35.131  1.00  0.00    +0.000 C 
ATOM     63  F9  UNL A   1      48.275  29.275  35.060  1.00  0.00    +0.000 F 
ATOM     64  C42 UNL A   1      46.065  28.822  34.349  1.00  0.00    +0.000 C 
ENDBRANCH   54   55
BRANCH   69   70
ATOM     70  C46 UNL A   1      39.277  32.026  35.292  1.00  0.00    +0.000 C 
ATOM     71  C47 UNL A   1      38.488  31.465  36.307  1.00  0.00    +0.000 C 
ATOM     72  F11 UNL A   1      38.159  30.166  36.257  1.00  0.00    +0.000 F 
ATOM     73  C48 UNL A   1      38.000  32.245  37.353  1.00  0.00    +0.000 C 
ATOM     74  F12 UNL A   1      37.209  31.693  38.282  1.00  0.00    +0.000 F 
ATOM     75  C49 UNL A   1      38.318  33.593  37.424  1.00  0.00    +0.000 C 
ATOM     76  F13 UNL A   1      37.854  34.341  38.434  1.00  0.00    +0.000 F 
ATOM     77  C50 UNL A   1      39.114  34.165  36.443  1.00  0.00    +0.000 C 
ATOM     78  F14 UNL A   1      39.442  35.463  36.518  1.00  0.00    +0.000 F 
ATOM     79  C51 UNL A   1      39.576  33.394  35.380  1.00  0.00    +0.000 C 
ATOM     80  F15 UNL A   1      40.334  33.977  34.439  1.00  0.00    +0.000 F 
ENDBRANCH   69   70
TORSDOF 21
ENDMDL
MODEL 2
REMARK VINA RESULT:     -10.8      0.380      2.013
ROOT
ATOM     33  C22 UNL A   1      38.236  30.066  29.670  1.00  0.00    +0.000 C 
ATOM     34  C23 UNL A   1      39.276  29.115  29.149  1.00  0.00    +0.000 C 
ATOM     35  N6  UNL A   1      40.357  28.670  29.738  1.00  0.00    +0.000 N 
ATOM     36  C24 UNL A   1      40.948  27.796  28.834  1.00  0.00    +0.000 C 
ATOM     37  C25 UNL A   1      42.119  27.124  28.952  1.00  0.00    +0.000 C 
ATOM     49  C32 UNL A   1      42.990  27.204  30.098  1.00  0.00    +0.000 C 
ATOM     50  C33 UNL A   1      44.227  26.613  30.282  1.00  0.00    +0.000 C 
ATOM     51  C34 UNL A   1      44.668  26.914  31.575  1.00  0.00    +0.000 C 
ATOM     52  C35 UNL A   1      43.734  27.742  32.176  1.00  0.00    +0.000 C 
ATOM     53  N7  UNL A   1      42.710  27.915  31.256  1.00  0.00    +0.000 N 
ATOM     54  C36 UNL A   1      43.769  28.329  33.491  1.00  0.00    +0.000 C 
ATOM     66  C43 UNL A   1      42.827  29.167  33.990  1.00  0.00    +0.000 C 
ATOM     67  N8  UNL A   1      41.662  29.627  33.392  1.00  0.00    +0.000 N 
ATOM     68  C44 UNL A   1      41.080  30.394  34.281  1.00  0.00    +0.000 C 
ATOM     69  C45 UNL A   1      39.797  31.172  34.168  1.00  0.00    +0.000 C 
ATOM     81  C52 UNL A   1      39.099  31.124  33.017  1.00  0.00    +0.000 C 
ATOM     82  C53 UNL A   1      37.843  31.821  32.763  1.00  0.00    +0.000 C 
ATOM     83  C54 UNL A   1      37.399  31.491  31.541  1.00  0.00    +0.000 C 
ATOM     84  C55 UNL A   1      38.363  30.591  30.905  1.00  0.00    +0.000 C 
ATOM     85  N9  UNL A   1      39.345  30.438  31.851  1.00  0.00    +0.000 N 
ATOM     86  C56 UNL A   1      41.801  30.489  35.558  1.00  0.00    +0.000 C 
ATOM     87  C57 UNL A   1      42.879  29.757  35.311  1.00  0.00    +0.000 C 
ATOM     88  C58 UNL A   1      40.078  27.733  27.679  1.00  0.00    +0.000 C 
ATOM     89  C59 UNL A   1      39.060  28.574  27.799  1.00  0.00    +0.000 C 
ATOM    118  H24 UNL A   1      44.737  26.047  29.586  1.00  0.00    +0.000 H 
ATOM    119  H25 UNL A   1      45.542  26.576  32.008  1.00  0.00    +0.000 H 
ATOM    120  H26 UNL A   1      41.905  28.461  31.404  1.00  0.00    +0.000 H 
ATOM    121  H27 UNL A   1      37.373  32.465  33.418  1.00  0.00    +0.000 H 
ATOM    122  H28 UNL A   1      36.517  31.820  31.116  1.00  0.00    +0.000 H 
ATOM    123  H29 UNL A   1      40.151  29.890  31.709  1.00  0.00    +0.000 H 
ATOM    124  H30 UNL A   1      41.538  30.993  36.419  1.00  0.00    +0.000 H 
ATOM    125  H31 UNL A   1      43.656  29.625  35.978  1.00  0.00    +0.000 H 
ATOM    126  H32 UNL A   1      40.229  27.113  26.869  1.00  0.00    +0.000 H 
ATOM    127  H33 UNL A   1      38.312  28.792  27.122  1.00  0.00    +0.000 H 
ENDROOT
BRANCH   33   32
ATOM    129  H35 UNL A   1      34.259  28.903  27.657  1.00  0.00    +0.000 H 
ATOM    128  H34 UNL A   1      36.286  28.394  28.886  1.00  0.00    +0.000 H 
ATOM    116  H22 UNL A   1      35.339  32.965  27.538  1.00  0.00    +0.000 H 
ATOM    117  H23 UNL A   1      37.466  32.425  28.574  1.00  0.00    +0.000 H 
ATOM     90  C60 UNL A   1      36.091  29.365  28.593  1.00  0.00    +0.000 C 
ATOM     91  C61 UNL A   1      34.907  29.661  27.922  1.00  0.00    +0.000 C 
ATOM     29  C18 UNL A   1      34.597  30.987  27.608  1.00  0.00    +0.000 C 
ATOM     30  C19 UNL A   1      35.541  31.996  27.827  1.00  0.00    +0.000 C 
ATOM     31  C20 UNL A   1      36.758  31.687  28.439  1.00  0.00    +0.000 C 
ATOM     32  C21 UNL A   1      37.022  30.377  28.873  1.00  0.00    +0.000 C 
BRANCH   29   27
ATOM     27  C17 UNL A   1      33.282  31.359  27.038  1.00  0.00    +0.000 C 
ATOM     28  O5  UNL A   1      32.738  32.399  27.398  1.00  0.00    +0.000 O 
BRANCH   27   26
ATOM     26  N5  UNL A   1      32.659  30.535  26.133  1.00  0.00    +0.000 N 
ATOM    115  H21 UNL A   1      32.781  30.787  25.188  1.00  0.00    +0.000 H 
BRANCH   26   25
ATOM     25  C16 UNL A   1      31.849  29.350  26.357  1.00  0.00    +0.000 C 
ATOM    114  H20 UNL A   1      30.921  29.493  25.843  1.00  0.00    +0.000 H 
ATOM    113  H19 UNL A   1      31.707  29.228  27.411  1.00  0.00    +0.000 H 
BRANCH   25   24
ATOM    112  H18 UNL A   1      33.546  28.226  25.898  1.00  0.00    +0.000 H 
ATOM    111  H17 UNL A   1      32.155  27.958  24.795  1.00  0.00    +0.000 H 
ATOM     24  C15 UNL A   1      32.491  28.081  25.803  1.00  0.00    +0.000 C 
BRANCH   24   23
ATOM    109  H15 UNL A   1      32.477  26.931  27.581  1.00  0.00    +0.000 H 
ATOM    110  H16 UNL A   1      31.133  26.622  26.424  1.00  0.00    +0.000 H 
ATOM     23  C14 UNL A   1      32.181  26.789  26.562  1.00  0.00    +0.000 C 
BRANCH   23   22
ATOM    107  H13 UNL A   1      32.882  24.813  26.858  1.00  0.00    +0.000 H 
ATOM    108  H14 UNL A   1      32.289  25.208  25.205  1.00  0.00    +0.000 H 
ATOM     22  C13 UNL A   1      32.864  25.517  26.053  1.00  0.00    +0.000 C 
BRANCH   22   21
ATOM    105  H11 UNL A   1      34.257  25.665  24.469  1.00  0.00    +0.000 H 
ATOM    106  H12 UNL A   1      34.653  26.580  25.969  1.00  0.00    +0.000 H 
ATOM     21  C12 UNL A   1      34.294  25.669  25.538  1.00  0.00    +0.000 C 
BRANCH   21   20
ATOM     20  C11 UNL A   1      35.292  24.601  25.968  1.00  0.00    +0.000 C 
ATOM    103  H9  UNL A   1      35.940  25.025  26.707  1.00  0.00    +0.000 H 
ATOM    104  H10 UNL A   1      34.718  23.778  26.342  1.00  0.00    +0.000 H 
BRANCH   20   19
ATOM     19  N4  UNL A   1      36.114  24.077  24.890  1.00  0.00    +0.000 N 
ATOM    102  H8  UNL A   1      37.035  24.424  24.869  1.00  0.00    +0.000 H 
BRANCH   19   17
ATOM     17  C10 UNL A   1      35.817  23.175  23.892  1.00  0.00    +0.000 C 
ATOM     18  O4  UNL A   1      36.709  22.828  23.112  1.00  0.00    +0.000 O 
BRANCH   17   16
ATOM    130  H36 UNL A   1      33.580  24.012  22.588  1.00  0.00    +0.000 H 
ATOM     99  H5  UNL A   1      30.967  21.022  23.938  1.00  0.00    +0.000 H 
ATOM    100  H6  UNL A   1      32.873  19.738  24.721  1.00  0.00    +0.000 H 
ATOM     11  C5  UNL A   1      32.101  22.678  23.287  1.00  0.00    +0.000 C 
ATOM     12  C6  UNL A   1      31.917  21.417  23.864  1.00  0.00    +0.000 C 
ATOM     13  C7  UNL A   1      33.010  20.688  24.343  1.00  0.00    +0.000 C 
ATOM     14  C8  UNL A   1      34.286  21.249  24.310  1.00  0.00    +0.000 C 
ATOM     16  C9  UNL A   1      34.488  22.524  23.766  1.00  0.00    +0.000 C 
ATOM     92  C62 UNL A   1      33.410  23.164  23.152  1.00  0.00    +0.000 C 
BRANCH   11   10
ATOM     10  N3  UNL A   1      30.971  23.453  22.928  1.00  0.00    +0.000 N 
BRANCH   10    9
ATOM      9  N2  UNL A   1      30.562  24.094  23.925  1.00  0.00    +0.000 N 
BRANCH    9    8
ATOM     97  H3  UNL A   1      27.863  27.734  23.966  1.00  0.00    +0.000 H 
ATOM     98  H4  UNL A   1      28.437  25.464  24.611  1.00  0.00    +0.000 H 
ATOM    131  H37 UNL A   1      32.097  25.799  22.570  1.00  0.00    +0.000 H 
ATOM    132  H38 UNL A   1      31.526  28.063  21.907  1.00  0.00    +0.000 H 
ATOM      5  C1  UNL A   1      29.652  28.062  22.885  1.00  0.00    +0.000 C 
ATOM      6  C2  UNL A   1      28.760  27.323  23.667  1.00  0.00    +0.000 C 
ATOM      7  C3  UNL A   1      29.096  26.016  24.042  1.00  0.00    +0.000 C 
ATOM      8  C4  UNL A   1      30.318  25.450  23.652  1.00  0.00    +0.000 C 
ATOM     93  C63 UNL A   1      31.198  26.207  22.867  1.00  0.00    +0.000 C 
ATOM     94  C64 UNL A   1      30.871  27.511  22.483  1.00  0.00    +0.000 C 
BRANCH    5    2
ATOM      2  S1  UNL A   1      29.226  29.704  22.382  1.00  0.00    +0.000 S 
ATOM      3  O1  UNL A   1      27.806  29.768  22.135  1.00  0.00    +0.000 O 
ATOM      4  O2  UNL A   1      30.211  30.156  21.426  1.00  0.00    +0.000 O 
BRANCH    2    1
ATOM      1  N1  UNL A   1      29.471  30.610  23.778  1.00  0.00    +0.000 N 
ATOM     95  H1  UNL A   1      28.569  30.906  24.153  1.00  0.00    +0.000 H 
ATOM     96  H2  UNL A   1      30.034  31.431  23.557  1.00  0.00    +0.000 H 
ENDBRANCH    2    1
ENDBRANCH    5    2
ENDBRANCH    9    8
ENDBRANCH   10    9
ENDBRANCH   11   10
BRANCH   14   15
ATOM    101  H7  UNL A   1      36.191  20.704  24.644  1.00  0.00    +0.000 H 
ATOM     15  O3  UNL A   1      35.299  20.494  24.840  1.00  0.00    +0.000 O 
ENDBRANCH   14   15
ENDBRANCH   17   16
ENDBRANCH   19   17
ENDBRANCH   20   19
ENDBRANCH   21   20
ENDBRANCH   22   21
ENDBRANCH   23   22
ENDBRANCH   24   23
ENDBRANCH   25   24
ENDBRANCH   26   25
ENDBRANCH   27   26
ENDBRANCH   29   27
ENDBRANCH   33   32
BRANCH   37   38
ATOM     38  C26 UNL A   1      42.530  26.232  27.816  1.00  0.00    +0.000 C 
ATOM     39  C27 UNL A   1      43.396  26.677  26.806  1.00  0.00    +0.000 C 
ATOM     40  F1  UNL A   1      43.834  27.944  26.801  1.00  0.00    +0.000 F 
ATOM     41  C28 UNL A   1      43.791  25.827  25.775  1.00  0.00    +0.000 C 
ATOM     42  F2  UNL A   1      44.583  26.287  24.795  1.00  0.00    +0.000 F 
ATOM     43  C29 UNL A   1      43.358  24.510  25.753  1.00  0.00    +0.000 C 
ATOM     44  F3  UNL A   1      43.748  23.691  24.766  1.00  0.00    +0.000 F 
ATOM     45  C30 UNL A   1      42.517  24.043  26.751  1.00  0.00    +0.000 C 
ATOM     46  F4  UNL A   1      42.109  22.767  26.741  1.00  0.00    +0.000 F 
ATOM     47  C31 UNL A   1      42.096  24.899  27.766  1.00  0.00    +0.000 C 
ATOM     48  F5  UNL A   1      41.271  24.420  28.710  1.00  0.00    +0.000 F 
ENDBRANCH   37   38
BRANCH   54   55
ATOM     65  F10 UNL A   1      43.775  26.192  35.372  1.00  0.00    +0.000 F 
ATOM     55  C37 UNL A   1      44.942  28.010  34.373  1.00  0.00    +0.000 C 
ATOM     56  C38 UNL A   1      46.117  28.776  34.337  1.00  0.00    +0.000 C 
ATOM     57  F6  UNL A   1      46.235  29.789  33.465  1.00  0.00    +0.000 F 
ATOM     58  C39 UNL A   1      47.193  28.477  35.169  1.00  0.00    +0.000 C 
ATOM     59  F7  UNL A   1      48.324  29.190  35.081  1.00  0.00    +0.000 F 
ATOM     60  C40 UNL A   1      47.102  27.434  36.077  1.00  0.00    +0.000 C 
ATOM     61  F8  UNL A   1      48.135  27.152  36.884  1.00  0.00    +0.000 F 
ATOM     62  C41 UNL A   1      45.942  26.676  36.145  1.00  0.00    +0.000 C 
ATOM     63  F9  UNL A   1      45.846  25.676  37.033  1.00  0.00    +0.000 F 
ATOM     64  C42 UNL A   1      44.877  26.951  35.292  1.00  0.00    +0.000 C 
ENDBRANCH   54   55
BRANCH   69   70
ATOM     70  C46 UNL A   1      39.298  31.990  35.304  1.00  0.00    +0.000 C 
ATOM     71  C47 UNL A   1      39.645  33.344  35.427  1.00  0.00    +0.000 C 
ATOM     72  F11 UNL A   1      40.450  33.912  34.519  1.00  0.00    +0.000 F 
ATOM     73  C48 UNL A   1      39.200  34.106  36.505  1.00  0.00    +0.000 C 
ATOM     74  F12 UNL A   1      39.586  35.383  36.623  1.00  0.00    +0.000 F 
ATOM     75  C49 UNL A   1      38.372  33.540  37.463  1.00  0.00    +0.000 C 
ATOM     76  F13 UNL A   1      37.938  34.275  38.496  1.00  0.00    +0.000 F 
ATOM     77  C50 UNL A   1      37.999  32.209  37.351  1.00  0.00    +0.000 C 
ATOM     78  F14 UNL A   1      37.182  31.663  38.264  1.00  0.00    +0.000 F 
ATOM     79  C51 UNL A   1      38.469  31.438  36.292  1.00  0.00    +0.000 C 
ATOM     80  F15 UNL A   1      38.101  30.149  36.217  1.00  0.00    +0.000 F 
ENDBRANCH   69   70
TORSDOF 21
ENDMDL
MODEL 3
REMARK VINA RESULT:     -10.7     20.088     25.616
ROOT
ATOM     33  C22 UNL A   1      52.864  20.134  11.653  1.00  0.00    +0.000 C 
ATOM     34  C23 UNL A   1      52.670  20.756  13.007  1.00  0.00    +0.000 C 
ATOM     35  N6  UNL A   1      53.517  20.855  13.999  1.00  0.00    +0.000 N 
ATOM     36  C24 UNL A   1      52.846  21.542  15.003  1.00  0.00    +0.000 C 
ATOM     37  C25 UNL A   1      53.277  21.843  16.252  1.00  0.00    +0.000 C 
ATOM     49  C32 UNL A   1      54.572  21.487  16.774  1.00  0.00    +0.000 C 
ATOM     50  C33 UNL A   1      55.074  21.690  18.047  1.00  0.00    +0.000 C 
ATOM     51  C34 UNL A   1      56.400  21.244  18.072  1.00  0.00    +0.000 C 
ATOM     52  C35 UNL A   1      56.706  20.708  16.831  1.00  0.00    +0.000 C 
ATOM     53  N7  UNL A   1      55.573  20.860  16.046  1.00  0.00    +0.000 N 
ATOM     54  C36 UNL A   1      57.939  20.105  16.394  1.00  0.00    +0.000 C 
ATOM     66  C43 UNL A   1      58.143  19.563  15.167  1.00  0.00    +0.000 C 
ATOM     67  N8  UNL A   1      57.266  19.474  14.095  1.00  0.00    +0.000 N 
ATOM     68  C44 UNL A   1      57.934  18.888  13.132  1.00  0.00    +0.000 C 
ATOM     69  C45 UNL A   1      57.475  18.517  11.748  1.00  0.00    +0.000 C 
ATOM     81  C52 UNL A   1      56.209  18.793  11.380  1.00  0.00    +0.000 C 
ATOM     82  C53 UNL A   1      55.626  18.495  10.077  1.00  0.00    +0.000 C 
ATOM     83  C54 UNL A   1      54.371  18.968  10.040  1.00  0.00    +0.000 C 
ATOM     84  C55 UNL A   1      54.044  19.566  11.337  1.00  0.00    +0.000 C 
ATOM     85  N9  UNL A   1      55.191  19.405  12.073  1.00  0.00    +0.000 N 
ATOM     86  C56 UNL A   1      59.324  18.558  13.479  1.00  0.00    +0.000 C 
ATOM     87  C57 UNL A   1      59.385  18.952  14.743  1.00  0.00    +0.000 C 
ATOM     88  C58 UNL A   1      51.540  21.881  14.481  1.00  0.00    +0.000 C 
ATOM     89  C59 UNL A   1      51.359  21.368  13.272  1.00  0.00    +0.000 C 
ATOM    118  H24 UNL A   1      54.560  22.100  18.842  1.00  0.00    +0.000 H 
ATOM    119  H25 UNL A   1      57.042  21.303  18.878  1.00  0.00    +0.000 H 
ATOM    120  H26 UNL A   1      55.493  20.567  15.109  1.00  0.00    +0.000 H 
ATOM    121  H27 UNL A   1      56.102  17.999   9.307  1.00  0.00    +0.000 H 
ATOM    122  H28 UNL A   1      53.737  18.919   9.227  1.00  0.00    +0.000 H 
ATOM    123  H29 UNL A   1      55.278  19.700  13.008  1.00  0.00    +0.000 H 
ATOM    124  H30 UNL A   1      60.058  18.131  12.892  1.00  0.00    +0.000 H 
ATOM    125  H31 UNL A   1      60.214  18.838  15.348  1.00  0.00    +0.000 H 
ATOM    126  H32 UNL A   1      50.841  22.450  14.983  1.00  0.00    +0.000 H 
ATOM    127  H33 UNL A   1      50.519  21.392  12.674  1.00  0.00    +0.000 H 
ENDROOT
BRANCH   33   32
ATOM    129  H35 UNL A   1      50.477  22.341   8.388  1.00  0.00    +0.000 H 
ATOM    128  H34 UNL A   1      52.160  22.232  10.130  1.00  0.00    +0.000 H 
ATOM    116  H22 UNL A   1      49.564  18.283   9.003  1.00  0.00    +0.000 H 
ATOM    117  H23 UNL A   1      51.089  18.230  10.889  1.00  0.00    +0.000 H 
ATOM     90  C60 UNL A   1      51.603  21.393   9.899  1.00  0.00    +0.000 C 
ATOM     91  C61 UNL A   1      50.665  21.448   8.870  1.00  0.00    +0.000 C 
ATOM     29  C18 UNL A   1      49.978  20.291   8.491  1.00  0.00    +0.000 C 
ATOM     30  C19 UNL A   1      50.117  19.119   9.242  1.00  0.00    +0.000 C 
ATOM     31  C20 UNL A   1      51.009  19.084  10.317  1.00  0.00    +0.000 C 
ATOM     32  C21 UNL A   1      51.797  20.207  10.623  1.00  0.00    +0.000 C 
BRANCH   29   27
ATOM     27  C17 UNL A   1      49.092  20.272   7.306  1.00  0.00    +0.000 C 
ATOM     28  O5  UNL A   1      48.410  21.258   7.043  1.00  0.00    +0.000 O 
BRANCH   27   26
ATOM     26  N5  UNL A   1      49.010  19.150   6.518  1.00  0.00    +0.000 N 
ATOM    115  H21 UNL A   1      49.857  18.872   6.098  1.00  0.00    +0.000 H 
BRANCH   26   25
ATOM     25  C16 UNL A   1      47.865  18.311   6.210  1.00  0.00    +0.000 C 
ATOM    114  H20 UNL A   1      47.067  18.605   6.860  1.00  0.00    +0.000 H 
ATOM    113  H19 UNL A   1      48.142  17.288   6.357  1.00  0.00    +0.000 H 
BRANCH   25   24
ATOM    112  H18 UNL A   1      46.686  17.679   4.609  1.00  0.00    +0.000 H 
ATOM    111  H17 UNL A   1      48.230  18.462   4.133  1.00  0.00    +0.000 H 
ATOM     24  C15 UNL A   1      47.375  18.481   4.775  1.00  0.00    +0.000 C 
BRANCH   24   23
ATOM    109  H15 UNL A   1      46.413  20.255   5.416  1.00  0.00    +0.000 H 
ATOM    110  H16 UNL A   1      47.205  20.318   3.800  1.00  0.00    +0.000 H 
ATOM     23  C14 UNL A   1      46.594  19.764   4.482  1.00  0.00    +0.000 C 
BRANCH   23   22
ATOM    107  H13 UNL A   1      45.391  18.931   2.952  1.00  0.00    +0.000 H 
ATOM    108  H14 UNL A   1      44.577  19.236   4.528  1.00  0.00    +0.000 H 
ATOM     22  C13 UNL A   1      45.246  19.598   3.776  1.00  0.00    +0.000 C 
BRANCH   22   21
ATOM    105  H11 UNL A   1      43.652  20.987   3.726  1.00  0.00    +0.000 H 
ATOM    106  H12 UNL A   1      45.301  21.651   3.430  1.00  0.00    +0.000 H 
ATOM     21  C12 UNL A   1      44.596  20.870   3.235  1.00  0.00    +0.000 C 
BRANCH   21   20
ATOM     20  C11 UNL A   1      44.344  20.923   1.733  1.00  0.00    +0.000 C 
ATOM    103  H9  UNL A   1      44.989  21.666   1.311  1.00  0.00    +0.000 H 
ATOM    104  H10 UNL A   1      44.539  19.940   1.355  1.00  0.00    +0.000 H 
BRANCH   20   19
ATOM     19  N4  UNL A   1      42.976  21.246   1.364  1.00  0.00    +0.000 N 
ATOM    102  H8  UNL A   1      42.734  22.194   1.473  1.00  0.00    +0.000 H 
BRANCH   19   17
ATOM     17  C10 UNL A   1      41.961  20.444   0.888  1.00  0.00    +0.000 C 
ATOM     18  O4  UNL A   1      41.982  20.091  -0.294  1.00  0.00    +0.000 O 
BRANCH   17   16
ATOM    130  H36 UNL A   1      39.322  21.097   1.010  1.00  0.00    +0.000 H 
ATOM     99  H5  UNL A   1      38.317  18.826   4.390  1.00  0.00    +0.000 H 
ATOM    100  H6  UNL A   1      40.423  17.634   4.190  1.00  0.00    +0.000 H 
ATOM     11  C5  UNL A   1      38.682  20.138   2.778  1.00  0.00    +0.000 C 
ATOM     12  C6  UNL A   1      38.995  19.100   3.662  1.00  0.00    +0.000 C 
ATOM     13  C7  UNL A   1      40.220  18.431   3.568  1.00  0.00    +0.000 C 
ATOM     14  C8  UNL A   1      41.166  18.847   2.632  1.00  0.00    +0.000 C 
ATOM     16  C9  UNL A   1      40.886  19.905   1.759  1.00  0.00    +0.000 C 
ATOM     92  C62 UNL A   1      39.601  20.451   1.766  1.00  0.00    +0.000 C 
BRANCH   11   10
ATOM     10  N3  UNL A   1      37.495  20.886   2.972  1.00  0.00    +0.000 N 
BRANCH   10    9
ATOM      9  N2  UNL A   1      36.521  20.276   2.471  1.00  0.00    +0.000 N 
BRANCH    9    8
ATOM     97  H3  UNL A   1      36.369  20.301  -2.058  1.00  0.00    +0.000 H 
ATOM     98  H4  UNL A   1      36.895  19.274   0.079  1.00  0.00    +0.000 H 
ATOM    131  H37 UNL A   1      35.206  22.561   2.085  1.00  0.00    +0.000 H 
ATOM    132  H38 UNL A   1      34.689  23.602  -0.046  1.00  0.00    +0.000 H 
ATOM      5  C1  UNL A   1      35.495  22.029  -1.207  1.00  0.00    +0.000 C 
ATOM      6  C2  UNL A   1      36.124  20.782  -1.179  1.00  0.00    +0.000 C 
ATOM      7  C3  UNL A   1      36.422  20.191   0.055  1.00  0.00    +0.000 C 
ATOM      8  C4  UNL A   1      36.084  20.828   1.256  1.00  0.00    +0.000 C 
ATOM     93  C63 UNL A   1      35.454  22.079   1.207  1.00  0.00    +0.000 C 
ATOM     94  C64 UNL A   1      35.156  22.682  -0.019  1.00  0.00    +0.000 C 
BRANCH    5    2
ATOM      2  S1  UNL A   1      35.139  22.800  -2.759  1.00  0.00    +0.000 S 
ATOM      3  O1  UNL A   1      35.747  24.108  -2.785  1.00  0.00    +0.000 O 
ATOM      4  O2  UNL A   1      33.746  22.574  -3.071  1.00  0.00    +0.000 O 
BRANCH    2    1
ATOM      1  N1  UNL A   1      36.025  21.883  -3.857  1.00  0.00    +0.000 N 
ATOM     95  H1  UNL A   1      35.756  22.136  -4.807  1.00  0.00    +0.000 H 
ATOM     96  H2  UNL A   1      35.838  20.893  -3.702  1.00  0.00    +0.000 H 
ENDBRANCH    2    1
ENDBRANCH    5    2
ENDBRANCH    9    8
ENDBRANCH   10    9
ENDBRANCH   11   10
BRANCH   14   15
ATOM    101  H7  UNL A   1      42.859  18.108   1.842  1.00  0.00    +0.000 H 
ATOM     15  O3  UNL A   1      42.360  18.175   2.632  1.00  0.00    +0.000 O 
ENDBRANCH   14   15
ENDBRANCH   17   16
ENDBRANCH   19   17
ENDBRANCH   20   19
ENDBRANCH   21   20
ENDBRANCH   22   21
ENDBRANCH   23   22
ENDBRANCH   24   23
ENDBRANCH   25   24
ENDBRANCH   26   25
ENDBRANCH   27   26
ENDBRANCH   29   27
ENDBRANCH   33   32
BRANCH   37   38
ATOM     38  C26 UNL A   1      52.342  22.605  17.149  1.00  0.00    +0.000 C 
ATOM     39  C27 UNL A   1      51.556  21.958  18.114  1.00  0.00    +0.000 C 
ATOM     40  F1  UNL A   1      51.577  20.621  18.219  1.00  0.00    +0.000 F 
ATOM     41  C28 UNL A   1      50.716  22.683  18.957  1.00  0.00    +0.000 C 
ATOM     42  F2  UNL A   1      49.939  22.039  19.841  1.00  0.00    +0.000 F 
ATOM     43  C29 UNL A   1      50.673  24.066  18.877  1.00  0.00    +0.000 C 
ATOM     44  F3  UNL A   1      49.873  24.762  19.697  1.00  0.00    +0.000 F 
ATOM     45  C30 UNL A   1      51.456  24.728  17.943  1.00  0.00    +0.000 C 
ATOM     46  F4  UNL A   1      51.428  26.065  17.873  1.00  0.00    +0.000 F 
ATOM     47  C31 UNL A   1      52.273  24.004  17.078  1.00  0.00    +0.000 C 
ATOM     48  F5  UNL A   1      53.008  24.673  16.177  1.00  0.00    +0.000 F 
ENDBRANCH   37   38
BRANCH   54   55
ATOM     65  F10 UNL A   1      58.598  17.780  17.898  1.00  0.00    +0.000 F 
ATOM     55  C37 UNL A   1      59.080  20.050  17.368  1.00  0.00    +0.000 C 
ATOM     56  C38 UNL A   1      59.888  21.170  17.615  1.00  0.00    +0.000 C 
ATOM     57  F6  UNL A   1      59.687  22.310  16.938  1.00  0.00    +0.000 F 
ATOM     58  C39 UNL A   1      60.937  21.109  18.530  1.00  0.00    +0.000 C 
ATOM     59  F7  UNL A   1      61.728  22.175  18.712  1.00  0.00    +0.000 F 
ATOM     60  C40 UNL A   1      61.173  19.943  19.242  1.00  0.00    +0.000 C 
ATOM     61  F8  UNL A   1      62.176  19.888  20.129  1.00  0.00    +0.000 F 
ATOM     62  C41 UNL A   1      60.372  18.830  19.030  1.00  0.00    +0.000 C 
ATOM     63  F9  UNL A   1      60.589  17.706  19.728  1.00  0.00    +0.000 F 
ATOM     64  C42 UNL A   1      59.345  18.877  18.091  1.00  0.00    +0.000 C 
ENDBRANCH   54   55
BRANCH   69   70
ATOM     70  C46 UNL A   1      58.397  17.852  10.790  1.00  0.00    +0.000 C 
ATOM     71  C47 UNL A   1      58.502  16.454  10.742  1.00  0.00    +0.000 C 
ATOM     72  F11 UNL A   1      57.775  15.700  11.578  1.00  0.00    +0.000 F 
ATOM     73  C48 UNL A   1      59.385  15.829   9.864  1.00  0.00    +0.000 C 
ATOM     74  F12 UNL A   1      59.500  14.494   9.872  1.00  0.00    +0.000 F 
ATOM     75  C49 UNL A   1      60.154  16.586   8.993  1.00  0.00    +0.000 C 
ATOM     76  F13 UNL A   1      60.998  15.984   8.143  1.00  0.00    +0.000 F 
ATOM     77  C50 UNL A   1      60.052  17.969   9.008  1.00  0.00    +0.000 C 
ATOM     78  F14 UNL A   1      60.778  18.705   8.155  1.00  0.00    +0.000 F 
ATOM     79  C51 UNL A   1      59.194  18.597   9.908  1.00  0.00    +0.000 C 
ATOM     80  F15 UNL A   1      59.125  19.937   9.909  1.00  0.00    +0.000 F 
ENDBRANCH   69   70
TORSDOF 21
ENDMDL
MODEL 4
REMARK VINA RESULT:     -10.7     37.401     42.647
ROOT
ATOM     33  C22 UNL A   1      14.088  53.753   5.066  1.00  0.00    +0.000 C 
ATOM     34  C23 UNL A   1      15.041  54.197   3.993  1.00  0.00    +0.000 C 
ATOM     35  N6  UNL A   1      15.533  53.514   2.991  1.00  0.00    +0.000 N 
ATOM     36  C24 UNL A   1      16.334  54.402   2.284  1.00  0.00    +0.000 C 
ATOM     37  C25 UNL A   1      17.108  54.161   1.199  1.00  0.00    +0.000 C 
ATOM     49  C32 UNL A   1      17.232  52.875   0.559  1.00  0.00    +0.000 C 
ATOM     50  C33 UNL A   1      18.041  52.516  -0.505  1.00  0.00    +0.000 C 
ATOM     51  C34 UNL A   1      17.773  51.182  -0.828  1.00  0.00    +0.000 C 
ATOM     52  C35 UNL A   1      16.841  50.691   0.071  1.00  0.00    +0.000 C 
ATOM     53  N7  UNL A   1      16.521  51.740   0.920  1.00  0.00    +0.000 N 
ATOM     54  C36 UNL A   1      16.282  49.366   0.150  1.00  0.00    +0.000 C 
ATOM     66  C43 UNL A   1      15.400  48.952   1.094  1.00  0.00    +0.000 C 
ATOM     67  N8  UNL A   1      14.846  49.670   2.145  1.00  0.00    +0.000 N 
ATOM     68  C44 UNL A   1      14.040  48.840   2.761  1.00  0.00    +0.000 C 
ATOM     69  C45 UNL A   1      13.191  49.072   3.981  1.00  0.00    +0.000 C 
ATOM     81  C52 UNL A   1      13.219  50.278   4.580  1.00  0.00    +0.000 C 
ATOM     82  C53 UNL A   1      12.452  50.649   5.765  1.00  0.00    +0.000 C 
ATOM     83  C54 UNL A   1      12.674  51.943   6.043  1.00  0.00    +0.000 C 
ATOM     84  C55 UNL A   1      13.635  52.484   5.080  1.00  0.00    +0.000 C 
ATOM     85  N9  UNL A   1      13.912  51.421   4.257  1.00  0.00    +0.000 N 
ATOM     86  C56 UNL A   1      13.973  47.504   2.153  1.00  0.00    +0.000 C 
ATOM     87  C57 UNL A   1      14.853  47.614   1.167  1.00  0.00    +0.000 C 
ATOM     88  C58 UNL A   1      16.220  55.687   2.942  1.00  0.00    +0.000 C 
ATOM     89  C59 UNL A   1      15.478  55.601   4.037  1.00  0.00    +0.000 C 
ATOM    118  H24 UNL A   1      18.724  53.128  -0.979  1.00  0.00    +0.000 H 
ATOM    119  H25 UNL A   1      18.199  50.653  -1.606  1.00  0.00    +0.000 H 
ATOM    120  H26 UNL A   1      15.882  51.686   1.667  1.00  0.00    +0.000 H 
ATOM    121  H27 UNL A   1      11.839  50.017   6.303  1.00  0.00    +0.000 H 
ATOM    122  H28 UNL A   1      12.235  52.473   6.813  1.00  0.00    +0.000 H 
ATOM    123  H29 UNL A   1      14.547  51.471   3.506  1.00  0.00    +0.000 H 
ATOM    124  H30 UNL A   1      13.394  46.693   2.422  1.00  0.00    +0.000 H 
ATOM    125  H31 UNL A   1      15.113  46.843   0.532  1.00  0.00    +0.000 H 
ATOM    126  H32 UNL A   1      16.658  56.557   2.601  1.00  0.00    +0.000 H 
ATOM    127  H33 UNL A   1      15.264  56.328   4.737  1.00  0.00    +0.000 H 
ENDROOT
BRANCH   33   32
ATOM    129  H35 UNL A   1      10.938  56.726   6.637  1.00  0.00    +0.000 H 
ATOM    128  H34 UNL A   1      11.835  55.212   4.968  1.00  0.00    +0.000 H 
ATOM    116  H22 UNL A   1      14.194  55.886   9.162  1.00  0.00    +0.000 H 
ATOM    117  H23 UNL A   1      15.202  54.545   7.409  1.00  0.00    +0.000 H 
ATOM     90  C60 UNL A   1      12.343  55.361   5.855  1.00  0.00    +0.000 C 
ATOM     91  C61 UNL A   1      11.805  56.200   6.829  1.00  0.00    +0.000 C 
ATOM     29  C18 UNL A   1      12.442  56.328   8.066  1.00  0.00    +0.000 C 
ATOM     30  C19 UNL A   1      13.694  55.740   8.272  1.00  0.00    +0.000 C 
ATOM     31  C20 UNL A   1      14.265  54.954   7.269  1.00  0.00    +0.000 C 
ATOM     32  C21 UNL A   1      13.571  54.716   6.071  1.00  0.00    +0.000 C 
BRANCH   29   27
ATOM     27  C17 UNL A   1      11.822  57.083   9.179  1.00  0.00    +0.000 C 
ATOM     28  O5  UNL A   1      11.794  58.310   9.137  1.00  0.00    +0.000 O 
BRANCH   27   26
ATOM     26  N5  UNL A   1      11.307  56.421  10.266  1.00  0.00    +0.000 N 
ATOM    115  H21 UNL A   1      11.183  56.975  11.071  1.00  0.00    +0.000 H 
BRANCH   26   25
ATOM     25  C16 UNL A   1      10.915  55.030  10.408  1.00  0.00    +0.000 C 
ATOM    114  H20 UNL A   1      11.008  54.569   9.447  1.00  0.00    +0.000 H 
ATOM    113  H19 UNL A   1       9.909  54.993  10.772  1.00  0.00    +0.000 H 
BRANCH   25   24
ATOM    112  H18 UNL A   1      11.158  53.600  11.908  1.00  0.00    +0.000 H 
ATOM    111  H17 UNL A   1      12.313  54.971  11.994  1.00  0.00    +0.000 H 
ATOM     24  C15 UNL A   1      11.810  54.259  11.375  1.00  0.00    +0.000 C 
BRANCH   24   23
ATOM    109  H15 UNL A   1      12.534  52.348  10.817  1.00  0.00    +0.000 H 
ATOM    110  H16 UNL A   1      12.971  53.714   9.729  1.00  0.00    +0.000 H 
ATOM     23  C14 UNL A   1      12.871  53.361  10.734  1.00  0.00    +0.000 C 
BRANCH   23   22
ATOM    107  H13 UNL A   1      14.944  52.938  10.656  1.00  0.00    +0.000 H 
ATOM    108  H14 UNL A   1      14.475  54.476  11.466  1.00  0.00    +0.000 H 
ATOM     22  C13 UNL A   1      14.278  53.433  11.332  1.00  0.00    +0.000 C 
BRANCH   22   21
ATOM    105  H11 UNL A   1      14.828  53.568  13.369  1.00  0.00    +0.000 H 
ATOM    106  H12 UNL A   1      13.509  52.407  12.974  1.00  0.00    +0.000 H 
ATOM     21  C12 UNL A   1      14.467  52.806  12.712  1.00  0.00    +0.000 C 
BRANCH   21   20
ATOM     20  C11 UNL A   1      15.430  51.627  12.800  1.00  0.00    +0.000 C 
ATOM    103  H9  UNL A   1      15.929  51.672  13.746  1.00  0.00    +0.000 H 
ATOM    104  H10 UNL A   1      14.840  50.741  12.682  1.00  0.00    +0.000 H 
BRANCH   20   19
ATOM     19  N4  UNL A   1      16.439  51.596  11.754  1.00  0.00    +0.000 N 
ATOM    102  H8  UNL A   1      16.727  52.481  11.435  1.00  0.00    +0.000 H 
BRANCH   19   17
ATOM     17  C10 UNL A   1      17.059  50.532  11.136  1.00  0.00    +0.000 C 
ATOM     18  O4  UNL A   1      18.056  50.032  11.662  1.00  0.00    +0.000 O 
BRANCH   17   16
ATOM    130  H36 UNL A   1      14.923  48.876  10.815  1.00  0.00    +0.000 H 
ATOM     99  H5  UNL A   1      15.546  47.900   6.783  1.00  0.00    +0.000 H 
ATOM    100  H6  UNL A   1      17.131  49.729   6.606  1.00  0.00    +0.000 H 
ATOM     11  C5  UNL A   1      15.173  48.163   8.844  1.00  0.00    +0.000 C 
ATOM     12  C6  UNL A   1      15.786  48.453   7.620  1.00  0.00    +0.000 C 
ATOM     13  C7  UNL A   1      16.722  49.488   7.522  1.00  0.00    +0.000 C 
ATOM     14  C8  UNL A   1      17.101  50.191   8.665  1.00  0.00    +0.000 C 
ATOM     16  C9  UNL A   1      16.524  49.895   9.906  1.00  0.00    +0.000 C 
ATOM     92  C62 UNL A   1      15.480  48.969   9.951  1.00  0.00    +0.000 C 
BRANCH   11   10
ATOM     10  N3  UNL A   1      14.328  47.031   8.950  1.00  0.00    +0.000 N 
BRANCH   10    9
ATOM      9  N2  UNL A   1      13.440  47.244   9.810  1.00  0.00    +0.000 N 
BRANCH    9    8
ATOM     97  H3  UNL A   1      10.010  49.347   7.725  1.00  0.00    +0.000 H 
ATOM     98  H4  UNL A   1      12.320  49.189   8.460  1.00  0.00    +0.000 H 
ATOM    131  H37 UNL A   1      11.579  45.346   9.997  1.00  0.00    +0.000 H 
ATOM    132  H38 UNL A   1       9.265  45.500   9.279  1.00  0.00    +0.000 H 
ATOM      5  C1  UNL A   1       9.469  47.436   8.454  1.00  0.00    +0.000 C 
ATOM      6  C2  UNL A   1      10.342  48.498   8.210  1.00  0.00    +0.000 C 
ATOM      7  C3  UNL A   1      11.674  48.402   8.630  1.00  0.00    +0.000 C 
ATOM      8  C4  UNL A   1      12.141  47.251   9.279  1.00  0.00    +0.000 C 
ATOM     93  C63 UNL A   1      11.248  46.196   9.515  1.00  0.00    +0.000 C 
ATOM     94  C64 UNL A   1       9.915  46.282   9.104  1.00  0.00    +0.000 C 
BRANCH    5    2
ATOM      2  S1  UNL A   1       7.775  47.556   7.952  1.00  0.00    +0.000 S 
ATOM      3  O1  UNL A   1       6.992  48.054   9.057  1.00  0.00    +0.000 O 
ATOM      4  O2  UNL A   1       7.431  46.358   7.222  1.00  0.00    +0.000 O 
BRANCH    2    1
ATOM      1  N1  UNL A   1       7.795  48.808   6.828  1.00  0.00    +0.000 N 
ATOM     95  H1  UNL A   1       6.847  48.976   6.491  1.00  0.00    +0.000 H 
ATOM     96  H2  UNL A   1       8.395  48.552   6.045  1.00  0.00    +0.000 H 
ENDBRANCH    2    1
ENDBRANCH    5    2
ENDBRANCH    9    8
ENDBRANCH   10    9
ENDBRANCH   11   10
BRANCH   14   15
ATOM    101  H7  UNL A   1      18.790  50.999   7.934  1.00  0.00    +0.000 H 
ATOM     15  O3  UNL A   1      18.058  51.157   8.497  1.00  0.00    +0.000 O 
ENDBRANCH   14   15
ENDBRANCH   17   16
ENDBRANCH   19   17
ENDBRANCH   20   19
ENDBRANCH   21   20
ENDBRANCH   22   21
ENDBRANCH   23   22
ENDBRANCH   24   23
ENDBRANCH   25   24
ENDBRANCH   26   25
ENDBRANCH   27   26
ENDBRANCH   29   27
ENDBRANCH   33   32
BRANCH   37   38
ATOM     38  C26 UNL A   1      17.883  55.312   0.621  1.00  0.00    +0.000 C 
ATOM     39  C27 UNL A   1      17.393  56.062  -0.458  1.00  0.00    +0.000 C 
ATOM     40  F1  UNL A   1      16.234  55.727  -1.044  1.00  0.00    +0.000 F 
ATOM     41  C28 UNL A   1      18.111  57.144  -0.962  1.00  0.00    +0.000 C 
ATOM     42  F2  UNL A   1      17.645  57.819  -2.023  1.00  0.00    +0.000 F 
ATOM     43  C29 UNL A   1      19.310  57.519  -0.377  1.00  0.00    +0.000 C 
ATOM     44  F3  UNL A   1      19.994  58.568  -0.856  1.00  0.00    +0.000 F 
ATOM     45  C30 UNL A   1      19.805  56.803   0.703  1.00  0.00    +0.000 C 
ATOM     46  F4  UNL A   1      20.956  57.171   1.280  1.00  0.00    +0.000 F 
ATOM     47  C31 UNL A   1      19.105  55.702   1.189  1.00  0.00    +0.000 C 
ATOM     48  F5  UNL A   1      19.616  55.022   2.227  1.00  0.00    +0.000 F 
ENDBRANCH   37   38
BRANCH   54   55
ATOM     65  F10 UNL A   1      18.744  47.945   0.308  1.00  0.00    +0.000 F 
ATOM     55  C37 UNL A   1      16.718  48.355  -0.872  1.00  0.00    +0.000 C 
ATOM     56  C38 UNL A   1      15.933  48.065  -1.998  1.00  0.00    +0.000 C 
ATOM     57  F6  UNL A   1      14.738  48.653  -2.158  1.00  0.00    +0.000 F 
ATOM     58  C39 UNL A   1      16.354  47.135  -2.945  1.00  0.00    +0.000 C 
ATOM     59  F7  UNL A   1      15.564  46.835  -3.985  1.00  0.00    +0.000 F 
ATOM     60  C40 UNL A   1      17.583  46.507  -2.806  1.00  0.00    +0.000 C 
ATOM     61  F8  UNL A   1      17.991  45.618  -3.722  1.00  0.00    +0.000 F 
ATOM     62  C41 UNL A   1      18.385  46.795  -1.711  1.00  0.00    +0.000 C 
ATOM     63  F9  UNL A   1      19.579  46.200  -1.582  1.00  0.00    +0.000 F 
ATOM     64  C42 UNL A   1      17.952  47.699  -0.746  1.00  0.00    +0.000 C 
ENDBRANCH   54   55
BRANCH   69   70
ATOM     70  C46 UNL A   1      12.330  47.991   4.530  1.00  0.00    +0.000 C 
ATOM     71  C47 UNL A   1      12.860  47.005   5.375  1.00  0.00    +0.000 C 
ATOM     72  F11 UNL A   1      14.164  47.022   5.685  1.00  0.00    +0.000 F 
ATOM     73  C48 UNL A   1      12.062  45.976   5.869  1.00  0.00    +0.000 C 
ATOM     74  F12 UNL A   1      12.605  45.020   6.635  1.00  0.00    +0.000 F 
ATOM     75  C49 UNL A   1      10.712  45.931   5.556  1.00  0.00    +0.000 C 
ATOM     76  F13 UNL A   1       9.942  44.945   6.038  1.00  0.00    +0.000 F 
ATOM     77  C50 UNL A   1      10.161  46.907   4.740  1.00  0.00    +0.000 C 
ATOM     78  F14 UNL A   1       8.852  46.880   4.451  1.00  0.00    +0.000 F 
ATOM     79  C51 UNL A   1      10.964  47.918   4.219  1.00  0.00    +0.000 C 
ATOM     80  F15 UNL A   1      10.406  48.842   3.421  1.00  0.00    +0.000 F 
ENDBRANCH   69   70
TORSDOF 21
ENDMDL
MODEL 5
REMARK VINA RESULT:     -10.4      3.357      6.397
ROOT
ATOM     33  C22 UNL A   1      40.646  27.938  28.737  1.00  0.00    +0.000 C 
ATOM     34  C23 UNL A   1      42.061  28.068  29.226  1.00  0.00    +0.000 C 
ATOM     35  N6  UNL A   1      42.615  29.043  29.900  1.00  0.00    +0.000 N 
ATOM     36  C24 UNL A   1      43.929  28.650  30.123  1.00  0.00    +0.000 C 
ATOM     37  C25 UNL A   1      44.926  29.341  30.727  1.00  0.00    +0.000 C 
ATOM     49  C32 UNL A   1      44.781  30.668  31.272  1.00  0.00    +0.000 C 
ATOM     50  C33 UNL A   1      45.749  31.475  31.843  1.00  0.00    +0.000 C 
ATOM     51  C34 UNL A   1      45.131  32.647  32.293  1.00  0.00    +0.000 C 
ATOM     52  C35 UNL A   1      43.790  32.597  31.950  1.00  0.00    +0.000 C 
ATOM     53  N7  UNL A   1      43.590  31.378  31.319  1.00  0.00    +0.000 N 
ATOM     54  C36 UNL A   1      42.767  33.584  32.180  1.00  0.00    +0.000 C 
ATOM     66  C43 UNL A   1      41.479  33.474  31.771  1.00  0.00    +0.000 C 
ATOM     67  N8  UNL A   1      40.867  32.437  31.081  1.00  0.00    +0.000 N 
ATOM     68  C44 UNL A   1      39.613  32.789  30.939  1.00  0.00    +0.000 C 
ATOM     69  C45 UNL A   1      38.494  32.057  30.252  1.00  0.00    +0.000 C 
ATOM     81  C52 UNL A   1      38.745  30.866  29.674  1.00  0.00    +0.000 C 
ATOM     82  C53 UNL A   1      37.763  30.044  28.976  1.00  0.00    +0.000 C 
ATOM     83  C54 UNL A   1      38.347  28.899  28.590  1.00  0.00    +0.000 C 
ATOM     84  C55 UNL A   1      39.760  28.925  28.974  1.00  0.00    +0.000 C 
ATOM     85  N9  UNL A   1      39.908  30.137  29.602  1.00  0.00    +0.000 N 
ATOM     86  C56 UNL A   1      39.280  34.086  31.547  1.00  0.00    +0.000 C 
ATOM     87  C57 UNL A   1      40.462  34.479  32.003  1.00  0.00    +0.000 C 
ATOM     88  C58 UNL A   1      44.074  27.325  29.559  1.00  0.00    +0.000 C 
ATOM     89  C59 UNL A   1      42.965  26.943  28.941  1.00  0.00    +0.000 C 
ATOM    118  H24 UNL A   1      46.753  31.251  31.924  1.00  0.00    +0.000 H 
ATOM    119  H25 UNL A   1      45.597  33.419  32.796  1.00  0.00    +0.000 H 
ATOM    120  H26 UNL A   1      42.729  31.063  30.960  1.00  0.00    +0.000 H 
ATOM    121  H27 UNL A   1      36.778  30.301  28.807  1.00  0.00    +0.000 H 
ATOM    122  H28 UNL A   1      37.875  28.123  28.099  1.00  0.00    +0.000 H 
ATOM    123  H29 UNL A   1      40.766  30.454  29.966  1.00  0.00    +0.000 H 
ATOM    124  H30 UNL A   1      38.368  34.564  31.603  1.00  0.00    +0.000 H 
ATOM    125  H31 UNL A   1      40.634  35.386  32.464  1.00  0.00    +0.000 H 
ATOM    126  H32 UNL A   1      44.929  26.752  29.629  1.00  0.00    +0.000 H 
ATOM    127  H33 UNL A   1      42.783  26.083  28.402  1.00  0.00    +0.000 H 
ENDROOT
BRANCH   33   32
ATOM    129  H35 UNL A   1      40.419  25.093  25.121  1.00  0.00    +0.000 H 
ATOM    128  H34 UNL A   1      41.096  27.151  26.209  1.00  0.00    +0.000 H 
ATOM    116  H22 UNL A   1      38.598  23.798  28.683  1.00  0.00    +0.000 H 
ATOM    117  H23 UNL A   1      39.083  25.945  29.706  1.00  0.00    +0.000 H 
ATOM     90  C60 UNL A   1      40.557  26.444  26.734  1.00  0.00    +0.000 C 
ATOM     91  C61 UNL A   1      40.204  25.245  26.119  1.00  0.00    +0.000 C 
ATOM     29  C18 UNL A   1      39.559  24.248  26.855  1.00  0.00    +0.000 C 
ATOM     30  C19 UNL A   1      39.130  24.510  28.160  1.00  0.00    +0.000 C 
ATOM     31  C20 UNL A   1      39.425  25.739  28.754  1.00  0.00    +0.000 C 
ATOM     32  C21 UNL A   1      40.185  26.698  28.063  1.00  0.00    +0.000 C 
BRANCH   29   27
ATOM     27  C17 UNL A   1      39.308  22.905  26.284  1.00  0.00    +0.000 C 
ATOM     28  O5  UNL A   1      40.230  22.098  26.206  1.00  0.00    +0.000 O 
BRANCH   27   26
ATOM     26  N5  UNL A   1      38.061  22.571  25.816  1.00  0.00    +0.000 N 
ATOM    115  H21 UNL A   1      37.760  21.661  26.046  1.00  0.00    +0.000 H 
BRANCH   26   25
ATOM     25  C16 UNL A   1      37.119  23.354  25.036  1.00  0.00    +0.000 C 
ATOM    114  H20 UNL A   1      36.758  22.729  24.246  1.00  0.00    +0.000 H 
ATOM    113  H19 UNL A   1      37.623  24.220  24.660  1.00  0.00    +0.000 H 
BRANCH   25   24
ATOM    112  H18 UNL A   1      36.304  24.438  26.622  1.00  0.00    +0.000 H 
ATOM    111  H17 UNL A   1      35.409  22.936  26.209  1.00  0.00    +0.000 H 
ATOM     24  C15 UNL A   1      35.911  23.810  25.850  1.00  0.00    +0.000 C 
BRANCH   24   23
ATOM    109  H15 UNL A   1      33.919  24.441  25.503  1.00  0.00    +0.000 H 
ATOM    110  H16 UNL A   1      35.202  25.679  25.247  1.00  0.00    +0.000 H 
ATOM     23  C14 UNL A   1      34.886  24.667  25.102  1.00  0.00    +0.000 C 
BRANCH   23   22
ATOM    107  H13 UNL A   1      35.679  24.941  23.158  1.00  0.00    +0.000 H 
ATOM    108  H14 UNL A   1      34.759  23.419  23.434  1.00  0.00    +0.000 H 
ATOM     22  C13 UNL A   1      34.815  24.477  23.584  1.00  0.00    +0.000 C 
BRANCH   22   21
ATOM    105  H11 UNL A   1      32.807  25.141  23.609  1.00  0.00    +0.000 H 
ATOM    106  H12 UNL A   1      33.910  25.977  22.457  1.00  0.00    +0.000 H 
ATOM     21  C12 UNL A   1      33.586  25.050  22.881  1.00  0.00    +0.000 C 
BRANCH   21   20
ATOM     20  C11 UNL A   1      33.032  24.245  21.711  1.00  0.00    +0.000 C 
ATOM    103  H9  UNL A   1      32.001  24.504  21.585  1.00  0.00    +0.000 H 
ATOM    104  H10 UNL A   1      33.631  24.492  20.859  1.00  0.00    +0.000 H 
BRANCH   20   19
ATOM     19  N4  UNL A   1      33.121  22.804  21.878  1.00  0.00    +0.000 N 
ATOM    102  H8  UNL A   1      33.823  22.371  21.341  1.00  0.00    +0.000 H 
BRANCH   19   17
ATOM     17  C10 UNL A   1      32.386  21.944  22.665  1.00  0.00    +0.000 C 
ATOM     18  O4  UNL A   1      31.868  20.952  22.146  1.00  0.00    +0.000 O 
BRANCH   17   16
ATOM    130  H36 UNL A   1      30.681  23.492  24.115  1.00  0.00    +0.000 H 
ATOM     99  H5  UNL A   1      32.379  22.843  27.895  1.00  0.00    +0.000 H 
ATOM    100  H6  UNL A   1      33.646  20.983  26.984  1.00  0.00    +0.000 H 
ATOM     11  C5  UNL A   1      31.497  23.396  26.060  1.00  0.00    +0.000 C 
ATOM     12  C6  UNL A   1      32.324  22.630  26.888  1.00  0.00    +0.000 C 
ATOM     13  C7  UNL A   1      33.078  21.576  26.360  1.00  0.00    +0.000 C 
ATOM     14  C8  UNL A   1      33.060  21.330  24.988  1.00  0.00    +0.000 C 
ATOM     16  C9  UNL A   1      32.265  22.106  24.136  1.00  0.00    +0.000 C 
ATOM     92  C62 UNL A   1      31.402  23.046  24.704  1.00  0.00    +0.000 C 
BRANCH   11   10
ATOM     10  N3  UNL A   1      30.844  24.536  26.588  1.00  0.00    +0.000 N 
BRANCH   10    9
ATOM      9  N2  UNL A   1      31.569  25.549  26.437  1.00  0.00    +0.000 N 
BRANCH    9    8
ATOM     97  H3  UNL A   1      28.610  26.862  23.265  1.00  0.00    +0.000 H 
ATOM     98  H4  UNL A   1      29.519  25.245  24.834  1.00  0.00    +0.000 H 
ATOM    131  H37 UNL A   1      32.302  28.097  26.177  1.00  0.00    +0.000 H 
ATOM    132  H38 UNL A   1      31.410  29.716  24.603  1.00  0.00    +0.000 H 
ATOM      5  C1  UNL A   1      29.948  28.405  23.817  1.00  0.00    +0.000 C 
ATOM      6  C2  UNL A   1      29.396  27.123  23.882  1.00  0.00    +0.000 C 
ATOM      7  C3  UNL A   1      29.919  26.196  24.790  1.00  0.00    +0.000 C 
ATOM      8  C4  UNL A   1      30.977  26.542  25.641  1.00  0.00    +0.000 C 
ATOM     93  C63 UNL A   1      31.519  27.833  25.560  1.00  0.00    +0.000 C 
ATOM     94  C64 UNL A   1      31.008  28.766  24.654  1.00  0.00    +0.000 C 
BRANCH    5    2
ATOM      2  S1  UNL A   1      29.315  29.579  22.654  1.00  0.00    +0.000 S 
ATOM      3  O1  UNL A   1      27.969  29.204  22.292  1.00  0.00    +0.000 O 
ATOM      4  O2  UNL A   1      30.344  29.852  21.677  1.00  0.00    +0.000 O 
BRANCH    2    1
ATOM      1  N1  UNL A   1      29.148  30.979  23.572  1.00  0.00    +0.000 N 
ATOM     95  H1  UNL A   1      28.957  30.729  24.542  1.00  0.00    +0.000 H 
ATOM     96  H2  UNL A   1      28.377  31.536  23.205  1.00  0.00    +0.000 H 
ENDBRANCH    2    1
ENDBRANCH    5    2
ENDBRANCH    9    8
ENDBRANCH   10    9
ENDBRANCH   11   10
BRANCH   14   15
ATOM    101  H7  UNL A   1      34.221  20.346  23.676  1.00  0.00    +0.000 H 
ATOM     15  O3  UNL A   1      33.861  20.312  24.540  1.00  0.00    +0.000 O 
ENDBRANCH   14   15
ENDBRANCH   17   16
ENDBRANCH   19   17
ENDBRANCH   20   19
ENDBRANCH   21   20
ENDBRANCH   22   21
ENDBRANCH   23   22
ENDBRANCH   24   23
ENDBRANCH   25   24
ENDBRANCH   26   25
ENDBRANCH   27   26
ENDBRANCH   29   27
ENDBRANCH   33   32
BRANCH   37   38
ATOM     38  C26 UNL A   1      46.269  28.677  30.841  1.00  0.00    +0.000 C 
ATOM     39  C27 UNL A   1      47.246  28.814  29.844  1.00  0.00    +0.000 C 
ATOM     40  F1  UNL A   1      46.978  29.503  28.725  1.00  0.00    +0.000 F 
ATOM     41  C28 UNL A   1      48.496  28.215  29.979  1.00  0.00    +0.000 C 
ATOM     42  F2  UNL A   1      49.399  28.322  28.993  1.00  0.00    +0.000 F 
ATOM     43  C29 UNL A   1      48.806  27.499  31.125  1.00  0.00    +0.000 C 
ATOM     44  F3  UNL A   1      50.014  26.932  31.258  1.00  0.00    +0.000 F 
ATOM     45  C30 UNL A   1      47.862  27.366  32.132  1.00  0.00    +0.000 C 
ATOM     46  F4  UNL A   1      48.163  26.687  33.247  1.00  0.00    +0.000 F 
ATOM     47  C31 UNL A   1      46.601  27.937  31.986  1.00  0.00    +0.000 C 
ATOM     48  F5  UNL A   1      45.705  27.780  32.972  1.00  0.00    +0.000 F 
ENDBRANCH   37   38
BRANCH   54   55
ATOM     65  F10 UNL A   1      42.717  33.824  35.016  1.00  0.00    +0.000 F 
ATOM     55  C37 UNL A   1      43.152  34.840  32.908  1.00  0.00    +0.000 C 
ATOM     56  C38 UNL A   1      43.544  35.997  32.218  1.00  0.00    +0.000 C 
ATOM     57  F6  UNL A   1      43.634  35.987  30.880  1.00  0.00    +0.000 F 
ATOM     58  C39 UNL A   1      43.887  37.159  32.905  1.00  0.00    +0.000 C 
ATOM     59  F7  UNL A   1      44.308  38.236  32.228  1.00  0.00    +0.000 F 
ATOM     60  C40 UNL A   1      43.809  37.199  34.289  1.00  0.00    +0.000 C 
ATOM     61  F8  UNL A   1      44.131  38.321  34.948  1.00  0.00    +0.000 F 
ATOM     62  C41 UNL A   1      43.403  36.073  34.990  1.00  0.00    +0.000 C 
ATOM     63  F9  UNL A   1      43.313  36.114  36.327  1.00  0.00    +0.000 F 
ATOM     64  C42 UNL A   1      43.092  34.900  34.309  1.00  0.00    +0.000 C 
ENDBRANCH   54   55
BRANCH   69   70
ATOM     70  C46 UNL A   1      37.123  32.630  30.202  1.00  0.00    +0.000 C 
ATOM     71  C47 UNL A   1      36.738  33.491  29.164  1.00  0.00    +0.000 C 
ATOM     72  F11 UNL A   1      37.617  33.818  28.207  1.00  0.00    +0.000 F 
ATOM     73  C48 UNL A   1      35.462  34.050  29.129  1.00  0.00    +0.000 C 
ATOM     74  F12 UNL A   1      35.137  34.907  28.152  1.00  0.00    +0.000 F 
ATOM     75  C49 UNL A   1      34.536  33.734  30.111  1.00  0.00    +0.000 C 
ATOM     76  F13 UNL A   1      33.307  34.267  30.073  1.00  0.00    +0.000 F 
ATOM     77  C50 UNL A   1      34.887  32.869  31.136  1.00  0.00    +0.000 C 
ATOM     78  F14 UNL A   1      33.989  32.544  32.077  1.00  0.00    +0.000 F 
ATOM     79  C51 UNL A   1      36.171  32.334  31.190  1.00  0.00    +0.000 C 
ATOM     80  F15 UNL A   1      36.487  31.510  32.201  1.00  0.00    +0.000 F 
ENDBRANCH   69   70
TORSDOF 21
ENDMDL
MODEL 6
REMARK VINA RESULT:     -10.4      3.714      7.263
ROOT
ATOM     33  C22 UNL A   1      40.744  27.959  28.708  1.00  0.00    +0.000 C 
ATOM     34  C23 UNL A   1      42.159  28.121  29.185  1.00  0.00    +0.000 C 
ATOM     35  N6  UNL A   1      42.703  29.119  29.834  1.00  0.00    +0.000 N 
ATOM     36  C24 UNL A   1      44.024  28.750  30.057  1.00  0.00    +0.000 C 
ATOM     37  C25 UNL A   1      45.014  29.469  30.639  1.00  0.00    +0.000 C 
ATOM     49  C32 UNL A   1      44.852  30.805  31.156  1.00  0.00    +0.000 C 
ATOM     50  C33 UNL A   1      45.811  31.639  31.704  1.00  0.00    +0.000 C 
ATOM     51  C34 UNL A   1      45.179  32.811  32.132  1.00  0.00    +0.000 C 
ATOM     52  C35 UNL A   1      43.837  32.733  31.798  1.00  0.00    +0.000 C 
ATOM     53  N7  UNL A   1      43.651  31.498  31.196  1.00  0.00    +0.000 N 
ATOM     54  C36 UNL A   1      42.800  33.710  32.014  1.00  0.00    +0.000 C 
ATOM     66  C43 UNL A   1      41.511  33.572  31.616  1.00  0.00    +0.000 C 
ATOM     67  N8  UNL A   1      40.911  32.510  30.952  1.00  0.00    +0.000 N 
ATOM     68  C44 UNL A   1      39.651  32.841  30.811  1.00  0.00    +0.000 C 
ATOM     69  C45 UNL A   1      38.538  32.077  30.147  1.00  0.00    +0.000 C 
ATOM     81  C52 UNL A   1      38.804  30.878  29.594  1.00  0.00    +0.000 C 
ATOM     82  C53 UNL A   1      37.831  30.026  28.920  1.00  0.00    +0.000 C 
ATOM     83  C54 UNL A   1      38.429  28.882  28.554  1.00  0.00    +0.000 C 
ATOM     84  C55 UNL A   1      39.844  28.938  28.929  1.00  0.00    +0.000 C 
ATOM     85  N9  UNL A   1      39.978  30.165  29.530  1.00  0.00    +0.000 N 
ATOM     86  C56 UNL A   1      39.302  34.145  31.393  1.00  0.00    +0.000 C 
ATOM     87  C57 UNL A   1      40.481  34.566  31.832  1.00  0.00    +0.000 C 
ATOM     88  C58 UNL A   1      44.185  27.415  29.520  1.00  0.00    +0.000 C 
ATOM     89  C59 UNL A   1      43.078  27.004  28.918  1.00  0.00    +0.000 C 
ATOM    118  H24 UNL A   1      46.819  31.432  31.783  1.00  0.00    +0.000 H 
ATOM    119  H25 UNL A   1      45.636  33.601  32.615  1.00  0.00    +0.000 H 
ATOM    120  H26 UNL A   1      42.793  31.162  30.849  1.00  0.00    +0.000 H 
ATOM    121  H27 UNL A   1      36.841  30.264  28.751  1.00  0.00    +0.000 H 
ATOM    122  H28 UNL A   1      37.966  28.088  28.084  1.00  0.00    +0.000 H 
ATOM    123  H29 UNL A   1      40.833  30.502  29.882  1.00  0.00    +0.000 H 
ATOM    124  H30 UNL A   1      38.383  34.611  31.445  1.00  0.00    +0.000 H 
ATOM    125  H31 UNL A   1      40.642  35.485  32.273  1.00  0.00    +0.000 H 
ATOM    126  H32 UNL A   1      45.049  26.857  29.598  1.00  0.00    +0.000 H 
ATOM    127  H33 UNL A   1      42.906  26.129  28.399  1.00  0.00    +0.000 H 
ENDROOT
BRANCH   33   32
ATOM    129  H35 UNL A   1      38.536  23.916  28.733  1.00  0.00    +0.000 H 
ATOM    128  H34 UNL A   1      39.343  25.942  29.793  1.00  0.00    +0.000 H 
ATOM    116  H22 UNL A   1      40.205  25.154  25.077  1.00  0.00    +0.000 H 
ATOM    117  H23 UNL A   1      41.197  27.072  26.185  1.00  0.00    +0.000 H 
ATOM     90  C60 UNL A   1      39.535  25.772  28.793  1.00  0.00    +0.000 C 
ATOM     91  C61 UNL A   1      39.036  24.627  28.176  1.00  0.00    +0.000 C 
ATOM     29  C18 UNL A   1      39.213  24.442  26.802  1.00  0.00    +0.000 C 
ATOM     30  C19 UNL A   1      40.021  25.325  26.077  1.00  0.00    +0.000 C 
ATOM     31  C20 UNL A   1      40.577  26.437  26.712  1.00  0.00    +0.000 C 
ATOM     32  C21 UNL A   1      40.297  26.698  28.064  1.00  0.00    +0.000 C 
BRANCH   29   27
ATOM     27  C17 UNL A   1      38.567  23.321  26.084  1.00  0.00    +0.000 C 
ATOM     28  O5  UNL A   1      39.105  22.218  26.072  1.00  0.00    +0.000 O 
BRANCH   27   26
ATOM     26  N5  UNL A   1      37.386  23.516  25.411  1.00  0.00    +0.000 N 
ATOM    115  H21 UNL A   1      37.472  23.598  24.433  1.00  0.00    +0.000 H 
BRANCH   26   25
ATOM     25  C16 UNL A   1      36.030  23.620  25.921  1.00  0.00    +0.000 C 
ATOM    114  H20 UNL A   1      36.085  24.063  26.893  1.00  0.00    +0.000 H 
ATOM    113  H19 UNL A   1      35.601  22.639  25.953  1.00  0.00    +0.000 H 
BRANCH   25   24
ATOM    112  H18 UNL A   1      34.642  23.852  24.380  1.00  0.00    +0.000 H 
ATOM    111  H17 UNL A   1      35.765  25.238  24.585  1.00  0.00    +0.000 H 
ATOM     24  C15 UNL A   1      35.139  24.512  25.059  1.00  0.00    +0.000 C 
BRANCH   24   23
ATOM    109  H15 UNL A   1      33.097  24.996  25.340  1.00  0.00    +0.000 H 
ATOM    110  H16 UNL A   1      34.118  24.964  26.823  1.00  0.00    +0.000 H 
ATOM     23  C14 UNL A   1      34.028  25.260  25.799  1.00  0.00    +0.000 C 
BRANCH   23   22
ATOM    107  H13 UNL A   1      35.042  27.053  26.288  1.00  0.00    +0.000 H 
ATOM    108  H14 UNL A   1      34.056  27.082  24.782  1.00  0.00    +0.000 H 
ATOM     22  C13 UNL A   1      34.123  26.788  25.809  1.00  0.00    +0.000 C 
BRANCH   22   21
ATOM    105  H11 UNL A   1      32.111  26.944  26.441  1.00  0.00    +0.000 H 
ATOM    106  H12 UNL A   1      33.346  27.693  27.517  1.00  0.00    +0.000 H 
ATOM     21  C12 UNL A   1      32.997  27.538  26.518  1.00  0.00    +0.000 C 
BRANCH   21   20
ATOM     20  C11 UNL A   1      32.666  28.930  25.990  1.00  0.00    +0.000 C 
ATOM    103  H9  UNL A   1      32.683  29.613  26.813  1.00  0.00    +0.000 H 
ATOM    104  H10 UNL A   1      33.399  29.157  25.244  1.00  0.00    +0.000 H 
BRANCH   20   19
ATOM     19  N4  UNL A   1      31.369  29.032  25.341  1.00  0.00    +0.000 N 
ATOM    102  H8  UNL A   1      30.664  29.440  25.893  1.00  0.00    +0.000 H 
BRANCH   19   17
ATOM     17  C10 UNL A   1      30.964  28.653  24.079  1.00  0.00    +0.000 C 
ATOM     18  O4  UNL A   1      30.079  29.301  23.514  1.00  0.00    +0.000 O 
BRANCH   17   16
ATOM    130  H36 UNL A   1      30.223  26.048  23.813  1.00  0.00    +0.000 H 
ATOM     99  H5  UNL A   1      33.630  24.679  21.785  1.00  0.00    +0.000 H 
ATOM    100  H6  UNL A   1      34.275  26.980  21.358  1.00  0.00    +0.000 H 
ATOM     11  C5  UNL A   1      31.923  25.164  22.927  1.00  0.00    +0.000 C 
ATOM     12  C6  UNL A   1      33.068  25.450  22.177  1.00  0.00    +0.000 C 
ATOM     13  C7  UNL A   1      33.459  26.775  21.955  1.00  0.00    +0.000 C 
ATOM     14  C8  UNL A   1      32.743  27.817  22.543  1.00  0.00    +0.000 C 
ATOM     16  C9  UNL A   1      31.612  27.551  23.324  1.00  0.00    +0.000 C 
ATOM     92  C62 UNL A   1      31.151  26.235  23.401  1.00  0.00    +0.000 C 
BRANCH   11   10
ATOM     10  N3  UNL A   1      31.618  23.819  23.249  1.00  0.00    +0.000 N 
BRANCH   10    9
ATOM      9  N2  UNL A   1      32.202  23.048  22.451  1.00  0.00    +0.000 N 
BRANCH    9    8
ATOM     97  H3  UNL A   1      34.103  20.194  25.414  1.00  0.00    +0.000 H 
ATOM     98  H4  UNL A   1      33.542  22.417  24.612  1.00  0.00    +0.000 H 
ATOM    131  H37 UNL A   1      31.358  20.732  21.438  1.00  0.00    +0.000 H 
ATOM    132  H38 UNL A   1      31.926  18.506  22.223  1.00  0.00    +0.000 H 
ATOM      5  C1  UNL A   1      33.058  19.188  23.873  1.00  0.00    +0.000 C 
ATOM      6  C2  UNL A   1      33.522  20.308  24.568  1.00  0.00    +0.000 C 
ATOM      7  C3  UNL A   1      33.193  21.588  24.106  1.00  0.00    +0.000 C 
ATOM      8  C4  UNL A   1      32.396  21.756  22.966  1.00  0.00    +0.000 C 
ATOM     93  C63 UNL A   1      31.941  20.620  22.282  1.00  0.00    +0.000 C 
ATOM     94  C64 UNL A   1      32.267  19.337  22.731  1.00  0.00    +0.000 C 
BRANCH    5    2
ATOM      2  S1  UNL A   1      33.491  17.565  24.430  1.00  0.00    +0.000 S 
ATOM      3  O1  UNL A   1      33.266  16.625  23.360  1.00  0.00    +0.000 O 
ATOM      4  O2  UNL A   1      32.957  17.384  25.761  1.00  0.00    +0.000 O 
BRANCH    2    1
ATOM      1  N1  UNL A   1      35.163  17.649  24.598  1.00  0.00    +0.000 N 
ATOM     95  H1  UNL A   1      35.466  18.618  24.503  1.00  0.00    +0.000 H 
ATOM     96  H2  UNL A   1      35.606  17.082  23.876  1.00  0.00    +0.000 H 
ENDBRANCH    2    1
ENDBRANCH    5    2
ENDBRANCH    9    8
ENDBRANCH   10    9
ENDBRANCH   11   10
BRANCH   14   15
ATOM    101  H7  UNL A   1      32.620  29.772  22.094  1.00  0.00    +0.000 H 
ATOM     15  O3  UNL A   1      33.215  29.084  22.318  1.00  0.00    +0.000 O 
ENDBRANCH   14   15
ENDBRANCH   17   16
ENDBRANCH   19   17
ENDBRANCH   20   19
ENDBRANCH   21   20
ENDBRANCH   22   21
ENDBRANCH   23   22
ENDBRANCH   24   23
ENDBRANCH   25   24
ENDBRANCH   26   25
ENDBRANCH   27   26
ENDBRANCH   29   27
ENDBRANCH   33   32
BRANCH   37   38
ATOM     38  C26 UNL A   1      46.367  28.827  30.759  1.00  0.00    +0.000 C 
ATOM     39  C27 UNL A   1      46.732  28.081  31.889  1.00  0.00    +0.000 C 
ATOM     40  F1  UNL A   1      45.891  27.972  32.927  1.00  0.00    +0.000 F 
ATOM     41  C28 UNL A   1      47.981  27.468  31.970  1.00  0.00    +0.000 C 
ATOM     42  F2  UNL A   1      48.325  26.798  33.080  1.00  0.00    +0.000 F 
ATOM     43  C29 UNL A   1      48.872  27.559  30.913  1.00  0.00    +0.000 C 
ATOM     44  F3  UNL A   1      50.069  26.960  30.989  1.00  0.00    +0.000 F 
ATOM     45  C30 UNL A   1      48.526  28.276  29.777  1.00  0.00    +0.000 C 
ATOM     46  F4  UNL A   1      49.379  28.354  28.748  1.00  0.00    +0.000 F 
ATOM     47  C31 UNL A   1      47.291  28.916  29.706  1.00  0.00    +0.000 C 
ATOM     48  F5  UNL A   1      46.990  29.613  28.600  1.00  0.00    +0.000 F 
ENDBRANCH   37   38
BRANCH   54   55
ATOM     65  F10 UNL A   1      43.681  36.043  30.642  1.00  0.00    +0.000 F 
ATOM     55  C37 UNL A   1      43.171  34.987  32.713  1.00  0.00    +0.000 C 
ATOM     56  C38 UNL A   1      43.125  35.098  34.111  1.00  0.00    +0.000 C 
ATOM     57  F6  UNL A   1      42.694  34.069  34.856  1.00  0.00    +0.000 F 
ATOM     58  C39 UNL A   1      43.483  36.284  34.747  1.00  0.00    +0.000 C 
ATOM     59  F7  UNL A   1      43.382  36.385  36.079  1.00  0.00    +0.000 F 
ATOM     60  C40 UNL A   1      43.928  37.366  34.003  1.00  0.00    +0.000 C 
ATOM     61  F8  UNL A   1      44.280  38.505  34.617  1.00  0.00    +0.000 F 
ATOM     62  C41 UNL A   1      44.001  37.272  32.621  1.00  0.00    +0.000 C 
ATOM     63  F9  UNL A   1      44.446  38.312  31.902  1.00  0.00    +0.000 F 
ATOM     64  C42 UNL A   1      43.613  36.099  31.980  1.00  0.00    +0.000 C 
ENDBRANCH   54   55
BRANCH   69   70
ATOM     70  C46 UNL A   1      37.159  32.628  30.093  1.00  0.00    +0.000 C 
ATOM     71  C47 UNL A   1      36.729  33.394  29.000  1.00  0.00    +0.000 C 
ATOM     72  F11 UNL A   1      37.574  33.650  27.990  1.00  0.00    +0.000 F 
ATOM     73  C48 UNL A   1      35.446  33.934  28.959  1.00  0.00    +0.000 C 
ATOM     74  F12 UNL A   1      35.078  34.702  27.924  1.00  0.00    +0.000 F 
ATOM     75  C49 UNL A   1      34.555  33.692  29.994  1.00  0.00    +0.000 C 
ATOM     76  F13 UNL A   1      33.318  34.206  29.951  1.00  0.00    +0.000 F 
ATOM     77  C50 UNL A   1      34.950  32.920  31.076  1.00  0.00    +0.000 C 
ATOM     78  F14 UNL A   1      34.087  32.666  32.069  1.00  0.00    +0.000 F 
ATOM     79  C51 UNL A   1      36.243  32.407  31.133  1.00  0.00    +0.000 C 
ATOM     80  F15 UNL A   1      36.602  31.674  32.199  1.00  0.00    +0.000 F 
ENDBRANCH   69   70
TORSDOF 21
ENDMDL
MODEL 7
REMARK VINA RESULT:     -10.4     20.352     27.976
ROOT
ATOM     33  C22 UNL A   1      25.874  39.576  46.591  1.00  0.00    +0.000 C 
ATOM     34  C23 UNL A   1      24.981  40.595  47.239  1.00  0.00    +0.000 C 
ATOM     35  N6  UNL A   1      23.749  40.463  47.663  1.00  0.00    +0.000 N 
ATOM     36  C24 UNL A   1      23.403  41.694  48.206  1.00  0.00    +0.000 C 
ATOM     37  C25 UNL A   1      22.211  42.083  48.722  1.00  0.00    +0.000 C 
ATOM     49  C32 UNL A   1      21.046  41.239  48.803  1.00  0.00    +0.000 C 
ATOM     50  C33 UNL A   1      19.777  41.563  49.249  1.00  0.00    +0.000 C 
ATOM     51  C34 UNL A   1      18.991  40.406  49.211  1.00  0.00    +0.000 C 
ATOM     52  C35 UNL A   1      19.753  39.375  48.687  1.00  0.00    +0.000 C 
ATOM     53  N7  UNL A   1      21.011  39.902  48.437  1.00  0.00    +0.000 N 
ATOM     54  C36 UNL A   1      19.364  38.011  48.434  1.00  0.00    +0.000 C 
ATOM     66  C43 UNL A   1      20.164  37.069  47.875  1.00  0.00    +0.000 C 
ATOM     67  N8  UNL A   1      21.479  37.183  47.447  1.00  0.00    +0.000 N 
ATOM     68  C44 UNL A   1      21.816  35.997  47.002  1.00  0.00    +0.000 C 
ATOM     69  C45 UNL A   1      23.118  35.544  46.400  1.00  0.00    +0.000 C 
ATOM     81  C52 UNL A   1      24.122  36.431  46.264  1.00  0.00    +0.000 C 
ATOM     82  C53 UNL A   1      25.436  36.138  45.702  1.00  0.00    +0.000 C 
ATOM     83  C54 UNL A   1      26.203  37.236  45.785  1.00  0.00    +0.000 C 
ATOM     84  C55 UNL A   1      25.418  38.328  46.366  1.00  0.00    +0.000 C 
ATOM     85  N9  UNL A   1      24.192  37.760  46.609  1.00  0.00    +0.000 N 
ATOM     86  C56 UNL A   1      20.755  34.986  47.121  1.00  0.00    +0.000 C 
ATOM     87  C57 UNL A   1      19.757  35.703  47.619  1.00  0.00    +0.000 C 
ATOM     88  C58 UNL A   1      24.571  42.543  48.106  1.00  0.00    +0.000 C 
ATOM     89  C59 UNL A   1      25.555  41.930  47.463  1.00  0.00    +0.000 C 
ATOM    118  H24 UNL A   1      19.464  42.497  49.556  1.00  0.00    +0.000 H 
ATOM    119  H25 UNL A   1      18.009  40.334  49.522  1.00  0.00    +0.000 H 
ATOM    120  H26 UNL A   1      21.768  39.399  48.056  1.00  0.00    +0.000 H 
ATOM    121  H27 UNL A   1      25.729  35.232  45.304  1.00  0.00    +0.000 H 
ATOM    122  H28 UNL A   1      27.188  37.301  45.486  1.00  0.00    +0.000 H 
ATOM    123  H29 UNL A   1      23.434  38.258  46.992  1.00  0.00    +0.000 H 
ATOM    124  H30 UNL A   1      20.780  33.983  46.879  1.00  0.00    +0.000 H 
ATOM    125  H31 UNL A   1      18.811  35.333  47.802  1.00  0.00    +0.000 H 
ATOM    126  H32 UNL A   1      24.629  43.500  48.486  1.00  0.00    +0.000 H 
ATOM    127  H33 UNL A   1      26.481  42.295  47.192  1.00  0.00    +0.000 H 
ENDROOT
BRANCH   33   32
ATOM    129  H35 UNL A   1      30.377  39.667  47.560  1.00  0.00    +0.000 H 
ATOM    128  H34 UNL A   1      28.059  39.220  48.112  1.00  0.00    +0.000 H 
ATOM    116  H22 UNL A   1      29.223  40.982  43.737  1.00  0.00    +0.000 H 
ATOM    117  H23 UNL A   1      26.891  40.742  44.363  1.00  0.00    +0.000 H 
ATOM     90  C60 UNL A   1      28.303  39.602  47.185  1.00  0.00    +0.000 C 
ATOM     91  C61 UNL A   1      29.639  39.821  46.855  1.00  0.00    +0.000 C 
ATOM     29  C18 UNL A   1      29.979  40.249  45.569  1.00  0.00    +0.000 C 
ATOM     30  C19 UNL A   1      28.974  40.606  44.664  1.00  0.00    +0.000 C 
ATOM     31  C20 UNL A   1      27.632  40.451  45.019  1.00  0.00    +0.000 C 
ATOM     32  C21 UNL A   1      27.286  39.900  46.264  1.00  0.00    +0.000 C 
BRANCH   29   27
ATOM     27  C17 UNL A   1      31.390  40.342  45.134  1.00  0.00    +0.000 C 
ATOM     28  O5  UNL A   1      32.049  41.338  45.421  1.00  0.00    +0.000 O 
BRANCH   27   26
ATOM     26  N5  UNL A   1      31.955  39.336  44.389  1.00  0.00    +0.000 N 
ATOM    115  H21 UNL A   1      32.584  38.757  44.879  1.00  0.00    +0.000 H 
BRANCH   26   25
ATOM     25  C16 UNL A   1      31.766  38.995  42.990  1.00  0.00    +0.000 C 
ATOM    114  H20 UNL A   1      32.736  38.918  42.543  1.00  0.00    +0.000 H 
ATOM    113  H19 UNL A   1      31.175  39.759  42.529  1.00  0.00    +0.000 H 
BRANCH   25   24
ATOM    112  H18 UNL A   1      31.840  36.951  42.577  1.00  0.00    +0.000 H 
ATOM    111  H17 UNL A   1      30.346  37.771  42.011  1.00  0.00    +0.000 H 
ATOM     24  C15 UNL A   1      31.064  37.654  42.796  1.00  0.00    +0.000 C 
BRANCH   24   23
ATOM    109  H15 UNL A   1      31.038  36.518  44.583  1.00  0.00    +0.000 H 
ATOM    110  H16 UNL A   1      29.952  37.953  44.537  1.00  0.00    +0.000 H 
ATOM     23  C14 UNL A   1      30.335  37.098  44.021  1.00  0.00    +0.000 C 
BRANCH   23   22
ATOM    107  H13 UNL A   1      28.693  35.940  44.691  1.00  0.00    +0.000 H 
ATOM    108  H14 UNL A   1      28.476  36.797  43.123  1.00  0.00    +0.000 H 
ATOM     22  C13 UNL A   1      29.117  36.211  43.747  1.00  0.00    +0.000 C 
BRANCH   22   21
ATOM    105  H11 UNL A   1      29.420  35.175  41.928  1.00  0.00    +0.000 H 
ATOM    106  H12 UNL A   1      30.278  34.522  43.371  1.00  0.00    +0.000 H 
ATOM     21  C12 UNL A   1      29.372  34.923  42.966  1.00  0.00    +0.000 C 
BRANCH   21   20
ATOM     20  C11 UNL A   1      28.338  33.813  43.124  1.00  0.00    +0.000 C 
ATOM    103  H9  UNL A   1      27.627  33.903  42.329  1.00  0.00    +0.000 H 
ATOM    104  H10 UNL A   1      28.876  32.888  43.099  1.00  0.00    +0.000 H 
BRANCH   20   19
ATOM     19  N4  UNL A   1      27.617  33.840  44.385  1.00  0.00    +0.000 N 
ATOM    102  H8  UNL A   1      26.796  34.383  44.378  1.00  0.00    +0.000 H 
BRANCH   19   17
ATOM     17  C10 UNL A   1      27.892  33.230  45.590  1.00  0.00    +0.000 C 
ATOM     18  O4  UNL A   1      27.604  32.040  45.739  1.00  0.00    +0.000 O 
BRANCH   17   16
ATOM    130  H36 UNL A   1      26.926  34.307  47.895  1.00  0.00    +0.000 H 
ATOM     99  H5  UNL A   1      30.470  36.119  49.220  1.00  0.00    +0.000 H 
ATOM    100  H6  UNL A   1      31.717  34.824  47.588  1.00  0.00    +0.000 H 
ATOM     11  C5  UNL A   1      28.575  35.402  48.629  1.00  0.00    +0.000 C 
ATOM     12  C6  UNL A   1      29.968  35.506  48.559  1.00  0.00    +0.000 C 
ATOM     13  C7  UNL A   1      30.687  34.783  47.601  1.00  0.00    +0.000 C 
ATOM     14  C8  UNL A   1      30.006  34.009  46.662  1.00  0.00    +0.000 C 
ATOM     16  C9  UNL A   1      28.609  33.918  46.694  1.00  0.00    +0.000 C 
ATOM     92  C62 UNL A   1      27.927  34.518  47.753  1.00  0.00    +0.000 C 
BRANCH   11   10
ATOM     10  N3  UNL A   1      27.856  36.239  49.519  1.00  0.00    +0.000 N 
BRANCH   10    9
ATOM      9  N2  UNL A   1      27.448  35.567  50.496  1.00  0.00    +0.000 N 
BRANCH    9    8
ATOM     97  H3  UNL A   1      23.374  37.211  49.381  1.00  0.00    +0.000 H 
ATOM     98  H4  UNL A   1      25.739  36.835  48.969  1.00  0.00    +0.000 H 
ATOM    131  H37 UNL A   1      26.001  34.550  52.489  1.00  0.00    +0.000 H 
ATOM    132  H38 UNL A   1      23.642  34.933  52.918  1.00  0.00    +0.000 H 
ATOM      5  C1  UNL A   1      23.338  36.102  51.183  1.00  0.00    +0.000 C 
ATOM      6  C2  UNL A   1      23.933  36.648  50.043  1.00  0.00    +0.000 C 
ATOM      7  C3  UNL A   1      25.294  36.426  49.805  1.00  0.00    +0.000 C 
ATOM      8  C4  UNL A   1      26.060  35.653  50.689  1.00  0.00    +0.000 C 
ATOM     93  C63 UNL A   1      25.445  35.115  51.828  1.00  0.00    +0.000 C 
ATOM     94  C64 UNL A   1      24.087  35.335  52.078  1.00  0.00    +0.000 C 
BRANCH    5    2
ATOM      2  S1  UNL A   1      21.624  36.400  51.510  1.00  0.00    +0.000 S 
ATOM      3  O1  UNL A   1      20.835  35.407  50.822  1.00  0.00    +0.000 O 
ATOM      4  O2  UNL A   1      21.379  37.819  51.393  1.00  0.00    +0.000 O 
BRANCH    2    1
ATOM      1  N1  UNL A   1      21.473  36.025  53.143  1.00  0.00    +0.000 N 
ATOM     95  H1  UNL A   1      20.619  36.444  53.510  1.00  0.00    +0.000 H 
ATOM     96  H2  UNL A   1      22.278  36.390  53.652  1.00  0.00    +0.000 H 
ENDBRANCH    2    1
ENDBRANCH    5    2
ENDBRANCH    9    8
ENDBRANCH   10    9
ENDBRANCH   11   10
BRANCH   14   15
ATOM    101  H7  UNL A   1      30.370  32.962  44.986  1.00  0.00    +0.000 H 
ATOM     15  O3  UNL A   1      30.775  33.369  45.726  1.00  0.00    +0.000 O 
ENDBRANCH   14   15
ENDBRANCH   17   16
ENDBRANCH   19   17
ENDBRANCH   20   19
ENDBRANCH   21   20
ENDBRANCH   22   21
ENDBRANCH   23   22
ENDBRANCH   24   23
ENDBRANCH   25   24
ENDBRANCH   26   25
ENDBRANCH   27   26
ENDBRANCH   29   27
ENDBRANCH   33   32
BRANCH   37   38
ATOM     38  C26 UNL A   1      22.103  43.486  49.250  1.00  0.00    +0.000 C 
ATOM     39  C27 UNL A   1      21.730  44.557  48.426  1.00  0.00    +0.000 C 
ATOM     40  F1  UNL A   1      21.517  44.361  47.116  1.00  0.00    +0.000 F 
ATOM     41  C28 UNL A   1      21.606  45.847  48.939  1.00  0.00    +0.000 C 
ATOM     42  F2  UNL A   1      21.293  46.864  48.122  1.00  0.00    +0.000 F 
ATOM     43  C29 UNL A   1      21.816  46.083  50.288  1.00  0.00    +0.000 C 
ATOM     44  F3  UNL A   1      21.685  47.323  50.782  1.00  0.00    +0.000 F 
ATOM     45  C30 UNL A   1      22.167  45.036  51.126  1.00  0.00    +0.000 C 
ATOM     46  F4  UNL A   1      22.356  45.258  52.434  1.00  0.00    +0.000 F 
ATOM     47  C31 UNL A   1      22.322  43.751  50.610  1.00  0.00    +0.000 C 
ATOM     48  F5  UNL A   1      22.675  42.761  51.444  1.00  0.00    +0.000 F 
ENDBRANCH   37   38
BRANCH   54   55
ATOM     65  F10 UNL A   1      17.396  37.304  46.503  1.00  0.00    +0.000 F 
ATOM     55  C37 UNL A   1      17.965  37.599  48.795  1.00  0.00    +0.000 C 
ATOM     56  C38 UNL A   1      17.533  37.562  50.129  1.00  0.00    +0.000 C 
ATOM     57  F6  UNL A   1      18.387  37.845  51.124  1.00  0.00    +0.000 F 
ATOM     58  C39 UNL A   1      16.230  37.189  50.449  1.00  0.00    +0.000 C 
ATOM     59  F7  UNL A   1      15.854  37.110  51.733  1.00  0.00    +0.000 F 
ATOM     60  C40 UNL A   1      15.325  36.886  49.444  1.00  0.00    +0.000 C 
ATOM     61  F8  UNL A   1      14.068  36.536  49.753  1.00  0.00    +0.000 F 
ATOM     62  C41 UNL A   1      15.725  36.937  48.117  1.00  0.00    +0.000 C 
ATOM     63  F9  UNL A   1      14.848  36.659  47.142  1.00  0.00    +0.000 F 
ATOM     64  C42 UNL A   1      17.036  37.276  47.795  1.00  0.00    +0.000 C 
ENDBRANCH   54   55
BRANCH   69   70
ATOM     70  C46 UNL A   1      23.306  34.138  45.955  1.00  0.00    +0.000 C 
ATOM     71  C47 UNL A   1      24.012  33.219  46.744  1.00  0.00    +0.000 C 
ATOM     72  F11 UNL A   1      24.541  33.609  47.913  1.00  0.00    +0.000 F 
ATOM     73  C48 UNL A   1      24.213  31.908  46.317  1.00  0.00    +0.000 C 
ATOM     74  F12 UNL A   1      24.932  31.064  47.069  1.00  0.00    +0.000 F 
ATOM     75  C49 UNL A   1      23.683  31.481  45.109  1.00  0.00    +0.000 C 
ATOM     76  F13 UNL A   1      23.870  30.218  44.701  1.00  0.00    +0.000 F 
ATOM     77  C50 UNL A   1      22.964  32.366  44.321  1.00  0.00    +0.000 C 
ATOM     78  F14 UNL A   1      22.433  31.953  43.161  1.00  0.00    +0.000 F 
ATOM     79  C51 UNL A   1      22.790  33.685  44.731  1.00  0.00    +0.000 C 
ATOM     80  F15 UNL A   1      22.100  34.523  43.942  1.00  0.00    +0.000 F 
ENDBRANCH   69   70
TORSDOF 21
ENDMDL
MODEL 8
REMARK VINA RESULT:     -10.3     37.337     42.720
ROOT
ATOM     33  C22 UNL A   1      13.960  53.759   5.406  1.00  0.00    +0.000 C 
ATOM     34  C23 UNL A   1      14.881  54.241   4.322  1.00  0.00    +0.000 C 
ATOM     35  N6  UNL A   1      15.387  53.578   3.313  1.00  0.00    +0.000 N 
ATOM     36  C24 UNL A   1      16.145  54.497   2.598  1.00  0.00    +0.000 C 
ATOM     37  C25 UNL A   1      16.914  54.285   1.502  1.00  0.00    +0.000 C 
ATOM     49  C32 UNL A   1      17.079  53.006   0.859  1.00  0.00    +0.000 C 
ATOM     50  C33 UNL A   1      17.888  52.680  -0.215  1.00  0.00    +0.000 C 
ATOM     51  C34 UNL A   1      17.667  51.336  -0.537  1.00  0.00    +0.000 C 
ATOM     52  C35 UNL A   1      16.766  50.809   0.373  1.00  0.00    +0.000 C 
ATOM     53  N7  UNL A   1      16.416  51.845   1.227  1.00  0.00    +0.000 N 
ATOM     54  C36 UNL A   1      16.258  49.463   0.457  1.00  0.00    +0.000 C 
ATOM     66  C43 UNL A   1      15.405  49.016   1.412  1.00  0.00    +0.000 C 
ATOM     67  N8  UNL A   1      14.837  49.711   2.471  1.00  0.00    +0.000 N 
ATOM     68  C44 UNL A   1      14.070  48.850   3.095  1.00  0.00    +0.000 C 
ATOM     69  C45 UNL A   1      13.229  49.049   4.326  1.00  0.00    +0.000 C 
ATOM     81  C52 UNL A   1      13.218  50.254   4.927  1.00  0.00    +0.000 C 
ATOM     82  C53 UNL A   1      12.453  50.594   6.121  1.00  0.00    +0.000 C 
ATOM     83  C54 UNL A   1      12.628  51.895   6.398  1.00  0.00    +0.000 C 
ATOM     84  C55 UNL A   1      13.556  52.473   5.424  1.00  0.00    +0.000 C 
ATOM     85  N9  UNL A   1      13.863  51.423   4.596  1.00  0.00    +0.000 N 
ATOM     86  C56 UNL A   1      14.047  47.513   2.486  1.00  0.00    +0.000 C 
ATOM     87  C57 UNL A   1      14.910  47.658   1.489  1.00  0.00    +0.000 C 
ATOM     88  C58 UNL A   1      15.990  55.775   3.258  1.00  0.00    +0.000 C 
ATOM     89  C59 UNL A   1      15.266  55.660   4.363  1.00  0.00    +0.000 C 
ATOM    118  H24 UNL A   1      18.541  53.318  -0.696  1.00  0.00    +0.000 H 
ATOM    119  H25 UNL A   1      18.103  50.824  -1.320  1.00  0.00    +0.000 H 
ATOM    120  H26 UNL A   1      15.789  51.766   1.982  1.00  0.00    +0.000 H 
ATOM    121  H27 UNL A   1      11.870  49.939   6.666  1.00  0.00    +0.000 H 
ATOM    122  H28 UNL A   1      12.179  52.407   7.174  1.00  0.00    +0.000 H 
ATOM    123  H29 UNL A   1      14.486  51.498   3.838  1.00  0.00    +0.000 H 
ATOM    124  H30 UNL A   1      13.503  46.681   2.762  1.00  0.00    +0.000 H 
ATOM    125  H31 UNL A   1      15.191  46.897   0.850  1.00  0.00    +0.000 H 
ATOM    126  H32 UNL A   1      16.390  56.661   2.913  1.00  0.00    +0.000 H 
ATOM    127  H33 UNL A   1      15.032  56.378   5.066  1.00  0.00    +0.000 H 
ENDROOT
BRANCH   33   32
ATOM    129  H35 UNL A   1      10.820  56.771   6.923  1.00  0.00    +0.000 H 
ATOM    128  H34 UNL A   1      11.760  55.292   5.247  1.00  0.00    +0.000 H 
ATOM    116  H22 UNL A   1      13.911  55.738   9.580  1.00  0.00    +0.000 H 
ATOM    117  H23 UNL A   1      14.971  54.430   7.832  1.00  0.00    +0.000 H 
ATOM     90  C60 UNL A   1      12.224  55.392   6.164  1.00  0.00    +0.000 C 
ATOM     91  C61 UNL A   1      11.660  56.211   7.140  1.00  0.00    +0.000 C 
ATOM     29  C18 UNL A   1      12.233  56.274   8.413  1.00  0.00    +0.000 C 
ATOM     30  C19 UNL A   1      13.455  55.640   8.661  1.00  0.00    +0.000 C 
ATOM     31  C20 UNL A   1      14.055  54.873   7.660  1.00  0.00    +0.000 C 
ATOM     32  C21 UNL A   1      13.419  54.701   6.419  1.00  0.00    +0.000 C 
BRANCH   29   27
ATOM     27  C17 UNL A   1      11.579  57.008   9.519  1.00  0.00    +0.000 C 
ATOM     28  O5  UNL A   1      11.633  58.234   9.549  1.00  0.00    +0.000 O 
BRANCH   27   26
ATOM     26  N5  UNL A   1      10.938  56.324  10.523  1.00  0.00    +0.000 N 
ATOM    115  H21 UNL A   1      10.404  55.551  10.226  1.00  0.00    +0.000 H 
BRANCH   26   25
ATOM     25  C16 UNL A   1      10.928  56.565  11.955  1.00  0.00    +0.000 C 
ATOM    114  H20 UNL A   1       9.974  56.981  12.205  1.00  0.00    +0.000 H 
ATOM    113  H19 UNL A   1      11.729  57.235  12.194  1.00  0.00    +0.000 H 
BRANCH   25   24
ATOM    112  H18 UNL A   1      10.691  54.504  12.174  1.00  0.00    +0.000 H 
ATOM    111  H17 UNL A   1      10.605  55.430  13.710  1.00  0.00    +0.000 H 
ATOM     24  C15 UNL A   1      11.102  55.288  12.773  1.00  0.00    +0.000 C 
BRANCH   24   23
ATOM    109  H15 UNL A   1      13.169  55.729  12.911  1.00  0.00    +0.000 H 
ATOM    110  H16 UNL A   1      12.538  54.504  14.069  1.00  0.00    +0.000 H 
ATOM     23  C14 UNL A   1      12.546  54.872  13.065  1.00  0.00    +0.000 C 
BRANCH   23   22
ATOM    107  H13 UNL A   1      12.456  52.891  12.324  1.00  0.00    +0.000 H 
ATOM    108  H14 UNL A   1      13.176  54.120  11.223  1.00  0.00    +0.000 H 
ATOM     22  C13 UNL A   1      13.111  53.729  12.217  1.00  0.00    +0.000 C 
BRANCH   22   21
ATOM    105  H11 UNL A   1      15.171  54.111  12.507  1.00  0.00    +0.000 H 
ATOM    106  H12 UNL A   1      14.448  52.817  13.529  1.00  0.00    +0.000 H 
ATOM     21  C12 UNL A   1      14.525  53.261  12.559  1.00  0.00    +0.000 C 
BRANCH   21   20
ATOM     20  C11 UNL A   1      15.118  52.176  11.667  1.00  0.00    +0.000 C 
ATOM    103  H9  UNL A   1      16.157  52.080  11.902  1.00  0.00    +0.000 H 
ATOM    104  H10 UNL A   1      14.563  51.281  11.863  1.00  0.00    +0.000 H 
BRANCH   20   19
ATOM     19  N4  UNL A   1      14.996  52.436  10.242  1.00  0.00    +0.000 N 
ATOM    102  H8  UNL A   1      14.606  53.311  10.016  1.00  0.00    +0.000 H 
BRANCH   19   17
ATOM     17  C10 UNL A   1      15.336  51.660   9.156  1.00  0.00    +0.000 C 
ATOM     18  O4  UNL A   1      15.746  52.211   8.131  1.00  0.00    +0.000 O 
BRANCH   17   16
ATOM    130  H36 UNL A   1      13.234  49.933   9.089  1.00  0.00    +0.000 H 
ATOM     99  H5  UNL A   1      15.367  46.394   9.812  1.00  0.00    +0.000 H 
ATOM    100  H6  UNL A   1      17.438  47.572   9.351  1.00  0.00    +0.000 H 
ATOM     11  C5  UNL A   1      14.126  48.087   9.592  1.00  0.00    +0.000 C 
ATOM     12  C6  UNL A   1      15.348  47.407   9.617  1.00  0.00    +0.000 C 
ATOM     13  C7  UNL A   1      16.546  48.089   9.381  1.00  0.00    +0.000 C 
ATOM     14  C8  UNL A   1      16.531  49.470   9.189  1.00  0.00    +0.000 C 
ATOM     16  C9  UNL A   1      15.322  50.176   9.192  1.00  0.00    +0.000 C 
ATOM     92  C62 UNL A   1      14.130  49.453   9.271  1.00  0.00    +0.000 C 
BRANCH   11   10
ATOM     10  N3  UNL A   1      12.940  47.406   9.960  1.00  0.00    +0.000 N 
BRANCH   10    9
ATOM      9  N2  UNL A   1      12.057  48.235  10.285  1.00  0.00    +0.000 N 
BRANCH    9    8
ATOM     97  H3  UNL A   1       8.320  45.836   9.384  1.00  0.00    +0.000 H 
ATOM     98  H4  UNL A   1      10.307  46.328  10.691  1.00  0.00    +0.000 H 
ATOM    131  H37 UNL A   1      11.071  49.689   8.283  1.00  0.00    +0.000 H 
ATOM    132  H38 UNL A   1       9.095  49.197   6.961  1.00  0.00    +0.000 H 
ATOM      5  C1  UNL A   1       8.566  47.479   8.074  1.00  0.00    +0.000 C 
ATOM      6  C2  UNL A   1       8.906  46.652   9.148  1.00  0.00    +0.000 C 
ATOM      7  C3  UNL A   1      10.049  46.942   9.902  1.00  0.00    +0.000 C 
ATOM      8  C4  UNL A   1      10.845  48.055   9.600  1.00  0.00    +0.000 C 
ATOM     93  C63 UNL A   1      10.489  48.871   8.518  1.00  0.00    +0.000 C 
ATOM     94  C64 UNL A   1       9.352  48.589   7.755  1.00  0.00    +0.000 C 
BRANCH    5    2
ATOM      2  S1  UNL A   1       7.139  47.108   7.095  1.00  0.00    +0.000 S 
ATOM      3  O1  UNL A   1       7.126  45.696   6.799  1.00  0.00    +0.000 O 
ATOM      4  O2  UNL A   1       7.008  48.126   6.078  1.00  0.00    +0.000 O 
BRANCH    2    1
ATOM      1  N1  UNL A   1       5.865  47.343   8.168  1.00  0.00    +0.000 N 
ATOM     95  H1  UNL A   1       5.205  46.570   8.087  1.00  0.00    +0.000 H 
ATOM     96  H2  UNL A   1       5.392  48.219   7.948  1.00  0.00    +0.000 H 
ENDBRANCH    2    1
ENDBRANCH    5    2
ENDBRANCH    9    8
ENDBRANCH   10    9
ENDBRANCH   11   10
BRANCH   14   15
ATOM    101  H7  UNL A   1      18.217  50.408   9.750  1.00  0.00    +0.000 H 
ATOM     15  O3  UNL A   1      17.748  50.074   9.011  1.00  0.00    +0.000 O 
ENDBRANCH   14   15
ENDBRANCH   17   16
ENDBRANCH   19   17
ENDBRANCH   20   19
ENDBRANCH   21   20
ENDBRANCH   22   21
ENDBRANCH   23   22
ENDBRANCH   24   23
ENDBRANCH   25   24
ENDBRANCH   26   25
ENDBRANCH   27   26
ENDBRANCH   29   27
ENDBRANCH   33   32
BRANCH   37   38
ATOM     38  C26 UNL A   1      17.637  55.466   0.917  1.00  0.00    +0.000 C 
ATOM     39  C27 UNL A   1      18.941  55.801   1.311  1.00  0.00    +0.000 C 
ATOM     40  F1  UNL A   1      19.557  55.101   2.274  1.00  0.00    +0.000 F 
ATOM     41  C28 UNL A   1      19.606  56.882   0.737  1.00  0.00    +0.000 C 
ATOM     42  F2  UNL A   1      20.835  57.211   1.161  1.00  0.00    +0.000 F 
ATOM     43  C29 UNL A   1      18.998  57.624  -0.264  1.00  0.00    +0.000 C 
ATOM     44  F3  UNL A   1      19.646  58.656  -0.822  1.00  0.00    +0.000 F 
ATOM     45  C30 UNL A   1      17.717  57.299  -0.682  1.00  0.00    +0.000 C 
ATOM     46  F4  UNL A   1      17.132  58.005  -1.659  1.00  0.00    +0.000 F 
ATOM     47  C31 UNL A   1      17.037  56.239  -0.088  1.00  0.00    +0.000 C 
ATOM     48  F5  UNL A   1      15.793  55.957  -0.506  1.00  0.00    +0.000 F 
ENDBRANCH   37   38
BRANCH   54   55
ATOM     65  F10 UNL A   1      18.787  48.162   0.566  1.00  0.00    +0.000 F 
ATOM     55  C37 UNL A   1      16.720  48.472  -0.572  1.00  0.00    +0.000 C 
ATOM     56  C38 UNL A   1      15.926  48.141  -1.680  1.00  0.00    +0.000 C 
ATOM     57  F6  UNL A   1      14.701  48.671  -1.815  1.00  0.00    +0.000 F 
ATOM     58  C39 UNL A   1      16.371  47.228  -2.633  1.00  0.00    +0.000 C 
ATOM     59  F7  UNL A   1      15.574  46.888  -3.656  1.00  0.00    +0.000 F 
ATOM     60  C40 UNL A   1      17.630  46.660  -2.519  1.00  0.00    +0.000 C 
ATOM     61  F8  UNL A   1      18.061  45.788  -3.442  1.00  0.00    +0.000 F 
ATOM     62  C41 UNL A   1      18.441  46.989  -1.443  1.00  0.00    +0.000 C 
ATOM     63  F9  UNL A   1      19.665  46.451  -1.338  1.00  0.00    +0.000 F 
ATOM     64  C42 UNL A   1      17.986  47.874  -0.470  1.00  0.00    +0.000 C 
ENDBRANCH   54   55
BRANCH   69   70
ATOM     70  C46 UNL A   1      12.417  47.935   4.884  1.00  0.00    +0.000 C 
ATOM     71  C47 UNL A   1      11.171  47.603   4.332  1.00  0.00    +0.000 C 
ATOM     72  F11 UNL A   1      10.691  48.304   3.295  1.00  0.00    +0.000 F 
ATOM     73  C48 UNL A   1      10.396  46.578   4.870  1.00  0.00    +0.000 C 
ATOM     74  F12 UNL A   1       9.189  46.313   4.352  1.00  0.00    +0.000 F 
ATOM     75  C49 UNL A   1      10.866  45.842   5.947  1.00  0.00    +0.000 C 
ATOM     76  F13 UNL A   1      10.123  44.851   6.460  1.00  0.00    +0.000 F 
ATOM     77  C50 UNL A   1      12.104  46.139   6.497  1.00  0.00    +0.000 C 
ATOM     78  F14 UNL A   1      12.571  45.418   7.526  1.00  0.00    +0.000 F 
ATOM     79  C51 UNL A   1      12.865  47.184   5.981  1.00  0.00    +0.000 C 
ATOM     80  F15 UNL A   1      14.053  47.457   6.541  1.00  0.00    +0.000 F 
ENDBRANCH   69   70
TORSDOF 21
ENDMDL
MODEL 9
REMARK VINA RESULT:     -10.2     25.858     33.574
ROOT
ATOM     33  C22 UNL A   1      20.629  19.007   5.520  1.00  0.00    +0.000 C 
ATOM     34  C23 UNL A   1      19.528  18.690   6.491  1.00  0.00    +0.000 C 
ATOM     35  N6  UNL A   1      18.278  19.079   6.478  1.00  0.00    +0.000 N 
ATOM     36  C24 UNL A   1      17.684  18.478   7.581  1.00  0.00    +0.000 C 
ATOM     37  C25 UNL A   1      16.415  18.617   8.036  1.00  0.00    +0.000 C 
ATOM     49  C32 UNL A   1      15.416  19.450   7.415  1.00  0.00    +0.000 C 
ATOM     50  C33 UNL A   1      14.124  19.706   7.838  1.00  0.00    +0.000 C 
ATOM     51  C34 UNL A   1      13.502  20.516   6.882  1.00  0.00    +0.000 C 
ATOM     52  C35 UNL A   1      14.424  20.813   5.892  1.00  0.00    +0.000 C 
ATOM     53  N7  UNL A   1      15.596  20.155   6.234  1.00  0.00    +0.000 N 
ATOM     54  C36 UNL A   1      14.250  21.633   4.720  1.00  0.00    +0.000 C 
ATOM     66  C43 UNL A   1      15.224  21.910   3.817  1.00  0.00    +0.000 C 
ATOM     67  N8  UNL A   1      16.545  21.484   3.799  1.00  0.00    +0.000 N 
ATOM     68  C44 UNL A   1      17.074  22.000   2.717  1.00  0.00    +0.000 C 
ATOM     69  C45 UNL A   1      18.483  21.885   2.203  1.00  0.00    +0.000 C 
ATOM     81  C52 UNL A   1      19.383  21.171   2.907  1.00  0.00    +0.000 C 
ATOM     82  C53 UNL A   1      20.779  20.972   2.533  1.00  0.00    +0.000 C 
ATOM     83  C54 UNL A   1      21.358  20.155   3.426  1.00  0.00    +0.000 C 
ATOM     84  C55 UNL A   1      20.385  19.808   4.463  1.00  0.00    +0.000 C 
ATOM     85  N9  UNL A   1      19.244  20.466   4.078  1.00  0.00    +0.000 N 
ATOM     86  C56 UNL A   1      16.138  22.795   1.911  1.00  0.00    +0.000 C 
ATOM     87  C57 UNL A   1      15.037  22.743   2.648  1.00  0.00    +0.000 C 
ATOM     88  C58 UNL A   1      18.696  17.657   8.210  1.00  0.00    +0.000 C 
ATOM     89  C59 UNL A   1      19.870  17.798   7.609  1.00  0.00    +0.000 C 
ATOM    118  H24 UNL A   1      13.693  19.359   8.710  1.00  0.00    +0.000 H 
ATOM    119  H25 UNL A   1      12.521  20.837   6.909  1.00  0.00    +0.000 H 
ATOM    120  H26 UNL A   1      16.432  20.185   5.715  1.00  0.00    +0.000 H 
ATOM    121  H27 UNL A   1      21.246  21.392   1.715  1.00  0.00    +0.000 H 
ATOM    122  H28 UNL A   1      22.336  19.824   3.388  1.00  0.00    +0.000 H 
ATOM    123  H29 UNL A   1      18.405  20.436   4.593  1.00  0.00    +0.000 H 
ATOM    124  H30 UNL A   1      16.296  23.271   1.008  1.00  0.00    +0.000 H 
ATOM    125  H31 UNL A   1      14.159  23.233   2.417  1.00  0.00    +0.000 H 
ATOM    126  H32 UNL A   1      18.526  17.041   9.021  1.00  0.00    +0.000 H 
ATOM    127  H33 UNL A   1      20.783  17.389   7.860  1.00  0.00    +0.000 H 
ENDROOT
BRANCH   33   32
ATOM    129  H35 UNL A   1      23.714  15.698   4.646  1.00  0.00    +0.000 H 
ATOM    128  H34 UNL A   1      21.504  16.684   4.493  1.00  0.00    +0.000 H 
ATOM    116  H22 UNL A   1      25.039  18.993   6.897  1.00  0.00    +0.000 H 
ATOM    117  H23 UNL A   1      22.778  19.874   6.931  1.00  0.00    +0.000 H 
ATOM     90  C60 UNL A   1      22.251  17.173   5.012  1.00  0.00    +0.000 C 
ATOM     91  C61 UNL A   1      23.531  16.623   5.064  1.00  0.00    +0.000 C 
ATOM     29  C18 UNL A   1      24.566  17.328   5.685  1.00  0.00    +0.000 C 
ATOM     30  C19 UNL A   1      24.288  18.506   6.386  1.00  0.00    +0.000 C 
ATOM     31  C20 UNL A   1      22.990  19.021   6.390  1.00  0.00    +0.000 C 
ATOM     32  C21 UNL A   1      21.971  18.385   5.661  1.00  0.00    +0.000 C 
BRANCH   29   27
ATOM     27  C17 UNL A   1      25.967  16.853   5.625  1.00  0.00    +0.000 C 
ATOM     28  O5  UNL A   1      26.755  17.387   4.850  1.00  0.00    +0.000 O 
BRANCH   27   26
ATOM     26  N5  UNL A   1      26.379  15.804   6.410  1.00  0.00    +0.000 N 
ATOM    115  H21 UNL A   1      26.930  15.130   5.950  1.00  0.00    +0.000 H 
BRANCH   26   25
ATOM     25  C16 UNL A   1      26.128  15.539   7.816  1.00  0.00    +0.000 C 
ATOM    114  H20 UNL A   1      26.068  16.483   8.316  1.00  0.00    +0.000 H 
ATOM    113  H19 UNL A   1      26.926  14.936   8.198  1.00  0.00    +0.000 H 
BRANCH   25   24
ATOM    112  H18 UNL A   1      25.061  13.937   8.621  1.00  0.00    +0.000 H 
ATOM    111  H17 UNL A   1      24.373  14.599   7.100  1.00  0.00    +0.000 H 
ATOM     24  C15 UNL A   1      24.809  14.808   8.055  1.00  0.00    +0.000 C 
BRANCH   24   23
ATOM    109  H15 UNL A   1      24.009  16.601   8.847  1.00  0.00    +0.000 H 
ATOM    110  H16 UNL A   1      22.823  15.302   8.466  1.00  0.00    +0.000 H 
ATOM     23  C14 UNL A   1      23.770  15.559   8.892  1.00  0.00    +0.000 C 
BRANCH   23   22
ATOM    107  H13 UNL A   1      23.021  14.321  10.437  1.00  0.00    +0.000 H 
ATOM    108  H14 UNL A   1      24.678  14.982  10.679  1.00  0.00    +0.000 H 
ATOM     22  C13 UNL A   1      23.671  15.168  10.368  1.00  0.00    +0.000 C 
BRANCH   22   21
ATOM    105  H11 UNL A   1      23.663  17.148  11.111  1.00  0.00    +0.000 H 
ATOM    106  H12 UNL A   1      22.089  16.273  11.153  1.00  0.00    +0.000 H 
ATOM     21  C12 UNL A   1      23.145  16.237  11.324  1.00  0.00    +0.000 C 
BRANCH   21   20
ATOM     20  C11 UNL A   1      23.300  15.956  12.815  1.00  0.00    +0.000 C 
ATOM    103  H9  UNL A   1      22.410  15.471  13.159  1.00  0.00    +0.000 H 
ATOM    104  H10 UNL A   1      24.174  15.347  12.922  1.00  0.00    +0.000 H 
BRANCH   20   19
ATOM     19  N4  UNL A   1      23.516  17.140  13.629  1.00  0.00    +0.000 N 
ATOM    102  H8  UNL A   1      22.860  17.268  14.351  1.00  0.00    +0.000 H 
BRANCH   19   17
ATOM     17  C10 UNL A   1      24.490  18.113  13.558  1.00  0.00    +0.000 C 
ATOM     18  O4  UNL A   1      25.594  17.894  14.064  1.00  0.00    +0.000 O 
BRANCH   17   16
ATOM    130  H36 UNL A   1      25.563  18.927  11.194  1.00  0.00    +0.000 H 
ATOM     99  H5  UNL A   1      24.160  22.880  11.248  1.00  0.00    +0.000 H 
ATOM    100  H6  UNL A   1      22.634  22.291  13.043  1.00  0.00    +0.000 H 
ATOM     11  C5  UNL A   1      25.069  20.979  11.135  1.00  0.00    +0.000 C 
ATOM     12  C6  UNL A   1      24.181  21.929  11.649  1.00  0.00    +0.000 C 
ATOM     13  C7  UNL A   1      23.321  21.602  12.702  1.00  0.00    +0.000 C 
ATOM     14  C8  UNL A   1      23.397  20.341  13.293  1.00  0.00    +0.000 C 
ATOM     16  C9  UNL A   1      24.302  19.385  12.815  1.00  0.00    +0.000 C 
ATOM     92  C62 UNL A   1      25.036  19.680  11.664  1.00  0.00    +0.000 C 
BRANCH   11   10
ATOM     10  N3  UNL A   1      26.019  21.367  10.158  1.00  0.00    +0.000 N 
BRANCH   10    9
ATOM      9  N2  UNL A   1      25.772  20.790   9.072  1.00  0.00    +0.000 N 
BRANCH    9    8
ATOM     97  H3  UNL A   1      28.777  20.118   5.747  1.00  0.00    +0.000 H 
ATOM     98  H4  UNL A   1      27.010  21.377   6.839  1.00  0.00    +0.000 H 
ATOM    131  H37 UNL A   1      27.027  18.648  10.038  1.00  0.00    +0.000 H 
ATOM    132  H38 UNL A   1      28.783  17.374   8.948  1.00  0.00    +0.000 H 
ATOM      5  C1  UNL A   1      28.905  18.651   7.267  1.00  0.00    +0.000 C 
ATOM      6  C2  UNL A   1      28.404  19.804   6.657  1.00  0.00    +0.000 C 
ATOM      7  C3  UNL A   1      27.389  20.530   7.291  1.00  0.00    +0.000 C 
ATOM      8  C4  UNL A   1      26.882  20.122   8.532  1.00  0.00    +0.000 C 
ATOM     93  C63 UNL A   1      27.397  18.962   9.128  1.00  0.00    +0.000 C 
ATOM     94  C64 UNL A   1      28.407  18.226   8.502  1.00  0.00    +0.000 C 
BRANCH    5    2
ATOM      2  S1  UNL A   1      30.168  17.708   6.463  1.00  0.00    +0.000 S 
ATOM      3  O1  UNL A   1      29.724  16.342   6.333  1.00  0.00    +0.000 O 
ATOM      4  O2  UNL A   1      31.442  18.070   7.039  1.00  0.00    +0.000 O 
BRANCH    2    1
ATOM      1  N1  UNL A   1      30.166  18.321   4.895  1.00  0.00    +0.000 N 
ATOM     95  H1  UNL A   1      30.772  17.750   4.307  1.00  0.00    +0.000 H 
ATOM     96  H2  UNL A   1      30.507  19.281   4.905  1.00  0.00    +0.000 H 
ENDBRANCH    2    1
ENDBRANCH    5    2
ENDBRANCH    9    8
ENDBRANCH   10    9
ENDBRANCH   11   10
BRANCH   14   15
ATOM    101  H7  UNL A   1      22.709  20.537  15.170  1.00  0.00    +0.000 H 
ATOM     15  O3  UNL A   1      22.557  20.110  14.350  1.00  0.00    +0.000 O 
ENDBRANCH   14   15
ENDBRANCH   17   16
ENDBRANCH   19   17
ENDBRANCH   20   19
ENDBRANCH   21   20
ENDBRANCH   22   21
ENDBRANCH   23   22
ENDBRANCH   24   23
ENDBRANCH   25   24
ENDBRANCH   26   25
ENDBRANCH   27   26
ENDBRANCH   29   27
ENDBRANCH   33   32
BRANCH   37   38
ATOM     38  C26 UNL A   1      16.024  17.845   9.264  1.00  0.00    +0.000 C 
ATOM     39  C27 UNL A   1      15.878  18.469  10.511  1.00  0.00    +0.000 C 
ATOM     40  F1  UNL A   1      16.145  19.776  10.649  1.00  0.00    +0.000 F 
ATOM     41  C28 UNL A   1      15.486  17.743  11.634  1.00  0.00    +0.000 C 
ATOM     42  F2  UNL A   1      15.397  18.352  12.826  1.00  0.00    +0.000 F 
ATOM     43  C29 UNL A   1      15.199  16.391  11.525  1.00  0.00    +0.000 C 
ATOM     44  F3  UNL A   1      14.812  15.697  12.605  1.00  0.00    +0.000 F 
ATOM     45  C30 UNL A   1      15.319  15.757  10.298  1.00  0.00    +0.000 C 
ATOM     46  F4  UNL A   1      15.028  14.454  10.186  1.00  0.00    +0.000 F 
ATOM     47  C31 UNL A   1      15.740  16.473   9.180  1.00  0.00    +0.000 C 
ATOM     48  F5  UNL A   1      15.858  15.828   8.010  1.00  0.00    +0.000 F 
ENDBRANCH   37   38
BRANCH   54   55
ATOM     65  F10 UNL A   1      12.241  20.421   3.109  1.00  0.00    +0.000 F 
ATOM     55  C37 UNL A   1      12.900  22.247   4.485  1.00  0.00    +0.000 C 
ATOM     56  C38 UNL A   1      12.553  23.490   5.038  1.00  0.00    +0.000 C 
ATOM     57  F6  UNL A   1      13.413  24.135   5.840  1.00  0.00    +0.000 F 
ATOM     58  C39 UNL A   1      11.302  24.054   4.803  1.00  0.00    +0.000 C 
ATOM     59  F7  UNL A   1      10.973  25.216   5.383  1.00  0.00    +0.000 F 
ATOM     60  C40 UNL A   1      10.390  23.408   3.982  1.00  0.00    +0.000 C 
ATOM     61  F8  UNL A   1       9.189  23.957   3.749  1.00  0.00    +0.000 F 
ATOM     62  C41 UNL A   1      10.720  22.190   3.407  1.00  0.00    +0.000 C 
ATOM     63  F9  UNL A   1       9.845  21.571   2.601  1.00  0.00    +0.000 F 
ATOM     64  C42 UNL A   1      11.957  21.607   3.668  1.00  0.00    +0.000 C 
ENDBRANCH   54   55
BRANCH   69   70
ATOM     70  C46 UNL A   1      18.891  22.550   0.938  1.00  0.00    +0.000 C 
ATOM     71  C47 UNL A   1      18.666  21.938  -0.304  1.00  0.00    +0.000 C 
ATOM     72  F11 UNL A   1      18.089  20.730  -0.359  1.00  0.00    +0.000 F 
ATOM     73  C48 UNL A   1      19.072  22.547  -1.490  1.00  0.00    +0.000 C 
ATOM     74  F12 UNL A   1      18.888  21.918  -2.659  1.00  0.00    +0.000 F 
ATOM     75  C49 UNL A   1      19.678  23.793  -1.461  1.00  0.00    +0.000 C 
ATOM     76  F13 UNL A   1      20.062  24.382  -2.603  1.00  0.00    +0.000 F 
ATOM     77  C50 UNL A   1      19.892  24.427  -0.246  1.00  0.00    +0.000 C 
ATOM     78  F14 UNL A   1      20.460  25.641  -0.214  1.00  0.00    +0.000 F 
ATOM     79  C51 UNL A   1      19.517  23.806   0.942  1.00  0.00    +0.000 C 
ATOM     80  F15 UNL A   1      19.747  24.437   2.103  1.00  0.00    +0.000 F 
ENDBRANCH   69   70
TORSDOF 21
ENDMDL
MODEL 10
REMARK VINA RESULT:     -10.2     20.136     25.253
ROOT
ATOM     33  C22 UNL A   1      53.105  20.709  11.573  1.00  0.00    +0.000 C 
ATOM     34  C23 UNL A   1      54.402  19.992  11.326  1.00  0.00    +0.000 C 
ATOM     35  N6  UNL A   1      55.419  19.824  12.133  1.00  0.00    +0.000 N 
ATOM     36  C24 UNL A   1      56.343  19.066  11.425  1.00  0.00    +0.000 C 
ATOM     37  C25 UNL A   1      57.584  18.677  11.805  1.00  0.00    +0.000 C 
ATOM     49  C32 UNL A   1      58.183  18.998  13.076  1.00  0.00    +0.000 C 
ATOM     50  C33 UNL A   1      59.458  18.706  13.526  1.00  0.00    +0.000 C 
ATOM     51  C34 UNL A   1      59.569  19.152  14.848  1.00  0.00    +0.000 C 
ATOM     52  C35 UNL A   1      58.384  19.776  15.201  1.00  0.00    +0.000 C 
ATOM     53  N7  UNL A   1      57.543  19.678  14.103  1.00  0.00    +0.000 N 
ATOM     54  C36 UNL A   1      58.042  20.412  16.448  1.00  0.00    +0.000 C 
ATOM     66  C43 UNL A   1      56.867  21.041  16.699  1.00  0.00    +0.000 C 
ATOM     67  N8  UNL A   1      55.768  21.203  15.867  1.00  0.00    +0.000 N 
ATOM     68  C44 UNL A   1      54.878  21.859  16.571  1.00  0.00    +0.000 C 
ATOM     69  C45 UNL A   1      53.506  22.326  16.167  1.00  0.00    +0.000 C 
ATOM     81  C52 UNL A   1      53.067  22.074  14.919  1.00  0.00    +0.000 C 
ATOM     82  C53 UNL A   1      51.766  22.463  14.389  1.00  0.00    +0.000 C 
ATOM     83  C54 UNL A   1      51.643  21.990  13.139  1.00  0.00    +0.000 C 
ATOM     84  C55 UNL A   1      52.879  21.301  12.762  1.00  0.00    +0.000 C 
ATOM     85  N9  UNL A   1      53.672  21.412  13.877  1.00  0.00    +0.000 N 
ATOM     86  C56 UNL A   1      55.305  22.167  17.943  1.00  0.00    +0.000 C 
ATOM     87  C57 UNL A   1      56.540  21.683  17.955  1.00  0.00    +0.000 C 
ATOM     88  C58 UNL A   1      55.744  18.761  10.143  1.00  0.00    +0.000 C 
ATOM     89  C59 UNL A   1      54.568  19.359  10.009  1.00  0.00    +0.000 C 
ATOM    118  H24 UNL A   1      60.200  18.239  12.981  1.00  0.00    +0.000 H 
ATOM    119  H25 UNL A   1      60.396  19.037  15.456  1.00  0.00    +0.000 H 
ATOM    120  H26 UNL A   1      56.627  20.037  14.059  1.00  0.00    +0.000 H 
ATOM    121  H27 UNL A   1      51.053  23.013  14.893  1.00  0.00    +0.000 H 
ATOM    122  H28 UNL A   1      50.810  22.096  12.538  1.00  0.00    +0.000 H 
ATOM    123  H29 UNL A   1      54.586  21.051  13.926  1.00  0.00    +0.000 H 
ATOM    124  H30 UNL A   1      54.781  22.636  18.699  1.00  0.00    +0.000 H 
ATOM    125  H31 UNL A   1      57.184  21.756  18.758  1.00  0.00    +0.000 H 
ATOM    126  H32 UNL A   1      56.175  18.156   9.427  1.00  0.00    +0.000 H 
ATOM    127  H33 UNL A   1      53.935  19.375   9.194  1.00  0.00    +0.000 H 
ENDROOT
BRANCH   33   32
ATOM    129  H35 UNL A   1      49.249  19.022   9.698  1.00  0.00    +0.000 H 
ATOM    128  H34 UNL A   1      51.059  18.989  11.312  1.00  0.00    +0.000 H 
ATOM    116  H22 UNL A   1      50.823  22.528   7.991  1.00  0.00    +0.000 H 
ATOM    117  H23 UNL A   1      52.748  22.374   9.461  1.00  0.00    +0.000 H 
ATOM     90  C60 UNL A   1      51.016  19.737  10.602  1.00  0.00    +0.000 C 
ATOM     91  C61 UNL A   1      49.953  19.776   9.701  1.00  0.00    +0.000 C 
ATOM     29  C18 UNL A   1      49.842  20.840   8.801  1.00  0.00    +0.000 C 
ATOM     30  C19 UNL A   1      50.874  21.779   8.698  1.00  0.00    +0.000 C 
ATOM     31  C20 UNL A   1      51.973  21.700   9.556  1.00  0.00    +0.000 C 
ATOM     32  C21 UNL A   1      52.029  20.707  10.549  1.00  0.00    +0.000 C 
BRANCH   29   27
ATOM     27  C17 UNL A   1      48.650  21.000   7.938  1.00  0.00    +0.000 C 
ATOM     28  O5  UNL A   1      48.211  22.125   7.714  1.00  0.00    +0.000 O 
BRANCH   27   26
ATOM     26  N5  UNL A   1      48.020  19.899   7.412  1.00  0.00    +0.000 N 
ATOM    115  H21 UNL A   1      47.801  19.194   8.064  1.00  0.00    +0.000 H 
BRANCH   26   25
ATOM     25  C16 UNL A   1      47.627  19.617   6.042  1.00  0.00    +0.000 C 
ATOM    114  H20 UNL A   1      46.927  20.371   5.747  1.00  0.00    +0.000 H 
ATOM    113  H19 UNL A   1      47.197  18.638   6.005  1.00  0.00    +0.000 H 
BRANCH   25   24
ATOM    112  H18 UNL A   1      49.040  20.708   4.962  1.00  0.00    +0.000 H 
ATOM    111  H17 UNL A   1      48.490  19.200   4.157  1.00  0.00    +0.000 H 
ATOM     24  C15 UNL A   1      48.800  19.671   5.067  1.00  0.00    +0.000 C 
BRANCH   24   23
ATOM    109  H15 UNL A   1      50.142  19.090   6.597  1.00  0.00    +0.000 H 
ATOM    110  H16 UNL A   1      50.023  17.984   5.182  1.00  0.00    +0.000 H 
ATOM     23  C14 UNL A   1      50.090  18.992   5.533  1.00  0.00    +0.000 C 
BRANCH   23   22
ATOM    107  H13 UNL A   1      51.590  19.016   4.038  1.00  0.00    +0.000 H 
ATOM    108  H14 UNL A   1      51.238  20.590   4.837  1.00  0.00    +0.000 H 
ATOM     22  C13 UNL A   1      51.397  19.538   4.952  1.00  0.00    +0.000 C 
BRANCH   22   21
ATOM    105  H11 UNL A   1      53.382  18.880   5.271  1.00  0.00    +0.000 H 
ATOM    106  H12 UNL A   1      52.908  20.415   6.086  1.00  0.00    +0.000 H 
ATOM     21  C12 UNL A   1      52.640  19.411   5.830  1.00  0.00    +0.000 C 
BRANCH   21   20
ATOM     20  C11 UNL A   1      52.465  18.692   7.162  1.00  0.00    +0.000 C 
ATOM    103  H9  UNL A   1      52.955  19.266   7.921  1.00  0.00    +0.000 H 
ATOM    104  H10 UNL A   1      51.410  18.601   7.325  1.00  0.00    +0.000 H 
BRANCH   20   19
ATOM     19  N4  UNL A   1      53.006  17.343   7.192  1.00  0.00    +0.000 N 
ATOM    102  H8  UNL A   1      53.961  17.288   7.421  1.00  0.00    +0.000 H 
BRANCH   19   17
ATOM     17  C10 UNL A   1      52.402  16.128   6.952  1.00  0.00    +0.000 C 
ATOM     18  O4  UNL A   1      52.234  15.346   7.892  1.00  0.00    +0.000 O 
BRANCH   17   16
ATOM    130  H36 UNL A   1      49.829  16.111   6.064  1.00  0.00    +0.000 H 
ATOM     99  H5  UNL A   1      50.506  14.270   2.357  1.00  0.00    +0.000 H 
ATOM    100  H6  UNL A   1      52.886  14.671   2.615  1.00  0.00    +0.000 H 
ATOM     11  C5  UNL A   1      49.969  15.063   4.237  1.00  0.00    +0.000 C 
ATOM     12  C6  UNL A   1      50.863  14.695   3.226  1.00  0.00    +0.000 C 
ATOM     13  C7  UNL A   1      52.238  14.897   3.384  1.00  0.00    +0.000 C 
ATOM     14  C8  UNL A   1      52.730  15.405   4.586  1.00  0.00    +0.000 C 
ATOM     16  C9  UNL A   1      51.855  15.750   5.624  1.00  0.00    +0.000 C 
ATOM     92  C62 UNL A   1      50.481  15.688   5.384  1.00  0.00    +0.000 C 
BRANCH   11   10
ATOM     10  N3  UNL A   1      48.598  14.731   4.111  1.00  0.00    +0.000 N 
BRANCH   10    9
ATOM      9  N2  UNL A   1      47.958  15.195   5.085  1.00  0.00    +0.000 N 
BRANCH    9    8
ATOM     97  H3  UNL A   1      43.880  17.113   5.562  1.00  0.00    +0.000 H 
ATOM     98  H4  UNL A   1      45.678  15.653   6.293  1.00  0.00    +0.000 H 
ATOM    131  H37 UNL A   1      48.007  16.861   3.007  1.00  0.00    +0.000 H 
ATOM    132  H38 UNL A   1      46.210  18.312   2.260  1.00  0.00    +0.000 H 
ATOM      5  C1  UNL A   1      44.913  17.815   3.855  1.00  0.00    +0.000 C 
ATOM      6  C2  UNL A   1      44.755  17.058   5.018  1.00  0.00    +0.000 C 
ATOM      7  C3  UNL A   1      45.795  16.221   5.439  1.00  0.00    +0.000 C 
ATOM      8  C4  UNL A   1      46.993  16.145   4.716  1.00  0.00    +0.000 C 
ATOM     93  C63 UNL A   1      47.132  16.913   3.551  1.00  0.00    +0.000 C 
ATOM     94  C64 UNL A   1      46.099  17.748   3.118  1.00  0.00    +0.000 C 
BRANCH    5    2
ATOM      2  S1  UNL A   1      43.595  18.856   3.296  1.00  0.00    +0.000 S 
ATOM      3  O1  UNL A   1      43.937  20.232   3.562  1.00  0.00    +0.000 O 
ATOM      4  O2  UNL A   1      42.343  18.264   3.708  1.00  0.00    +0.000 O 
BRANCH    2    1
ATOM      1  N1  UNL A   1      43.665  18.701   1.622  1.00  0.00    +0.000 N 
ATOM     95  H1  UNL A   1      43.231  19.515   1.187  1.00  0.00    +0.000 H 
ATOM     96  H2  UNL A   1      43.169  17.857   1.338  1.00  0.00    +0.000 H 
ENDBRANCH    2    1
ENDBRANCH    5    2
ENDBRANCH    9    8
ENDBRANCH   10    9
ENDBRANCH   11   10
BRANCH   14   15
ATOM    101  H7  UNL A   1      54.512  15.423   5.514  1.00  0.00    +0.000 H 
ATOM     15  O3  UNL A   1      54.091  15.531   4.684  1.00  0.00    +0.000 O 
ENDBRANCH   14   15
ENDBRANCH   17   16
ENDBRANCH   19   17
ENDBRANCH   20   19
ENDBRANCH   21   20
ENDBRANCH   22   21
ENDBRANCH   23   22
ENDBRANCH   24   23
ENDBRANCH   25   24
ENDBRANCH   26   25
ENDBRANCH   27   26
ENDBRANCH   29   27
ENDBRANCH   33   32
BRANCH   37   38
ATOM     38  C26 UNL A   1      58.385  17.851  10.838  1.00  0.00    +0.000 C 
ATOM     39  C27 UNL A   1      58.305  16.451  10.824  1.00  0.00    +0.000 C 
ATOM     40  F1  UNL A   1      57.548  15.807  11.723  1.00  0.00    +0.000 F 
ATOM     41  C28 UNL A   1      59.033  15.702   9.901  1.00  0.00    +0.000 C 
ATOM     42  F2  UNL A   1      58.977  14.362   9.935  1.00  0.00    +0.000 F 
ATOM     43  C29 UNL A   1      59.824  16.337   8.956  1.00  0.00    +0.000 C 
ATOM     44  F3  UNL A   1      60.514  15.615   8.062  1.00  0.00    +0.000 F 
ATOM     45  C30 UNL A   1      59.902  17.721   8.939  1.00  0.00    +0.000 C 
ATOM     46  F4  UNL A   1      60.653  18.338   8.018  1.00  0.00    +0.000 F 
ATOM     47  C31 UNL A   1      59.200  18.471   9.880  1.00  0.00    +0.000 C 
ATOM     48  F5  UNL A   1      59.308  19.808   9.846  1.00  0.00    +0.000 F 
ENDBRANCH   37   38
BRANCH   54   55
ATOM     65  F10 UNL A   1      58.473  18.177  18.157  1.00  0.00    +0.000 F 
ATOM     55  C37 UNL A   1      59.064  20.400  17.548  1.00  0.00    +0.000 C 
ATOM     56  C38 UNL A   1      59.865  21.521  17.817  1.00  0.00    +0.000 C 
ATOM     57  F6  UNL A   1      59.768  22.619  17.053  1.00  0.00    +0.000 F 
ATOM     58  C39 UNL A   1      60.802  21.501  18.848  1.00  0.00    +0.000 C 
ATOM     59  F7  UNL A   1      61.592  22.564  19.053  1.00  0.00    +0.000 F 
ATOM     60  C40 UNL A   1      60.928  20.379  19.652  1.00  0.00    +0.000 C 
ATOM     61  F8  UNL A   1      61.824  20.364  20.649  1.00  0.00    +0.000 F 
ATOM     62  C41 UNL A   1      60.132  19.268  19.417  1.00  0.00    +0.000 C 
ATOM     63  F9  UNL A   1      60.243  18.187  20.203  1.00  0.00    +0.000 F 
ATOM     64  C42 UNL A   1      59.219  19.272  18.367  1.00  0.00    +0.000 C 
ENDBRANCH   54   55
BRANCH   69   70
ATOM     70  C46 UNL A   1      52.637  23.060  17.124  1.00  0.00    +0.000 C 
ATOM     71  C47 UNL A   1      52.702  24.457  17.234  1.00  0.00    +0.000 C 
ATOM     72  F11 UNL A   1      53.569  25.147  16.478  1.00  0.00    +0.000 F 
ATOM     73  C48 UNL A   1      51.908  25.145  18.148  1.00  0.00    +0.000 C 
ATOM     74  F12 UNL A   1      52.026  26.475  18.265  1.00  0.00    +0.000 F 
ATOM     75  C49 UNL A   1      51.009  24.455  18.947  1.00  0.00    +0.000 C 
ATOM     76  F13 UNL A   1      50.240  25.118  19.823  1.00  0.00    +0.000 F 
ATOM     77  C50 UNL A   1      50.912  23.076  18.842  1.00  0.00    +0.000 C 
ATOM     78  F14 UNL A   1      50.030  22.406  19.598  1.00  0.00    +0.000 F 
ATOM     79  C51 UNL A   1      51.728  22.384  17.952  1.00  0.00    +0.000 C 
ATOM     80  F15 UNL A   1      51.621  21.048  17.880  1.00  0.00    +0.000 F 
ENDBRANCH   69   70
TORSDOF 21
ENDMDL
