MODEL 1
REMARK VINA RESULT:     -10.9      0.000      0.000
ROOT
ATOM    129  H39 UNL A   1      39.921  29.806  31.930  1.00  0.00    +0.000 H 
ATOM    130  H40 UNL A   1      41.474  30.999  36.561  1.00  0.00    +0.000 H 
ATOM    131  H41 UNL A   1      43.580  29.629  36.069  1.00  0.00    +0.000 H 
ATOM    132  H42 UNL A   1      39.998  27.182  27.005  1.00  0.00    +0.000 H 
ATOM    133  H43 UNL A   1      38.065  28.829  27.328  1.00  0.00    +0.000 H 
ATOM     31  C26 UNL A   1      37.997  30.025  29.913  1.00  0.00    +0.000 C 
ATOM     32  C27 UNL A   1      39.041  29.100  29.357  1.00  0.00    +0.000 C 
ATOM     33  N3  UNL A   1      40.132  28.648  29.923  1.00  0.00    +0.000 N 
ATOM     34  C28 UNL A   1      40.721  27.809  28.987  1.00  0.00    +0.000 C 
ATOM     35  C29 UNL A   1      41.900  27.149  29.072  1.00  0.00    +0.000 C 
ATOM     47  C36 UNL A   1      42.782  27.204  30.207  1.00  0.00    +0.000 C 
ATOM     48  C37 UNL A   1      44.015  26.598  30.373  1.00  0.00    +0.000 C 
ATOM     49  C38 UNL A   1      44.490  26.913  31.650  1.00  0.00    +0.000 C 
ATOM     50  C39 UNL A   1      43.570  27.747  32.265  1.00  0.00    +0.000 C 
ATOM     51  N4  UNL A   1      42.525  27.912  31.371  1.00  0.00    +0.000 N 
ATOM     52  C40 UNL A   1      43.638  28.345  33.574  1.00  0.00    +0.000 C 
ATOM     64  C47 UNL A   1      42.702  29.168  34.104  1.00  0.00    +0.000 C 
ATOM     65  N5  UNL A   1      41.513  29.612  33.541  1.00  0.00    +0.000 N 
ATOM     66  C48 UNL A   1      40.950  30.376  34.444  1.00  0.00    +0.000 C 
ATOM     67  C49 UNL A   1      39.655  31.137  34.367  1.00  0.00    +0.000 C 
ATOM     79  C56 UNL A   1      38.911  31.062  33.248  1.00  0.00    +0.000 C 
ATOM     80  C57 UNL A   1      37.640  31.746  33.026  1.00  0.00    +0.000 C 
ATOM     81  C58 UNL A   1      37.173  31.421  31.810  1.00  0.00    +0.000 C 
ATOM     82  C59 UNL A   1      38.132  30.531  31.153  1.00  0.00    +0.000 C 
ATOM     83  N6  UNL A   1      39.128  30.368  32.083  1.00  0.00    +0.000 N 
ATOM     84  C60 UNL A   1      41.712  30.488  35.697  1.00  0.00    +0.000 C 
ATOM     85  C61 UNL A   1      42.786  29.759  35.424  1.00  0.00    +0.000 C 
ATOM     86  C62 UNL A   1      39.845  27.773  27.837  1.00  0.00    +0.000 C 
ATOM     87  C63 UNL A   1      38.820  28.598  27.992  1.00  0.00    +0.000 C 
ATOM    124  H34 UNL A   1      44.501  26.015  29.674  1.00  0.00    +0.000 H 
ATOM    125  H35 UNL A   1      45.374  26.581  32.064  1.00  0.00    +0.000 H 
ATOM    126  H36 UNL A   1      41.718  28.453  31.538  1.00  0.00    +0.000 H 
ATOM    127  H37 UNL A   1      37.175  32.377  33.697  1.00  0.00    +0.000 H 
ATOM    128  H38 UNL A   1      36.283  31.745  31.403  1.00  0.00    +0.000 H 
ENDROOT
BRANCH   31   30
ATOM    134  H44 UNL A   1      35.950  28.413  29.293  1.00  0.00    +0.000 H 
ATOM    135  H45 UNL A   1      34.021  28.885  27.901  1.00  0.00    +0.000 H 
ATOM    123  H33 UNL A   1      37.327  32.351  28.698  1.00  0.00    +0.000 H 
ATOM     88  C64 UNL A   1      35.824  29.354  28.888  1.00  0.00    +0.000 C 
ATOM     89  C65 UNL A   1      34.696  29.634  28.120  1.00  0.00    +0.000 C 
ATOM    122  H32 UNL A   1      35.303  32.869  27.462  1.00  0.00    +0.000 H 
ATOM     27  C22 UNL A   1      34.481  30.931  27.645  1.00  0.00    +0.000 C 
ATOM     28  C23 UNL A   1      35.446  31.922  27.846  1.00  0.00    +0.000 C 
ATOM     29  C24 UNL A   1      36.604  31.626  28.567  1.00  0.00    +0.000 C 
ATOM     30  C25 UNL A   1      36.790  30.347  29.114  1.00  0.00    +0.000 C 
BRANCH   27   25
ATOM     25  C21 UNL A   1      33.251  31.277  26.901  1.00  0.00    +0.000 C 
ATOM     26  O3  UNL A   1      32.589  32.254  27.240  1.00  0.00    +0.000 O 
BRANCH   25   24
ATOM    121  H31 UNL A   1      33.560  30.237  25.218  1.00  0.00    +0.000 H 
ATOM     24  N2  UNL A   1      32.847  30.503  25.843  1.00  0.00    +0.000 N 
BRANCH   24   23
ATOM    119  H29 UNL A   1      31.116  29.508  26.363  1.00  0.00    +0.000 H 
ATOM     23  C20 UNL A   1      31.517  30.021  25.513  1.00  0.00    +0.000 C 
ATOM    120  H30 UNL A   1      30.917  30.866  25.250  1.00  0.00    +0.000 H 
BRANCH   23   22
ATOM    118  H28 UNL A   1      32.352  29.363  23.709  1.00  0.00    +0.000 H 
ATOM    117  H27 UNL A   1      30.582  29.138  23.830  1.00  0.00    +0.000 H 
ATOM     22  C19 UNL A   1      31.528  29.065  24.324  1.00  0.00    +0.000 C 
BRANCH   22   21
ATOM    115  H25 UNL A   1      31.380  26.996  23.881  1.00  0.00    +0.000 H 
ATOM    116  H26 UNL A   1      32.824  27.495  24.820  1.00  0.00    +0.000 H 
ATOM     21  C18 UNL A   1      31.767  27.595  24.678  1.00  0.00    +0.000 C 
BRANCH   21   20
ATOM    113  H23 UNL A   1      31.905  26.919  26.687  1.00  0.00    +0.000 H 
ATOM    114  H24 UNL A   1      30.459  27.899  26.291  1.00  0.00    +0.000 H 
ATOM     20  C17 UNL A   1      31.122  27.116  25.985  1.00  0.00    +0.000 C 
BRANCH   20   19
ATOM     19  C16 UNL A   1      30.263  25.855  25.866  1.00  0.00    +0.000 C 
ATOM    111  H21 UNL A   1      30.656  25.117  26.534  1.00  0.00    +0.000 H 
ATOM    112  H22 UNL A   1      29.261  26.142  26.107  1.00  0.00    +0.000 H 
BRANCH   19   18
ATOM     18  C15 UNL A   1      30.220  25.255  24.462  1.00  0.00    +0.000 C 
ATOM    109  H19 UNL A   1      29.201  25.065  24.196  1.00  0.00    +0.000 H 
ATOM    110  H20 UNL A   1      30.669  25.954  23.786  1.00  0.00    +0.000 H 
BRANCH   18   17
ATOM     17  N1  UNL A   1      30.966  24.012  24.388  1.00  0.00    +0.000 N 
ATOM    108  H18 UNL A   1      31.192  23.733  23.472  1.00  0.00    +0.000 H 
BRANCH   17   15
ATOM     15  C14 UNL A   1      31.414  23.159  25.360  1.00  0.00    +0.000 C 
ATOM     16  O2  UNL A   1      30.564  22.413  25.857  1.00  0.00    +0.000 O 
BRANCH   15   13
ATOM      2  C2  UNL A   1      36.924  20.578  25.162  1.00  0.00    +0.000 C 
ATOM      3  C3  UNL A   1      35.517  20.711  25.044  1.00  0.00    +0.000 C 
ATOM      5  C5  UNL A   1      34.919  21.965  25.275  1.00  0.00    +0.000 C 
ATOM      6  C6  UNL A   1      35.700  23.097  25.569  1.00  0.00    +0.000 C 
ATOM      7  C7  UNL A   1      37.094  22.963  25.734  1.00  0.00    +0.000 C 
ATOM    101  H11 UNL A   1      35.576  25.168  25.173  1.00  0.00    +0.000 H 
ATOM      9  C9  UNL A   1      37.681  21.705  25.532  1.00  0.00    +0.000 C 
ATOM    102  H12 UNL A   1      35.065  24.690  26.788  1.00  0.00    +0.000 H 
ATOM     11  C10 UNL A   1      35.043  24.439  25.748  1.00  0.00    +0.000 C 
ATOM     12  C11 UNL A   1      33.599  24.410  25.293  1.00  0.00    +0.000 C 
ATOM     13  C12 UNL A   1      32.901  23.155  25.820  1.00  0.00    +0.000 C 
ATOM    103  H13 UNL A   1      33.567  24.409  24.223  1.00  0.00    +0.000 H 
ATOM    104  H14 UNL A   1      33.097  25.275  25.674  1.00  0.00    +0.000 H 
ATOM     90  O4  UNL A   1      33.545  22.018  25.198  1.00  0.00    +0.000 O 
BRANCH    2    1
ATOM      1  C1  UNL A   1      37.563  19.244  24.873  1.00  0.00    +0.000 C 
ATOM     91  H1  UNL A   1      38.018  18.865  25.765  1.00  0.00    +0.000 H 
ATOM     92  H2  UNL A   1      38.308  19.361  24.115  1.00  0.00    +0.000 H 
ATOM     93  H3  UNL A   1      36.816  18.556  24.536  1.00  0.00    +0.000 H 
ENDBRANCH    2    1
BRANCH    3    4
ATOM      4  C4  UNL A   1      34.666  19.515  24.692  1.00  0.00    +0.000 C 
ATOM     94  H4  UNL A   1      34.948  18.684  25.305  1.00  0.00    +0.000 H 
ATOM     95  H5  UNL A   1      34.811  19.262  23.662  1.00  0.00    +0.000 H 
ATOM     96  H6  UNL A   1      33.635  19.747  24.860  1.00  0.00    +0.000 H 
ENDBRANCH    3    4
BRANCH    7    8
ATOM     97  H7  UNL A   1      38.750  24.255  25.443  1.00  0.00    +0.000 H 
ATOM     98  H8  UNL A   1      38.301  24.026  27.116  1.00  0.00    +0.000 H 
ATOM     99  H9  UNL A   1      37.327  25.042  26.082  1.00  0.00    +0.000 H 
ATOM      8  C8  UNL A   1      37.929  24.158  26.121  1.00  0.00    +0.000 C 
ENDBRANCH    7    8
BRANCH    9   10
ATOM     10  O1  UNL A   1      39.036  21.623  25.711  1.00  0.00    +0.000 O 
ATOM    100  H10 UNL A   1      39.500  20.857  25.432  1.00  0.00    +0.000 H 
ENDBRANCH    9   10
BRANCH   13   14
ATOM    105  H15 UNL A   1      32.323  23.640  27.833  1.00  0.00    +0.000 H 
ATOM    106  H16 UNL A   1      33.939  22.989  27.696  1.00  0.00    +0.000 H 
ATOM    107  H17 UNL A   1      32.556  21.930  27.553  1.00  0.00    +0.000 H 
ATOM     14  C13 UNL A   1      32.931  22.910  27.342  1.00  0.00    +0.000 C 
ENDBRANCH   13   14
ENDBRANCH   15   13
ENDBRANCH   17   15
ENDBRANCH   18   17
ENDBRANCH   19   18
ENDBRANCH   20   19
ENDBRANCH   21   20
ENDBRANCH   22   21
ENDBRANCH   23   22
ENDBRANCH   24   23
ENDBRANCH   25   24
ENDBRANCH   27   25
ENDBRANCH   31   30
BRANCH   35   36
ATOM     36  C30 UNL A   1      42.313  26.315  27.897  1.00  0.00    +0.000 C 
ATOM     37  C31 UNL A   1      41.810  25.018  27.710  1.00  0.00    +0.000 C 
ATOM     38  F1  UNL A   1      40.988  24.476  28.621  1.00  0.00    +0.000 F 
ATOM     39  C32 UNL A   1      42.176  24.261  26.600  1.00  0.00    +0.000 C 
ATOM     40  F2  UNL A   1      41.712  23.011  26.463  1.00  0.00    +0.000 F 
ATOM     41  C33 UNL A   1      43.025  24.794  25.643  1.00  0.00    +0.000 C 
ATOM     42  F3  UNL A   1      43.369  24.068  24.571  1.00  0.00    +0.000 F 
ATOM     43  C34 UNL A   1      43.523  26.079  25.800  1.00  0.00    +0.000 C 
ATOM     44  F4  UNL A   1      44.336  26.600  24.871  1.00  0.00    +0.000 F 
ATOM     45  C35 UNL A   1      43.180  26.830  26.922  1.00  0.00    +0.000 C 
ATOM     46  F5  UNL A   1      43.686  28.065  27.051  1.00  0.00    +0.000 F 
ENDBRANCH   35   36
BRANCH   52   53
ATOM     53  C41 UNL A   1      44.846  28.043  34.409  1.00  0.00    +0.000 C 
ATOM     54  C42 UNL A   1      45.970  28.880  34.396  1.00  0.00    +0.000 C 
ATOM     55  F6  UNL A   1      46.018  29.932  33.566  1.00  0.00    +0.000 F 
ATOM     56  C43 UNL A   1      47.061  28.623  35.222  1.00  0.00    +0.000 C 
ATOM     57  F7  UNL A   1      48.139  29.419  35.171  1.00  0.00    +0.000 F 
ATOM     58  C44 UNL A   1      47.037  27.543  36.092  1.00  0.00    +0.000 C 
ATOM     59  F8  UNL A   1      48.083  27.306  36.896  1.00  0.00    +0.000 F 
ATOM     60  C45 UNL A   1      45.931  26.706  36.126  1.00  0.00    +0.000 C 
ATOM     61  F9  UNL A   1      45.902  25.670  36.974  1.00  0.00    +0.000 F 
ATOM     62  C46 UNL A   1      44.849  26.947  35.284  1.00  0.00    +0.000 C 
ATOM     63  F10 UNL A   1      43.794  26.121  35.338  1.00  0.00    +0.000 F 
ENDBRANCH   52   53
BRANCH   67   68
ATOM     68  C50 UNL A   1      39.207  31.997  35.491  1.00  0.00    +0.000 C 
ATOM     69  C51 UNL A   1      38.407  31.473  36.516  1.00  0.00    +0.000 C 
ATOM     70  F11 UNL A   1      38.006  30.195  36.463  1.00  0.00    +0.000 F 
ATOM     71  C52 UNL A   1      37.995  32.267  37.583  1.00  0.00    +0.000 C 
ATOM     72  F12 UNL A   1      37.207  31.749  38.535  1.00  0.00    +0.000 F 
ATOM     73  C53 UNL A   1      38.392  33.594  37.658  1.00  0.00    +0.000 C 
ATOM     74  F13 UNL A   1      38.003  34.355  38.690  1.00  0.00    +0.000 F 
ATOM     75  C54 UNL A   1      39.189  34.132  36.659  1.00  0.00    +0.000 C 
ATOM     76  F14 UNL A   1      39.584  35.411  36.734  1.00  0.00    +0.000 F 
ATOM     77  C55 UNL A   1      39.583  33.345  35.579  1.00  0.00    +0.000 C 
ATOM     78  F15 UNL A   1      40.351  33.892  34.625  1.00  0.00    +0.000 F 
ENDBRANCH   67   68
TORSDOF 20
ENDMDL
MODEL 2
REMARK VINA RESULT:     -10.9     20.334     26.086
ROOT
ATOM    129  H39 UNL A   1      55.364  19.916  12.887  1.00  0.00    +0.000 H 
ATOM    130  H40 UNL A   1      60.061  18.127  12.735  1.00  0.00    +0.000 H 
ATOM    131  H41 UNL A   1      60.269  18.823  15.191  1.00  0.00    +0.000 H 
ATOM    132  H42 UNL A   1      50.956  22.594  15.018  1.00  0.00    +0.000 H 
ATOM    133  H43 UNL A   1      50.595  21.588  12.692  1.00  0.00    +0.000 H 
ATOM     31  C26 UNL A   1      52.924  20.364  11.598  1.00  0.00    +0.000 C 
ATOM     32  C27 UNL A   1      52.756  20.956  12.968  1.00  0.00    +0.000 C 
ATOM     33  N3  UNL A   1      53.622  21.037  13.946  1.00  0.00    +0.000 N 
ATOM     34  C28 UNL A   1      52.967  21.699  14.975  1.00  0.00    +0.000 C 
ATOM     35  C29 UNL A   1      53.417  21.973  16.223  1.00  0.00    +0.000 C 
ATOM     47  C36 UNL A   1      54.719  21.611  16.713  1.00  0.00    +0.000 C 
ATOM     48  C37 UNL A   1      55.254  21.812  17.973  1.00  0.00    +0.000 C 
ATOM     49  C38 UNL A   1      56.563  21.319  17.978  1.00  0.00    +0.000 C 
ATOM     50  C39 UNL A   1      56.829  20.774  16.732  1.00  0.00    +0.000 C 
ATOM     51  N4  UNL A   1      55.692  20.965  15.964  1.00  0.00    +0.000 N 
ATOM     52  C40 UNL A   1      58.034  20.131  16.275  1.00  0.00    +0.000 C 
ATOM     64  C47 UNL A   1      58.216  19.604  15.040  1.00  0.00    +0.000 C 
ATOM     65  N5  UNL A   1      57.330  19.559  13.973  1.00  0.00    +0.000 N 
ATOM     66  C48 UNL A   1      57.969  18.963  12.997  1.00  0.00    +0.000 C 
ATOM     67  C49 UNL A   1      57.486  18.628  11.614  1.00  0.00    +0.000 C 
ATOM     79  C56 UNL A   1      56.234  18.967  11.251  1.00  0.00    +0.000 C 
ATOM     80  C57 UNL A   1      55.628  18.705   9.949  1.00  0.00    +0.000 C 
ATOM     81  C58 UNL A   1      54.381  19.203   9.938  1.00  0.00    +0.000 C 
ATOM     82  C59 UNL A   1      54.090  19.791  11.246  1.00  0.00    +0.000 C 
ATOM     83  N6  UNL A   1      55.250  19.611  11.959  1.00  0.00    +0.000 N 
ATOM     84  C60 UNL A   1      59.349  18.578  13.330  1.00  0.00    +0.000 C 
ATOM     85  C61 UNL A   1      59.437  18.963  14.597  1.00  0.00    +0.000 C 
ATOM     86  C62 UNL A   1      51.648  22.043  14.488  1.00  0.00    +0.000 C 
ATOM     87  C63 UNL A   1      51.447  21.556  13.273  1.00  0.00    +0.000 C 
ATOM    124  H34 UNL A   1      54.770  22.251  18.772  1.00  0.00    +0.000 H 
ATOM    125  H35 UNL A   1      57.218  21.354  18.774  1.00  0.00    +0.000 H 
ATOM    126  H36 UNL A   1      55.590  20.684  15.026  1.00  0.00    +0.000 H 
ATOM    127  H37 UNL A   1      56.083  18.215   9.164  1.00  0.00    +0.000 H 
ATOM    128  H38 UNL A   1      53.732  19.177   9.137  1.00  0.00    +0.000 H 
ENDROOT
BRANCH   31   30
ATOM    134  H44 UNL A   1      52.395  22.351   9.883  1.00  0.00    +0.000 H 
ATOM    135  H45 UNL A   1      50.538  22.563   8.338  1.00  0.00    +0.000 H 
ATOM    123  H33 UNL A   1      50.937  18.591  11.103  1.00  0.00    +0.000 H 
ATOM     88  C64 UNL A   1      51.703  21.590   9.801  1.00  0.00    +0.000 C 
ATOM     89  C65 UNL A   1      50.658  21.697   8.886  1.00  0.00    +0.000 C 
ATOM    122  H32 UNL A   1      49.188  18.728   9.425  1.00  0.00    +0.000 H 
ATOM     27  C22 UNL A   1      49.773  20.629   8.712  1.00  0.00    +0.000 C 
ATOM     28  C23 UNL A   1      49.866  19.499   9.529  1.00  0.00    +0.000 C 
ATOM     29  C24 UNL A   1      50.879  19.416  10.485  1.00  0.00    +0.000 C 
ATOM     30  C25 UNL A   1      51.820  20.450  10.611  1.00  0.00    +0.000 C 
BRANCH   27   25
ATOM     25  C21 UNL A   1      48.707  20.681   7.689  1.00  0.00    +0.000 C 
ATOM     26  O3  UNL A   1      48.475  21.737   7.105  1.00  0.00    +0.000 O 
BRANCH   25   24
ATOM    121  H31 UNL A   1      47.203  19.394   7.988  1.00  0.00    +0.000 H 
ATOM     24  N2  UNL A   1      47.976  19.557   7.400  1.00  0.00    +0.000 N 
BRANCH   24   23
ATOM    119  H29 UNL A   1      48.994  18.893   5.733  1.00  0.00    +0.000 H 
ATOM     23  C20 UNL A   1      48.180  18.574   6.349  1.00  0.00    +0.000 C 
ATOM    120  H30 UNL A   1      48.388  17.635   6.815  1.00  0.00    +0.000 H 
BRANCH   23   22
ATOM    118  H28 UNL A   1      46.105  18.377   6.142  1.00  0.00    +0.000 H 
ATOM    117  H27 UNL A   1      47.058  17.499   4.910  1.00  0.00    +0.000 H 
ATOM     22  C19 UNL A   1      46.941  18.400   5.475  1.00  0.00    +0.000 C 
BRANCH   22   21
ATOM    115  H25 UNL A   1      46.716  20.464   5.041  1.00  0.00    +0.000 H 
ATOM    116  H26 UNL A   1      47.425  19.462   3.735  1.00  0.00    +0.000 H 
ATOM     21  C18 UNL A   1      46.675  19.545   4.494  1.00  0.00    +0.000 C 
BRANCH   21   20
ATOM    113  H23 UNL A   1      45.510  19.165   2.760  1.00  0.00    +0.000 H 
ATOM    114  H24 UNL A   1      44.714  18.819   4.327  1.00  0.00    +0.000 H 
ATOM     20  C17 UNL A   1      45.328  19.490   3.764  1.00  0.00    +0.000 C 
BRANCH   20   19
ATOM     19  C16 UNL A   1      44.563  20.815   3.701  1.00  0.00    +0.000 C 
ATOM    111  H21 UNL A   1      43.725  20.750   4.362  1.00  0.00    +0.000 H 
ATOM    112  H22 UNL A   1      45.255  21.582   3.981  1.00  0.00    +0.000 H 
BRANCH   19   18
ATOM     18  C15 UNL A   1      44.049  21.176   2.309  1.00  0.00    +0.000 C 
ATOM    109  H19 UNL A   1      43.773  22.210   2.298  1.00  0.00    +0.000 H 
ATOM    110  H20 UNL A   1      44.830  20.981   1.603  1.00  0.00    +0.000 H 
BRANCH   18   17
ATOM     17  N1  UNL A   1      42.896  20.376   1.940  1.00  0.00    +0.000 N 
ATOM    108  H18 UNL A   1      42.355  20.072   2.704  1.00  0.00    +0.000 H 
BRANCH   17   15
ATOM     15  C14 UNL A   1      42.421  19.971   0.722  1.00  0.00    +0.000 C 
ATOM     16  O2  UNL A   1      43.222  19.363   0.005  1.00  0.00    +0.000 O 
BRANCH   15   13
ATOM      2  C2  UNL A   1      36.568  20.786   2.185  1.00  0.00    +0.000 C 
ATOM      3  C3  UNL A   1      37.916  20.362   2.298  1.00  0.00    +0.000 C 
ATOM      5  C5  UNL A   1      38.846  20.742   1.312  1.00  0.00    +0.000 C 
ATOM      6  C6  UNL A   1      38.470  21.580   0.246  1.00  0.00    +0.000 C 
ATOM      7  C7  UNL A   1      37.123  21.967   0.102  1.00  0.00    +0.000 C 
ATOM    101  H11 UNL A   1      39.409  23.082  -0.904  1.00  0.00    +0.000 H 
ATOM      9  C9  UNL A   1      36.194  21.560   1.071  1.00  0.00    +0.000 C 
ATOM    102  H12 UNL A   1      39.320  21.504  -1.677  1.00  0.00    +0.000 H 
ATOM     11  C10 UNL A   1      39.497  22.025  -0.760  1.00  0.00    +0.000 C 
ATOM     12  C11 UNL A   1      40.901  21.707  -0.291  1.00  0.00    +0.000 C 
ATOM     13  C12 UNL A   1      40.965  20.284   0.269  1.00  0.00    +0.000 C 
ATOM    103  H13 UNL A   1      41.183  22.400   0.475  1.00  0.00    +0.000 H 
ATOM    104  H14 UNL A   1      41.571  21.785  -1.121  1.00  0.00    +0.000 H 
ATOM     90  O4  UNL A   1      40.126  20.254   1.448  1.00  0.00    +0.000 O 
BRANCH    2    1
ATOM      1  C1  UNL A   1      35.586  20.411   3.265  1.00  0.00    +0.000 C 
ATOM     91  H1  UNL A   1      35.104  19.492   3.005  1.00  0.00    +0.000 H 
ATOM     92  H2  UNL A   1      34.852  21.183   3.365  1.00  0.00    +0.000 H 
ATOM     93  H3  UNL A   1      36.105  20.290   4.193  1.00  0.00    +0.000 H 
ENDBRANCH    2    1
BRANCH    3    4
ATOM      4  C4  UNL A   1      38.347  19.493   3.455  1.00  0.00    +0.000 C 
ATOM     94  H4  UNL A   1      39.389  19.642   3.646  1.00  0.00    +0.000 H 
ATOM     95  H5  UNL A   1      38.173  18.464   3.214  1.00  0.00    +0.000 H 
ATOM     96  H6  UNL A   1      37.784  19.754   4.328  1.00  0.00    +0.000 H 
ENDBRANCH    3    4
BRANCH    7    8
ATOM     97  H7  UNL A   1      37.318  22.577  -1.921  1.00  0.00    +0.000 H 
ATOM     98  H8  UNL A   1      36.797  23.842  -0.834  1.00  0.00    +0.000 H 
ATOM     99  H9  UNL A   1      35.677  22.592  -1.319  1.00  0.00    +0.000 H 
ATOM      8  C8  UNL A   1      36.698  22.805  -1.079  1.00  0.00    +0.000 C 
ENDBRANCH    7    8
BRANCH    9   10
ATOM     10  O1  UNL A   1      34.896  21.955   0.884  1.00  0.00    +0.000 O 
ATOM    100  H10 UNL A   1      34.469  21.787   0.066  1.00  0.00    +0.000 H 
ENDBRANCH    9   10
BRANCH   13   14
ATOM    105  H15 UNL A   1      41.176  19.024  -1.461  1.00  0.00    +0.000 H 
ATOM    106  H16 UNL A   1      39.517  19.366  -1.030  1.00  0.00    +0.000 H 
ATOM    107  H17 UNL A   1      40.448  18.227  -0.086  1.00  0.00    +0.000 H 
ATOM     14  C13 UNL A   1      40.491  19.137  -0.647  1.00  0.00    +0.000 C 
ENDBRANCH   13   14
ENDBRANCH   15   13
ENDBRANCH   17   15
ENDBRANCH   18   17
ENDBRANCH   19   18
ENDBRANCH   20   19
ENDBRANCH   21   20
ENDBRANCH   22   21
ENDBRANCH   23   22
ENDBRANCH   24   23
ENDBRANCH   25   24
ENDBRANCH   27   25
ENDBRANCH   31   30
BRANCH   35   36
ATOM     36  C30 UNL A   1      52.486  22.692  17.153  1.00  0.00    +0.000 C 
ATOM     37  C31 UNL A   1      52.373  24.091  17.133  1.00  0.00    +0.000 C 
ATOM     38  F1  UNL A   1      53.146  24.818  16.313  1.00  0.00    +0.000 F 
ATOM     39  C32 UNL A   1      51.485  24.749  17.980  1.00  0.00    +0.000 C 
ATOM     40  F2  UNL A   1      51.421  26.088  17.970  1.00  0.00    +0.000 F 
ATOM     41  C33 UNL A   1      50.674  24.023  18.838  1.00  0.00    +0.000 C 
ATOM     42  F3  UNL A   1      49.813  24.657  19.646  1.00  0.00    +0.000 F 
ATOM     43  C34 UNL A   1      50.760  22.638  18.865  1.00  0.00    +0.000 C 
ATOM     44  F4  UNL A   1      49.970  21.934  19.687  1.00  0.00    +0.000 F 
ATOM     45  C35 UNL A   1      51.666  21.977  18.037  1.00  0.00    +0.000 C 
ATOM     46  F5  UNL A   1      51.732  20.640  18.093  1.00  0.00    +0.000 F 
ENDBRANCH   35   36
BRANCH   52   53
ATOM     53  C41 UNL A   1      59.171  20.024  17.246  1.00  0.00    +0.000 C 
ATOM     54  C42 UNL A   1      59.991  21.125  17.534  1.00  0.00    +0.000 C 
ATOM     55  F6  UNL A   1      59.820  22.282  16.879  1.00  0.00    +0.000 F 
ATOM     56  C43 UNL A   1      61.006  21.030  18.483  1.00  0.00    +0.000 C 
ATOM     57  F7  UNL A   1      61.797  22.085  18.721  1.00  0.00    +0.000 F 
ATOM     58  C44 UNL A   1      61.202  19.844  19.177  1.00  0.00    +0.000 C 
ATOM     59  F8  UNL A   1      62.171  19.760  20.099  1.00  0.00    +0.000 F 
ATOM     60  C45 UNL A   1      60.398  18.746  18.912  1.00  0.00    +0.000 C 
ATOM     61  F9  UNL A   1      60.579  17.605  19.590  1.00  0.00    +0.000 F 
ATOM     62  C46 UNL A   1      59.398  18.830  17.947  1.00  0.00    +0.000 C 
ATOM     63  F10 UNL A   1      58.636  17.752  17.711  1.00  0.00    +0.000 F 
ENDBRANCH   52   53
BRANCH   67   68
ATOM     68  C50 UNL A   1      58.355  17.897  10.658  1.00  0.00    +0.000 C 
ATOM     69  C51 UNL A   1      59.198  18.594   9.782  1.00  0.00    +0.000 C 
ATOM     70  F11 UNL A   1      59.192  19.935   9.775  1.00  0.00    +0.000 F 
ATOM     71  C52 UNL A   1      60.029  17.918   8.892  1.00  0.00    +0.000 C 
ATOM     72  F12 UNL A   1      60.804  18.609   8.046  1.00  0.00    +0.000 F 
ATOM     73  C53 UNL A   1      60.050  16.532   8.877  1.00  0.00    +0.000 C 
ATOM     74  F13 UNL A   1      60.858  15.881   8.028  1.00  0.00    +0.000 F 
ATOM     75  C54 UNL A   1      59.230  15.820   9.739  1.00  0.00    +0.000 C 
ATOM     76  F14 UNL A   1      59.256  14.479   9.735  1.00  0.00    +0.000 F 
ATOM     77  C55 UNL A   1      58.380  16.496  10.613  1.00  0.00    +0.000 C 
ATOM     78  F15 UNL A   1      57.595  15.783  11.435  1.00  0.00    +0.000 F 
ENDBRANCH   67   68
TORSDOF 20
ENDMDL
MODEL 3
REMARK VINA RESULT:     -10.8     20.384     25.216
ROOT
ATOM    129  H39 UNL A   1      54.266  20.620  13.773  1.00  0.00    +0.000 H 
ATOM    130  H40 UNL A   1      54.560  22.182  18.544  1.00  0.00    +0.000 H 
ATOM    131  H41 UNL A   1      56.972  21.324  18.542  1.00  0.00    +0.000 H 
ATOM    132  H42 UNL A   1      55.904  18.034   9.107  1.00  0.00    +0.000 H 
ATOM    133  H43 UNL A   1      53.629  19.201   8.961  1.00  0.00    +0.000 H 
ATOM     31  C26 UNL A   1      52.784  20.375  11.416  1.00  0.00    +0.000 C 
ATOM     32  C27 UNL A   1      54.096  19.707  11.123  1.00  0.00    +0.000 C 
ATOM     33  N3  UNL A   1      55.124  19.522  11.911  1.00  0.00    +0.000 N 
ATOM     34  C28 UNL A   1      56.060  18.829  11.154  1.00  0.00    +0.000 C 
ATOM     35  C29 UNL A   1      57.314  18.456  11.500  1.00  0.00    +0.000 C 
ATOM     47  C36 UNL A   1      57.917  18.722  12.778  1.00  0.00    +0.000 C 
ATOM     48  C37 UNL A   1      59.195  18.415  13.210  1.00  0.00    +0.000 C 
ATOM     49  C38 UNL A   1      59.323  18.843  14.536  1.00  0.00    +0.000 C 
ATOM     50  C39 UNL A   1      58.138  19.451  14.916  1.00  0.00    +0.000 C 
ATOM     51  N4  UNL A   1      57.282  19.365  13.831  1.00  0.00    +0.000 N 
ATOM     52  C40 UNL A   1      57.810  20.061  16.178  1.00  0.00    +0.000 C 
ATOM     64  C47 UNL A   1      56.628  20.655  16.473  1.00  0.00    +0.000 C 
ATOM     65  N5  UNL A   1      55.507  20.811  15.669  1.00  0.00    +0.000 N 
ATOM     66  C48 UNL A   1      54.620  21.436  16.404  1.00  0.00    +0.000 C 
ATOM     67  C49 UNL A   1      53.232  21.880  16.037  1.00  0.00    +0.000 C 
ATOM     79  C56 UNL A   1      52.761  21.627  14.802  1.00  0.00    +0.000 C 
ATOM     80  C57 UNL A   1      51.441  22.000  14.303  1.00  0.00    +0.000 C 
ATOM     81  C58 UNL A   1      51.310  21.565  13.039  1.00  0.00    +0.000 C 
ATOM     82  C59 UNL A   1      52.552  20.911  12.629  1.00  0.00    +0.000 C 
ATOM     83  N6  UNL A   1      53.354  20.988  13.740  1.00  0.00    +0.000 N 
ATOM     84  C60 UNL A   1      55.073  21.731  17.771  1.00  0.00    +0.000 C 
ATOM     85  C61 UNL A   1      56.314  21.263  17.750  1.00  0.00    +0.000 C 
ATOM     86  C62 UNL A   1      55.460  18.583   9.860  1.00  0.00    +0.000 C 
ATOM     87  C63 UNL A   1      54.269  19.155   9.770  1.00  0.00    +0.000 C 
ATOM    124  H34 UNL A   1      59.928  17.952  12.651  1.00  0.00    +0.000 H 
ATOM    125  H35 UNL A   1      60.159  18.725  15.130  1.00  0.00    +0.000 H 
ATOM    126  H36 UNL A   1      56.359  19.709  13.809  1.00  0.00    +0.000 H 
ATOM    127  H37 UNL A   1      50.723  22.515  14.836  1.00  0.00    +0.000 H 
ATOM    128  H38 UNL A   1      50.469  21.674  12.452  1.00  0.00    +0.000 H 
ENDROOT
BRANCH   31   30
ATOM    134  H44 UNL A   1      51.138  18.394  10.683  1.00  0.00    +0.000 H 
ATOM    135  H45 UNL A   1      49.465  18.388   8.928  1.00  0.00    +0.000 H 
ATOM    123  H33 UNL A   1      52.043  22.411   9.790  1.00  0.00    +0.000 H 
ATOM     88  C64 UNL A   1      50.962  19.251  10.135  1.00  0.00    +0.000 C 
ATOM     89  C65 UNL A   1      49.975  19.255   9.152  1.00  0.00    +0.000 C 
ATOM    122  H32 UNL A   1      50.242  22.452   8.163  1.00  0.00    +0.000 H 
ATOM     27  C22 UNL A   1      49.677  20.439   8.471  1.00  0.00    +0.000 C 
ATOM     28  C23 UNL A   1      50.438  21.590   8.694  1.00  0.00    +0.000 C 
ATOM     29  C24 UNL A   1      51.466  21.569   9.639  1.00  0.00    +0.000 C 
ATOM     30  C25 UNL A   1      51.719  20.406  10.383  1.00  0.00    +0.000 C 
BRANCH   27   25
ATOM     25  C21 UNL A   1      48.577  20.495   7.485  1.00  0.00    +0.000 C 
ATOM     26  O3  UNL A   1      48.255  21.574   6.993  1.00  0.00    +0.000 O 
BRANCH   25   24
ATOM    121  H31 UNL A   1      47.388  18.925   7.845  1.00  0.00    +0.000 H 
ATOM     24  N2  UNL A   1      47.913  19.349   7.128  1.00  0.00    +0.000 N 
BRANCH   24   23
ATOM    119  H29 UNL A   1      48.867  18.640   5.442  1.00  0.00    +0.000 H 
ATOM     23  C20 UNL A   1      47.876  18.672   5.844  1.00  0.00    +0.000 C 
ATOM    120  H30 UNL A   1      47.488  17.688   6.002  1.00  0.00    +0.000 H 
BRANCH   23   22
ATOM    118  H28 UNL A   1      47.588  20.051   4.295  1.00  0.00    +0.000 H 
ATOM    117  H27 UNL A   1      46.190  19.872   5.394  1.00  0.00    +0.000 H 
ATOM     22  C19 UNL A   1      46.964  19.379   4.846  1.00  0.00    +0.000 C 
BRANCH   22   21
ATOM    115  H25 UNL A   1      47.044  18.193   3.089  1.00  0.00    +0.000 H 
ATOM    116  H26 UNL A   1      45.914  17.631   4.362  1.00  0.00    +0.000 H 
ATOM     21  C18 UNL A   1      46.303  18.463   3.811  1.00  0.00    +0.000 C 
BRANCH   21   20
ATOM    113  H23 UNL A   1      45.244  18.872   2.017  1.00  0.00    +0.000 H 
ATOM    114  H24 UNL A   1      44.237  18.604   3.473  1.00  0.00    +0.000 H 
ATOM     20  C17 UNL A   1      45.110  19.066   3.061  1.00  0.00    +0.000 C 
BRANCH   20   19
ATOM     19  C16 UNL A   1      44.919  20.574   3.241  1.00  0.00    +0.000 C 
ATOM    111  H21 UNL A   1      44.308  20.734   4.104  1.00  0.00    +0.000 H 
ATOM    112  H22 UNL A   1      45.896  20.998   3.339  1.00  0.00    +0.000 H 
BRANCH   19   18
ATOM     18  C15 UNL A   1      44.258  21.269   2.052  1.00  0.00    +0.000 C 
ATOM    109  H19 UNL A   1      44.179  22.315   2.261  1.00  0.00    +0.000 H 
ATOM    110  H20 UNL A   1      44.863  21.096   1.185  1.00  0.00    +0.000 H 
BRANCH   18   17
ATOM     17  N1  UNL A   1      42.933  20.738   1.790  1.00  0.00    +0.000 N 
ATOM    108  H18 UNL A   1      42.302  20.842   2.539  1.00  0.00    +0.000 H 
BRANCH   17   15
ATOM     15  C14 UNL A   1      42.398  20.123   0.691  1.00  0.00    +0.000 C 
ATOM     16  O2  UNL A   1      43.151  19.356   0.083  1.00  0.00    +0.000 O 
BRANCH   15   13
ATOM      2  C2  UNL A   1      36.524  20.817   2.129  1.00  0.00    +0.000 C 
ATOM      3  C3  UNL A   1      37.881  20.424   2.250  1.00  0.00    +0.000 C 
ATOM      5  C5  UNL A   1      38.806  20.817   1.263  1.00  0.00    +0.000 C 
ATOM      6  C6  UNL A   1      38.414  21.637   0.190  1.00  0.00    +0.000 C 
ATOM      7  C7  UNL A   1      37.059  21.993   0.038  1.00  0.00    +0.000 C 
ATOM    101  H11 UNL A   1      39.322  23.152  -0.970  1.00  0.00    +0.000 H 
ATOM      9  C9  UNL A   1      36.136  21.573   1.008  1.00  0.00    +0.000 C 
ATOM    102  H12 UNL A   1      39.272  21.565  -1.730  1.00  0.00    +0.000 H 
ATOM     11  C10 UNL A   1      39.434  22.098  -0.817  1.00  0.00    +0.000 C 
ATOM     12  C11 UNL A   1      40.843  21.815  -0.341  1.00  0.00    +0.000 C 
ATOM     13  C12 UNL A   1      40.937  20.399   0.230  1.00  0.00    +0.000 C 
ATOM    103  H13 UNL A   1      41.106  22.521   0.420  1.00  0.00    +0.000 H 
ATOM    104  H14 UNL A   1      41.514  21.902  -1.170  1.00  0.00    +0.000 H 
ATOM     90  O4  UNL A   1      40.096  20.359   1.408  1.00  0.00    +0.000 O 
BRANCH    2    1
ATOM      1  C1  UNL A   1      35.547  20.428   3.210  1.00  0.00    +0.000 C 
ATOM     91  H1  UNL A   1      35.877  20.822   4.148  1.00  0.00    +0.000 H 
ATOM     92  H2  UNL A   1      35.488  19.362   3.271  1.00  0.00    +0.000 H 
ATOM     93  H3  UNL A   1      34.581  20.825   2.976  1.00  0.00    +0.000 H 
ENDBRANCH    2    1
BRANCH    3    4
ATOM      4  C4  UNL A   1      38.327  19.575   3.416  1.00  0.00    +0.000 C 
ATOM     94  H4  UNL A   1      39.264  19.938   3.784  1.00  0.00    +0.000 H 
ATOM     95  H5  UNL A   1      38.441  18.559   3.095  1.00  0.00    +0.000 H 
ATOM     96  H6  UNL A   1      37.595  19.622   4.194  1.00  0.00    +0.000 H 
ENDBRANCH    3    4
BRANCH    7    8
ATOM     97  H7  UNL A   1      36.463  22.167  -1.991  1.00  0.00    +0.000 H 
ATOM     98  H8  UNL A   1      37.376  23.530  -1.389  1.00  0.00    +0.000 H 
ATOM     99  H9  UNL A   1      35.707  23.320  -0.917  1.00  0.00    +0.000 H 
ATOM      8  C8  UNL A   1      36.619  22.811  -1.151  1.00  0.00    +0.000 C 
ENDBRANCH    7    8
BRANCH    9   10
ATOM     10  O1  UNL A   1      34.830  21.937   0.813  1.00  0.00    +0.000 O 
ATOM    100  H10 UNL A   1      34.609  22.543   0.133  1.00  0.00    +0.000 H 
ENDBRANCH    9   10
BRANCH   13   14
ATOM    105  H15 UNL A   1      39.513  18.913  -0.390  1.00  0.00    +0.000 H 
ATOM    106  H16 UNL A   1      41.179  18.420  -0.574  1.00  0.00    +0.000 H 
ATOM    107  H17 UNL A   1      40.477  19.561  -1.696  1.00  0.00    +0.000 H 
ATOM     14  C13 UNL A   1      40.492  19.235  -0.677  1.00  0.00    +0.000 C 
ENDBRANCH   13   14
ENDBRANCH   15   13
ENDBRANCH   17   15
ENDBRANCH   18   17
ENDBRANCH   19   18
ENDBRANCH   20   19
ENDBRANCH   21   20
ENDBRANCH   22   21
ENDBRANCH   23   22
ENDBRANCH   24   23
ENDBRANCH   25   24
ENDBRANCH   27   25
ENDBRANCH   31   30
BRANCH   35   36
ATOM     36  C30 UNL A   1      58.128  17.727  10.473  1.00  0.00    +0.000 C 
ATOM     37  C31 UNL A   1      58.954  18.417   9.572  1.00  0.00    +0.000 C 
ATOM     38  F1  UNL A   1      58.984  19.758   9.577  1.00  0.00    +0.000 F 
ATOM     39  C32 UNL A   1      59.728  17.730   8.641  1.00  0.00    +0.000 C 
ATOM     40  F2  UNL A   1      60.480  18.412   7.766  1.00  0.00    +0.000 F 
ATOM     41  C33 UNL A   1      59.716  16.344   8.612  1.00  0.00    +0.000 C 
ATOM     42  F3  UNL A   1      60.469  15.685   7.722  1.00  0.00    +0.000 F 
ATOM     43  C34 UNL A   1      58.918  15.641   9.502  1.00  0.00    +0.000 C 
ATOM     44  F4  UNL A   1      58.913  14.301   9.483  1.00  0.00    +0.000 F 
ATOM     45  C35 UNL A   1      58.121  16.325  10.419  1.00  0.00    +0.000 C 
ATOM     46  F5  UNL A   1      57.353  15.619  11.259  1.00  0.00    +0.000 F 
ENDBRANCH   35   36
BRANCH   52   53
ATOM     53  C41 UNL A   1      58.862  20.051  17.246  1.00  0.00    +0.000 C 
ATOM     54  C42 UNL A   1      59.173  18.881  17.953  1.00  0.00    +0.000 C 
ATOM     55  F6  UNL A   1      58.470  17.758  17.741  1.00  0.00    +0.000 F 
ATOM     56  C43 UNL A   1      60.194  18.868  18.900  1.00  0.00    +0.000 C 
ATOM     57  F7  UNL A   1      60.454  17.747  19.586  1.00  0.00    +0.000 F 
ATOM     58  C44 UNL A   1      60.938  20.015  19.137  1.00  0.00    +0.000 C 
ATOM     59  F8  UNL A   1      61.929  19.997  20.039  1.00  0.00    +0.000 F 
ATOM     60  C45 UNL A   1      60.651  21.182  18.443  1.00  0.00    +0.000 C 
ATOM     61  F9  UNL A   1      61.377  22.286  18.662  1.00  0.00    +0.000 F 
ATOM     62  C46 UNL A   1      59.616  21.203  17.513  1.00  0.00    +0.000 C 
ATOM     63  F10 UNL A   1      59.361  22.345  16.858  1.00  0.00    +0.000 F 
ENDBRANCH   52   53
BRANCH   67   68
ATOM     68  C50 UNL A   1      52.389  22.626  17.005  1.00  0.00    +0.000 C 
ATOM     69  C51 UNL A   1      52.316  24.025  16.960  1.00  0.00    +0.000 C 
ATOM     70  F11 UNL A   1      53.046  24.703  16.062  1.00  0.00    +0.000 F 
ATOM     71  C52 UNL A   1      51.516  24.734  17.853  1.00  0.00    +0.000 C 
ATOM     72  F12 UNL A   1      51.486  26.072  17.806  1.00  0.00    +0.000 F 
ATOM     73  C53 UNL A   1      50.755  24.056  18.794  1.00  0.00    +0.000 C 
ATOM     74  F13 UNL A   1      49.977  24.737  19.646  1.00  0.00    +0.000 F 
ATOM     75  C54 UNL A   1      50.806  22.671  18.854  1.00  0.00    +0.000 C 
ATOM     76  F14 UNL A   1      50.063  22.012  19.754  1.00  0.00    +0.000 F 
ATOM     77  C55 UNL A   1      51.624  21.963  17.975  1.00  0.00    +0.000 C 
ATOM     78  F15 UNL A   1      51.656  20.625  18.057  1.00  0.00    +0.000 F 
ENDBRANCH   67   68
TORSDOF 20
ENDMDL
MODEL 4
REMARK VINA RESULT:     -10.8     34.394     41.469
ROOT
ATOM    129  H39 UNL A   1       2.793   8.381  37.386  1.00  0.00    +0.000 H 
ATOM    130  H40 UNL A   1       5.545   4.173  37.444  1.00  0.00    +0.000 H 
ATOM    131  H41 UNL A   1       3.602   3.037  36.225  1.00  0.00    +0.000 H 
ATOM    132  H42 UNL A   1      -1.735  11.544  36.591  1.00  0.00    +0.000 H 
ATOM    133  H43 UNL A   1       0.318  12.790  37.478  1.00  0.00    +0.000 H 
ATOM     31  C26 UNL A   1       2.549  11.097  38.001  1.00  0.00    +0.000 C 
ATOM     32  C27 UNL A   1       1.232  10.716  37.387  1.00  0.00    +0.000 C 
ATOM     33  N3  UNL A   1       0.826   9.548  36.961  1.00  0.00    +0.000 N 
ATOM     34  C28 UNL A   1      -0.475   9.741  36.516  1.00  0.00    +0.000 C 
ATOM     35  C29 UNL A   1      -1.305   8.849  35.926  1.00  0.00    +0.000 C 
ATOM     47  C36 UNL A   1      -0.964   7.478  35.656  1.00  0.00    +0.000 C 
ATOM     48  C37 UNL A   1      -1.725   6.506  35.030  1.00  0.00    +0.000 C 
ATOM     49  C38 UNL A   1      -0.990   5.316  35.017  1.00  0.00    +0.000 C 
ATOM     50  C39 UNL A   1       0.244   5.557  35.599  1.00  0.00    +0.000 C 
ATOM     51  N4  UNL A   1       0.244   6.885  35.991  1.00  0.00    +0.000 N 
ATOM     52  C40 UNL A   1       1.340   4.642  35.786  1.00  0.00    +0.000 C 
ATOM     64  C47 UNL A   1       2.530   4.957  36.352  1.00  0.00    +0.000 C 
ATOM     65  N5  UNL A   1       2.958   6.175  36.860  1.00  0.00    +0.000 N 
ATOM     66  C48 UNL A   1       4.173   5.973  37.307  1.00  0.00    +0.000 C 
ATOM     67  C49 UNL A   1       5.122   6.950  37.944  1.00  0.00    +0.000 C 
ATOM     79  C56 UNL A   1       4.735   8.227  38.122  1.00  0.00    +0.000 C 
ATOM     80  C57 UNL A   1       5.546   9.284  38.719  1.00  0.00    +0.000 C 
ATOM     81  C58 UNL A   1       4.828  10.419  38.755  1.00  0.00    +0.000 C 
ATOM     82  C59 UNL A   1       3.518  10.175  38.152  1.00  0.00    +0.000 C 
ATOM     83  N6  UNL A   1       3.549   8.846  37.811  1.00  0.00    +0.000 N 
ATOM     84  C60 UNL A   1       4.649   4.591  37.151  1.00  0.00    +0.000 C 
ATOM     85  C61 UNL A   1       3.621   4.021  36.535  1.00  0.00    +0.000 C 
ATOM     86  C62 UNL A   1      -0.809  11.126  36.768  1.00  0.00    +0.000 C 
ATOM     87  C63 UNL A   1       0.232  11.787  37.253  1.00  0.00    +0.000 C 
ATOM    124  H34 UNL A   1      -2.671   6.637  34.640  1.00  0.00    +0.000 H 
ATOM    125  H35 UNL A   1      -1.312   4.413  34.638  1.00  0.00    +0.000 H 
ATOM    126  H36 UNL A   1       0.992   7.342  36.443  1.00  0.00    +0.000 H 
ATOM    127  H37 UNL A   1       6.514   9.177  39.058  1.00  0.00    +0.000 H 
ATOM    128  H38 UNL A   1       5.149  11.319  39.145  1.00  0.00    +0.000 H 
ENDROOT
BRANCH   31   30
ATOM    134  H44 UNL A   1       1.977  12.110  40.414  1.00  0.00    +0.000 H 
ATOM    135  H45 UNL A   1       2.228  14.392  41.194  1.00  0.00    +0.000 H 
ATOM    123  H33 UNL A   1       3.586  13.223  36.681  1.00  0.00    +0.000 H 
ATOM     88  C64 UNL A   1       2.389  12.825  39.794  1.00  0.00    +0.000 C 
ATOM     89  C65 UNL A   1       2.567  14.127  40.257  1.00  0.00    +0.000 C 
ATOM    122  H32 UNL A   1       4.004  15.458  37.531  1.00  0.00    +0.000 H 
ATOM     27  C22 UNL A   1       3.205  15.072  39.449  1.00  0.00    +0.000 C 
ATOM     28  C23 UNL A   1       3.568  14.748  38.139  1.00  0.00    +0.000 C 
ATOM     29  C24 UNL A   1       3.338  13.459  37.655  1.00  0.00    +0.000 C 
ATOM     30  C25 UNL A   1       2.769  12.482  38.487  1.00  0.00    +0.000 C 
BRANCH   27   25
ATOM     25  C21 UNL A   1       3.485  16.436  39.947  1.00  0.00    +0.000 C 
ATOM     26  O3  UNL A   1       2.997  17.406  39.371  1.00  0.00    +0.000 O 
BRANCH   25   24
ATOM    121  H31 UNL A   1       3.953  17.250  41.715  1.00  0.00    +0.000 H 
ATOM     24  N2  UNL A   1       4.292  16.618  41.041  1.00  0.00    +0.000 N 
BRANCH   24   23
ATOM    119  H29 UNL A   1       5.815  16.207  42.370  1.00  0.00    +0.000 H 
ATOM     23  C20 UNL A   1       5.575  16.009  41.346  1.00  0.00    +0.000 C 
ATOM    120  H30 UNL A   1       5.493  14.960  41.160  1.00  0.00    +0.000 H 
BRANCH   23   22
ATOM    118  H28 UNL A   1       7.275  17.204  41.087  1.00  0.00    +0.000 H 
ATOM    117  H27 UNL A   1       6.250  17.052  39.631  1.00  0.00    +0.000 H 
ATOM     22  C19 UNL A   1       6.696  16.554  40.465  1.00  0.00    +0.000 C 
BRANCH   22   21
ATOM    115  H25 UNL A   1       7.909  14.834  40.729  1.00  0.00    +0.000 H 
ATOM    116  H26 UNL A   1       7.161  15.025  39.111  1.00  0.00    +0.000 H 
ATOM     21  C18 UNL A   1       7.666  15.499  39.927  1.00  0.00    +0.000 C 
BRANCH   21   20
ATOM    113  H23 UNL A   1       9.727  15.285  39.462  1.00  0.00    +0.000 H 
ATOM    114  H24 UNL A   1       8.773  16.293  38.331  1.00  0.00    +0.000 H 
ATOM     20  C17 UNL A   1       8.979  16.042  39.351  1.00  0.00    +0.000 C 
BRANCH   20   19
ATOM     19  C16 UNL A   1       9.501  17.323  40.006  1.00  0.00    +0.000 C 
ATOM    111  H21 UNL A   1       8.783  18.099  39.844  1.00  0.00    +0.000 H 
ATOM    112  H22 UNL A   1       9.646  17.101  41.043  1.00  0.00    +0.000 H 
BRANCH   19   18
ATOM     18  C15 UNL A   1      10.849  17.799  39.468  1.00  0.00    +0.000 C 
ATOM    109  H19 UNL A   1      11.430  16.946  39.184  1.00  0.00    +0.000 H 
ATOM    110  H20 UNL A   1      10.668  18.436  38.627  1.00  0.00    +0.000 H 
BRANCH   18   17
ATOM     17  N1  UNL A   1      11.584  18.560  40.461  1.00  0.00    +0.000 N 
ATOM    108  H18 UNL A   1      11.136  18.619  41.336  1.00  0.00    +0.000 H 
BRANCH   17   15
ATOM     15  C14 UNL A   1      12.789  19.208  40.404  1.00  0.00    +0.000 C 
ATOM     16  O2  UNL A   1      13.755  18.591  40.861  1.00  0.00    +0.000 O 
BRANCH   15   13
ATOM      2  C2  UNL A   1      14.613  24.975  41.093  1.00  0.00    +0.000 C 
ATOM      3  C3  UNL A   1      14.223  23.657  41.442  1.00  0.00    +0.000 C 
ATOM      5  C5  UNL A   1      13.979  22.715  40.424  1.00  0.00    +0.000 C 
ATOM      6  C6  UNL A   1      14.168  23.046  39.071  1.00  0.00    +0.000 C 
ATOM      7  C7  UNL A   1      14.511  24.367  38.714  1.00  0.00    +0.000 C 
ATOM    101  H11 UNL A   1      14.799  22.023  37.334  1.00  0.00    +0.000 H 
ATOM      9  C9  UNL A   1      14.723  25.309  39.731  1.00  0.00    +0.000 C 
ATOM    102  H12 UNL A   1      13.057  22.227  37.484  1.00  0.00    +0.000 H 
ATOM     11  C10 UNL A   1      13.964  22.004  38.004  1.00  0.00    +0.000 C 
ATOM     12  C11 UNL A   1      13.845  20.619  38.605  1.00  0.00    +0.000 C 
ATOM     13  C12 UNL A   1      12.915  20.645  39.819  1.00  0.00    +0.000 C 
ATOM    103  H13 UNL A   1      14.814  20.283  38.910  1.00  0.00    +0.000 H 
ATOM    104  H14 UNL A   1      13.441  19.955  37.870  1.00  0.00    +0.000 H 
ATOM     90  O4  UNL A   1      13.551  21.469  40.825  1.00  0.00    +0.000 O 
BRANCH    2    1
ATOM      1  C1  UNL A   1      14.912  25.967  42.188  1.00  0.00    +0.000 C 
ATOM     91  H1  UNL A   1      13.998  26.400  42.537  1.00  0.00    +0.000 H 
ATOM     92  H2  UNL A   1      15.549  26.737  41.808  1.00  0.00    +0.000 H 
ATOM     93  H3  UNL A   1      15.402  25.467  42.998  1.00  0.00    +0.000 H 
ENDBRANCH    2    1
BRANCH    3    4
ATOM      4  C4  UNL A   1      14.051  23.272  42.892  1.00  0.00    +0.000 C 
ATOM     94  H4  UNL A   1      13.133  23.679  43.263  1.00  0.00    +0.000 H 
ATOM     95  H5  UNL A   1      14.868  23.660  43.465  1.00  0.00    +0.000 H 
ATOM     96  H6  UNL A   1      14.029  22.206  42.980  1.00  0.00    +0.000 H 
ENDBRANCH    3    4
BRANCH    7    8
ATOM     97  H7  UNL A   1      15.661  25.005  37.050  1.00  0.00    +0.000 H 
ATOM     98  H8  UNL A   1      14.014  25.588  37.053  1.00  0.00    +0.000 H 
ATOM     99  H9  UNL A   1      14.350  23.922  36.646  1.00  0.00    +0.000 H 
ATOM      8  C8  UNL A   1      14.644  24.748  37.260  1.00  0.00    +0.000 C 
ENDBRANCH    7    8
BRANCH    9   10
ATOM     10  O1  UNL A   1      15.046  26.580  39.335  1.00  0.00    +0.000 O 
ATOM    100  H10 UNL A   1      15.191  27.248  39.978  1.00  0.00    +0.000 H 
ENDBRANCH    9   10
BRANCH   13   14
ATOM    105  H15 UNL A   1      11.457  22.219  39.958  1.00  0.00    +0.000 H 
ATOM    106  H16 UNL A   1      10.794  20.616  40.172  1.00  0.00    +0.000 H 
ATOM    107  H17 UNL A   1      11.241  21.170  38.576  1.00  0.00    +0.000 H 
ATOM     14  C13 UNL A   1      11.493  21.206  39.615  1.00  0.00    +0.000 C 
ENDBRANCH   13   14
ENDBRANCH   15   13
ENDBRANCH   17   15
ENDBRANCH   18   17
ENDBRANCH   19   18
ENDBRANCH   20   19
ENDBRANCH   21   20
ENDBRANCH   22   21
ENDBRANCH   23   22
ENDBRANCH   24   23
ENDBRANCH   25   24
ENDBRANCH   27   25
ENDBRANCH   31   30
BRANCH   35   36
ATOM     36  C30 UNL A   1      -2.666   9.331  35.522  1.00  0.00    +0.000 C 
ATOM     37  C31 UNL A   1      -2.896   9.884  34.253  1.00  0.00    +0.000 C 
ATOM     38  F1  UNL A   1      -1.879  10.045  33.393  1.00  0.00    +0.000 F 
ATOM     39  C32 UNL A   1      -4.169  10.302  33.874  1.00  0.00    +0.000 C 
ATOM     40  F2  UNL A   1      -4.357  10.862  32.671  1.00  0.00    +0.000 F 
ATOM     41  C33 UNL A   1      -5.239  10.149  34.742  1.00  0.00    +0.000 C 
ATOM     42  F3  UNL A   1      -6.465  10.544  34.373  1.00  0.00    +0.000 F 
ATOM     43  C34 UNL A   1      -5.037   9.592  35.997  1.00  0.00    +0.000 C 
ATOM     44  F4  UNL A   1      -6.072   9.434  36.833  1.00  0.00    +0.000 F 
ATOM     45  C35 UNL A   1      -3.760   9.196  36.389  1.00  0.00    +0.000 C 
ATOM     46  F5  UNL A   1      -3.595   8.671  37.611  1.00  0.00    +0.000 F 
ENDBRANCH   35   36
BRANCH   52   53
ATOM     53  C41 UNL A   1       1.154   3.234  35.305  1.00  0.00    +0.000 C 
ATOM     54  C42 UNL A   1       1.519   2.852  34.006  1.00  0.00    +0.000 C 
ATOM     55  F6  UNL A   1       1.969   3.767  33.136  1.00  0.00    +0.000 F 
ATOM     56  C43 UNL A   1       1.398   1.529  33.591  1.00  0.00    +0.000 C 
ATOM     57  F7  UNL A   1       1.723   1.191  32.335  1.00  0.00    +0.000 F 
ATOM     58  C44 UNL A   1       0.937   0.561  34.472  1.00  0.00    +0.000 C 
ATOM     59  F8  UNL A   1       0.836  -0.715  34.074  1.00  0.00    +0.000 F 
ATOM     60  C45 UNL A   1       0.578   0.917  35.764  1.00  0.00    +0.000 C 
ATOM     61  F9  UNL A   1       0.145  -0.019  36.619  1.00  0.00    +0.000 F 
ATOM     62  C46 UNL A   1       0.675   2.243  36.175  1.00  0.00    +0.000 C 
ATOM     63  F10 UNL A   1       0.320   2.558  37.429  1.00  0.00    +0.000 F 
ENDBRANCH   52   53
BRANCH   67   68
ATOM     68  C50 UNL A   1       6.490   6.535  38.344  1.00  0.00    +0.000 C 
ATOM     69  C51 UNL A   1       7.600   6.881  37.561  1.00  0.00    +0.000 C 
ATOM     70  F11 UNL A   1       7.424   7.558  36.416  1.00  0.00    +0.000 F 
ATOM     71  C52 UNL A   1       8.889   6.511  37.936  1.00  0.00    +0.000 C 
ATOM     72  F12 UNL A   1       9.928   6.830  37.155  1.00  0.00    +0.000 F 
ATOM     73  C53 UNL A   1       9.096   5.806  39.112  1.00  0.00    +0.000 C 
ATOM     74  F13 UNL A   1      10.337   5.459  39.478  1.00  0.00    +0.000 F 
ATOM     75  C54 UNL A   1       8.014   5.458  39.907  1.00  0.00    +0.000 C 
ATOM     76  F14 UNL A   1       8.211   4.787  41.051  1.00  0.00    +0.000 F 
ATOM     77  C55 UNL A   1       6.721   5.808  39.521  1.00  0.00    +0.000 C 
ATOM     78  F15 UNL A   1       5.693   5.456  40.307  1.00  0.00    +0.000 F 
ENDBRANCH   67   68
TORSDOF 20
ENDMDL
MODEL 5
REMARK VINA RESULT:     -10.6     17.431     23.654
ROOT
ATOM    129  H39 UNL A   1      28.083  36.898  45.430  1.00  0.00    +0.000 H 
ATOM    130  H40 UNL A   1      32.709  37.589  43.587  1.00  0.00    +0.000 H 
ATOM    131  H41 UNL A   1      32.912  39.577  45.188  1.00  0.00    +0.000 H 
ATOM    132  H42 UNL A   1      23.504  38.089  48.390  1.00  0.00    +0.000 H 
ATOM    133  H43 UNL A   1      23.407  35.894  47.075  1.00  0.00    +0.000 H 
ATOM     31  C26 UNL A   1      25.712  35.416  45.470  1.00  0.00    +0.000 C 
ATOM     32  C27 UNL A   1      25.483  36.545  46.435  1.00  0.00    +0.000 C 
ATOM     33  N3  UNL A   1      26.276  37.537  46.749  1.00  0.00    +0.000 N 
ATOM     34  C28 UNL A   1      25.570  38.308  47.663  1.00  0.00    +0.000 C 
ATOM     35  C29 UNL A   1      25.982  39.411  48.332  1.00  0.00    +0.000 C 
ATOM     47  C36 UNL A   1      27.286  40.002  48.196  1.00  0.00    +0.000 C 
ATOM     48  C37 UNL A   1      27.810  41.099  48.859  1.00  0.00    +0.000 C 
ATOM     49  C38 UNL A   1      29.105  41.322  48.381  1.00  0.00    +0.000 C 
ATOM     50  C39 UNL A   1      29.402  40.340  47.449  1.00  0.00    +0.000 C 
ATOM     51  N4  UNL A   1      28.276  39.541  47.341  1.00  0.00    +0.000 N 
ATOM     52  C40 UNL A   1      30.623  40.149  46.709  1.00  0.00    +0.000 C 
ATOM     64  C47 UNL A   1      30.847  39.149  45.821  1.00  0.00    +0.000 C 
ATOM     65  N5  UNL A   1      29.999  38.122  45.434  1.00  0.00    +0.000 N 
ATOM     66  C48 UNL A   1      30.663  37.421  44.548  1.00  0.00    +0.000 C 
ATOM     67  C49 UNL A   1      30.237  36.183  43.809  1.00  0.00    +0.000 C 
ATOM     79  C56 UNL A   1      29.011  35.670  44.028  1.00  0.00    +0.000 C 
ATOM     80  C57 UNL A   1      28.464  34.477  43.390  1.00  0.00    +0.000 C 
ATOM     81  C58 UNL A   1      27.210  34.280  43.830  1.00  0.00    +0.000 C 
ATOM     82  C59 UNL A   1      26.880  35.317  44.808  1.00  0.00    +0.000 C 
ATOM     83  N6  UNL A   1      28.005  36.102  44.857  1.00  0.00    +0.000 N 
ATOM     84  C60 UNL A   1      32.008  37.938  44.257  1.00  0.00    +0.000 C 
ATOM     85  C61 UNL A   1      32.081  38.973  45.084  1.00  0.00    +0.000 C 
ATOM     86  C62 UNL A   1      24.266  37.699  47.815  1.00  0.00    +0.000 C 
ATOM     87  C63 UNL A   1      24.182  36.574  47.121  1.00  0.00    +0.000 C 
ATOM    124  H34 UNL A   1      27.327  41.655  49.581  1.00  0.00    +0.000 H 
ATOM    125  H35 UNL A   1      29.732  42.087  48.672  1.00  0.00    +0.000 H 
ATOM    126  H36 UNL A   1      28.191  38.761  46.746  1.00  0.00    +0.000 H 
ATOM    127  H37 UNL A   1      28.960  33.880  42.710  1.00  0.00    +0.000 H 
ATOM    128  H38 UNL A   1      26.581  33.521  43.528  1.00  0.00    +0.000 H 
ENDROOT
BRANCH   31   30
ATOM    134  H44 UNL A   1      25.408  32.979  46.536  1.00  0.00    +0.000 H 
ATOM    135  H45 UNL A   1      23.715  31.313  46.046  1.00  0.00    +0.000 H 
ATOM    123  H33 UNL A   1      23.595  35.613  43.792  1.00  0.00    +0.000 H 
ATOM     88  C64 UNL A   1      24.654  33.192  45.864  1.00  0.00    +0.000 C 
ATOM     89  C65 UNL A   1      23.662  32.247  45.612  1.00  0.00    +0.000 C 
ATOM    122  H32 UNL A   1      21.802  34.013  43.445  1.00  0.00    +0.000 H 
ATOM     27  C22 UNL A   1      22.593  32.569  44.770  1.00  0.00    +0.000 C 
ATOM     28  C23 UNL A   1      22.573  33.793  44.096  1.00  0.00    +0.000 C 
ATOM     29  C24 UNL A   1      23.598  34.717  44.305  1.00  0.00    +0.000 C 
ATOM     30  C25 UNL A   1      24.633  34.433  45.209  1.00  0.00    +0.000 C 
BRANCH   27   25
ATOM     25  C21 UNL A   1      21.481  31.619  44.552  1.00  0.00    +0.000 C 
ATOM     26  O3  UNL A   1      21.655  30.421  44.761  1.00  0.00    +0.000 O 
BRANCH   25   24
ATOM    121  H31 UNL A   1      20.184  32.182  43.135  1.00  0.00    +0.000 H 
ATOM     24  N2  UNL A   1      20.265  32.073  44.110  1.00  0.00    +0.000 N 
BRANCH   24   23
ATOM    119  H29 UNL A   1      19.322  32.385  45.918  1.00  0.00    +0.000 H 
ATOM     23  C20 UNL A   1      19.079  32.414  44.877  1.00  0.00    +0.000 C 
ATOM    120  H30 UNL A   1      18.765  33.392  44.578  1.00  0.00    +0.000 H 
BRANCH   23   22
ATOM    118  H28 UNL A   1      17.201  31.999  44.047  1.00  0.00    +0.000 H 
ATOM    117  H27 UNL A   1      17.555  31.111  45.558  1.00  0.00    +0.000 H 
ATOM     22  C19 UNL A   1      17.925  31.451  44.614  1.00  0.00    +0.000 C 
BRANCH   22   21
ATOM    115  H25 UNL A   1      18.343  30.529  42.750  1.00  0.00    +0.000 H 
ATOM    116  H26 UNL A   1      19.213  29.861  44.167  1.00  0.00    +0.000 H 
ATOM     21  C18 UNL A   1      18.287  30.223  43.773  1.00  0.00    +0.000 C 
BRANCH   21   20
ATOM    113  H23 UNL A   1      17.680  28.257  43.249  1.00  0.00    +0.000 H 
ATOM    114  H24 UNL A   1      17.241  28.795  44.900  1.00  0.00    +0.000 H 
ATOM     20  C17 UNL A   1      17.304  29.049  43.862  1.00  0.00    +0.000 C 
BRANCH   20   19
ATOM     19  C16 UNL A   1      15.874  29.358  43.413  1.00  0.00    +0.000 C 
ATOM    111  H21 UNL A   1      15.210  29.116  44.216  1.00  0.00    +0.000 H 
ATOM    112  H22 UNL A   1      15.851  30.396  43.153  1.00  0.00    +0.000 H 
BRANCH   19   18
ATOM     18  C15 UNL A   1      15.426  28.586  42.173  1.00  0.00    +0.000 C 
ATOM    109  H19 UNL A   1      14.430  28.883  41.919  1.00  0.00    +0.000 H 
ATOM    110  H20 UNL A   1      16.106  28.810  41.376  1.00  0.00    +0.000 H 
BRANCH   18   17
ATOM     17  N1  UNL A   1      15.448  27.153  42.397  1.00  0.00    +0.000 N 
ATOM    108  H18 UNL A   1      16.212  26.692  41.981  1.00  0.00    +0.000 H 
BRANCH   17   15
ATOM     15  C14 UNL A   1      14.602  26.325  43.084  1.00  0.00    +0.000 C 
ATOM     16  O2  UNL A   1      14.367  26.645  44.254  1.00  0.00    +0.000 O 
BRANCH   15   13
ATOM      2  C2  UNL A   1      14.339  22.536  38.327  1.00  0.00    +0.000 C 
ATOM      3  C3  UNL A   1      14.591  23.719  39.068  1.00  0.00    +0.000 C 
ATOM      5  C5  UNL A   1      14.380  23.721  40.460  1.00  0.00    +0.000 C 
ATOM      6  C6  UNL A   1      13.975  22.555  41.133  1.00  0.00    +0.000 C 
ATOM      7  C7  UNL A   1      13.678  21.389  40.398  1.00  0.00    +0.000 C 
ATOM    101  H11 UNL A   1      14.316  21.709  43.038  1.00  0.00    +0.000 H 
ATOM      9  C9  UNL A   1      13.860  21.401  39.006  1.00  0.00    +0.000 C 
ATOM    102  H12 UNL A   1      12.774  22.540  42.861  1.00  0.00    +0.000 H 
ATOM     11  C10 UNL A   1      13.819  22.564  42.630  1.00  0.00    +0.000 C 
ATOM     12  C11 UNL A   1      14.414  23.817  43.237  1.00  0.00    +0.000 C 
ATOM     13  C12 UNL A   1      13.999  25.048  42.429  1.00  0.00    +0.000 C 
ATOM    103  H13 UNL A   1      15.482  23.737  43.233  1.00  0.00    +0.000 H 
ATOM    104  H14 UNL A   1      14.057  23.922  44.240  1.00  0.00    +0.000 H 
ATOM     90  O4  UNL A   1      14.590  24.914  41.114  1.00  0.00    +0.000 O 
BRANCH    2    1
ATOM      1  C1  UNL A   1      14.606  22.527  36.843  1.00  0.00    +0.000 C 
ATOM     91  H1  UNL A   1      15.098  21.616  36.574  1.00  0.00    +0.000 H 
ATOM     92  H2  UNL A   1      15.228  23.358  36.587  1.00  0.00    +0.000 H 
ATOM     93  H3  UNL A   1      13.678  22.600  36.313  1.00  0.00    +0.000 H 
ENDBRANCH    2    1
BRANCH    3    4
ATOM      4  C4  UNL A   1      15.062  24.971  38.367  1.00  0.00    +0.000 C 
ATOM     94  H4  UNL A   1      15.611  25.580  39.055  1.00  0.00    +0.000 H 
ATOM     95  H5  UNL A   1      14.216  25.518  38.005  1.00  0.00    +0.000 H 
ATOM     96  H6  UNL A   1      15.693  24.705  37.545  1.00  0.00    +0.000 H 
ENDBRANCH    3    4
BRANCH    7    8
ATOM     97  H7  UNL A   1      13.889  19.367  41.004  1.00  0.00    +0.000 H 
ATOM     98  H8  UNL A   1      12.243  19.851  40.670  1.00  0.00    +0.000 H 
ATOM     99  H9  UNL A   1      13.026  20.374  42.142  1.00  0.00    +0.000 H 
ATOM      8  C8  UNL A   1      13.173  20.156  41.105  1.00  0.00    +0.000 C 
ENDBRANCH    7    8
BRANCH    9   10
ATOM     10  O1  UNL A   1      13.552  20.248  38.335  1.00  0.00    +0.000 O 
ATOM    100  H10 UNL A   1      12.816  20.228  37.754  1.00  0.00    +0.000 H 
ENDBRANCH    9   10
BRANCH   13   14
ATOM    105  H15 UNL A   1      12.242  25.118  41.191  1.00  0.00    +0.000 H 
ATOM    106  H16 UNL A   1      12.247  26.294  42.484  1.00  0.00    +0.000 H 
ATOM    107  H17 UNL A   1      11.933  24.611  42.835  1.00  0.00    +0.000 H 
ATOM     14  C13 UNL A   1      12.490  25.286  42.219  1.00  0.00    +0.000 C 
ENDBRANCH   13   14
ENDBRANCH   15   13
ENDBRANCH   17   15
ENDBRANCH   18   17
ENDBRANCH   19   18
ENDBRANCH   20   19
ENDBRANCH   21   20
ENDBRANCH   22   21
ENDBRANCH   23   22
ENDBRANCH   24   23
ENDBRANCH   25   24
ENDBRANCH   27   25
ENDBRANCH   31   30
BRANCH   35   36
ATOM     36  C30 UNL A   1      25.014  40.046  49.284  1.00  0.00    +0.000 C 
ATOM     37  C31 UNL A   1      24.968  39.671  50.636  1.00  0.00    +0.000 C 
ATOM     38  F1  UNL A   1      25.759  38.687  51.089  1.00  0.00    +0.000 F 
ATOM     39  C32 UNL A   1      24.086  40.287  51.520  1.00  0.00    +0.000 C 
ATOM     40  F2  UNL A   1      24.034  39.885  52.798  1.00  0.00    +0.000 F 
ATOM     41  C33 UNL A   1      23.256  41.305  51.079  1.00  0.00    +0.000 C 
ATOM     42  F3  UNL A   1      22.415  41.903  51.933  1.00  0.00    +0.000 F 
ATOM     43  C34 UNL A   1      23.294  41.701  49.750  1.00  0.00    +0.000 C 
ATOM     44  F4  UNL A   1      22.500  42.693  49.324  1.00  0.00    +0.000 F 
ATOM     45  C35 UNL A   1      24.157  41.071  48.856  1.00  0.00    +0.000 C 
ATOM     46  F5  UNL A   1      24.164  41.468  47.576  1.00  0.00    +0.000 F 
ENDBRANCH   35   36
BRANCH   52   53
ATOM     53  C41 UNL A   1      31.737  41.123  46.948  1.00  0.00    +0.000 C 
ATOM     54  C42 UNL A   1      32.886  40.756  47.663  1.00  0.00    +0.000 C 
ATOM     55  F6  UNL A   1      32.975  39.540  48.219  1.00  0.00    +0.000 F 
ATOM     56  C43 UNL A   1      33.941  41.651  47.827  1.00  0.00    +0.000 C 
ATOM     57  F7  UNL A   1      35.017  41.290  48.539  1.00  0.00    +0.000 F 
ATOM     58  C44 UNL A   1      33.876  42.915  47.259  1.00  0.00    +0.000 C 
ATOM     59  F8  UNL A   1      34.898  43.770  47.407  1.00  0.00    +0.000 F 
ATOM     60  C45 UNL A   1      32.751  43.295  46.543  1.00  0.00    +0.000 C 
ATOM     61  F9  UNL A   1      32.692  44.511  45.984  1.00  0.00    +0.000 F 
ATOM     62  C46 UNL A   1      31.685  42.412  46.397  1.00  0.00    +0.000 C 
ATOM     63  F10 UNL A   1      30.609  42.807  45.700  1.00  0.00    +0.000 F 
ENDBRANCH   52   53
BRANCH   67   68
ATOM     68  C50 UNL A   1      31.162  35.498  42.871  1.00  0.00    +0.000 C 
ATOM     69  C51 UNL A   1      31.914  34.391  43.288  1.00  0.00    +0.000 C 
ATOM     70  F11 UNL A   1      31.832  33.970  44.559  1.00  0.00    +0.000 F 
ATOM     71  C52 UNL A   1      32.772  33.732  42.412  1.00  0.00    +0.000 C 
ATOM     72  F12 UNL A   1      33.500  32.695  42.845  1.00  0.00    +0.000 F 
ATOM     73  C53 UNL A   1      32.878  34.152  41.095  1.00  0.00    +0.000 C 
ATOM     74  F13 UNL A   1      33.696  33.511  40.249  1.00  0.00    +0.000 F 
ATOM     75  C54 UNL A   1      32.139  35.241  40.656  1.00  0.00    +0.000 C 
ATOM     76  F14 UNL A   1      32.231  35.642  39.381  1.00  0.00    +0.000 F 
ATOM     77  C55 UNL A   1      31.298  35.915  41.539  1.00  0.00    +0.000 C 
ATOM     78  F15 UNL A   1      30.596  36.967  41.089  1.00  0.00    +0.000 F 
ENDBRANCH   67   68
TORSDOF 20
ENDMDL
MODEL 6
REMARK VINA RESULT:     -10.5      2.418      7.745
ROOT
ATOM    129  H39 UNL A   1      42.069  27.521  29.930  1.00  0.00    +0.000 H 
ATOM    130  H40 UNL A   1      45.161  23.726  28.782  1.00  0.00    +0.000 H 
ATOM    131  H41 UNL A   1      46.773  24.680  30.527  1.00  0.00    +0.000 H 
ATOM    132  H42 UNL A   1      40.484  32.310  32.317  1.00  0.00    +0.000 H 
ATOM    133  H43 UNL A   1      38.708  31.185  30.855  1.00  0.00    +0.000 H 
ATOM     31  C26 UNL A   1      39.626  28.825  29.549  1.00  0.00    +0.000 C 
ATOM     32  C27 UNL A   1      40.366  29.668  30.547  1.00  0.00    +0.000 C 
ATOM     33  N3  UNL A   1      41.571  29.508  31.033  1.00  0.00    +0.000 N 
ATOM     34  C28 UNL A   1      41.775  30.579  31.893  1.00  0.00    +0.000 C 
ATOM     35  C29 UNL A   1      42.844  30.831  32.685  1.00  0.00    +0.000 C 
ATOM     47  C36 UNL A   1      44.009  29.993  32.767  1.00  0.00    +0.000 C 
ATOM     48  C37 UNL A   1      45.128  30.146  33.567  1.00  0.00    +0.000 C 
ATOM     49  C38 UNL A   1      46.014  29.101  33.286  1.00  0.00    +0.000 C 
ATOM     50  C39 UNL A   1      45.430  28.276  32.338  1.00  0.00    +0.000 C 
ATOM     51  N4  UNL A   1      44.203  28.837  32.025  1.00  0.00    +0.000 N 
ATOM     52  C40 UNL A   1      45.955  27.066  31.759  1.00  0.00    +0.000 C 
ATOM     64  C47 UNL A   1      45.314  26.298  30.845  1.00  0.00    +0.000 C 
ATOM     65  N5  UNL A   1      44.062  26.482  30.277  1.00  0.00    +0.000 N 
ATOM     66  C48 UNL A   1      43.893  25.485  29.444  1.00  0.00    +0.000 C 
ATOM     67  C49 UNL A   1      42.710  25.170  28.571  1.00  0.00    +0.000 C 
ATOM     79  C56 UNL A   1      41.641  25.989  28.587  1.00  0.00    +0.000 C 
ATOM     80  C57 UNL A   1      40.423  25.810  27.801  1.00  0.00    +0.000 C 
ATOM     81  C58 UNL A   1      39.585  26.828  28.054  1.00  0.00    +0.000 C 
ATOM     82  C59 UNL A   1      40.195  27.714  29.046  1.00  0.00    +0.000 C 
ATOM     83  N6  UNL A   1      41.416  27.141  29.299  1.00  0.00    +0.000 N 
ATOM     84  C60 UNL A   1      45.034  24.561  29.373  1.00  0.00    +0.000 C 
ATOM     85  C61 UNL A   1      45.859  25.085  30.271  1.00  0.00    +0.000 C 
ATOM     86  C62 UNL A   1      40.592  31.409  31.826  1.00  0.00    +0.000 C 
ATOM     87  C63 UNL A   1      39.668  30.861  31.052  1.00  0.00    +0.000 C 
ATOM    124  H34 UNL A   1      45.281  30.900  34.254  1.00  0.00    +0.000 H 
ATOM    125  H35 UNL A   1      46.945  28.968  33.710  1.00  0.00    +0.000 H 
ATOM    126  H36 UNL A   1      43.564  28.470  31.372  1.00  0.00    +0.000 H 
ATOM    127  H37 UNL A   1      40.237  25.027  27.156  1.00  0.00    +0.000 H 
ATOM    128  H38 UNL A   1      38.660  26.965  27.618  1.00  0.00    +0.000 H 
ENDROOT
BRANCH   31   30
ATOM    134  H44 UNL A   1      37.312  28.761  30.896  1.00  0.00    +0.000 H 
ATOM    135  H45 UNL A   1      35.089  29.332  30.113  1.00  0.00    +0.000 H 
ATOM    123  H33 UNL A   1      38.892  29.797  27.129  1.00  0.00    +0.000 H 
ATOM     88  C64 UNL A   1      37.179  29.120  29.937  1.00  0.00    +0.000 C 
ATOM     89  C65 UNL A   1      35.906  29.483  29.502  1.00  0.00    +0.000 C 
ATOM    122  H32 UNL A   1      36.694  30.541  26.415  1.00  0.00    +0.000 H 
ATOM     27  C22 UNL A   1      35.739  30.051  28.236  1.00  0.00    +0.000 C 
ATOM     28  C23 UNL A   1      36.827  30.157  27.363  1.00  0.00    +0.000 C 
ATOM     29  C24 UNL A   1      38.092  29.739  27.779  1.00  0.00    +0.000 C 
ATOM     30  C25 UNL A   1      38.282  29.241  29.078  1.00  0.00    +0.000 C 
BRANCH   27   25
ATOM     25  C21 UNL A   1      34.415  30.525  27.781  1.00  0.00    +0.000 C 
ATOM     26  O3  UNL A   1      33.997  31.617  28.159  1.00  0.00    +0.000 O 
BRANCH   25   24
ATOM    121  H31 UNL A   1      33.321  30.192  26.138  1.00  0.00    +0.000 H 
ATOM     24  N2  UNL A   1      33.654  29.744  26.949  1.00  0.00    +0.000 N 
BRANCH   24   23
ATOM    119  H29 UNL A   1      33.629  27.991  28.036  1.00  0.00    +0.000 H 
ATOM     23  C20 UNL A   1      33.269  28.351  27.095  1.00  0.00    +0.000 C 
ATOM    120  H30 UNL A   1      32.203  28.297  27.039  1.00  0.00    +0.000 H 
BRANCH   23   22
ATOM    118  H28 UNL A   1      33.232  26.596  25.953  1.00  0.00    +0.000 H 
ATOM    117  H27 UNL A   1      34.866  27.274  26.214  1.00  0.00    +0.000 H 
ATOM     22  C19 UNL A   1      33.841  27.476  25.984  1.00  0.00    +0.000 C 
BRANCH   22   21
ATOM    115  H25 UNL A   1      33.312  29.047  24.661  1.00  0.00    +0.000 H 
ATOM    116  H26 UNL A   1      34.792  28.130  24.236  1.00  0.00    +0.000 H 
ATOM     21  C18 UNL A   1      33.781  28.089  24.582  1.00  0.00    +0.000 C 
BRANCH   21   20
ATOM    113  H23 UNL A   1      33.529  27.359  22.603  1.00  0.00    +0.000 H 
ATOM    114  H24 UNL A   1      32.974  26.271  23.913  1.00  0.00    +0.000 H 
ATOM     20  C17 UNL A   1      33.011  27.272  23.536  1.00  0.00    +0.000 C 
BRANCH   20   19
ATOM     19  C16 UNL A   1      31.558  27.697  23.314  1.00  0.00    +0.000 C 
ATOM    111  H21 UNL A   1      31.499  28.759  23.421  1.00  0.00    +0.000 H 
ATOM    112  H22 UNL A   1      31.287  27.363  22.334  1.00  0.00    +0.000 H 
BRANCH   19   18
ATOM     18  C15 UNL A   1      30.564  27.062  24.283  1.00  0.00    +0.000 C 
ATOM    109  H19 UNL A   1      30.737  27.452  25.265  1.00  0.00    +0.000 H 
ATOM    110  H20 UNL A   1      29.574  27.296  23.948  1.00  0.00    +0.000 H 
BRANCH   18   17
ATOM     17  N1  UNL A   1      30.699  25.617  24.320  1.00  0.00    +0.000 N 
ATOM    108  H18 UNL A   1      30.295  25.155  23.550  1.00  0.00    +0.000 H 
BRANCH   17   15
ATOM     15  C14 UNL A   1      31.288  24.780  25.228  1.00  0.00    +0.000 C 
ATOM     16  O2  UNL A   1      31.162  25.097  26.415  1.00  0.00    +0.000 O 
BRANCH   15   13
ATOM      2  C2  UNL A   1      36.489  21.617  25.279  1.00  0.00    +0.000 C 
ATOM      3  C3  UNL A   1      35.608  22.722  25.398  1.00  0.00    +0.000 C 
ATOM      5  C5  UNL A   1      34.223  22.520  25.252  1.00  0.00    +0.000 C 
ATOM      6  C6  UNL A   1      33.696  21.232  25.045  1.00  0.00    +0.000 C 
ATOM      7  C7  UNL A   1      34.568  20.137  24.880  1.00  0.00    +0.000 C 
ATOM    101  H11 UNL A   1      31.927  20.213  25.587  1.00  0.00    +0.000 H 
ATOM      9  C9  UNL A   1      35.951  20.349  24.996  1.00  0.00    +0.000 C 
ATOM    102  H12 UNL A   1      31.953  20.829  23.938  1.00  0.00    +0.000 H 
ATOM     11  C10 UNL A   1      32.207  21.032  24.957  1.00  0.00    +0.000 C 
ATOM     12  C11 UNL A   1      31.459  22.272  25.399  1.00  0.00    +0.000 C 
ATOM     13  C12 UNL A   1      32.088  23.522  24.780  1.00  0.00    +0.000 C 
ATOM    103  H13 UNL A   1      31.502  22.348  26.466  1.00  0.00    +0.000 H 
ATOM    104  H14 UNL A   1      30.441  22.198  25.077  1.00  0.00    +0.000 H 
ATOM     90  O4  UNL A   1      33.424  23.639  25.323  1.00  0.00    +0.000 O 
BRANCH    2    1
ATOM      1  C1  UNL A   1      37.969  21.832  25.477  1.00  0.00    +0.000 C 
ATOM     91  H1  UNL A   1      38.396  22.224  24.577  1.00  0.00    +0.000 H 
ATOM     92  H2  UNL A   1      38.436  20.901  25.718  1.00  0.00    +0.000 H 
ATOM     93  H3  UNL A   1      38.124  22.527  26.276  1.00  0.00    +0.000 H 
ENDBRANCH    2    1
BRANCH    3    4
ATOM      4  C4  UNL A   1      36.153  24.106  25.657  1.00  0.00    +0.000 C 
ATOM     94  H4  UNL A   1      35.390  24.713  26.099  1.00  0.00    +0.000 H 
ATOM     95  H5  UNL A   1      36.466  24.546  24.733  1.00  0.00    +0.000 H 
ATOM     96  H6  UNL A   1      36.988  24.044  26.323  1.00  0.00    +0.000 H 
ENDBRANCH    3    4
BRANCH    7    8
ATOM     97  H7  UNL A   1      34.103  18.149  25.455  1.00  0.00    +0.000 H 
ATOM     98  H8  UNL A   1      34.563  18.325  23.778  1.00  0.00    +0.000 H 
ATOM     99  H9  UNL A   1      32.983  18.849  24.310  1.00  0.00    +0.000 H 
ATOM      8  C8  UNL A   1      34.014  18.765  24.585  1.00  0.00    +0.000 C 
ENDBRANCH    7    8
BRANCH    9   10
ATOM     10  O1  UNL A   1      36.758  19.257  24.821  1.00  0.00    +0.000 O 
ATOM    100  H10 UNL A   1      36.920  18.675  25.538  1.00  0.00    +0.000 H 
ENDBRANCH    9   10
BRANCH   13   14
ATOM    105  H15 UNL A   1      31.654  22.766  22.814  1.00  0.00    +0.000 H 
ATOM    106  H16 UNL A   1      33.254  23.451  22.975  1.00  0.00    +0.000 H 
ATOM    107  H17 UNL A   1      31.860  24.501  22.879  1.00  0.00    +0.000 H 
ATOM     14  C13 UNL A   1      32.224  23.563  23.244  1.00  0.00    +0.000 C 
ENDBRANCH   13   14
ENDBRANCH   15   13
ENDBRANCH   17   15
ENDBRANCH   18   17
ENDBRANCH   19   18
ENDBRANCH   20   19
ENDBRANCH   21   20
ENDBRANCH   22   21
ENDBRANCH   23   22
ENDBRANCH   24   23
ENDBRANCH   25   24
ENDBRANCH   27   25
ENDBRANCH   31   30
BRANCH   35   36
ATOM     36  C30 UNL A   1      42.798  32.063  33.538  1.00  0.00    +0.000 C 
ATOM     37  C31 UNL A   1      43.268  33.297  33.062  1.00  0.00    +0.000 C 
ATOM     38  F1  UNL A   1      43.825  33.383  31.845  1.00  0.00    +0.000 F 
ATOM     39  C32 UNL A   1      43.195  34.443  33.850  1.00  0.00    +0.000 C 
ATOM     40  F2  UNL A   1      43.685  35.602  33.389  1.00  0.00    +0.000 F 
ATOM     41  C33 UNL A   1      42.625  34.385  35.112  1.00  0.00    +0.000 C 
ATOM     42  F3  UNL A   1      42.547  35.490  35.865  1.00  0.00    +0.000 F 
ATOM     43  C34 UNL A   1      42.141  33.178  35.597  1.00  0.00    +0.000 C 
ATOM     44  F4  UNL A   1      41.581  33.122  36.813  1.00  0.00    +0.000 F 
ATOM     45  C35 UNL A   1      42.236  32.024  34.822  1.00  0.00    +0.000 C 
ATOM     46  F5  UNL A   1      41.769  30.871  35.322  1.00  0.00    +0.000 F 
ENDBRANCH   35   36
BRANCH   52   53
ATOM     53  C41 UNL A   1      47.311  26.614  32.213  1.00  0.00    +0.000 C 
ATOM     54  C42 UNL A   1      47.460  25.673  33.241  1.00  0.00    +0.000 C 
ATOM     55  F6  UNL A   1      46.384  25.216  33.898  1.00  0.00    +0.000 F 
ATOM     56  C43 UNL A   1      48.721  25.215  33.613  1.00  0.00    +0.000 C 
ATOM     57  F7  UNL A   1      48.843  24.338  34.619  1.00  0.00    +0.000 F 
ATOM     58  C44 UNL A   1      49.851  25.670  32.947  1.00  0.00    +0.000 C 
ATOM     59  F8  UNL A   1      51.063  25.217  33.298  1.00  0.00    +0.000 F 
ATOM     60  C45 UNL A   1      49.725  26.596  31.923  1.00  0.00    +0.000 C 
ATOM     61  F9  UNL A   1      50.814  27.026  31.272  1.00  0.00    +0.000 F 
ATOM     62  C46 UNL A   1      48.467  27.073  31.565  1.00  0.00    +0.000 C 
ATOM     63  F10 UNL A   1      48.375  27.968  30.571  1.00  0.00    +0.000 F 
ENDBRANCH   52   53
BRANCH   67   68
ATOM     68  C50 UNL A   1      42.690  23.952  27.723  1.00  0.00    +0.000 C 
ATOM     69  C51 UNL A   1      42.320  22.712  28.261  1.00  0.00    +0.000 C 
ATOM     70  F11 UNL A   1      42.022  22.613  29.565  1.00  0.00    +0.000 F 
ATOM     71  C52 UNL A   1      42.282  21.567  27.471  1.00  0.00    +0.000 C 
ATOM     72  F12 UNL A   1      41.953  20.389  28.017  1.00  0.00    +0.000 F 
ATOM     73  C53 UNL A   1      42.591  21.643  26.121  1.00  0.00    +0.000 C 
ATOM     74  F13 UNL A   1      42.545  20.542  25.358  1.00  0.00    +0.000 F 
ATOM     75  C54 UNL A   1      42.953  22.860  25.564  1.00  0.00    +0.000 C 
ATOM     76  F14 UNL A   1      43.242  22.939  24.257  1.00  0.00    +0.000 F 
ATOM     77  C55 UNL A   1      43.014  24.003  26.360  1.00  0.00    +0.000 C 
ATOM     78  F15 UNL A   1      43.370  25.166  25.796  1.00  0.00    +0.000 F 
ENDBRANCH   67   68
TORSDOF 20
ENDMDL
MODEL 7
REMARK VINA RESULT:     -10.5     39.607     43.966
ROOT
ATOM    129  H39 UNL A   1      14.348  52.517   2.694  1.00  0.00    +0.000 H 
ATOM    130  H40 UNL A   1      15.356  57.376   3.504  1.00  0.00    +0.000 H 
ATOM    131  H41 UNL A   1      17.078  57.202   1.617  1.00  0.00    +0.000 H 
ATOM    132  H42 UNL A   1      15.028  47.426   0.511  1.00  0.00    +0.000 H 
ATOM    133  H43 UNL A   1      13.060  47.659   2.132  1.00  0.00    +0.000 H 
ATOM     31  C26 UNL A   1      12.855  50.239   3.323  1.00  0.00    +0.000 C 
ATOM     32  C27 UNL A   1      13.820  49.792   2.263  1.00  0.00    +0.000 C 
ATOM     33  N3  UNL A   1      14.761  50.474   1.660  1.00  0.00    +0.000 N 
ATOM     34  C28 UNL A   1      15.376  49.582   0.793  1.00  0.00    +0.000 C 
ATOM     35  C29 UNL A   1      16.367  49.820  -0.098  1.00  0.00    +0.000 C 
ATOM     47  C36 UNL A   1      16.985  51.103  -0.301  1.00  0.00    +0.000 C 
ATOM     48  C37 UNL A   1      17.972  51.452  -1.206  1.00  0.00    +0.000 C 
ATOM     49  C38 UNL A   1      18.278  52.804  -1.020  1.00  0.00    +0.000 C 
ATOM     50  C39 UNL A   1      17.453  53.307  -0.026  1.00  0.00    +0.000 C 
ATOM     51  N4  UNL A   1      16.670  52.251   0.410  1.00  0.00    +0.000 N 
ATOM     52  C40 UNL A   1      17.389  54.650   0.489  1.00  0.00    +0.000 C 
ATOM     64  C47 UNL A   1      16.539  55.073   1.456  1.00  0.00    +0.000 C 
ATOM     65  N5  UNL A   1      15.575  54.351   2.145  1.00  0.00    +0.000 N 
ATOM     66  C48 UNL A   1      15.024  55.194   2.983  1.00  0.00    +0.000 C 
ATOM     67  C49 UNL A   1      13.909  54.961   3.965  1.00  0.00    +0.000 C 
ATOM     79  C56 UNL A   1      13.358  53.737   4.061  1.00  0.00    +0.000 C 
ATOM     80  C57 UNL A   1      12.271  53.363   4.961  1.00  0.00    +0.000 C 
ATOM     81  C58 UNL A   1      11.997  52.058   4.800  1.00  0.00    +0.000 C 
ATOM     82  C59 UNL A   1      12.869  51.513   3.759  1.00  0.00    +0.000 C 
ATOM     83  N6  UNL A   1      13.648  52.578   3.383  1.00  0.00    +0.000 N 
ATOM     84  C60 UNL A   1      15.592  56.549   2.934  1.00  0.00    +0.000 C 
ATOM     85  C61 UNL A   1      16.490  56.429   1.965  1.00  0.00    +0.000 C 
ATOM     86  C62 UNL A   1      14.738  48.297   0.982  1.00  0.00    +0.000 C 
ATOM     87  C63 UNL A   1      13.731  48.386   1.839  1.00  0.00    +0.000 C 
ATOM    124  H34 UNL A   1      18.407  50.823  -1.898  1.00  0.00    +0.000 H 
ATOM    125  H35 UNL A   1      18.996  53.337  -1.535  1.00  0.00    +0.000 H 
ATOM    126  H36 UNL A   1      15.989  52.308   1.120  1.00  0.00    +0.000 H 
ATOM    127  H37 UNL A   1      11.790  53.999   5.616  1.00  0.00    +0.000 H 
ATOM    128  H38 UNL A   1      11.287  51.525   5.325  1.00  0.00    +0.000 H 
ENDROOT
BRANCH   31   30
ATOM    134  H44 UNL A   1      13.242  48.676   5.463  1.00  0.00    +0.000 H 
ATOM    135  H45 UNL A   1      11.760  47.003   6.402  1.00  0.00    +0.000 H 
ATOM    123  H33 UNL A   1      10.350  49.575   2.533  1.00  0.00    +0.000 H 
ATOM     88  C64 UNL A   1      12.307  48.526   5.052  1.00  0.00    +0.000 C 
ATOM     89  C65 UNL A   1      11.443  47.590   5.617  1.00  0.00    +0.000 C 
ATOM    122  H32 UNL A   1       8.803  48.032   3.590  1.00  0.00    +0.000 H 
ATOM     27  C22 UNL A   1      10.146  47.450   5.115  1.00  0.00    +0.000 C 
ATOM     28  C23 UNL A   1       9.748  48.166   3.982  1.00  0.00    +0.000 C 
ATOM     29  C24 UNL A   1      10.635  49.061   3.382  1.00  0.00    +0.000 C 
ATOM     30  C25 UNL A   1      11.912  49.266   3.927  1.00  0.00    +0.000 C 
BRANCH   27   25
ATOM     25  C21 UNL A   1       9.179  46.528   5.748  1.00  0.00    +0.000 C 
ATOM     26  O3  UNL A   1       8.953  45.436   5.233  1.00  0.00    +0.000 O 
BRANCH   25   24
ATOM    121  H31 UNL A   1       7.899  47.644   6.808  1.00  0.00    +0.000 H 
ATOM     24  N2  UNL A   1       8.531  46.895   6.900  1.00  0.00    +0.000 N 
BRANCH   24   23
ATOM    119  H29 UNL A   1       8.120  46.968   8.920  1.00  0.00    +0.000 H 
ATOM     23  C20 UNL A   1       8.646  46.335   8.236  1.00  0.00    +0.000 C 
ATOM    120  H30 UNL A   1       8.228  45.351   8.216  1.00  0.00    +0.000 H 
BRANCH   23   22
ATOM    118  H28 UNL A   1      10.698  46.449   7.835  1.00  0.00    +0.000 H 
ATOM    117  H27 UNL A   1      10.251  45.228   9.063  1.00  0.00    +0.000 H 
ATOM     22  C19 UNL A   1      10.097  46.219   8.691  1.00  0.00    +0.000 C 
BRANCH   22   21
ATOM    115  H25 UNL A   1       9.661  47.806  10.029  1.00  0.00    +0.000 H 
ATOM    116  H26 UNL A   1      10.871  46.612  10.598  1.00  0.00    +0.000 H 
ATOM     21  C18 UNL A   1      10.513  47.208   9.784  1.00  0.00    +0.000 C 
BRANCH   21   20
ATOM    113  H23 UNL A   1      11.963  47.934   8.413  1.00  0.00    +0.000 H 
ATOM    114  H24 UNL A   1      11.282  49.146   9.542  1.00  0.00    +0.000 H 
ATOM     20  C17 UNL A   1      11.663  48.154   9.417  1.00  0.00    +0.000 C 
BRANCH   20   19
ATOM     19  C16 UNL A   1      12.901  48.058  10.313  1.00  0.00    +0.000 C 
ATOM    111  H21 UNL A   1      12.906  47.093  10.774  1.00  0.00    +0.000 H 
ATOM    112  H22 UNL A   1      13.749  48.222   9.682  1.00  0.00    +0.000 H 
BRANCH   19   18
ATOM     18  C15 UNL A   1      12.962  49.115  11.413  1.00  0.00    +0.000 C 
ATOM    109  H19 UNL A   1      11.973  49.480  11.599  1.00  0.00    +0.000 H 
ATOM    110  H20 UNL A   1      13.373  48.661  12.291  1.00  0.00    +0.000 H 
BRANCH   18   17
ATOM     17  N1  UNL A   1      13.813  50.229  11.038  1.00  0.00    +0.000 N 
ATOM    108  H18 UNL A   1      14.581  50.368  11.638  1.00  0.00    +0.000 H 
BRANCH   17   15
ATOM     15  C14 UNL A   1      13.744  51.120  10.001  1.00  0.00    +0.000 C 
ATOM     16  O2  UNL A   1      12.823  51.941  10.056  1.00  0.00    +0.000 O 
BRANCH   15   13
ATOM      2  C2  UNL A   1      16.037  48.142   5.213  1.00  0.00    +0.000 C 
ATOM      3  C3  UNL A   1      15.354  48.359   6.436  1.00  0.00    +0.000 C 
ATOM      5  C5  UNL A   1      15.191  49.673   6.914  1.00  0.00    +0.000 C 
ATOM      6  C6  UNL A   1      15.648  50.776   6.171  1.00  0.00    +0.000 C 
ATOM      7  C7  UNL A   1      16.368  50.567   4.977  1.00  0.00    +0.000 C 
ATOM    101  H11 UNL A   1      15.014  52.768   5.871  1.00  0.00    +0.000 H 
ATOM      9  C9  UNL A   1      16.554  49.253   4.521  1.00  0.00    +0.000 C 
ATOM    102  H12 UNL A   1      16.334  52.575   7.019  1.00  0.00    +0.000 H 
ATOM     11  C10 UNL A   1      15.405  52.175   6.671  1.00  0.00    +0.000 C 
ATOM     12  C11 UNL A   1      14.418  52.184   7.820  1.00  0.00    +0.000 C 
ATOM     13  C12 UNL A   1      14.755  51.076   8.819  1.00  0.00    +0.000 C 
ATOM    103  H13 UNL A   1      13.431  52.026   7.437  1.00  0.00    +0.000 H 
ATOM    104  H14 UNL A   1      14.472  53.130   8.317  1.00  0.00    +0.000 H 
ATOM     90  O4  UNL A   1      14.568  49.814   8.134  1.00  0.00    +0.000 O 
BRANCH    2    1
ATOM      1  C1  UNL A   1      16.172  46.736   4.685  1.00  0.00    +0.000 C 
ATOM     91  H1  UNL A   1      15.464  46.102   5.175  1.00  0.00    +0.000 H 
ATOM     92  H2  UNL A   1      17.162  46.378   4.873  1.00  0.00    +0.000 H 
ATOM     93  H3  UNL A   1      15.985  46.732   3.631  1.00  0.00    +0.000 H 
ENDBRANCH    2    1
BRANCH    3    4
ATOM      4  C4  UNL A   1      14.824  47.189   7.230  1.00  0.00    +0.000 C 
ATOM     94  H4  UNL A   1      14.845  47.427   8.273  1.00  0.00    +0.000 H 
ATOM     95  H5  UNL A   1      15.435  46.328   7.050  1.00  0.00    +0.000 H 
ATOM     96  H6  UNL A   1      13.818  46.981   6.933  1.00  0.00    +0.000 H 
ENDBRANCH    3    4
BRANCH    7    8
ATOM     97  H7  UNL A   1      17.036  51.477   3.181  1.00  0.00    +0.000 H 
ATOM     98  H8  UNL A   1      17.878  52.011   4.616  1.00  0.00    +0.000 H 
ATOM     99  H9  UNL A   1      16.254  52.572   4.296  1.00  0.00    +0.000 H 
ATOM      8  C8  UNL A   1      16.924  51.742   4.212  1.00  0.00    +0.000 C 
ENDBRANCH    7    8
BRANCH    9   10
ATOM     10  O1  UNL A   1      17.266  49.099   3.361  1.00  0.00    +0.000 O 
ATOM    100  H10 UNL A   1      17.907  49.738   3.117  1.00  0.00    +0.000 H 
ENDBRANCH    9   10
BRANCH   13   14
ATOM    105  H15 UNL A   1      16.865  50.684   8.675  1.00  0.00    +0.000 H 
ATOM    106  H16 UNL A   1      16.202  50.425  10.271  1.00  0.00    +0.000 H 
ATOM    107  H17 UNL A   1      16.464  52.051   9.688  1.00  0.00    +0.000 H 
ATOM     14  C13 UNL A   1      16.180  51.058   9.408  1.00  0.00    +0.000 C 
ENDBRANCH   13   14
ENDBRANCH   15   13
ENDBRANCH   17   15
ENDBRANCH   18   17
ENDBRANCH   19   18
ENDBRANCH   20   19
ENDBRANCH   21   20
ENDBRANCH   22   21
ENDBRANCH   23   22
ENDBRANCH   24   23
ENDBRANCH   25   24
ENDBRANCH   27   25
ENDBRANCH   31   30
BRANCH   35   36
ATOM     36  C30 UNL A   1      16.840  48.668  -0.933  1.00  0.00    +0.000 C 
ATOM     37  C31 UNL A   1      17.963  47.912  -0.563  1.00  0.00    +0.000 C 
ATOM     38  F1  UNL A   1      18.673  48.248   0.524  1.00  0.00    +0.000 F 
ATOM     39  C32 UNL A   1      18.378  46.825  -1.329  1.00  0.00    +0.000 C 
ATOM     40  F2  UNL A   1      19.476  46.142  -0.976  1.00  0.00    +0.000 F 
ATOM     41  C33 UNL A   1      17.664  46.456  -2.457  1.00  0.00    +0.000 C 
ATOM     42  F3  UNL A   1      18.059  45.404  -3.187  1.00  0.00    +0.000 F 
ATOM     43  C34 UNL A   1      16.542  47.180  -2.834  1.00  0.00    +0.000 C 
ATOM     44  F4  UNL A   1      15.845  46.818  -3.919  1.00  0.00    +0.000 F 
ATOM     45  C35 UNL A   1      16.139  48.284  -2.085  1.00  0.00    +0.000 C 
ATOM     46  F5  UNL A   1      15.057  48.970  -2.480  1.00  0.00    +0.000 F 
ENDBRANCH   35   36
BRANCH   52   53
ATOM     53  C41 UNL A   1      18.326  55.662  -0.099  1.00  0.00    +0.000 C 
ATOM     54  C42 UNL A   1      18.010  56.349  -1.279  1.00  0.00    +0.000 C 
ATOM     55  F6  UNL A   1      16.890  56.052  -1.954  1.00  0.00    +0.000 F 
ATOM     56  C43 UNL A   1      18.860  57.330  -1.783  1.00  0.00    +0.000 C 
ATOM     57  F7  UNL A   1      18.554  57.954  -2.929  1.00  0.00    +0.000 F 
ATOM     58  C44 UNL A   1      20.024  57.659  -1.104  1.00  0.00    +0.000 C 
ATOM     59  F8  UNL A   1      20.834  58.613  -1.583  1.00  0.00    +0.000 F 
ATOM     60  C45 UNL A   1      20.352  56.996   0.069  1.00  0.00    +0.000 C 
ATOM     61  F9  UNL A   1      21.469  57.321   0.732  1.00  0.00    +0.000 F 
ATOM     62  C46 UNL A   1      19.516  55.998   0.563  1.00  0.00    +0.000 C 
ATOM     63  F10 UNL A   1      19.858  55.373   1.699  1.00  0.00    +0.000 F 
ENDBRANCH   52   53
BRANCH   67   68
ATOM     68  C50 UNL A   1      13.385  56.070   4.802  1.00  0.00    +0.000 C 
ATOM     69  C51 UNL A   1      12.377  56.915   4.319  1.00  0.00    +0.000 C 
ATOM     70  F11 UNL A   1      11.909  56.752   3.072  1.00  0.00    +0.000 F 
ATOM     71  C52 UNL A   1      11.867  57.948   5.101  1.00  0.00    +0.000 C 
ATOM     72  F12 UNL A   1      10.924  58.759   4.604  1.00  0.00    +0.000 F 
ATOM     73  C53 UNL A   1      12.338  58.141   6.391  1.00  0.00    +0.000 C 
ATOM     74  F13 UNL A   1      11.840  59.128   7.148  1.00  0.00    +0.000 F 
ATOM     75  C54 UNL A   1      13.330  57.313   6.894  1.00  0.00    +0.000 C 
ATOM     76  F14 UNL A   1      13.780  57.489   8.145  1.00  0.00    +0.000 F 
ATOM     77  C55 UNL A   1      13.858  56.293   6.103  1.00  0.00    +0.000 C 
ATOM     78  F15 UNL A   1      14.818  55.509   6.613  1.00  0.00    +0.000 F 
ENDBRANCH   67   68
TORSDOF 20
ENDMDL
MODEL 8
REMARK VINA RESULT:     -10.5     35.576     42.549
ROOT
ATOM    129  H39 UNL A   1       2.333   8.187  37.220  1.00  0.00    +0.000 H 
ATOM    130  H40 UNL A   1       5.407   4.212  37.039  1.00  0.00    +0.000 H 
ATOM    131  H41 UNL A   1       3.513   2.962  35.854  1.00  0.00    +0.000 H 
ATOM    132  H42 UNL A   1      -2.458  11.001  36.695  1.00  0.00    +0.000 H 
ATOM    133  H43 UNL A   1      -0.476  12.380  37.547  1.00  0.00    +0.000 H 
ATOM     31  C26 UNL A   1       1.900  10.855  37.933  1.00  0.00    +0.000 C 
ATOM     32  C27 UNL A   1       0.594  10.389  37.355  1.00  0.00    +0.000 C 
ATOM     33  N3  UNL A   1       0.264   9.205  36.906  1.00  0.00    +0.000 N 
ATOM     34  C28 UNL A   1      -1.064   9.307  36.514  1.00  0.00    +0.000 C 
ATOM     35  C29 UNL A   1      -1.844   8.370  35.927  1.00  0.00    +0.000 C 
ATOM     47  C36 UNL A   1      -1.406   7.039  35.599  1.00  0.00    +0.000 C 
ATOM     48  C37 UNL A   1      -2.112   6.029  34.970  1.00  0.00    +0.000 C 
ATOM     49  C38 UNL A   1      -1.287   4.902  34.890  1.00  0.00    +0.000 C 
ATOM     50  C39 UNL A   1      -0.054   5.224  35.434  1.00  0.00    +0.000 C 
ATOM     51  N4  UNL A   1      -0.143   6.535  35.870  1.00  0.00    +0.000 N 
ATOM     52  C40 UNL A   1       1.116   4.393  35.551  1.00  0.00    +0.000 C 
ATOM     64  C47 UNL A   1       2.300   4.785  36.083  1.00  0.00    +0.000 C 
ATOM     65  N5  UNL A   1       2.650   6.018  36.615  1.00  0.00    +0.000 N 
ATOM     66  C48 UNL A   1       3.893   5.900  37.011  1.00  0.00    +0.000 C 
ATOM     67  C49 UNL A   1       4.787   6.930  37.645  1.00  0.00    +0.000 C 
ATOM     79  C56 UNL A   1       4.308   8.166  37.878  1.00  0.00    +0.000 C 
ATOM     80  C57 UNL A   1       5.055   9.267  38.480  1.00  0.00    +0.000 C 
ATOM     81  C58 UNL A   1       4.253  10.339  38.580  1.00  0.00    +0.000 C 
ATOM     82  C59 UNL A   1       2.944  10.009  38.017  1.00  0.00    +0.000 C 
ATOM     83  N6  UNL A   1       3.066   8.698  37.632  1.00  0.00    +0.000 N 
ATOM     84  C60 UNL A   1       4.470   4.565  36.793  1.00  0.00    +0.000 C 
ATOM     85  C61 UNL A   1       3.467   3.935  36.195  1.00  0.00    +0.000 C 
ATOM     86  C62 UNL A   1      -1.495  10.653  36.824  1.00  0.00    +0.000 C 
ATOM     87  C63 UNL A   1      -0.492  11.380  37.293  1.00  0.00    +0.000 C 
ATOM    124  H34 UNL A   1      -3.080   6.096  34.619  1.00  0.00    +0.000 H 
ATOM    125  H35 UNL A   1      -1.552   3.988  34.493  1.00  0.00    +0.000 H 
ATOM    126  H36 UNL A   1       0.584   7.036  36.309  1.00  0.00    +0.000 H 
ATOM    127  H37 UNL A   1       6.042   9.227  38.780  1.00  0.00    +0.000 H 
ATOM    128  H38 UNL A   1       4.518  11.249  38.988  1.00  0.00    +0.000 H 
ENDROOT
BRANCH   31   30
ATOM    134  H44 UNL A   1       2.511  13.082  36.577  1.00  0.00    +0.000 H 
ATOM    135  H45 UNL A   1       2.833  15.330  37.426  1.00  0.00    +0.000 H 
ATOM    123  H33 UNL A   1       1.615  11.751  40.473  1.00  0.00    +0.000 H 
ATOM     88  C64 UNL A   1       2.371  13.280  37.580  1.00  0.00    +0.000 C 
ATOM     89  C65 UNL A   1       2.520  14.579  38.059  1.00  0.00    +0.000 C 
ATOM    122  H32 UNL A   1       1.757  14.035  41.283  1.00  0.00    +0.000 H 
ATOM     27  C22 UNL A   1       2.243  14.863  39.400  1.00  0.00    +0.000 C 
ATOM     28  C23 UNL A   1       1.923  13.829  40.285  1.00  0.00    +0.000 C 
ATOM     29  C24 UNL A   1       1.830  12.518  39.816  1.00  0.00    +0.000 C 
ATOM     30  C25 UNL A   1       2.029  12.237  38.455  1.00  0.00    +0.000 C 
BRANCH   27   25
ATOM     25  C21 UNL A   1       2.309  16.246  39.916  1.00  0.00    +0.000 C 
ATOM     26  O3  UNL A   1       1.299  16.774  40.373  1.00  0.00    +0.000 O 
BRANCH   25   24
ATOM    121  H31 UNL A   1       3.645  17.466  39.058  1.00  0.00    +0.000 H 
ATOM     24  N2  UNL A   1       3.492  16.940  39.876  1.00  0.00    +0.000 N 
BRANCH   24   23
ATOM    119  H29 UNL A   1       4.910  18.015  40.919  1.00  0.00    +0.000 H 
ATOM     23  C20 UNL A   1       4.551  17.008  40.868  1.00  0.00    +0.000 C 
ATOM    120  H30 UNL A   1       4.143  16.692  41.805  1.00  0.00    +0.000 H 
BRANCH   23   22
ATOM    118  H28 UNL A   1       6.548  16.724  40.308  1.00  0.00    +0.000 H 
ATOM    117  H27 UNL A   1       5.426  15.467  39.709  1.00  0.00    +0.000 H 
ATOM     22  C19 UNL A   1       5.718  16.086  40.531  1.00  0.00    +0.000 C 
BRANCH   22   21
ATOM    115  H25 UNL A   1       7.243  15.162  41.680  1.00  0.00    +0.000 H 
ATOM    116  H26 UNL A   1       5.741  15.581  42.564  1.00  0.00    +0.000 H 
ATOM     21  C18 UNL A   1       6.173  15.174  41.674  1.00  0.00    +0.000 C 
BRANCH   21   20
ATOM    113  H23 UNL A   1       5.460  13.395  42.590  1.00  0.00    +0.000 H 
ATOM    114  H24 UNL A   1       4.836  13.731  40.945  1.00  0.00    +0.000 H 
ATOM     20  C17 UNL A   1       5.685  13.722  41.596  1.00  0.00    +0.000 C 
BRANCH   20   19
ATOM     19  C16 UNL A   1       6.678  12.730  40.984  1.00  0.00    +0.000 C 
ATOM    111  H21 UNL A   1       6.840  11.942  41.688  1.00  0.00    +0.000 H 
ATOM    112  H22 UNL A   1       6.244  12.387  40.068  1.00  0.00    +0.000 H 
BRANCH   19   18
ATOM     18  C15 UNL A   1       8.032  13.339  40.627  1.00  0.00    +0.000 C 
ATOM    109  H19 UNL A   1       7.914  14.394  40.490  1.00  0.00    +0.000 H 
ATOM    110  H20 UNL A   1       8.714  13.130  41.426  1.00  0.00    +0.000 H 
BRANCH   18   17
ATOM     17  N1  UNL A   1       8.573  12.763  39.409  1.00  0.00    +0.000 N 
ATOM    108  H18 UNL A   1       9.544  12.888  39.301  1.00  0.00    +0.000 H 
BRANCH   17   15
ATOM     15  C14 UNL A   1       7.981  12.076  38.385  1.00  0.00    +0.000 C 
ATOM     16  O2  UNL A   1       7.990  10.845  38.484  1.00  0.00    +0.000 O 
BRANCH   15   13
ATOM      2  C2  UNL A   1       8.536  16.209  33.950  1.00  0.00    +0.000 C 
ATOM      3  C3  UNL A   1       8.789  15.530  35.169  1.00  0.00    +0.000 C 
ATOM      5  C5  UNL A   1       8.087  14.345  35.459  1.00  0.00    +0.000 C 
ATOM      6  C6  UNL A   1       7.177  13.797  34.537  1.00  0.00    +0.000 C 
ATOM      7  C7  UNL A   1       6.885  14.491  33.345  1.00  0.00    +0.000 C 
ATOM    101  H11 UNL A   1       6.560  11.853  33.989  1.00  0.00    +0.000 H 
ATOM      9  C9  UNL A   1       7.566  15.688  33.074  1.00  0.00    +0.000 C 
ATOM    102  H12 UNL A   1       5.462  12.703  35.071  1.00  0.00    +0.000 H 
ATOM     11  C10 UNL A   1       6.486  12.496  34.842  1.00  0.00    +0.000 C 
ATOM     12  C11 UNL A   1       7.114  11.806  36.035  1.00  0.00    +0.000 C 
ATOM     13  C12 UNL A   1       7.357  12.811  37.162  1.00  0.00    +0.000 C 
ATOM    103  H13 UNL A   1       8.048  11.374  35.740  1.00  0.00    +0.000 H 
ATOM    104  H14 UNL A   1       6.451  11.043  36.384  1.00  0.00    +0.000 H 
ATOM     90  O4  UNL A   1       8.337  13.761  36.681  1.00  0.00    +0.000 O 
BRANCH    2    1
ATOM      1  C1  UNL A   1       9.321  17.455  33.626  1.00  0.00    +0.000 C 
ATOM     91  H1  UNL A   1       9.267  18.136  34.449  1.00  0.00    +0.000 H 
ATOM     92  H2  UNL A   1       8.911  17.918  32.753  1.00  0.00    +0.000 H 
ATOM     93  H3  UNL A   1      10.343  17.195  33.445  1.00  0.00    +0.000 H 
ENDBRANCH    2    1
BRANCH    3    4
ATOM      4  C4  UNL A   1       9.790  16.083  36.155  1.00  0.00    +0.000 C 
ATOM     94  H4  UNL A   1       9.427  15.938  37.151  1.00  0.00    +0.000 H 
ATOM     95  H5  UNL A   1       9.929  17.129  35.975  1.00  0.00    +0.000 H 
ATOM     96  H6  UNL A   1      10.725  15.574  36.040  1.00  0.00    +0.000 H 
ENDBRANCH    3    4
BRANCH    7    8
ATOM     97  H7  UNL A   1       5.003  13.605  32.931  1.00  0.00    +0.000 H 
ATOM     98  H8  UNL A   1       6.279  13.132  31.834  1.00  0.00    +0.000 H 
ATOM     99  H9  UNL A   1       5.559  14.720  31.705  1.00  0.00    +0.000 H 
ATOM      8  C8  UNL A   1       5.857  13.948  32.384  1.00  0.00    +0.000 C 
ENDBRANCH    7    8
BRANCH    9   10
ATOM     10  O1  UNL A   1       7.244  16.329  31.908  1.00  0.00    +0.000 O 
ATOM    100  H10 UNL A   1       7.405  17.249  31.819  1.00  0.00    +0.000 H 
ENDBRANCH    9   10
BRANCH   13   14
ATOM    105  H15 UNL A   1       6.322  14.669  37.480  1.00  0.00    +0.000 H 
ATOM    106  H16 UNL A   1       6.016  13.466  38.710  1.00  0.00    +0.000 H 
ATOM    107  H17 UNL A   1       5.268  13.317  37.138  1.00  0.00    +0.000 H 
ATOM     14  C13 UNL A   1       6.148  13.628  37.660  1.00  0.00    +0.000 C 
ENDBRANCH   13   14
ENDBRANCH   15   13
ENDBRANCH   17   15
ENDBRANCH   18   17
ENDBRANCH   19   18
ENDBRANCH   20   19
ENDBRANCH   21   20
ENDBRANCH   22   21
ENDBRANCH   23   22
ENDBRANCH   24   23
ENDBRANCH   25   24
ENDBRANCH   27   25
ENDBRANCH   31   30
BRANCH   35   36
ATOM     36  C30 UNL A   1      -3.253   8.754  35.588  1.00  0.00    +0.000 C 
ATOM     37  C31 UNL A   1      -4.298   8.573  36.507  1.00  0.00    +0.000 C 
ATOM     38  F1  UNL A   1      -4.061   7.995  37.693  1.00  0.00    +0.000 F 
ATOM     39  C32 UNL A   1      -5.599   8.960  36.196  1.00  0.00    +0.000 C 
ATOM     40  F2  UNL A   1      -6.588   8.743  37.075  1.00  0.00    +0.000 F 
ATOM     41  C33 UNL A   1      -5.875   9.560  34.977  1.00  0.00    +0.000 C 
ATOM     42  F3  UNL A   1      -7.125   9.939  34.683  1.00  0.00    +0.000 F 
ATOM     43  C34 UNL A   1      -4.854   9.760  34.059  1.00  0.00    +0.000 C 
ATOM     44  F4  UNL A   1      -5.116  10.349  32.884  1.00  0.00    +0.000 F 
ATOM     45  C35 UNL A   1      -3.555   9.351  34.356  1.00  0.00    +0.000 C 
ATOM     46  F5  UNL A   1      -2.592   9.550  33.445  1.00  0.00    +0.000 F 
ENDBRANCH   35   36
BRANCH   52   53
ATOM     53  C41 UNL A   1       1.023   2.990  35.032  1.00  0.00    +0.000 C 
ATOM     54  C42 UNL A   1       1.479   2.655  33.748  1.00  0.00    +0.000 C 
ATOM     55  F6  UNL A   1       1.936   3.610  32.925  1.00  0.00    +0.000 F 
ATOM     56  C43 UNL A   1       1.443   1.338  33.299  1.00  0.00    +0.000 C 
ATOM     57  F7  UNL A   1       1.855   1.044  32.058  1.00  0.00    +0.000 F 
ATOM     58  C44 UNL A   1       0.977   0.330  34.132  1.00  0.00    +0.000 C 
ATOM     59  F8  UNL A   1       0.957  -0.939  33.702  1.00  0.00    +0.000 F 
ATOM     60  C45 UNL A   1       0.529   0.639  35.408  1.00  0.00    +0.000 C 
ATOM     61  F9  UNL A   1       0.090  -0.334  36.216  1.00  0.00    +0.000 F 
ATOM     62  C46 UNL A   1       0.541   1.959  35.851  1.00  0.00    +0.000 C 
ATOM     63  F10 UNL A   1       0.100   2.228  37.088  1.00  0.00    +0.000 F 
ENDBRANCH   52   53
BRANCH   67   68
ATOM     68  C50 UNL A   1       6.198   6.613  37.981  1.00  0.00    +0.000 C 
ATOM     69  C51 UNL A   1       7.233   6.933  37.092  1.00  0.00    +0.000 C 
ATOM     70  F11 UNL A   1       6.946   7.492  35.906  1.00  0.00    +0.000 F 
ATOM     71  C52 UNL A   1       8.561   6.655  37.404  1.00  0.00    +0.000 C 
ATOM     72  F12 UNL A   1       9.528   6.945  36.524  1.00  0.00    +0.000 F 
ATOM     73  C53 UNL A   1       8.882   6.073  38.621  1.00  0.00    +0.000 C 
ATOM     74  F13 UNL A   1      10.162   5.815  38.926  1.00  0.00    +0.000 F 
ATOM     75  C54 UNL A   1       7.876   5.754  39.520  1.00  0.00    +0.000 C 
ATOM     76  F14 UNL A   1       8.183   5.202  40.702  1.00  0.00    +0.000 F 
ATOM     77  C55 UNL A   1       6.544   6.010  39.198  1.00  0.00    +0.000 C 
ATOM     78  F15 UNL A   1       5.590   5.689  40.085  1.00  0.00    +0.000 F 
ENDBRANCH   67   68
TORSDOF 20
ENDMDL
MODEL 9
REMARK VINA RESULT:     -10.5     34.671     41.613
ROOT
ATOM    129  H39 UNL A   1       1.161   8.701  36.851  1.00  0.00    +0.000 H 
ATOM    130  H40 UNL A   1      -2.757   6.575  34.524  1.00  0.00    +0.000 H 
ATOM    131  H41 UNL A   1      -1.455   4.373  34.618  1.00  0.00    +0.000 H 
ATOM    132  H42 UNL A   1       6.317   9.035  38.960  1.00  0.00    +0.000 H 
ATOM    133  H43 UNL A   1       4.902  11.155  39.207  1.00  0.00    +0.000 H 
ATOM     31  C26 UNL A   1       2.337  10.971  37.982  1.00  0.00    +0.000 C 
ATOM     32  C27 UNL A   1       3.371   9.890  38.112  1.00  0.00    +0.000 C 
ATOM     33  N3  UNL A   1       3.324   8.647  37.705  1.00  0.00    +0.000 N 
ATOM     34  C28 UNL A   1       4.548   8.091  38.050  1.00  0.00    +0.000 C 
ATOM     35  C29 UNL A   1       4.966   6.812  37.899  1.00  0.00    +0.000 C 
ATOM     47  C36 UNL A   1       4.173   5.763  37.317  1.00  0.00    +0.000 C 
ATOM     48  C37 UNL A   1       4.495   4.428  37.153  1.00  0.00    +0.000 C 
ATOM     49  C38 UNL A   1       3.424   3.794  36.514  1.00  0.00    +0.000 C 
ATOM     50  C39 UNL A   1       2.419   4.727  36.316  1.00  0.00    +0.000 C 
ATOM     51  N4  UNL A   1       2.894   5.931  36.808  1.00  0.00    +0.000 N 
ATOM     52  C40 UNL A   1       1.123   4.533  35.719  1.00  0.00    +0.000 C 
ATOM     64  C47 UNL A   1       0.180   5.496  35.575  1.00  0.00    +0.000 C 
ATOM     65  N5  UNL A   1       0.233   6.831  35.950  1.00  0.00    +0.000 N 
ATOM     66  C48 UNL A   1      -0.913   7.353  35.590  1.00  0.00    +0.000 C 
ATOM     67  C49 UNL A   1      -1.409   8.761  35.766  1.00  0.00    +0.000 C 
ATOM     79  C56 UNL A   1      -0.615   9.672  36.361  1.00  0.00    +0.000 C 
ATOM     80  C57 UNL A   1      -0.961  11.069  36.604  1.00  0.00    +0.000 C 
ATOM     81  C58 UNL A   1       0.079  11.682  37.193  1.00  0.00    +0.000 C 
ATOM     82  C59 UNL A   1       1.152  10.709  37.398  1.00  0.00    +0.000 C 
ATOM     83  N6  UNL A   1       0.655   9.545  36.867  1.00  0.00    +0.000 N 
ATOM     84  C60 UNL A   1      -1.821   6.408  34.923  1.00  0.00    +0.000 C 
ATOM     85  C61 UNL A   1      -1.119   5.283  34.969  1.00  0.00    +0.000 C 
ATOM     86  C62 UNL A   1       5.337   9.143  38.656  1.00  0.00    +0.000 C 
ATOM     87  C63 UNL A   1       4.634  10.260  38.770  1.00  0.00    +0.000 C 
ATOM    124  H34 UNL A   1       5.374   3.977  37.450  1.00  0.00    +0.000 H 
ATOM    125  H35 UNL A   1       3.389   2.801  36.237  1.00  0.00    +0.000 H 
ATOM    126  H36 UNL A   1       2.396   6.782  36.798  1.00  0.00    +0.000 H 
ATOM    127  H37 UNL A   1      -1.860  11.515  36.363  1.00  0.00    +0.000 H 
ATOM    128  H38 UNL A   1       0.116  12.678  37.458  1.00  0.00    +0.000 H 
ENDROOT
BRANCH   31   30
ATOM    134  H44 UNL A   1       3.413  12.996  36.598  1.00  0.00    +0.000 H 
ATOM    135  H45 UNL A   1       4.008  15.213  37.378  1.00  0.00    +0.000 H 
ATOM    123  H33 UNL A   1       1.969  12.046  40.441  1.00  0.00    +0.000 H 
ATOM     88  C64 UNL A   1       3.215  13.270  37.573  1.00  0.00    +0.000 C 
ATOM     89  C65 UNL A   1       3.524  14.557  38.008  1.00  0.00    +0.000 C 
ATOM    122  H32 UNL A   1       2.397  14.324  41.162  1.00  0.00    +0.000 H 
ATOM     27  C22 UNL A   1       3.175  14.957  39.302  1.00  0.00    +0.000 C 
ATOM     28  C23 UNL A   1       2.618  14.038  40.196  1.00  0.00    +0.000 C 
ATOM     29  C24 UNL A   1       2.361  12.731  39.776  1.00  0.00    +0.000 C 
ATOM     30  C25 UNL A   1       2.635  12.345  38.455  1.00  0.00    +0.000 C 
BRANCH   27   25
ATOM     25  C21 UNL A   1       3.412  16.341  39.762  1.00  0.00    +0.000 C 
ATOM     26  O3  UNL A   1       2.465  17.115  39.876  1.00  0.00    +0.000 O 
BRANCH   25   24
ATOM    121  H31 UNL A   1       4.999  17.541  39.538  1.00  0.00    +0.000 H 
ATOM     24  N2  UNL A   1       4.686  16.762  40.051  1.00  0.00    +0.000 N 
BRANCH   24   23
ATOM    119  H29 UNL A   1       6.276  17.011  41.342  1.00  0.00    +0.000 H 
ATOM     23  C20 UNL A   1       5.637  16.220  41.007  1.00  0.00    +0.000 C 
ATOM    120  H30 UNL A   1       5.083  15.797  41.817  1.00  0.00    +0.000 H 
BRANCH   23   22
ATOM    118  H28 UNL A   1       6.057  14.878  39.456  1.00  0.00    +0.000 H 
ATOM    117  H27 UNL A   1       6.510  14.293  41.083  1.00  0.00    +0.000 H 
ATOM     22  C19 UNL A   1       6.498  15.116  40.401  1.00  0.00    +0.000 C 
BRANCH   22   21
ATOM    115  H25 UNL A   1       8.572  15.041  40.837  1.00  0.00    +0.000 H 
ATOM    116  H26 UNL A   1       8.142  15.200  39.105  1.00  0.00    +0.000 H 
ATOM     21  C18 UNL A   1       7.948  15.514  40.109  1.00  0.00    +0.000 C 
BRANCH   21   20
ATOM    113  H23 UNL A   1       7.792  17.462  39.277  1.00  0.00    +0.000 H 
ATOM    114  H24 UNL A   1       7.834  17.378  41.066  1.00  0.00    +0.000 H 
ATOM     20  C17 UNL A   1       8.240  17.019  40.143  1.00  0.00    +0.000 C 
BRANCH   20   19
ATOM     19  C16 UNL A   1       9.723  17.398  40.155  1.00  0.00    +0.000 C 
ATOM    111  H21 UNL A   1      10.289  16.529  40.415  1.00  0.00    +0.000 H 
ATOM    112  H22 UNL A   1       9.953  17.767  39.177  1.00  0.00    +0.000 H 
BRANCH   19   18
ATOM     18  C15 UNL A   1      10.077  18.512  41.138  1.00  0.00    +0.000 C 
ATOM    109  H19 UNL A   1       9.206  19.105  41.320  1.00  0.00    +0.000 H 
ATOM    110  H20 UNL A   1      10.428  18.059  42.043  1.00  0.00    +0.000 H 
BRANCH   18   17
ATOM     17  N1  UNL A   1      11.130  19.366  40.621  1.00  0.00    +0.000 N 
ATOM    108  H18 UNL A   1      10.838  19.982  39.911  1.00  0.00    +0.000 H 
BRANCH   17   15
ATOM     15  C14 UNL A   1      12.456  19.475  40.944  1.00  0.00    +0.000 C 
ATOM     16  O2  UNL A   1      13.121  18.439  40.847  1.00  0.00    +0.000 O 
BRANCH   15   13
ATOM      2  C2  UNL A   1      14.466  25.063  39.605  1.00  0.00    +0.000 C 
ATOM      3  C3  UNL A   1      14.083  23.711  39.416  1.00  0.00    +0.000 C 
ATOM      5  C5  UNL A   1      13.536  22.989  40.494  1.00  0.00    +0.000 C 
ATOM      6  C6  UNL A   1      13.315  23.604  41.739  1.00  0.00    +0.000 C 
ATOM      7  C7  UNL A   1      13.735  24.933  41.949  1.00  0.00    +0.000 C 
ATOM    101  H11 UNL A   1      11.888  23.423  43.286  1.00  0.00    +0.000 H 
ATOM      9  C9  UNL A   1      14.308  25.639  40.879  1.00  0.00    +0.000 C 
ATOM    102  H12 UNL A   1      13.418  22.605  43.588  1.00  0.00    +0.000 H 
ATOM     11  C10 UNL A   1      12.670  22.830  42.857  1.00  0.00    +0.000 C 
ATOM     12  C11 UNL A   1      12.083  21.527  42.357  1.00  0.00    +0.000 C 
ATOM     13  C12 UNL A   1      13.071  20.821  41.426  1.00  0.00    +0.000 C 
ATOM    103  H13 UNL A   1      11.178  21.731  41.822  1.00  0.00    +0.000 H 
ATOM    104  H14 UNL A   1      11.879  20.893  43.194  1.00  0.00    +0.000 H 
ATOM     90  O4  UNL A   1      13.236  21.665  40.262  1.00  0.00    +0.000 O 
BRANCH    2    1
ATOM      1  C1  UNL A   1      15.012  25.843  38.436  1.00  0.00    +0.000 C 
ATOM     91  H1  UNL A   1      15.557  25.186  37.792  1.00  0.00    +0.000 H 
ATOM     92  H2  UNL A   1      15.663  26.613  38.794  1.00  0.00    +0.000 H 
ATOM     93  H3  UNL A   1      14.203  26.285  37.893  1.00  0.00    +0.000 H 
ENDBRANCH    2    1
BRANCH    3    4
ATOM      4  C4  UNL A   1      14.279  23.045  38.075  1.00  0.00    +0.000 C 
ATOM     94  H4  UNL A   1      14.550  23.781  37.347  1.00  0.00    +0.000 H 
ATOM     95  H5  UNL A   1      13.368  22.567  37.776  1.00  0.00    +0.000 H 
ATOM     96  H6  UNL A   1      15.057  22.314  38.148  1.00  0.00    +0.000 H 
ENDBRANCH    3    4
BRANCH    7    8
ATOM     97  H7  UNL A   1      13.265  24.836  44.015  1.00  0.00    +0.000 H 
ATOM     98  H8  UNL A   1      12.822  26.341  43.245  1.00  0.00    +0.000 H 
ATOM     99  H9  UNL A   1      14.497  26.007  43.611  1.00  0.00    +0.000 H 
ATOM      8  C8  UNL A   1      13.568  25.576  43.303  1.00  0.00    +0.000 C 
ENDBRANCH    7    8
BRANCH    9   10
ATOM     10  O1  UNL A   1      14.707  26.924  41.133  1.00  0.00    +0.000 O 
ATOM    100  H10 UNL A   1      15.226  27.112  41.891  1.00  0.00    +0.000 H 
ENDBRANCH    9   10
BRANCH   13   14
ATOM    105  H15 UNL A   1      14.726  19.504  41.814  1.00  0.00    +0.000 H 
ATOM    106  H16 UNL A   1      14.509  20.747  43.024  1.00  0.00    +0.000 H 
ATOM    107  H17 UNL A   1      15.195  21.152  41.468  1.00  0.00    +0.000 H 
ATOM     14  C13 UNL A   1      14.483  20.534  41.974  1.00  0.00    +0.000 C 
ENDBRANCH   13   14
ENDBRANCH   15   13
ENDBRANCH   17   15
ENDBRANCH   18   17
ENDBRANCH   19   18
ENDBRANCH   20   19
ENDBRANCH   21   20
ENDBRANCH   22   21
ENDBRANCH   23   22
ENDBRANCH   24   23
ENDBRANCH   25   24
ENDBRANCH   27   25
ENDBRANCH   31   30
BRANCH   35   36
ATOM     36  C30 UNL A   1       6.344   6.472  38.380  1.00  0.00    +0.000 C 
ATOM     37  C31 UNL A   1       6.544   5.752  39.569  1.00  0.00    +0.000 C 
ATOM     38  F1  UNL A   1       5.497   5.404  40.330  1.00  0.00    +0.000 F 
ATOM     39  C32 UNL A   1       7.827   5.415  39.994  1.00  0.00    +0.000 C 
ATOM     40  F2  UNL A   1       7.995   4.760  41.152  1.00  0.00    +0.000 F 
ATOM     41  C33 UNL A   1       8.928   5.762  39.228  1.00  0.00    +0.000 C 
ATOM     42  F3  UNL A   1      10.160   5.428  39.634  1.00  0.00    +0.000 F 
ATOM     43  C34 UNL A   1       8.753   6.461  38.043  1.00  0.00    +0.000 C 
ATOM     44  F4  UNL A   1       9.816   6.789  37.296  1.00  0.00    +0.000 F 
ATOM     45  C35 UNL A   1       7.473   6.824  37.627  1.00  0.00    +0.000 C 
ATOM     46  F5  UNL A   1       7.337   7.508  36.482  1.00  0.00    +0.000 F 
ENDBRANCH   35   36
BRANCH   52   53
ATOM     53  C41 UNL A   1       0.785   3.156  35.231  1.00  0.00    +0.000 C 
ATOM     54  C42 UNL A   1       1.240   2.691  33.989  1.00  0.00    +0.000 C 
ATOM     55  F6  UNL A   1       1.924   3.505  33.173  1.00  0.00    +0.000 F 
ATOM     56  C43 UNL A   1       0.971   1.389  33.573  1.00  0.00    +0.000 C 
ATOM     57  F7  UNL A   1       1.389   0.974  32.369  1.00  0.00    +0.000 F 
ATOM     58  C44 UNL A   1       0.268   0.525  34.399  1.00  0.00    +0.000 C 
ATOM     59  F8  UNL A   1       0.023  -0.731  34.002  1.00  0.00    +0.000 F 
ATOM     60  C45 UNL A   1      -0.185   0.964  35.635  1.00  0.00    +0.000 C 
ATOM     61  F9  UNL A   1      -0.853   0.126  36.438  1.00  0.00    +0.000 F 
ATOM     62  C46 UNL A   1       0.061   2.271  36.043  1.00  0.00    +0.000 C 
ATOM     63  F10 UNL A   1      -0.389   2.668  37.243  1.00  0.00    +0.000 F 
ENDBRANCH   52   53
BRANCH   67   68
ATOM     68  C50 UNL A   1      -2.773   9.150  35.329  1.00  0.00    +0.000 C 
ATOM     69  C51 UNL A   1      -2.986   9.703  34.059  1.00  0.00    +0.000 C 
ATOM     70  F11 UNL A   1      -1.944   9.924  33.244  1.00  0.00    +0.000 F 
ATOM     71  C52 UNL A   1      -4.264  10.057  33.633  1.00  0.00    +0.000 C 
ATOM     72  F12 UNL A   1      -4.436  10.610  32.425  1.00  0.00    +0.000 F 
ATOM     73  C53 UNL A   1      -5.356   9.843  34.460  1.00  0.00    +0.000 C 
ATOM     74  F13 UNL A   1      -6.587  10.174  34.046  1.00  0.00    +0.000 F 
ATOM     75  C54 UNL A   1      -5.172   9.291  35.718  1.00  0.00    +0.000 C 
ATOM     76  F14 UNL A   1      -6.227   9.072  36.516  1.00  0.00    +0.000 F 
ATOM     77  C55 UNL A   1      -3.890   8.958  36.155  1.00  0.00    +0.000 C 
ATOM     78  F15 UNL A   1      -3.740   8.428  37.377  1.00  0.00    +0.000 F 
ENDBRANCH   67   68
TORSDOF 20
ENDMDL
MODEL 10
REMARK VINA RESULT:     -10.5     20.836     25.919
ROOT
ATOM    129  H39 UNL A   1      24.500  39.613  48.225  1.00  0.00    +0.000 H 
ATOM    130  H40 UNL A   1      27.934  43.281  48.042  1.00  0.00    +0.000 H 
ATOM    131  H41 UNL A   1      29.378  41.686  46.655  1.00  0.00    +0.000 H 
ATOM    132  H42 UNL A   1      22.427  34.481  47.515  1.00  0.00    +0.000 H 
ATOM    133  H43 UNL A   1      20.820  36.163  48.585  1.00  0.00    +0.000 H 
ATOM     31  C26 UNL A   1      21.984  38.720  49.055  1.00  0.00    +0.000 C 
ATOM     32  C27 UNL A   1      22.605  37.544  48.358  1.00  0.00    +0.000 C 
ATOM     33  N3  UNL A   1      23.793  37.434  47.820  1.00  0.00    +0.000 N 
ATOM     34  C28 UNL A   1      23.870  36.133  47.340  1.00  0.00    +0.000 C 
ATOM     35  C29 UNL A   1      24.875  35.550  46.645  1.00  0.00    +0.000 C 
ATOM     47  C36 UNL A   1      26.097  36.211  46.275  1.00  0.00    +0.000 C 
ATOM     48  C37 UNL A   1      27.159  35.714  45.540  1.00  0.00    +0.000 C 
ATOM     49  C38 UNL A   1      28.138  36.710  45.457  1.00  0.00    +0.000 C 
ATOM     50  C39 UNL A   1      27.668  37.840  46.107  1.00  0.00    +0.000 C 
ATOM     51  N4  UNL A   1      26.418  37.518  46.609  1.00  0.00    +0.000 N 
ATOM     52  C40 UNL A   1      28.315  39.118  46.261  1.00  0.00    +0.000 C 
ATOM     64  C47 UNL A   1      27.783  40.188  46.899  1.00  0.00    +0.000 C 
ATOM     65  N5  UNL A   1      26.549  40.306  47.523  1.00  0.00    +0.000 N 
ATOM     66  C48 UNL A   1      26.501  41.525  48.001  1.00  0.00    +0.000 C 
ATOM     67  C49 UNL A   1      25.391  42.203  48.755  1.00  0.00    +0.000 C 
ATOM     79  C56 UNL A   1      24.261  41.521  49.023  1.00  0.00    +0.000 C 
ATOM     80  C57 UNL A   1      23.102  42.047  49.738  1.00  0.00    +0.000 C 
ATOM     81  C58 UNL A   1      22.175  41.081  49.841  1.00  0.00    +0.000 C 
ATOM     82  C59 UNL A   1      22.663  39.878  49.167  1.00  0.00    +0.000 C 
ATOM     83  N6  UNL A   1      23.912  40.229  48.718  1.00  0.00    +0.000 N 
ATOM     84  C60 UNL A   1      27.714  42.317  47.749  1.00  0.00    +0.000 C 
ATOM     85  C61 UNL A   1      28.449  41.466  47.046  1.00  0.00    +0.000 C 
ATOM     86  C62 UNL A   1      22.630  35.476  47.693  1.00  0.00    +0.000 C 
ATOM     87  C63 UNL A   1      21.791  36.321  48.274  1.00  0.00    +0.000 C 
ATOM    124  H34 UNL A   1      27.218  34.772  45.125  1.00  0.00    +0.000 H 
ATOM    125  H35 UNL A   1      29.054  36.618  44.991  1.00  0.00    +0.000 H 
ATOM    126  H36 UNL A   1      25.842  38.128  47.126  1.00  0.00    +0.000 H 
ATOM    127  H37 UNL A   1      23.010  43.006  50.106  1.00  0.00    +0.000 H 
ATOM    128  H38 UNL A   1      21.265  41.172  50.317  1.00  0.00    +0.000 H 
ENDROOT
BRANCH   31   30
ATOM    134  H44 UNL A   1      21.363  37.994  51.556  1.00  0.00    +0.000 H 
ATOM    135  H45 UNL A   1      19.169  37.681  52.540  1.00  0.00    +0.000 H 
ATOM    123  H33 UNL A   1      19.558  39.135  47.923  1.00  0.00    +0.000 H 
ATOM     88  C64 UNL A   1      20.515  38.188  51.000  1.00  0.00    +0.000 C 
ATOM     89  C65 UNL A   1      19.257  38.044  51.579  1.00  0.00    +0.000 C 
ATOM    122  H32 UNL A   1      17.372  38.999  48.970  1.00  0.00    +0.000 H 
ATOM     27  C22 UNL A   1      18.113  38.392  50.854  1.00  0.00    +0.000 C 
ATOM     28  C23 UNL A   1      18.220  38.780  49.515  1.00  0.00    +0.000 C 
ATOM     29  C24 UNL A   1      19.479  38.869  48.918  1.00  0.00    +0.000 C 
ATOM     30  C25 UNL A   1      20.637  38.597  49.663  1.00  0.00    +0.000 C 
BRANCH   27   25
ATOM     25  C21 UNL A   1      16.771  38.331  51.471  1.00  0.00    +0.000 C 
ATOM     26  O3  UNL A   1      16.638  37.841  52.590  1.00  0.00    +0.000 O 
BRANCH   25   24
ATOM    121  H31 UNL A   1      15.839  39.622  50.257  1.00  0.00    +0.000 H 
ATOM     24  N2  UNL A   1      15.680  38.811  50.793  1.00  0.00    +0.000 N 
BRANCH   24   23
ATOM    119  H29 UNL A   1      13.903  38.353  51.736  1.00  0.00    +0.000 H 
ATOM     23  C20 UNL A   1      14.323  38.294  50.754  1.00  0.00    +0.000 C 
ATOM    120  H30 UNL A   1      13.767  38.884  50.056  1.00  0.00    +0.000 H 
BRANCH   23   22
ATOM    118  H28 UNL A   1      13.746  36.302  51.043  1.00  0.00    +0.000 H 
ATOM    117  H27 UNL A   1      15.277  36.505  50.142  1.00  0.00    +0.000 H 
ATOM     22  C19 UNL A   1      14.272  36.843  50.285  1.00  0.00    +0.000 C 
BRANCH   22   21
ATOM    115  H25 UNL A   1      12.768  35.856  49.162  1.00  0.00    +0.000 H 
ATOM    116  H26 UNL A   1      13.089  37.561  48.712  1.00  0.00    +0.000 H 
ATOM     21  C18 UNL A   1      13.503  36.611  48.981  1.00  0.00    +0.000 C 
BRANCH   21   20
ATOM    113  H23 UNL A   1      14.525  35.115  47.874  1.00  0.00    +0.000 H 
ATOM    114  H24 UNL A   1      13.793  36.435  46.910  1.00  0.00    +0.000 H 
ATOM     20  C17 UNL A   1      14.351  36.167  47.783  1.00  0.00    +0.000 C 
BRANCH   20   19
ATOM     19  C16 UNL A   1      15.708  36.862  47.649  1.00  0.00    +0.000 C 
ATOM    111  H21 UNL A   1      15.603  37.872  47.985  1.00  0.00    +0.000 H 
ATOM    112  H22 UNL A   1      16.401  36.298  48.239  1.00  0.00    +0.000 H 
BRANCH   19   18
ATOM     18  C15 UNL A   1      16.263  36.886  46.227  1.00  0.00    +0.000 C 
ATOM    109  H19 UNL A   1      16.143  35.916  45.790  1.00  0.00    +0.000 H 
ATOM    110  H20 UNL A   1      15.723  37.625  45.670  1.00  0.00    +0.000 H 
BRANCH   18   17
ATOM     17  N1  UNL A   1      17.669  37.242  46.206  1.00  0.00    +0.000 N 
ATOM    108  H18 UNL A   1      17.881  38.076  46.684  1.00  0.00    +0.000 H 
BRANCH   17   15
ATOM     15  C14 UNL A   1      18.756  36.628  45.644  1.00  0.00    +0.000 C 
ATOM     16  O2  UNL A   1      19.539  37.365  45.038  1.00  0.00    +0.000 O 
BRANCH   15   13
ATOM      2  C2  UNL A   1      17.027  31.008  44.068  1.00  0.00    +0.000 C 
ATOM      3  C3  UNL A   1      16.951  32.407  44.282  1.00  0.00    +0.000 C 
ATOM      5  C5  UNL A   1      18.098  33.107  44.701  1.00  0.00    +0.000 C 
ATOM      6  C6  UNL A   1      19.331  32.448  44.860  1.00  0.00    +0.000 C 
ATOM      7  C7  UNL A   1      19.404  31.049  44.694  1.00  0.00    +0.000 C 
ATOM    101  H11 UNL A   1      21.364  32.954  44.598  1.00  0.00    +0.000 H 
ATOM      9  C9  UNL A   1      18.250  30.353  44.306  1.00  0.00    +0.000 C 
ATOM    102  H12 UNL A   1      20.798  32.999  46.264  1.00  0.00    +0.000 H 
ATOM     11  C10 UNL A   1      20.558  33.228  45.246  1.00  0.00    +0.000 C 
ATOM     12  C11 UNL A   1      20.320  34.719  45.134  1.00  0.00    +0.000 C 
ATOM     13  C12 UNL A   1      18.969  35.089  45.749  1.00  0.00    +0.000 C 
ATOM    103  H13 UNL A   1      20.326  35.000  44.101  1.00  0.00    +0.000 H 
ATOM    104  H14 UNL A   1      21.095  35.236  45.660  1.00  0.00    +0.000 H 
ATOM     90  O4  UNL A   1      17.947  34.453  44.945  1.00  0.00    +0.000 O 
BRANCH    2    1
ATOM      1  C1  UNL A   1      15.806  30.270  43.579  1.00  0.00    +0.000 C 
ATOM     91  H1  UNL A   1      15.896  30.089  42.529  1.00  0.00    +0.000 H 
ATOM     92  H2  UNL A   1      14.934  30.861  43.766  1.00  0.00    +0.000 H 
ATOM     93  H3  UNL A   1      15.723  29.337  44.096  1.00  0.00    +0.000 H 
ENDBRANCH    2    1
BRANCH    3    4
ATOM      4  C4  UNL A   1      15.645  33.138  44.081  1.00  0.00    +0.000 C 
ATOM     94  H4  UNL A   1      15.106  33.167  45.005  1.00  0.00    +0.000 H 
ATOM     95  H5  UNL A   1      15.059  32.628  43.344  1.00  0.00    +0.000 H 
ATOM     96  H6  UNL A   1      15.841  34.137  43.752  1.00  0.00    +0.000 H 
ENDBRANCH    3    4
BRANCH    7    8
ATOM     97  H7  UNL A   1      21.377  30.965  45.467  1.00  0.00    +0.000 H 
ATOM     98  H8  UNL A   1      21.141  30.055  43.994  1.00  0.00    +0.000 H 
ATOM     99  H9  UNL A   1      20.522  29.442  45.508  1.00  0.00    +0.000 H 
ATOM      8  C8  UNL A   1      20.706  30.325  44.934  1.00  0.00    +0.000 C 
ENDBRANCH    7    8
BRANCH    9   10
ATOM     10  O1  UNL A   1      18.368  28.996  44.165  1.00  0.00    +0.000 O 
ATOM    100  H10 UNL A   1      18.457  28.452  44.924  1.00  0.00    +0.000 H 
ENDBRANCH    9   10
BRANCH   13   14
ATOM    105  H15 UNL A   1      17.720  34.282  47.302  1.00  0.00    +0.000 H 
ATOM    106  H16 UNL A   1      18.824  35.520  47.851  1.00  0.00    +0.000 H 
ATOM    107  H17 UNL A   1      19.418  33.916  47.494  1.00  0.00    +0.000 H 
ATOM     14  C13 UNL A   1      18.713  34.669  47.211  1.00  0.00    +0.000 C 
ENDBRANCH   13   14
ENDBRANCH   15   13
ENDBRANCH   17   15
ENDBRANCH   18   17
ENDBRANCH   19   18
ENDBRANCH   20   19
ENDBRANCH   21   20
ENDBRANCH   22   21
ENDBRANCH   23   22
ENDBRANCH   24   23
ENDBRANCH   25   24
ENDBRANCH   27   25
ENDBRANCH   31   30
BRANCH   35   36
ATOM     36  C30 UNL A   1      24.690  34.122  46.228  1.00  0.00    +0.000 C 
ATOM     37  C31 UNL A   1      23.996  33.789  45.054  1.00  0.00    +0.000 C 
ATOM     38  F1  UNL A   1      23.431  34.751  44.310  1.00  0.00    +0.000 F 
ATOM     39  C32 UNL A   1      23.854  32.461  44.659  1.00  0.00    +0.000 C 
ATOM     40  F2  UNL A   1      23.154  32.166  43.554  1.00  0.00    +0.000 F 
ATOM     41  C33 UNL A   1      24.426  31.446  45.409  1.00  0.00    +0.000 C 
ATOM     42  F3  UNL A   1      24.297  30.170  45.022  1.00  0.00    +0.000 F 
ATOM     43  C34 UNL A   1      25.129  31.753  46.565  1.00  0.00    +0.000 C 
ATOM     44  F4  UNL A   1      25.691  30.774  47.286  1.00  0.00    +0.000 F 
ATOM     45  C35 UNL A   1      25.251  33.078  46.979  1.00  0.00    +0.000 C 
ATOM     46  F5  UNL A   1      25.927  33.342  48.106  1.00  0.00    +0.000 F 
ENDBRANCH   35   36
BRANCH   52   53
ATOM     53  C41 UNL A   1      29.678  39.280  45.657  1.00  0.00    +0.000 C 
ATOM     54  C42 UNL A   1      30.840  39.067  46.412  1.00  0.00    +0.000 C 
ATOM     55  F6  UNL A   1      30.753  38.790  47.721  1.00  0.00    +0.000 F 
ATOM     56  C43 UNL A   1      32.099  39.161  45.825  1.00  0.00    +0.000 C 
ATOM     57  F7  UNL A   1      33.198  38.983  46.572  1.00  0.00    +0.000 F 
ATOM     58  C44 UNL A   1      32.218  39.444  44.472  1.00  0.00    +0.000 C 
ATOM     59  F8  UNL A   1      33.431  39.520  43.907  1.00  0.00    +0.000 F 
ATOM     60  C45 UNL A   1      31.080  39.652  43.706  1.00  0.00    +0.000 C 
ATOM     61  F9  UNL A   1      31.194  39.912  42.397  1.00  0.00    +0.000 F 
ATOM     62  C46 UNL A   1      29.821  39.581  44.295  1.00  0.00    +0.000 C 
ATOM     63  F10 UNL A   1      28.739  39.787  43.530  1.00  0.00    +0.000 F 
ENDBRANCH   52   53
BRANCH   67   68
ATOM     68  C50 UNL A   1      25.509  43.623  49.174  1.00  0.00    +0.000 C 
ATOM     69  C51 UNL A   1      26.111  43.960  50.393  1.00  0.00    +0.000 C 
ATOM     70  F11 UNL A   1      26.547  42.992  51.213  1.00  0.00    +0.000 F 
ATOM     71  C52 UNL A   1      26.241  45.289  50.788  1.00  0.00    +0.000 C 
ATOM     72  F12 UNL A   1      26.794  45.582  51.972  1.00  0.00    +0.000 F 
ATOM     73  C53 UNL A   1      25.792  46.307  49.961  1.00  0.00    +0.000 C 
ATOM     74  F13 UNL A   1      25.927  47.587  50.336  1.00  0.00    +0.000 F 
ATOM     75  C54 UNL A   1      25.200  45.999  48.746  1.00  0.00    +0.000 C 
ATOM     76  F14 UNL A   1      24.775  46.981  47.938  1.00  0.00    +0.000 F 
ATOM     77  C55 UNL A   1      25.048  44.668  48.360  1.00  0.00    +0.000 C 
ATOM     78  F15 UNL A   1      24.469  44.397  47.181  1.00  0.00    +0.000 F 
ENDBRANCH   67   68
TORSDOF 20
ENDMDL
