ROOT
ATOM    129  H32 UNL A   1       2.358   6.797 -21.273  1.00  0.00    +0.000 H 
ATOM    130  H33 UNL A   1       6.396   5.520 -17.763  1.00  0.00    +0.000 H 
ATOM    131  H34 UNL A   1       5.342   3.177 -17.605  1.00  0.00    +0.000 H 
ATOM     27  C22 UNL A   1       2.481   3.264 -17.343  1.00  0.00    +0.000 C 
ATOM     28  C23 UNL A   1       3.425   4.389 -17.590  1.00  0.00    +0.000 C 
ATOM     29  N3  UNL A   1       3.148   5.652 -17.634  1.00  0.00    +0.000 N 
ATOM     30  C24 UNL A   1       4.348   6.301 -17.912  1.00  0.00    +0.000 C 
ATOM     31  C25 UNL A   1       4.364   7.559 -18.435  1.00  0.00    +0.000 C 
ATOM     43  C32 UNL A   1       3.105   8.225 -18.226  1.00  0.00    +0.000 C 
ATOM     44  C33 UNL A   1       2.389   8.614 -17.111  1.00  0.00    +0.000 C 
ATOM     45  C34 UNL A   1       1.024   8.390 -17.455  1.00  0.00    +0.000 C 
ATOM     46  C35 UNL A   1       0.988   7.944 -18.776  1.00  0.00    +0.000 C 
ATOM     47  N4  UNL A   1       2.219   8.280 -19.273  1.00  0.00    +0.000 N 
ATOM     48  C36 UNL A   1      -0.002   7.218 -19.533  1.00  0.00    +0.000 C 
ATOM     60  C43 UNL A   1       0.277   6.447 -20.624  1.00  0.00    +0.000 C 
ATOM     61  N5  UNL A   1      -0.590   5.446 -21.037  1.00  0.00    +0.000 N 
ATOM     62  C44 UNL A   1       0.174   4.579 -21.645  1.00  0.00    +0.000 C 
ATOM     63  C45 UNL A   1       0.011   3.109 -21.491  1.00  0.00    +0.000 C 
ATOM     75  C52 UNL A   1       0.337   2.808 -20.207  1.00  0.00    +0.000 C 
ATOM     76  C53 UNL A   1       0.023   1.645 -19.407  1.00  0.00    +0.000 C 
ATOM     77  C54 UNL A   1       0.643   1.760 -18.214  1.00  0.00    +0.000 C 
ATOM     78  C55 UNL A   1       1.516   2.934 -18.227  1.00  0.00    +0.000 C 
ATOM     79  N6  UNL A   1       1.190   3.586 -19.398  1.00  0.00    +0.000 N 
ATOM     80  C56 UNL A   1       1.475   5.074 -22.069  1.00  0.00    +0.000 C 
ATOM     81  C57 UNL A   1       1.527   6.188 -21.333  1.00  0.00    +0.000 C 
ATOM     82  C58 UNL A   1       5.385   5.312 -17.770  1.00  0.00    +0.000 C 
ATOM     83  C59 UNL A   1       4.863   4.090 -17.648  1.00  0.00    +0.000 C 
ATOM    122  H25 UNL A   1       2.761   8.985 -16.223  1.00  0.00    +0.000 H 
ATOM    123  H26 UNL A   1       0.209   8.531 -16.837  1.00  0.00    +0.000 H 
ATOM    124  H27 UNL A   1       2.429   8.516 -20.206  1.00  0.00    +0.000 H 
ATOM    125  H28 UNL A   1      -0.577   0.858 -19.699  1.00  0.00    +0.000 H 
ATOM    126  H29 UNL A   1       0.521   1.118 -17.415  1.00  0.00    +0.000 H 
ATOM    127  H30 UNL A   1       1.513   4.484 -19.639  1.00  0.00    +0.000 H 
ATOM    128  H31 UNL A   1       2.155   4.681 -22.738  1.00  0.00    +0.000 H 
ENDROOT
BRANCH   27   26
ATOM    132  H35 UNL A   1       3.181   0.681 -17.015  1.00  0.00    +0.000 H 
ATOM    133  H36 UNL A   1       3.473  -0.487 -14.920  1.00  0.00    +0.000 H 
ATOM     84  C60 UNL A   1       3.062   1.182 -16.121  1.00  0.00    +0.000 C 
ATOM     85  C61 UNL A   1       3.237   0.518 -14.914  1.00  0.00    +0.000 C 
ATOM    120  H23 UNL A   1       2.877   3.093 -12.809  1.00  0.00    +0.000 H 
ATOM     23  C18 UNL A   1       3.099   1.187 -13.682  1.00  0.00    +0.000 C 
ATOM     24  C19 UNL A   1       2.887   2.566 -13.696  1.00  0.00    +0.000 C 
ATOM     25  C20 UNL A   1       2.689   3.233 -14.900  1.00  0.00    +0.000 C 
ATOM     26  C21 UNL A   1       2.724   2.529 -16.107  1.00  0.00    +0.000 C 
ATOM    121  H24 UNL A   1       2.517   4.250 -14.903  1.00  0.00    +0.000 H 
BRANCH   23   21
ATOM     21  C17 UNL A   1       3.118   0.318 -12.474  1.00  0.00    +0.000 C 
ATOM     22  O3  UNL A   1       3.315  -0.891 -12.624  1.00  0.00    +0.000 O 
BRANCH   21   20
ATOM     20  N2  UNL A   1       2.873   0.730 -11.196  1.00  0.00    +0.000 N 
ATOM    119  H22 UNL A   1       2.853  -0.020 -10.559  1.00  0.00    +0.000 H 
BRANCH   20   19
ATOM     19  C16 UNL A   1       2.637   2.005 -10.552  1.00  0.00    +0.000 C 
ATOM    117  H20 UNL A   1       2.937   1.930  -9.528  1.00  0.00    +0.000 H 
ATOM    118  H21 UNL A   1       3.203   2.740 -11.085  1.00  0.00    +0.000 H 
BRANCH   19   18
ATOM     18  C15 UNL A   1       1.172   2.441 -10.598  1.00  0.00    +0.000 C 
ATOM    115  H18 UNL A   1       1.081   3.372 -10.080  1.00  0.00    +0.000 H 
ATOM    116  H19 UNL A   1       0.903   2.516 -11.631  1.00  0.00    +0.000 H 
BRANCH   18   17
ATOM     17  C14 UNL A   1       0.202   1.437  -9.959  1.00  0.00    +0.000 C 
ATOM    114  H17 UNL A   1       0.313   0.526 -10.509  1.00  0.00    +0.000 H 
ATOM    113  H16 UNL A   1      -0.784   1.851 -10.011  1.00  0.00    +0.000 H 
BRANCH   17   16
ATOM    112  H15 UNL A   1       1.472   0.658  -8.476  1.00  0.00    +0.000 H 
ATOM    111  H14 UNL A   1      -0.269   0.419  -8.153  1.00  0.00    +0.000 H 
ATOM     16  C13 UNL A   1       0.493   1.088  -8.494  1.00  0.00    +0.000 C 
BRANCH   16   15
ATOM    109  H12 UNL A   1       0.779   1.937  -6.562  1.00  0.00    +0.000 H 
ATOM    110  H13 UNL A   1       1.265   2.970  -7.921  1.00  0.00    +0.000 H 
ATOM     15  C12 UNL A   1       0.533   2.289  -7.542  1.00  0.00    +0.000 C 
BRANCH   15   14
ATOM    107  H10 UNL A   1      -0.621   4.003  -7.020  1.00  0.00    +0.000 H 
ATOM    108  H11 UNL A   1      -1.175   3.150  -8.461  1.00  0.00    +0.000 H 
ATOM     14  C11 UNL A   1      -0.793   3.046  -7.467  1.00  0.00    +0.000 C 
BRANCH   14   13
ATOM    106  H9  UNL A   1      -2.174   1.540  -7.110  1.00  0.00    +0.000 H 
ATOM     13  N1  UNL A   1      -1.773   2.329  -6.679  1.00  0.00    +0.000 N 
BRANCH   13   11
ATOM     11  C10 UNL A   1      -2.214   2.605  -5.416  1.00  0.00    +0.000 C 
ATOM     12  O2  UNL A   1      -3.000   1.816  -4.887  1.00  0.00    +0.000 O 
BRANCH   11   10
ATOM    105  H8  UNL A   1      -2.333   3.937  -3.798  1.00  0.00    +0.000 H 
ATOM     10  C9  UNL A   1      -1.794   3.892  -4.722  1.00  0.00    +0.000 C 
ATOM    104  H7  UNL A   1      -2.020   4.713  -5.370  1.00  0.00    +0.000 H 
BRANCH   10    9
ATOM      3  C2  UNL A   1       0.873   1.167  -2.059  1.00  0.00    +0.000 C 
ATOM      4  C3  UNL A   1       2.176   1.619  -1.943  1.00  0.00    +0.000 C 
ATOM    101  H4  UNL A   1       2.850   1.094  -1.364  1.00  0.00    +0.000 H 
ATOM      5  C4  UNL A   1       2.588   2.780  -2.602  1.00  0.00    +0.000 C 
ATOM    103  H6  UNL A   1      -0.997   1.501  -2.973  1.00  0.00    +0.000 H 
ATOM      8  C7  UNL A   1      -0.031   1.851  -2.872  1.00  0.00    +0.000 C 
ATOM      7  C6  UNL A   1       0.369   3.021  -3.559  1.00  0.00    +0.000 C 
ATOM    102  H5  UNL A   1       3.548   3.135  -2.471  1.00  0.00    +0.000 H 
ATOM      6  C5  UNL A   1       1.691   3.465  -3.447  1.00  0.00    +0.000 C 
ATOM      9  C8  UNL A   1      -0.332   3.951  -4.375  1.00  0.00    +0.000 C 
ATOM     86  C62 UNL A   1       0.567   4.956  -4.720  1.00  0.00    +0.000 C 
ATOM     88  N7  UNL A   1       1.850   4.571  -4.302  1.00  0.00    +0.000 N 
BRANCH    3    2
ATOM      2  O1  UNL A   1       0.405   0.044  -1.433  1.00  0.00    +0.000 O 
BRANCH    2    1
ATOM      1  C1  UNL A   1       0.825  -0.064  -0.074  1.00  0.00    +0.000 C 
ATOM     98  H1  UNL A   1       0.425  -0.960   0.353  1.00  0.00    +0.000 H 
ATOM     99  H2  UNL A   1       0.472   0.782   0.477  1.00  0.00    +0.000 H 
ATOM    100  H3  UNL A   1       1.894  -0.096  -0.033  1.00  0.00    +0.000 H 
ENDBRANCH    2    1
ENDBRANCH    3    2
BRANCH   86   87
ATOM    135  H38 UNL A   1       0.797   6.265  -6.361  1.00  0.00    +0.000 H 
ATOM    134  H37 UNL A   1      -0.795   6.281  -5.641  1.00  0.00    +0.000 H 
ATOM     87  C63 UNL A   1       0.254   6.233  -5.439  1.00  0.00    +0.000 C 
ATOM    136  H39 UNL A   1       0.538   7.065  -4.829  1.00  0.00    +0.000 H 
ENDBRANCH   86   87
BRANCH   88   89
ATOM     89  C64 UNL A   1       3.083   5.177  -4.684  1.00  0.00    +0.000 C 
ATOM     90  O4  UNL A   1       3.071   6.100  -5.503  1.00  0.00    +0.000 O 
BRANCH   89   91
ATOM     97  C70 UNL A   1       5.072   5.633  -3.298  1.00  0.00    +0.000 C 
ATOM    137  H40 UNL A   1       4.524   2.974  -5.290  1.00  0.00    +0.000 H 
ATOM    138  H41 UNL A   1       6.589   2.238  -4.229  1.00  0.00    +0.000 H 
ATOM    139  H42 UNL A   1       6.761   5.834  -2.047  1.00  0.00    +0.000 H 
ATOM    140  H43 UNL A   1       4.675   6.558  -3.070  1.00  0.00    +0.000 H 
ATOM     91  C65 UNL A   1       4.412   4.783  -4.193  1.00  0.00    +0.000 C 
ATOM     92  C66 UNL A   1       4.981   3.562  -4.575  1.00  0.00    +0.000 C 
ATOM     93  C67 UNL A   1       6.174   3.149  -3.978  1.00  0.00    +0.000 C 
ATOM     94  C68 UNL A   1       6.804   3.971  -3.041  1.00  0.00    +0.000 C 
ATOM     95 Cl1  UNL A   1       8.235   3.428  -2.256  1.00  0.00    +0.000 Cl
ATOM     96  C69 UNL A   1       6.271   5.220  -2.716  1.00  0.00    +0.000 C 
ENDBRANCH   89   91
ENDBRANCH   88   89
ENDBRANCH   10    9
ENDBRANCH   11   10
ENDBRANCH   13   11
ENDBRANCH   14   13
ENDBRANCH   15   14
ENDBRANCH   16   15
ENDBRANCH   17   16
ENDBRANCH   18   17
ENDBRANCH   19   18
ENDBRANCH   20   19
ENDBRANCH   21   20
ENDBRANCH   23   21
ENDBRANCH   27   26
BRANCH   31   32
ATOM     33  C27 UNL A   1       5.311   9.404 -19.861  1.00  0.00    +0.000 C 
ATOM     34  F1  UNL A   1       4.594  10.303 -19.170  1.00  0.00    +0.000 F 
ATOM     35  C28 UNL A   1       5.902   9.838 -21.050  1.00  0.00    +0.000 C 
ATOM     36  F2  UNL A   1       5.701  11.093 -21.473  1.00  0.00    +0.000 F 
ATOM     37  C29 UNL A   1       6.627   8.960 -21.832  1.00  0.00    +0.000 C 
ATOM     38  F3  UNL A   1       7.133   9.353 -23.008  1.00  0.00    +0.000 F 
ATOM     39  C30 UNL A   1       6.785   7.656 -21.413  1.00  0.00    +0.000 C 
ATOM     40  F4  UNL A   1       7.475   6.787 -22.165  1.00  0.00    +0.000 F 
ATOM     41  C31 UNL A   1       6.156   7.207 -20.253  1.00  0.00    +0.000 C 
ATOM     42  F5  UNL A   1       6.260   5.895 -20.021  1.00  0.00    +0.000 F 
ATOM     32  C26 UNL A   1       5.369   8.056 -19.446  1.00  0.00    +0.000 C 
ENDBRANCH   31   32
BRANCH   48   49
ATOM     49  C37 UNL A   1      -1.368   7.117 -18.917  1.00  0.00    +0.000 C 
ATOM     50  C38 UNL A   1      -1.864   5.948 -18.316  1.00  0.00    +0.000 C 
ATOM     51  F6  UNL A   1      -1.157   4.810 -18.341  1.00  0.00    +0.000 F 
ATOM     52  C39 UNL A   1      -3.065   5.955 -17.608  1.00  0.00    +0.000 C 
ATOM     53  F7  UNL A   1      -3.516   4.828 -17.037  1.00  0.00    +0.000 F 
ATOM     54  C40 UNL A   1      -3.772   7.136 -17.451  1.00  0.00    +0.000 C 
ATOM     55  F8  UNL A   1      -4.896   7.156 -16.721  1.00  0.00    +0.000 F 
ATOM     56  C41 UNL A   1      -3.292   8.306 -18.019  1.00  0.00    +0.000 C 
ATOM     57  F9  UNL A   1      -3.942   9.461 -17.823  1.00  0.00    +0.000 F 
ATOM     58  C42 UNL A   1      -2.112   8.294 -18.756  1.00  0.00    +0.000 C 
ATOM     59  F10 UNL A   1      -1.656   9.451 -19.260  1.00  0.00    +0.000 F 
ENDBRANCH   48   49
BRANCH   63   64
ATOM     65  C47 UNL A   1      -0.666   2.559 -23.855  1.00  0.00    +0.000 C 
ATOM     66  F11 UNL A   1      -1.349   3.710 -23.938  1.00  0.00    +0.000 F 
ATOM     67  C48 UNL A   1      -0.511   1.798 -25.020  1.00  0.00    +0.000 C 
ATOM     68  F12 UNL A   1      -1.047   2.222 -26.174  1.00  0.00    +0.000 F 
ATOM     69  C49 UNL A   1       0.241   0.634 -25.004  1.00  0.00    +0.000 C 
ATOM     70  F13 UNL A   1       0.438  -0.064 -26.131  1.00  0.00    +0.000 F 
ATOM     71  C50 UNL A   1       0.823   0.221 -23.822  1.00  0.00    +0.000 C 
ATOM     72  F14 UNL A   1       1.586  -0.882 -23.799  1.00  0.00    +0.000 F 
ATOM     73  C51 UNL A   1       0.673   0.980 -22.662  1.00  0.00    +0.000 C 
ATOM     74  F15 UNL A   1       1.349   0.571 -21.578  1.00  0.00    +0.000 F 
ATOM     64  C46 UNL A   1      -0.072   2.177 -22.641  1.00  0.00    +0.000 C 
ENDBRANCH   63   64
TORSDOF 21