ROOT
ATOM      7  C5  UNL A   1      -0.161  -2.691   0.009  1.00  0.00    +0.000 C 
ATOM      8  C6  UNL A   1       0.290  -3.567   1.008  1.00  0.00    +0.000 C 
ATOM      9  C7  UNL A   1      -0.041  -4.923   0.968  1.00  0.00    +0.000 C 
ATOM     10  C8  UNL A   1      -0.833  -5.414  -0.066  1.00  0.00    +0.000 C 
ATOM     11  C9  UNL A   1      -1.305  -4.550  -1.052  1.00  0.00    +0.000 C 
ATOM     12  C10 UNL A   1      -0.976  -3.193  -1.013  1.00  0.00    +0.000 C 
ATOM     25  H3  UNL A   1       0.872  -3.206   1.780  1.00  0.00    +0.000 H 
ATOM     26  H4  UNL A   1       0.301  -5.559   1.705  1.00  0.00    +0.000 H 
ATOM     27  H5  UNL A   1      -1.070  -6.418  -0.103  1.00  0.00    +0.000 H 
ATOM     28  H6  UNL A   1      -1.900  -4.913  -1.813  1.00  0.00    +0.000 H 
ATOM     29  H7  UNL A   1      -1.335  -2.556  -1.741  1.00  0.00    +0.000 H 
ENDROOT
BRANCH    7    6
ATOM      1  O1  UNL A   1      -1.860  -0.156  -0.099  1.00  0.00    +0.000 O 
ATOM      2  C1  UNL A   1      -0.643  -0.122  -0.045  1.00  0.00    +0.000 C 
ATOM      3  O2  UNL A   1       0.100   1.021  -0.021  1.00  0.00    +0.000 O 
ATOM      4  C2  UNL A   1       1.484   0.683   0.024  1.00  0.00    +0.000 C 
ATOM      5  C3  UNL A   1       1.500  -0.793   0.010  1.00  0.00    +0.000 C 
ATOM      6  C4  UNL A   1       0.257  -1.290   0.004  1.00  0.00    +0.000 C 
ATOM     23  H1  UNL A   1       1.937   1.059   0.918  1.00  0.00    +0.000 H 
ATOM     24  H2  UNL A   1       2.035   1.106  -0.790  1.00  0.00    +0.000 H 
BRANCH    5   13
ATOM     33  H11 UNL A   1       3.529  -0.681   1.768  1.00  0.00    +0.000 H 
ATOM     13  C11 UNL A   1       2.751  -1.554   0.009  1.00  0.00    +0.000 C 
ATOM     14  C12 UNL A   1       3.000  -2.496  -0.999  1.00  0.00    +0.000 C 
ATOM     15  C13 UNL A   1       4.147  -3.287  -0.962  1.00  0.00    +0.000 C 
ATOM     16  C14 UNL A   1       5.060  -3.138   0.085  1.00  0.00    +0.000 C 
ATOM     17  C15 UNL A   1       4.842  -2.185   1.081  1.00  0.00    +0.000 C 
ATOM     18  C16 UNL A   1       3.689  -1.392   1.037  1.00  0.00    +0.000 C 
ATOM     30  H8  UNL A   1       2.329  -2.604  -1.775  1.00  0.00    +0.000 H 
ATOM     31  H9  UNL A   1       4.322  -3.981  -1.706  1.00  0.00    +0.000 H 
ATOM     32  H10 UNL A   1       5.526  -2.066   1.845  1.00  0.00    +0.000 H 
BRANCH   16   19
ATOM     19  S1  UNL A   1       6.465  -4.225   0.088  1.00  0.00    +0.000 S 
ATOM     20  O3  UNL A   1       5.946  -5.559   0.322  1.00  0.00    +0.000 O 
ATOM     21  O4  UNL A   1       7.224  -3.911  -1.107  1.00  0.00    +0.000 O 
BRANCH   19   22
ATOM     34  H12 UNL A   1       6.939  -4.016   2.383  1.00  0.00    +0.000 H 
ATOM     35  H13 UNL A   1       7.699  -2.753   1.446  1.00  0.00    +0.000 H 
ATOM     36  H14 UNL A   1       8.376  -4.364   1.452  1.00  0.00    +0.000 H 
ATOM     22  C17 UNL A   1       7.469  -3.797   1.480  1.00  0.00    +0.000 C 
ENDBRANCH   19   22
ENDBRANCH   16   19
ENDBRANCH    5   13
ENDBRANCH    7    6
TORSDOF 4