MODEL 1
REMARK VINA RESULT:      -5.4      0.000      0.000
ROOT
ATOM    140  H46 UNL A   1      19.626  33.882  47.431  1.00  0.00    +0.000 H 
ATOM    141  H47 UNL A   1      17.730  35.211  48.628  1.00  0.00    +0.000 H 
ATOM    142  H48 UNL A   1      20.939  37.761  48.049  1.00  0.00    +0.000 H 
ATOM    143  H49 UNL A   1      23.670  43.469  48.899  1.00  0.00    +0.000 H 
ATOM    144  H50 UNL A   1      25.483  42.190  47.664  1.00  0.00    +0.000 H 
ATOM    145  H51 UNL A   1      22.240  39.637  48.155  1.00  0.00    +0.000 H 
ATOM    146  H52 UNL A   1      18.709  42.308  50.519  1.00  0.00    +0.000 H 
ATOM    147  H53 UNL A   1      17.346  40.147  50.644  1.00  0.00    +0.000 H 
ATOM    148  H54 UNL A   1      24.425  35.264  45.455  1.00  0.00    +0.000 H 
ATOM    149  H55 UNL A   1      26.020  37.239  45.782  1.00  0.00    +0.000 H 
ATOM     36  C31 UNL A   1      24.824  39.477  47.088  1.00  0.00    +0.000 C 
ATOM     37  C32 UNL A   1      24.214  38.130  46.825  1.00  0.00    +0.000 C 
ATOM     38  N3  UNL A   1      23.020  37.689  47.132  1.00  0.00    +0.000 N 
ATOM     39  C33 UNL A   1      22.960  36.388  46.654  1.00  0.00    +0.000 C 
ATOM     40  C34 UNL A   1      21.966  35.478  46.798  1.00  0.00    +0.000 C 
ATOM     52  C41 UNL A   1      20.724  35.739  47.479  1.00  0.00    +0.000 C 
ATOM     53  C42 UNL A   1      19.664  34.876  47.704  1.00  0.00    +0.000 C 
ATOM     54  C43 UNL A   1      18.654  35.585  48.364  1.00  0.00    +0.000 C 
ATOM     55  C44 UNL A   1      19.107  36.872  48.602  1.00  0.00    +0.000 C 
ATOM     56  N4  UNL A   1      20.373  36.956  48.044  1.00  0.00    +0.000 N 
ATOM     57  C45 UNL A   1      18.435  37.946  49.290  1.00  0.00    +0.000 C 
ATOM     69  C52 UNL A   1      18.952  39.184  49.489  1.00  0.00    +0.000 C 
ATOM     70  N5  UNL A   1      20.179  39.695  49.088  1.00  0.00    +0.000 N 
ATOM     71  C53 UNL A   1      20.194  40.946  49.481  1.00  0.00    +0.000 C 
ATOM     72  C54 UNL A   1      21.284  41.975  49.343  1.00  0.00    +0.000 C 
ATOM     84  C61 UNL A   1      22.441  41.621  48.754  1.00  0.00    +0.000 C 
ATOM     85  C62 UNL A   1      23.601  42.490  48.580  1.00  0.00    +0.000 C 
ATOM     86  C63 UNL A   1      24.563  41.810  47.937  1.00  0.00    +0.000 C 
ATOM     87  C64 UNL A   1      24.101  40.444  47.685  1.00  0.00    +0.000 C 
ATOM     88  N6  UNL A   1      22.825  40.428  48.191  1.00  0.00    +0.000 N 
ATOM     89  C65 UNL A   1      18.962  41.376  50.159  1.00  0.00    +0.000 C 
ATOM     90  C66 UNL A   1      18.264  40.250  50.185  1.00  0.00    +0.000 C 
ATOM     91  C67 UNL A   1      24.210  36.129  45.973  1.00  0.00    +0.000 C 
ATOM     92  C68 UNL A   1      25.043  37.152  46.103  1.00  0.00    +0.000 C 
ENDROOT
BRANCH   36   35
ATOM     33  C28 UNL A   1      28.604  39.711  47.158  1.00  0.00    +0.000 C 
ATOM     34  C29 UNL A   1      27.295  39.365  47.491  1.00  0.00    +0.000 C 
ATOM     35  C30 UNL A   1      26.222  39.770  46.680  1.00  0.00    +0.000 C 
ATOM    138  H44 UNL A   1      29.385  39.440  47.775  1.00  0.00    +0.000 H 
ATOM    139  H45 UNL A   1      27.113  38.806  48.341  1.00  0.00    +0.000 H 
ATOM    150  H56 UNL A   1      25.708  40.774  44.892  1.00  0.00    +0.000 H 
ATOM    151  H57 UNL A   1      27.999  41.189  44.210  1.00  0.00    +0.000 H 
ATOM     93  C69 UNL A   1      26.488  40.467  45.493  1.00  0.00    +0.000 C 
ATOM     94  C70 UNL A   1      27.802  40.747  45.122  1.00  0.00    +0.000 C 
ATOM     32  C27 UNL A   1      28.855  40.427  45.985  1.00  0.00    +0.000 C 
BRANCH   32   30
ATOM     30  C26 UNL A   1      30.255  40.805  45.685  1.00  0.00    +0.000 C 
ATOM     31  O2  UNL A   1      30.915  40.128  44.912  1.00  0.00    +0.000 O 
BRANCH   30   29
ATOM    137  H43 UNL A   1      31.774  41.789  46.532  1.00  0.00    +0.000 H 
ATOM     29  N2  UNL A   1      30.823  41.893  46.302  1.00  0.00    +0.000 N 
BRANCH   29   28
ATOM     28  C25 UNL A   1      30.238  43.171  46.668  1.00  0.00    +0.000 C 
ATOM    135  H41 UNL A   1      30.032  43.721  45.773  1.00  0.00    +0.000 H 
ATOM    136  H42 UNL A   1      29.347  42.969  47.225  1.00  0.00    +0.000 H 
BRANCH   28   27
ATOM     27  C24 UNL A   1      31.155  44.008  47.555  1.00  0.00    +0.000 C 
ATOM    133  H39 UNL A   1      31.721  43.340  48.168  1.00  0.00    +0.000 H 
ATOM    134  H40 UNL A   1      31.753  44.594  46.889  1.00  0.00    +0.000 H 
BRANCH   27   26
ATOM     26  C23 UNL A   1      30.446  45.006  48.474  1.00  0.00    +0.000 C 
ATOM    131  H37 UNL A   1      30.474  44.612  49.469  1.00  0.00    +0.000 H 
ATOM    132  H38 UNL A   1      30.971  45.931  48.359  1.00  0.00    +0.000 H 
BRANCH   26   25
ATOM     25  C22 UNL A   1      28.984  45.309  48.128  1.00  0.00    +0.000 C 
ATOM    130  H36 UNL A   1      28.788  44.801  47.206  1.00  0.00    +0.000 H 
ATOM    129  H35 UNL A   1      28.872  46.371  48.065  1.00  0.00    +0.000 H 
BRANCH   25   24
ATOM    128  H34 UNL A   1      28.051  43.718  49.185  1.00  0.00    +0.000 H 
ATOM    127  H33 UNL A   1      26.971  45.057  48.794  1.00  0.00    +0.000 H 
ATOM     24  C21 UNL A   1      27.950  44.782  49.130  1.00  0.00    +0.000 C 
BRANCH   24   23
ATOM    125  H31 UNL A   1      28.556  44.580  51.157  1.00  0.00    +0.000 H 
ATOM    126  H32 UNL A   1      28.861  46.167  50.437  1.00  0.00    +0.000 H 
ATOM     23  C20 UNL A   1      28.171  45.354  50.525  1.00  0.00    +0.000 C 
BRANCH   23   22
ATOM    124  H30 UNL A   1      26.707  46.790  50.851  1.00  0.00    +0.000 H 
ATOM     22  N1  UNL A   1      26.949  45.873  51.114  1.00  0.00    +0.000 N 
BRANCH   22   20
ATOM     20  C19 UNL A   1      26.093  45.266  51.977  1.00  0.00    +0.000 C 
ATOM     21  O1  UNL A   1      26.215  45.562  53.171  1.00  0.00    +0.000 O 
BRANCH   20   19
ATOM    122  H28 UNL A   1      24.142  44.505  52.075  1.00  0.00    +0.000 H 
ATOM     19  C18 UNL A   1      25.047  44.242  51.570  1.00  0.00    +0.000 C 
ATOM    123  H29 UNL A   1      25.046  44.300  50.501  1.00  0.00    +0.000 H 
BRANCH   19   18
ATOM    121  H27 UNL A   1      24.451  42.298  51.375  1.00  0.00    +0.000 H 
ATOM     18  C17 UNL A   1      25.289  42.774  51.841  1.00  0.00    +0.000 C 
ATOM    120  H26 UNL A   1      25.389  42.669  52.901  1.00  0.00    +0.000 H 
BRANCH   18   17
ATOM     17  C16 UNL A   1      26.485  42.064  51.214  1.00  0.00    +0.000 C 
ATOM    118  H24 UNL A   1      26.088  41.580  50.347  1.00  0.00    +0.000 H 
ATOM    119  H25 UNL A   1      27.166  42.889  51.194  1.00  0.00    +0.000 H 
BRANCH   17   16
ATOM     16  S1  UNL A   1      27.599  40.805  51.985  1.00  0.00    +0.000 S 
BRANCH   16   15
ATOM    116  H22 UNL A   1      27.506  39.579  54.038  1.00  0.00    +0.000 H 
ATOM    117  H23 UNL A   1      26.060  40.630  53.758  1.00  0.00    +0.000 H 
ATOM     15  C15 UNL A   1      26.750  39.916  53.360  1.00  0.00    +0.000 C 
BRANCH   15   14
ATOM    114  H20 UNL A   1      26.475  38.018  52.412  1.00  0.00    +0.000 H 
ATOM    115  H21 UNL A   1      25.545  38.279  53.928  1.00  0.00    +0.000 H 
ATOM     14  C14 UNL A   1      25.874  38.685  52.994  1.00  0.00    +0.000 C 
BRANCH   14   13
ATOM    113  H19 UNL A   1      24.711  38.973  51.187  1.00  0.00    +0.000 H 
ATOM     13  C13 UNL A   1      24.619  38.975  52.215  1.00  0.00    +0.000 C 
BRANCH   13   12
ATOM     12  C12 UNL A   1      23.390  39.236  52.699  1.00  0.00    +0.000 C 
ATOM    112  H18 UNL A   1      23.309  39.628  53.650  1.00  0.00    +0.000 H 
BRANCH   12   11
ATOM     11  C11 UNL A   1      22.120  38.980  51.909  1.00  0.00    +0.000 C 
ATOM    110  H16 UNL A   1      21.519  39.864  51.951  1.00  0.00    +0.000 H 
ATOM    111  H17 UNL A   1      22.433  38.723  50.918  1.00  0.00    +0.000 H 
BRANCH   11   10
ATOM     10  C10 UNL A   1      21.288  37.829  52.393  1.00  0.00    +0.000 C 
ATOM    109  H15 UNL A   1      20.902  37.870  53.348  1.00  0.00    +0.000 H 
BRANCH   10    9
ATOM      9  C9  UNL A   1      21.019  36.747  51.642  1.00  0.00    +0.000 C 
ATOM    108  H14 UNL A   1      20.341  36.848  50.870  1.00  0.00    +0.000 H 
BRANCH    9    8
ATOM    106  H12 UNL A   1      21.595  35.135  52.893  1.00  0.00    +0.000 H 
ATOM    107  H13 UNL A   1      21.129  34.656  51.287  1.00  0.00    +0.000 H 
ATOM      8  C8  UNL A   1      21.648  35.398  51.857  1.00  0.00    +0.000 C 
BRANCH    8    7
ATOM    105  H11 UNL A   1      23.805  35.237  52.122  1.00  0.00    +0.000 H 
ATOM      7  C7  UNL A   1      23.081  35.472  51.425  1.00  0.00    +0.000 C 
BRANCH    7    6
ATOM      6  C6  UNL A   1      23.489  35.824  50.198  1.00  0.00    +0.000 C 
ATOM    104  H10 UNL A   1      22.803  35.801  49.426  1.00  0.00    +0.000 H 
BRANCH    6    5
ATOM      5  C5  UNL A   1      24.895  36.252  49.889  1.00  0.00    +0.000 C 
ATOM    102  H8  UNL A   1      25.065  36.192  48.835  1.00  0.00    +0.000 H 
ATOM    103  H9  UNL A   1      25.045  37.260  50.212  1.00  0.00    +0.000 H 
BRANCH    5    4
ATOM      4  C4  UNL A   1      25.849  35.340  50.607  1.00  0.00    +0.000 C 
ATOM    101  H7  UNL A   1      25.637  34.330  50.617  1.00  0.00    +0.000 H 
BRANCH    4    3
ATOM      3  C3  UNL A   1      26.959  35.754  51.237  1.00  0.00    +0.000 C 
ATOM    100  H6  UNL A   1      26.903  35.942  52.250  1.00  0.00    +0.000 H 
BRANCH    3    2
ATOM      2  C2  UNL A   1      28.276  35.959  50.548  1.00  0.00    +0.000 C 
ATOM     99  H5  UNL A   1      28.197  35.607  49.541  1.00  0.00    +0.000 H 
ATOM     98  H4  UNL A   1      29.035  35.417  51.071  1.00  0.00    +0.000 H 
BRANCH    2    1
ATOM      1  C1  UNL A   1      28.640  37.437  50.525  1.00  0.00    +0.000 C 
ATOM     97  H3  UNL A   1      27.803  38.015  50.858  1.00  0.00    +0.000 H 
ATOM     95  H1  UNL A   1      28.900  37.725  49.528  1.00  0.00    +0.000 H 
ATOM     96  H2  UNL A   1      29.473  37.609  51.174  1.00  0.00    +0.000 H 
ENDBRANCH    2    1
ENDBRANCH    3    2
ENDBRANCH    4    3
ENDBRANCH    5    4
ENDBRANCH    6    5
ENDBRANCH    7    6
ENDBRANCH    8    7
ENDBRANCH    9    8
ENDBRANCH   10    9
ENDBRANCH   11   10
ENDBRANCH   12   11
ENDBRANCH   13   12
ENDBRANCH   14   13
ENDBRANCH   15   14
ENDBRANCH   16   15
ENDBRANCH   17   16
ENDBRANCH   18   17
ENDBRANCH   19   18
ENDBRANCH   20   19
ENDBRANCH   22   20
ENDBRANCH   23   22
ENDBRANCH   24   23
ENDBRANCH   25   24
ENDBRANCH   26   25
ENDBRANCH   27   26
ENDBRANCH   28   27
ENDBRANCH   29   28
ENDBRANCH   30   29
ENDBRANCH   32   30
ENDBRANCH   36   35
BRANCH   40   41
ATOM     41  C35 UNL A   1      22.187  34.107  46.225  1.00  0.00    +0.000 C 
ATOM     42  C36 UNL A   1      21.618  33.728  44.999  1.00  0.00    +0.000 C 
ATOM     43  F1  UNL A   1      20.802  34.569  44.345  1.00  0.00    +0.000 F 
ATOM     44  C37 UNL A   1      21.858  32.468  44.454  1.00  0.00    +0.000 C 
ATOM     45  F2  UNL A   1      21.268  32.114  43.304  1.00  0.00    +0.000 F 
ATOM     46  C38 UNL A   1      22.699  31.578  45.105  1.00  0.00    +0.000 C 
ATOM     47  F3  UNL A   1      22.941  30.373  44.572  1.00  0.00    +0.000 F 
ATOM     48  C39 UNL A   1      23.285  31.937  46.309  1.00  0.00    +0.000 C 
ATOM     49  F4  UNL A   1      24.110  31.083  46.931  1.00  0.00    +0.000 F 
ATOM     50  C40 UNL A   1      23.023  33.184  46.872  1.00  0.00    +0.000 C 
ATOM     51  F5  UNL A   1      23.597  33.496  48.043  1.00  0.00    +0.000 F 
ENDBRANCH   40   41
BRANCH   57   58
ATOM     65  C50 UNL A   1      14.691  37.298  49.527  1.00  0.00    +0.000 C 
ATOM     66  F9  UNL A   1      13.642  37.196  48.699  1.00  0.00    +0.000 F 
ATOM     67  C51 UNL A   1      15.960  37.547  49.012  1.00  0.00    +0.000 C 
ATOM     68  F10 UNL A   1      16.104  37.663  47.683  1.00  0.00    +0.000 F 
ATOM     58  C46 UNL A   1      17.071  37.678  49.859  1.00  0.00    +0.000 C 
ATOM     59  C47 UNL A   1      16.860  37.557  51.241  1.00  0.00    +0.000 C 
ATOM     60  F6  UNL A   1      17.890  37.660  52.093  1.00  0.00    +0.000 F 
ATOM     61  C48 UNL A   1      15.596  37.271  51.749  1.00  0.00    +0.000 C 
ATOM     62  F7  UNL A   1      15.432  37.093  53.068  1.00  0.00    +0.000 F 
ATOM     63  C49 UNL A   1      14.512  37.148  50.894  1.00  0.00    +0.000 C 
ATOM     64  F8  UNL A   1      13.297  36.873  51.386  1.00  0.00    +0.000 F 
ENDBRANCH   57   58
BRANCH   72   73
ATOM     73  C55 UNL A   1      21.096  43.359  49.855  1.00  0.00    +0.000 C 
ATOM     74  C56 UNL A   1      20.641  44.389  49.019  1.00  0.00    +0.000 C 
ATOM     75  F11 UNL A   1      20.356  44.131  47.733  1.00  0.00    +0.000 F 
ATOM     76  C57 UNL A   1      20.529  45.698  49.483  1.00  0.00    +0.000 C 
ATOM     77  F12 UNL A   1      20.154  46.673  48.644  1.00  0.00    +0.000 F 
ATOM     78  C58 UNL A   1      20.831  45.996  50.803  1.00  0.00    +0.000 C 
ATOM     79  F13 UNL A   1      20.726  47.256  51.249  1.00  0.00    +0.000 F 
ATOM     80  C59 UNL A   1      21.252  44.989  51.658  1.00  0.00    +0.000 C 
ATOM     81  F14 UNL A   1      21.527  45.269  52.939  1.00  0.00    +0.000 F 
ATOM     82  C60 UNL A   1      21.398  43.687  51.184  1.00  0.00    +0.000 C 
ATOM     83  F15 UNL A   1      21.831  42.740  52.029  1.00  0.00    +0.000 F 
ENDBRANCH   72   73
TORSDOF 33
ENDMDL
MODEL 2
REMARK VINA RESULT:      -5.3     44.519     49.798
ROOT
ATOM    140  H46 UNL A   1      17.540  15.249   9.160  1.00  0.00    +0.000 H 
ATOM    141  H47 UNL A   1      19.735  15.024   7.772  1.00  0.00    +0.000 H 
ATOM    142  H48 UNL A   1      17.889  18.578   6.722  1.00  0.00    +0.000 H 
ATOM    143  H49 UNL A   1      17.679  23.814   3.076  1.00  0.00    +0.000 H 
ATOM    144  H50 UNL A   1      15.583  24.064   4.488  1.00  0.00    +0.000 H 
ATOM    145  H51 UNL A   1      17.463  20.535   5.622  1.00  0.00    +0.000 H 
ATOM    146  H52 UNL A   1      21.621  20.212   2.829  1.00  0.00    +0.000 H 
ATOM    147  H53 UNL A   1      21.973  17.896   3.858  1.00  0.00    +0.000 H 
ATOM    148  H54 UNL A   1      13.858  19.128   9.648  1.00  0.00    +0.000 H 
ATOM    149  H55 UNL A   1      13.191  21.178   8.269  1.00  0.00    +0.000 H 
ATOM     36  C31 UNL A   1      15.112  21.903   6.286  1.00  0.00    +0.000 C 
ATOM     37  C32 UNL A   1      15.134  20.709   7.197  1.00  0.00    +0.000 C 
ATOM     38  N3  UNL A   1      16.022  19.750   7.282  1.00  0.00    +0.000 N 
ATOM     39  C33 UNL A   1      15.576  18.906   8.289  1.00  0.00    +0.000 C 
ATOM     40  C34 UNL A   1      16.100  17.726   8.698  1.00  0.00    +0.000 C 
ATOM     52  C41 UNL A   1      17.295  17.138   8.149  1.00  0.00    +0.000 C 
ATOM     53  C42 UNL A   1      17.895  15.933   8.475  1.00  0.00    +0.000 C 
ATOM     54  C43 UNL A   1      19.062  15.804   7.715  1.00  0.00    +0.000 C 
ATOM     55  C44 UNL A   1      19.160  16.900   6.874  1.00  0.00    +0.000 C 
ATOM     56  N4  UNL A   1      18.077  17.716   7.159  1.00  0.00    +0.000 N 
ATOM     57  C45 UNL A   1      20.167  17.181   5.881  1.00  0.00    +0.000 C 
ATOM     69  C52 UNL A   1      20.189  18.281   5.088  1.00  0.00    +0.000 C 
ATOM     70  N5  UNL A   1      19.305  19.352   5.051  1.00  0.00    +0.000 N 
ATOM     71  C53 UNL A   1      19.778  20.177   4.147  1.00  0.00    +0.000 C 
ATOM     72  C54 UNL A   1      19.214  21.487   3.667  1.00  0.00    +0.000 C 
ATOM     84  C61 UNL A   1      18.052  21.925   4.188  1.00  0.00    +0.000 C 
ATOM     85  C62 UNL A   1      17.362  23.151   3.800  1.00  0.00    +0.000 C 
ATOM     86  C63 UNL A   1      16.249  23.277   4.539  1.00  0.00    +0.000 C 
ATOM     87  C64 UNL A   1      16.128  22.121   5.429  1.00  0.00    +0.000 C 
ATOM     88  N6  UNL A   1      17.252  21.379   5.161  1.00  0.00    +0.000 N 
ATOM     89  C65 UNL A   1      21.032  19.730   3.525  1.00  0.00    +0.000 C 
ATOM     90  C66 UNL A   1      21.207  18.546   4.094  1.00  0.00    +0.000 C 
ATOM     91  C67 UNL A   1      14.374  19.498   8.836  1.00  0.00    +0.000 C 
ATOM     92  C68 UNL A   1      14.025  20.581   8.156  1.00  0.00    +0.000 C 
ENDROOT
BRANCH   36   35
ATOM     33  C28 UNL A   1      12.845  24.722   7.412  1.00  0.00    +0.000 C 
ATOM     34  C29 UNL A   1      13.942  23.866   7.316  1.00  0.00    +0.000 C 
ATOM     35  C30 UNL A   1      13.984  22.869   6.327  1.00  0.00    +0.000 C 
ATOM    138  H44 UNL A   1      12.804  25.430   8.162  1.00  0.00    +0.000 H 
ATOM    139  H45 UNL A   1      14.730  23.966   7.977  1.00  0.00    +0.000 H 
ATOM    150  H56 UNL A   1      12.959  22.058   4.666  1.00  0.00    +0.000 H 
ATOM    151  H57 UNL A   1      11.158  23.682   4.709  1.00  0.00    +0.000 H 
ATOM     93  C69 UNL A   1      12.942  22.789   5.393  1.00  0.00    +0.000 C 
ATOM     94  C70 UNL A   1      11.882  23.693   5.444  1.00  0.00    +0.000 C 
ATOM     32  C27 UNL A   1      11.801  24.616   6.491  1.00  0.00    +0.000 C 
BRANCH   32   30
ATOM     30  C26 UNL A   1      10.639  25.520   6.649  1.00  0.00    +0.000 C 
ATOM     31  O2  UNL A   1      10.296  25.880   7.765  1.00  0.00    +0.000 O 
BRANCH   30   29
ATOM    137  H43 UNL A   1       9.184  25.326   5.293  1.00  0.00    +0.000 H 
ATOM     29  N2  UNL A   1       9.923  25.923   5.548  1.00  0.00    +0.000 N 
BRANCH   29   28
ATOM     28  C25 UNL A   1      10.088  27.093   4.704  1.00  0.00    +0.000 C 
ATOM    135  H41 UNL A   1       9.341  27.813   4.967  1.00  0.00    +0.000 H 
ATOM    136  H42 UNL A   1      11.077  27.469   4.865  1.00  0.00    +0.000 H 
BRANCH   28   27
ATOM     27  C24 UNL A   1       9.955  26.774   3.218  1.00  0.00    +0.000 C 
ATOM    133  H39 UNL A   1       9.361  25.889   3.123  1.00  0.00    +0.000 H 
ATOM    134  H40 UNL A   1       9.513  27.639   2.769  1.00  0.00    +0.000 H 
BRANCH   27   26
ATOM     26  C23 UNL A   1      11.273  26.540   2.476  1.00  0.00    +0.000 C 
ATOM    131  H37 UNL A   1      12.029  27.126   2.957  1.00  0.00    +0.000 H 
ATOM    132  H38 UNL A   1      11.448  25.485   2.520  1.00  0.00    +0.000 H 
BRANCH   26   25
ATOM     25  C22 UNL A   1      11.273  26.902   0.987  1.00  0.00    +0.000 C 
ATOM    130  H36 UNL A   1      11.163  27.965   0.941  1.00  0.00    +0.000 H 
ATOM    129  H35 UNL A   1      10.474  26.367   0.517  1.00  0.00    +0.000 H 
BRANCH   25   24
ATOM    128  H34 UNL A   1      12.870  25.587   0.500  1.00  0.00    +0.000 H 
ATOM    127  H33 UNL A   1      13.317  27.293   0.507  1.00  0.00    +0.000 H 
ATOM     24  C21 UNL A   1      12.568  26.578   0.233  1.00  0.00    +0.000 C 
BRANCH   24   23
ATOM    125  H31 UNL A   1      11.345  26.409  -1.496  1.00  0.00    +0.000 H 
ATOM    126  H32 UNL A   1      12.645  27.603  -1.612  1.00  0.00    +0.000 H 
ATOM     23  C20 UNL A   1      12.370  26.624  -1.278  1.00  0.00    +0.000 C 
BRANCH   23   22
ATOM    124  H30 UNL A   1      13.008  24.719  -1.802  1.00  0.00    +0.000 H 
ATOM     22  N1  UNL A   1      13.208  25.667  -1.978  1.00  0.00    +0.000 N 
BRANCH   22   20
ATOM     20  C19 UNL A   1      14.230  25.899  -2.843  1.00  0.00    +0.000 C 
ATOM     21  O1  UNL A   1      14.036  25.575  -4.020  1.00  0.00    +0.000 O 
BRANCH   20   19
ATOM    122  H28 UNL A   1      15.572  27.507  -2.752  1.00  0.00    +0.000 H 
ATOM     19  C18 UNL A   1      15.575  26.482  -2.445  1.00  0.00    +0.000 C 
ATOM    123  H29 UNL A   1      15.629  26.287  -1.395  1.00  0.00    +0.000 H 
BRANCH   19   18
ATOM    121  H27 UNL A   1      17.338  26.693  -3.456  1.00  0.00    +0.000 H 
ATOM     18  C17 UNL A   1      16.848  25.867  -2.983  1.00  0.00    +0.000 C 
ATOM    120  H26 UNL A   1      16.556  25.046  -3.601  1.00  0.00    +0.000 H 
BRANCH   18   17
ATOM     17  C16 UNL A   1      17.909  25.338  -2.022  1.00  0.00    +0.000 C 
ATOM    118  H24 UNL A   1      17.363  25.048  -1.149  1.00  0.00    +0.000 H 
ATOM    119  H25 UNL A   1      18.401  24.659  -2.687  1.00  0.00    +0.000 H 
BRANCH   17   16
ATOM     16  S1  UNL A   1      19.400  26.216  -1.371  1.00  0.00    +0.000 S 
BRANCH   16   15
ATOM    116  H22 UNL A   1      18.507  28.171  -2.425  1.00  0.00    +0.000 H 
ATOM    117  H23 UNL A   1      19.327  28.511  -0.848  1.00  0.00    +0.000 H 
ATOM     15  C15 UNL A   1      19.356  28.011  -1.795  1.00  0.00    +0.000 C 
BRANCH   15   14
ATOM    114  H20 UNL A   1      21.460  28.364  -1.946  1.00  0.00    +0.000 H 
ATOM    115  H21 UNL A   1      20.580  28.196  -3.504  1.00  0.00    +0.000 H 
ATOM     14  C14 UNL A   1      20.592  28.615  -2.518  1.00  0.00    +0.000 C 
BRANCH   14   13
ATOM    113  H19 UNL A   1      20.002  30.461  -3.490  1.00  0.00    +0.000 H 
ATOM     13  C13 UNL A   1      20.582  30.108  -2.712  1.00  0.00    +0.000 C 
BRANCH   13   12
ATOM     12  C12 UNL A   1      21.240  31.036  -1.994  1.00  0.00    +0.000 C 
ATOM    112  H18 UNL A   1      22.270  31.058  -2.042  1.00  0.00    +0.000 H 
BRANCH   12   11
ATOM     11  C11 UNL A   1      20.533  32.053  -1.115  1.00  0.00    +0.000 C 
ATOM    110  H16 UNL A   1      21.279  32.640  -0.622  1.00  0.00    +0.000 H 
ATOM    111  H17 UNL A   1      19.903  32.622  -1.767  1.00  0.00    +0.000 H 
BRANCH   11   10
ATOM     10  C10 UNL A   1      19.631  31.472  -0.066  1.00  0.00    +0.000 C 
ATOM    109  H15 UNL A   1      20.061  31.009   0.749  1.00  0.00    +0.000 H 
BRANCH   10    9
ATOM      9  C9  UNL A   1      18.290  31.528  -0.136  1.00  0.00    +0.000 C 
ATOM    108  H14 UNL A   1      17.853  32.434  -0.367  1.00  0.00    +0.000 H 
BRANCH    9    8
ATOM    106  H12 UNL A   1      17.972  29.457   0.193  1.00  0.00    +0.000 H 
ATOM    107  H13 UNL A   1      16.831  30.488   1.006  1.00  0.00    +0.000 H 
ATOM      8  C8  UNL A   1      17.387  30.349   0.103  1.00  0.00    +0.000 C 
BRANCH    8    7
ATOM    105  H11 UNL A   1      16.864  30.258  -2.011  1.00  0.00    +0.000 H 
ATOM      7  C7  UNL A   1      16.454  30.227  -1.064  1.00  0.00    +0.000 C 
BRANCH    7    6
ATOM      6  C6  UNL A   1      15.125  30.082  -0.965  1.00  0.00    +0.000 C 
ATOM    104  H10 UNL A   1      14.676  29.307  -1.477  1.00  0.00    +0.000 H 
BRANCH    6    5
ATOM      5  C5  UNL A   1      14.258  30.991  -0.142  1.00  0.00    +0.000 C 
ATOM    102  H8  UNL A   1      13.418  30.445   0.230  1.00  0.00    +0.000 H 
ATOM    103  H9  UNL A   1      14.820  31.377   0.683  1.00  0.00    +0.000 H 
BRANCH    5    4
ATOM      4  C4  UNL A   1      13.782  32.123  -1.008  1.00  0.00    +0.000 C 
ATOM    101  H7  UNL A   1      13.894  33.084  -0.651  1.00  0.00    +0.000 H 
BRANCH    4    3
ATOM      3  C3  UNL A   1      13.218  31.964  -2.215  1.00  0.00    +0.000 C 
ATOM    100  H6  UNL A   1      12.479  31.252  -2.318  1.00  0.00    +0.000 H 
BRANCH    3    2
ATOM      2  C2  UNL A   1      13.606  32.765  -3.423  1.00  0.00    +0.000 C 
ATOM     99  H5  UNL A   1      14.497  33.314  -3.201  1.00  0.00    +0.000 H 
ATOM     98  H4  UNL A   1      12.810  33.435  -3.671  1.00  0.00    +0.000 H 
BRANCH    2    1
ATOM      1  C1  UNL A   1      13.875  31.847  -4.607  1.00  0.00    +0.000 C 
ATOM     97  H3  UNL A   1      13.082  31.134  -4.692  1.00  0.00    +0.000 H 
ATOM     95  H1  UNL A   1      14.802  31.335  -4.457  1.00  0.00    +0.000 H 
ATOM     96  H2  UNL A   1      13.930  32.428  -5.503  1.00  0.00    +0.000 H 
ENDBRANCH    2    1
ENDBRANCH    3    2
ENDBRANCH    4    3
ENDBRANCH    5    4
ENDBRANCH    6    5
ENDBRANCH    7    6
ENDBRANCH    8    7
ENDBRANCH    9    8
ENDBRANCH   10    9
ENDBRANCH   11   10
ENDBRANCH   12   11
ENDBRANCH   13   12
ENDBRANCH   14   13
ENDBRANCH   15   14
ENDBRANCH   16   15
ENDBRANCH   17   16
ENDBRANCH   18   17
ENDBRANCH   19   18
ENDBRANCH   20   19
ENDBRANCH   22   20
ENDBRANCH   23   22
ENDBRANCH   24   23
ENDBRANCH   25   24
ENDBRANCH   26   25
ENDBRANCH   27   26
ENDBRANCH   28   27
ENDBRANCH   29   28
ENDBRANCH   30   29
ENDBRANCH   32   30
ENDBRANCH   36   35
BRANCH   40   41
ATOM     41  C35 UNL A   1      15.376  16.979   9.781  1.00  0.00    +0.000 C 
ATOM     42  C36 UNL A   1      15.519  17.331  11.132  1.00  0.00    +0.000 C 
ATOM     43  F1  UNL A   1      16.368  18.307  11.489  1.00  0.00    +0.000 F 
ATOM     44  C37 UNL A   1      14.815  16.659  12.129  1.00  0.00    +0.000 C 
ATOM     45  F2  UNL A   1      15.001  16.985  13.415  1.00  0.00    +0.000 F 
ATOM     46  C38 UNL A   1      13.928  15.648  11.792  1.00  0.00    +0.000 C 
ATOM     47  F3  UNL A   1      13.239  15.012  12.750  1.00  0.00    +0.000 F 
ATOM     48  C39 UNL A   1      13.758  15.293  10.463  1.00  0.00    +0.000 C 
ATOM     49  F4  UNL A   1      12.890  14.326  10.134  1.00  0.00    +0.000 F 
ATOM     50  C40 UNL A   1      14.483  15.942   9.466  1.00  0.00    +0.000 C 
ATOM     51  F5  UNL A   1      14.304  15.568   8.191  1.00  0.00    +0.000 F 
ENDBRANCH   40   41
BRANCH   57   58
ATOM     65  C50 UNL A   1      22.149  14.231   4.518  1.00  0.00    +0.000 C 
ATOM     66  F9  UNL A   1      21.999  13.268   3.597  1.00  0.00    +0.000 F 
ATOM     67  C51 UNL A   1      21.140  15.169   4.711  1.00  0.00    +0.000 C 
ATOM     68  F10 UNL A   1      20.035  15.092   3.953  1.00  0.00    +0.000 F 
ATOM     58  C46 UNL A   1      21.264  16.175   5.682  1.00  0.00    +0.000 C 
ATOM     59  C47 UNL A   1      22.436  16.201   6.453  1.00  0.00    +0.000 C 
ATOM     60  F6  UNL A   1      22.612  17.150   7.384  1.00  0.00    +0.000 F 
ATOM     61  C48 UNL A   1      23.460  15.283   6.230  1.00  0.00    +0.000 C 
ATOM     62  F7  UNL A   1      24.598  15.370   6.933  1.00  0.00    +0.000 F 
ATOM     63  C49 UNL A   1      23.314  14.297   5.267  1.00  0.00    +0.000 C 
ATOM     64  F8  UNL A   1      24.300  13.416   5.055  1.00  0.00    +0.000 F 
ENDBRANCH   57   58
BRANCH   72   73
ATOM     73  C55 UNL A   1      19.917  22.286   2.628  1.00  0.00    +0.000 C 
ATOM     74  C56 UNL A   1      19.739  22.024   1.263  1.00  0.00    +0.000 C 
ATOM     75  F11 UNL A   1      18.913  21.041   0.872  1.00  0.00    +0.000 F 
ATOM     76  C57 UNL A   1      20.449  22.729   0.294  1.00  0.00    +0.000 C 
ATOM     77  F12 UNL A   1      20.308  22.412  -1.001  1.00  0.00    +0.000 F 
ATOM     78  C58 UNL A   1      21.322  23.740   0.669  1.00  0.00    +0.000 C 
ATOM     79  F13 UNL A   1      22.006  24.417  -0.263  1.00  0.00    +0.000 F 
ATOM     80  C59 UNL A   1      21.490  24.041   2.011  1.00  0.00    +0.000 C 
ATOM     81  F14 UNL A   1      22.317  25.029   2.377  1.00  0.00    +0.000 F 
ATOM     82  C60 UNL A   1      20.807  23.311   2.982  1.00  0.00    +0.000 C 
ATOM     83  F15 UNL A   1      21.010  23.610   4.273  1.00  0.00    +0.000 F 
ENDBRANCH   72   73
TORSDOF 33
ENDMDL
MODEL 3
REMARK VINA RESULT:      -5.3     46.372     49.395
ROOT
ATOM    140  H46 UNL A   1      15.268  46.882   0.348  1.00  0.00    +0.000 H 
ATOM    141  H47 UNL A   1      13.633  46.616   2.361  1.00  0.00    +0.000 H 
ATOM    142  H48 UNL A   1      15.023  50.516   2.319  1.00  0.00    +0.000 H 
ATOM    143  H49 UNL A   1      15.299  56.300   5.007  1.00  0.00    +0.000 H 
ATOM    144  H50 UNL A   1      16.830  56.573   2.999  1.00  0.00    +0.000 H 
ATOM    145  H51 UNL A   1      15.379  52.677   2.969  1.00  0.00    +0.000 H 
ATOM    146  H52 UNL A   1      12.309  52.303   6.922  1.00  0.00    +0.000 H 
ATOM    147  H53 UNL A   1      12.108  49.815   6.363  1.00  0.00    +0.000 H 
ATOM    148  H54 UNL A   1      17.895  51.069  -1.750  1.00  0.00    +0.000 H 
ATOM    149  H55 UNL A   1      18.541  53.404  -0.923  1.00  0.00    +0.000 H 
ATOM     36  C31 UNL A   1      17.159  54.207   1.441  1.00  0.00    +0.000 C 
ATOM     37  C32 UNL A   1      17.098  52.878   0.746  1.00  0.00    +0.000 C 
ATOM     38  N3  UNL A   1      16.411  51.809   1.064  1.00  0.00    +0.000 N 
ATOM     39  C33 UNL A   1      16.701  50.866   0.088  1.00  0.00    +0.000 C 
ATOM     40  C34 UNL A   1      16.305  49.572   0.018  1.00  0.00    +0.000 C 
ATOM     52  C41 UNL A   1      15.441  48.937   0.979  1.00  0.00    +0.000 C 
ATOM     53  C42 UNL A   1      15.003  47.623   1.014  1.00  0.00    +0.000 C 
ATOM     54  C43 UNL A   1      14.141  47.477   2.106  1.00  0.00    +0.000 C 
ATOM     55  C44 UNL A   1      14.087  48.682   2.786  1.00  0.00    +0.000 C 
ATOM     56  N4  UNL A   1      14.880  49.573   2.078  1.00  0.00    +0.000 N 
ATOM     57  C45 UNL A   1      13.368  48.999   3.994  1.00  0.00    +0.000 C 
ATOM     69  C52 UNL A   1      13.371  50.210   4.605  1.00  0.00    +0.000 C 
ATOM     70  N5  UNL A   1      14.020  51.379   4.229  1.00  0.00    +0.000 N 
ATOM     71  C53 UNL A   1      13.679  52.281   5.117  1.00  0.00    +0.000 C 
ATOM     72  C54 UNL A   1      14.109  53.720   5.226  1.00  0.00    +0.000 C 
ATOM     84  C61 UNL A   1      14.977  54.209   4.320  1.00  0.00    +0.000 C 
ATOM     85  C62 UNL A   1      15.513  55.567   4.313  1.00  0.00    +0.000 C 
ATOM     86  C63 UNL A   1      16.331  55.707   3.258  1.00  0.00    +0.000 C 
ATOM     87  C64 UNL A   1      16.404  54.436   2.534  1.00  0.00    +0.000 C 
ATOM     88  N6  UNL A   1      15.556  53.610   3.228  1.00  0.00    +0.000 N 
ATOM     89  C65 UNL A   1      12.755  51.789   6.148  1.00  0.00    +0.000 C 
ATOM     90  C66 UNL A   1      12.644  50.510   5.820  1.00  0.00    +0.000 C 
ATOM     91  C67 UNL A   1      17.571  51.506  -0.874  1.00  0.00    +0.000 C 
ATOM     92  C68 UNL A   1      17.895  52.731  -0.482  1.00  0.00    +0.000 C 
ENDROOT
BRANCH   36   35
ATOM     33  C28 UNL A   1      20.149  56.489   0.992  1.00  0.00    +0.000 C 
ATOM     34  C29 UNL A   1      19.350  55.423   1.404  1.00  0.00    +0.000 C 
ATOM     35  C30 UNL A   1      18.034  55.293   0.930  1.00  0.00    +0.000 C 
ATOM    138  H44 UNL A   1      21.103  56.599   1.370  1.00  0.00    +0.000 H 
ATOM    139  H45 UNL A   1      19.729  54.723   2.063  1.00  0.00    +0.000 H 
ATOM    150  H56 UNL A   1      16.590  56.127  -0.369  1.00  0.00    +0.000 H 
ATOM    151  H57 UNL A   1      18.054  57.854  -1.240  1.00  0.00    +0.000 H 
ATOM     93  C69 UNL A   1      17.556  56.209  -0.018  1.00  0.00    +0.000 C 
ATOM     94  C70 UNL A   1      18.381  57.230  -0.486  1.00  0.00    +0.000 C 
ATOM     32  C27 UNL A   1      19.653  57.409   0.066  1.00  0.00    +0.000 C 
BRANCH   32   30
ATOM     30  C26 UNL A   1      20.520  58.547  -0.319  1.00  0.00    +0.000 C 
ATOM     31  O2  UNL A   1      20.169  59.304  -1.210  1.00  0.00    +0.000 O 
BRANCH   30   29
ATOM    137  H43 UNL A   1      21.695  58.765   1.283  1.00  0.00    +0.000 H 
ATOM     29  N2  UNL A   1      21.732  58.730   0.300  1.00  0.00    +0.000 N 
BRANCH   29   28
ATOM     28  C25 UNL A   1      23.059  58.881  -0.271  1.00  0.00    +0.000 C 
ATOM    135  H41 UNL A   1      23.548  57.930  -0.255  1.00  0.00    +0.000 H 
ATOM    136  H42 UNL A   1      22.940  59.250  -1.268  1.00  0.00    +0.000 H 
BRANCH   28   27
ATOM     27  C24 UNL A   1      23.920  59.885   0.490  1.00  0.00    +0.000 C 
ATOM    133  H39 UNL A   1      24.498  59.344   1.210  1.00  0.00    +0.000 H 
ATOM    134  H40 UNL A   1      24.510  60.386  -0.248  1.00  0.00    +0.000 H 
BRANCH   27   26
ATOM     26  C23 UNL A   1      23.150  60.981   1.231  1.00  0.00    +0.000 C 
ATOM    131  H37 UNL A   1      23.324  61.906   0.722  1.00  0.00    +0.000 H 
ATOM    132  H38 UNL A   1      22.126  60.670   1.228  1.00  0.00    +0.000 H 
BRANCH   26   25
ATOM     25  C22 UNL A   1      23.523  61.177   2.704  1.00  0.00    +0.000 C 
ATOM    130  H36 UNL A   1      24.198  60.383   2.947  1.00  0.00    +0.000 H 
ATOM    129  H35 UNL A   1      22.619  61.164   3.278  1.00  0.00    +0.000 H 
BRANCH   25   24
ATOM    128  H34 UNL A   1      25.028  62.618   2.286  1.00  0.00    +0.000 H 
ATOM    127  H33 UNL A   1      24.695  62.400   4.004  1.00  0.00    +0.000 H 
ATOM     24  C21 UNL A   1      24.268  62.478   3.025  1.00  0.00    +0.000 C 
BRANCH   24   23
ATOM    125  H31 UNL A   1      23.807  64.496   3.508  1.00  0.00    +0.000 H 
ATOM    126  H32 UNL A   1      23.164  63.930   1.960  1.00  0.00    +0.000 H 
ATOM     23  C20 UNL A   1      23.339  63.687   2.987  1.00  0.00    +0.000 C 
BRANCH   23   22
ATOM    124  H30 UNL A   1      21.400  62.946   3.036  1.00  0.00    +0.000 H 
ATOM     22  N1  UNL A   1      22.052  63.418   3.604  1.00  0.00    +0.000 N 
BRANCH   22   20
ATOM     20  C19 UNL A   1      21.624  63.727   4.856  1.00  0.00    +0.000 C 
ATOM     21  O1  UNL A   1      21.330  62.774   5.586  1.00  0.00    +0.000 O 
BRANCH   20   19
ATOM    122  H28 UNL A   1      21.448  65.790   4.527  1.00  0.00    +0.000 H 
ATOM     19  C18 UNL A   1      21.454  65.143   5.378  1.00  0.00    +0.000 C 
ATOM    123  H29 UNL A   1      20.556  65.088   5.957  1.00  0.00    +0.000 H 
BRANCH   19   18
ATOM    121  H27 UNL A   1      22.245  65.190   7.261  1.00  0.00    +0.000 H 
ATOM     18  C17 UNL A   1      22.463  65.710   6.352  1.00  0.00    +0.000 C 
ATOM    120  H26 UNL A   1      22.334  66.771   6.346  1.00  0.00    +0.000 H 
BRANCH   18   17
ATOM     17  C16 UNL A   1      23.953  65.448   6.151  1.00  0.00    +0.000 C 
ATOM    118  H24 UNL A   1      24.005  64.439   5.800  1.00  0.00    +0.000 H 
ATOM    119  H25 UNL A   1      24.189  66.310   5.565  1.00  0.00    +0.000 H 
BRANCH   17   16
ATOM     16  S1  UNL A   1      25.314  65.580   7.396  1.00  0.00    +0.000 S 
BRANCH   16   15
ATOM    116  H22 UNL A   1      25.596  67.831   6.632  1.00  0.00    +0.000 H 
ATOM    117  H23 UNL A   1      25.672  67.664   8.433  1.00  0.00    +0.000 H 
ATOM     15  C15 UNL A   1      25.982  67.298   7.476  1.00  0.00    +0.000 C 
BRANCH   15   14
ATOM    114  H20 UNL A   1      27.772  68.216   8.200  1.00  0.00    +0.000 H 
ATOM    115  H21 UNL A   1      27.927  66.504   7.677  1.00  0.00    +0.000 H 
ATOM     14  C14 UNL A   1      27.526  67.475   7.470  1.00  0.00    +0.000 C 
BRANCH   14   13
ATOM    113  H19 UNL A   1      29.169  67.955   6.140  1.00  0.00    +0.000 H 
ATOM     13  C13 UNL A   1      28.139  67.895   6.161  1.00  0.00    +0.000 C 
BRANCH   13   12
ATOM     12  C12 UNL A   1      27.504  68.202   5.014  1.00  0.00    +0.000 C 
ATOM    112  H18 UNL A   1      27.240  69.185   4.845  1.00  0.00    +0.000 H 
BRANCH   12   11
ATOM     11  C11 UNL A   1      27.158  67.166   3.959  1.00  0.00    +0.000 C 
ATOM    110  H16 UNL A   1      26.104  67.209   3.786  1.00  0.00    +0.000 H 
ATOM    111  H17 UNL A   1      27.744  67.414   3.098  1.00  0.00    +0.000 H 
BRANCH   11   10
ATOM     10  C10 UNL A   1      27.514  65.752   4.312  1.00  0.00    +0.000 C 
ATOM    109  H15 UNL A   1      28.201  65.593   5.065  1.00  0.00    +0.000 H 
BRANCH   10    9
ATOM      9  C9  UNL A   1      26.981  64.684   3.696  1.00  0.00    +0.000 C 
ATOM    108  H14 UNL A   1      25.965  64.528   3.786  1.00  0.00    +0.000 H 
BRANCH    9    8
ATOM    106  H12 UNL A   1      27.727  62.732   3.335  1.00  0.00    +0.000 H 
ATOM    107  H13 UNL A   1      27.380  63.637   1.891  1.00  0.00    +0.000 H 
ATOM      8  C8  UNL A   1      27.777  63.700   2.882  1.00  0.00    +0.000 C 
BRANCH    8    7
ATOM    105  H11 UNL A   1      29.402  65.047   2.340  1.00  0.00    +0.000 H 
ATOM      7  C7  UNL A   1      29.201  64.167   2.840  1.00  0.00    +0.000 C 
BRANCH    7    6
ATOM      6  C6  UNL A   1      30.231  63.521   3.405  1.00  0.00    +0.000 C 
ATOM    104  H10 UNL A   1      31.135  64.013   3.486  1.00  0.00    +0.000 H 
BRANCH    6    5
ATOM      5  C5  UNL A   1      30.134  62.115   3.925  1.00  0.00    +0.000 C 
ATOM    102  H8  UNL A   1      29.808  62.132   4.944  1.00  0.00    +0.000 H 
ATOM    103  H9  UNL A   1      29.430  61.561   3.340  1.00  0.00    +0.000 H 
BRANCH    5    4
ATOM      4  C4  UNL A   1      31.488  61.470   3.838  1.00  0.00    +0.000 C 
ATOM    101  H7  UNL A   1      31.908  61.110   4.708  1.00  0.00    +0.000 H 
BRANCH    4    3
ATOM      3  C3  UNL A   1      32.187  61.334   2.701  1.00  0.00    +0.000 C 
ATOM    100  H6  UNL A   1      32.028  60.490   2.129  1.00  0.00    +0.000 H 
BRANCH    3    2
ATOM      2  C2  UNL A   1      33.187  62.342   2.217  1.00  0.00    +0.000 C 
ATOM     99  H5  UNL A   1      32.683  63.067   1.614  1.00  0.00    +0.000 H 
ATOM     98  H4  UNL A   1      33.940  61.843   1.643  1.00  0.00    +0.000 H 
BRANCH    2    1
ATOM      1  C1  UNL A   1      33.842  63.050   3.394  1.00  0.00    +0.000 C 
ATOM     97  H3  UNL A   1      34.907  63.003   3.291  1.00  0.00    +0.000 H 
ATOM     95  H1  UNL A   1      33.551  62.571   4.305  1.00  0.00    +0.000 H 
ATOM     96  H2  UNL A   1      33.531  64.073   3.414  1.00  0.00    +0.000 H 
ENDBRANCH    2    1
ENDBRANCH    3    2
ENDBRANCH    4    3
ENDBRANCH    5    4
ENDBRANCH    6    5
ENDBRANCH    7    6
ENDBRANCH    8    7
ENDBRANCH    9    8
ENDBRANCH   10    9
ENDBRANCH   11   10
ENDBRANCH   12   11
ENDBRANCH   13   12
ENDBRANCH   14   13
ENDBRANCH   15   14
ENDBRANCH   16   15
ENDBRANCH   17   16
ENDBRANCH   18   17
ENDBRANCH   19   18
ENDBRANCH   20   19
ENDBRANCH   22   20
ENDBRANCH   23   22
ENDBRANCH   24   23
ENDBRANCH   25   24
ENDBRANCH   26   25
ENDBRANCH   27   26
ENDBRANCH   28   27
ENDBRANCH   29   28
ENDBRANCH   30   29
ENDBRANCH   32   30
ENDBRANCH   36   35
BRANCH   40   41
ATOM     41  C35 UNL A   1      16.818  48.747  -1.129  1.00  0.00    +0.000 C 
ATOM     42  C36 UNL A   1      16.099  48.639  -2.329  1.00  0.00    +0.000 C 
ATOM     43  F1  UNL A   1      14.895  49.219  -2.450  1.00  0.00    +0.000 F 
ATOM     44  C37 UNL A   1      16.598  47.903  -3.402  1.00  0.00    +0.000 C 
ATOM     45  F2  UNL A   1      15.873  47.779  -4.522  1.00  0.00    +0.000 F 
ATOM     46  C38 UNL A   1      17.840  47.294  -3.309  1.00  0.00    +0.000 C 
ATOM     47  F3  UNL A   1      18.326  46.600  -4.347  1.00  0.00    +0.000 F 
ATOM     48  C39 UNL A   1      18.576  47.401  -2.139  1.00  0.00    +0.000 C 
ATOM     49  F4  UNL A   1      19.783  46.825  -2.053  1.00  0.00    +0.000 F 
ATOM     50  C40 UNL A   1      18.066  48.110  -1.053  1.00  0.00    +0.000 C 
ATOM     51  F5  UNL A   1      18.798  48.185   0.068  1.00  0.00    +0.000 F 
ENDBRANCH   40   41
BRANCH   57   58
ATOM     65  C50 UNL A   1      10.579  46.516   4.736  1.00  0.00    +0.000 C 
ATOM     66  F9  UNL A   1       9.380  46.184   4.237  1.00  0.00    +0.000 F 
ATOM     67  C51 UNL A   1      11.324  47.527   4.136  1.00  0.00    +0.000 C 
ATOM     68  F10 UNL A   1      10.824  48.139   3.052  1.00  0.00    +0.000 F 
ATOM     58  C46 UNL A   1      12.573  47.907   4.651  1.00  0.00    +0.000 C 
ATOM     59  C47 UNL A   1      13.042  47.240   5.793  1.00  0.00    +0.000 C 
ATOM     60  F6  UNL A   1      14.236  47.555   6.317  1.00  0.00    +0.000 F 
ATOM     61  C48 UNL A   1      12.310  46.204   6.368  1.00  0.00    +0.000 C 
ATOM     62  F7  UNL A   1      12.810  45.536   7.417  1.00  0.00    +0.000 F 
ATOM     63  C49 UNL A   1      11.078  45.847   5.843  1.00  0.00    +0.000 C 
ATOM     64  F8  UNL A   1      10.376  44.850   6.398  1.00  0.00    +0.000 F 
ENDBRANCH   57   58
BRANCH   72   73
ATOM     73  C55 UNL A   1      13.594  54.590   6.317  1.00  0.00    +0.000 C 
ATOM     74  C56 UNL A   1      12.602  55.551   6.075  1.00  0.00    +0.000 C 
ATOM     75  F11 UNL A   1      12.092  55.691   4.842  1.00  0.00    +0.000 F 
ATOM     76  C57 UNL A   1      12.169  56.409   7.083  1.00  0.00    +0.000 C 
ATOM     77  F12 UNL A   1      11.267  57.361   6.807  1.00  0.00    +0.000 F 
ATOM     78  C58 UNL A   1      12.689  56.297   8.364  1.00  0.00    +0.000 C 
ATOM     79  F13 UNL A   1      12.273  57.124   9.333  1.00  0.00    +0.000 F 
ATOM     80  C59 UNL A   1      13.646  55.332   8.636  1.00  0.00    +0.000 C 
ATOM     81  F14 UNL A   1      14.138  55.208   9.876  1.00  0.00    +0.000 F 
ATOM     82  C60 UNL A   1      14.106  54.499   7.619  1.00  0.00    +0.000 C 
ATOM     83  F15 UNL A   1      15.051  53.592   7.908  1.00  0.00    +0.000 F 
ENDBRANCH   72   73
TORSDOF 33
ENDMDL
MODEL 4
REMARK VINA RESULT:      -5.0     31.132     37.206
ROOT
ATOM    140  H46 UNL A   1      47.490   9.173  48.054  1.00  0.00    +0.000 H 
ATOM    141  H47 UNL A   1      48.116   7.308  49.765  1.00  0.00    +0.000 H 
ATOM    142  H48 UNL A   1      45.245   9.744  51.487  1.00  0.00    +0.000 H 
ATOM    143  H49 UNL A   1      41.674  11.338  56.533  1.00  0.00    +0.000 H 
ATOM    144  H50 UNL A   1      41.013  13.105  54.834  1.00  0.00    +0.000 H 
ATOM    145  H51 UNL A   1      43.829  10.622  53.051  1.00  0.00    +0.000 H 
ATOM    146  H52 UNL A   1      44.976   7.134  56.474  1.00  0.00    +0.000 H 
ATOM    147  H53 UNL A   1      46.755   6.301  54.835  1.00  0.00    +0.000 H 
ATOM    148  H54 UNL A   1      43.834  13.107  48.050  1.00  0.00    +0.000 H 
ATOM    149  H55 UNL A   1      42.440  14.289  49.842  1.00  0.00    +0.000 H 
ATOM     36  C31 UNL A   1      42.402  12.927  52.350  1.00  0.00    +0.000 C 
ATOM     37  C32 UNL A   1      43.190  12.572  51.121  1.00  0.00    +0.000 C 
ATOM     38  N3  UNL A   1      44.020  11.578  50.930  1.00  0.00    +0.000 N 
ATOM     39  C33 UNL A   1      44.464  11.699  49.621  1.00  0.00    +0.000 C 
ATOM     40  C34 UNL A   1      45.399  10.963  48.973  1.00  0.00    +0.000 C 
ATOM     52  C41 UNL A   1      46.099   9.848  49.558  1.00  0.00    +0.000 C 
ATOM     53  C42 UNL A   1      47.084   9.054  48.995  1.00  0.00    +0.000 C 
ATOM     54  C43 UNL A   1      47.433   8.066  49.921  1.00  0.00    +0.000 C 
ATOM     55  C44 UNL A   1      46.709   8.278  51.082  1.00  0.00    +0.000 C 
ATOM     56  N4  UNL A   1      45.885   9.367  50.842  1.00  0.00    +0.000 N 
ATOM     57  C45 UNL A   1      46.764   7.543  52.321  1.00  0.00    +0.000 C 
ATOM     69  C52 UNL A   1      46.021   7.819  53.421  1.00  0.00    +0.000 C 
ATOM     70  N5  UNL A   1      45.069   8.813  53.608  1.00  0.00    +0.000 N 
ATOM     71  C53 UNL A   1      44.605   8.642  54.823  1.00  0.00    +0.000 C 
ATOM     72  C54 UNL A   1      43.575   9.446  55.571  1.00  0.00    +0.000 C 
ATOM     84  C61 UNL A   1      43.024  10.517  54.968  1.00  0.00    +0.000 C 
ATOM     85  C62 UNL A   1      42.044  11.414  55.573  1.00  0.00    +0.000 C 
ATOM     86  C63 UNL A   1      41.704  12.355  54.678  1.00  0.00    +0.000 C 
ATOM     87  C64 UNL A   1      42.469  12.147  53.447  1.00  0.00    +0.000 C 
ATOM     88  N6  UNL A   1      43.215  11.024  53.707  1.00  0.00    +0.000 N 
ATOM     89  C65 UNL A   1      45.198   7.502  55.536  1.00  0.00    +0.000 C 
ATOM     90  C66 UNL A   1      46.092   7.072  54.658  1.00  0.00    +0.000 C 
ATOM     91  C67 UNL A   1      43.761  12.821  49.038  1.00  0.00    +0.000 C 
ATOM     92  C68 UNL A   1      43.007  13.432  49.941  1.00  0.00    +0.000 C 
ENDROOT
BRANCH   36   35
ATOM     33  C28 UNL A   1      39.319  15.120  52.177  1.00  0.00    +0.000 C 
ATOM     34  C29 UNL A   1      40.136  13.993  52.243  1.00  0.00    +0.000 C 
ATOM     35  C30 UNL A   1      41.529  14.129  52.372  1.00  0.00    +0.000 C 
ATOM    138  H44 UNL A   1      38.300  15.016  52.048  1.00  0.00    +0.000 H 
ATOM    139  H45 UNL A   1      39.715  13.051  52.196  1.00  0.00    +0.000 H 
ATOM    150  H56 UNL A   1      43.102  15.523  52.596  1.00  0.00    +0.000 H 
ATOM    151  H57 UNL A   1      41.656  17.468  52.694  1.00  0.00    +0.000 H 
ATOM     93  C69 UNL A   1      42.081  15.410  52.506  1.00  0.00    +0.000 C 
ATOM     94  C70 UNL A   1      41.255  16.533  52.516  1.00  0.00    +0.000 C 
ATOM     32  C27 UNL A   1      39.883  16.393  52.287  1.00  0.00    +0.000 C 
BRANCH   32   30
ATOM     30  C26 UNL A   1      38.985  17.565  52.177  1.00  0.00    +0.000 C 
ATOM     31  O2  UNL A   1      37.794  17.443  52.419  1.00  0.00    +0.000 O 
BRANCH   30   29
ATOM    137  H43 UNL A   1      39.607  19.439  52.487  1.00  0.00    +0.000 H 
ATOM     29  N2  UNL A   1      39.481  18.779  51.768  1.00  0.00    +0.000 N 
BRANCH   29   28
ATOM     28  C25 UNL A   1      39.848  19.240  50.441  1.00  0.00    +0.000 C 
ATOM    135  H41 UNL A   1      40.566  18.561  50.030  1.00  0.00    +0.000 H 
ATOM    136  H42 UNL A   1      38.954  19.276  49.854  1.00  0.00    +0.000 H 
BRANCH   28   27
ATOM     27  C24 UNL A   1      40.450  20.642  50.446  1.00  0.00    +0.000 C 
ATOM    133  H39 UNL A   1      39.986  21.203  49.662  1.00  0.00    +0.000 H 
ATOM    134  H40 UNL A   1      40.268  21.036  51.423  1.00  0.00    +0.000 H 
BRANCH   27   26
ATOM     26  C23 UNL A   1      41.966  20.706  50.240  1.00  0.00    +0.000 C 
ATOM    131  H37 UNL A   1      42.146  21.023  49.234  1.00  0.00    +0.000 H 
ATOM    132  H38 UNL A   1      42.331  21.385  50.981  1.00  0.00    +0.000 H 
BRANCH   26   25
ATOM     25  C22 UNL A   1      42.725  19.394  50.464  1.00  0.00    +0.000 C 
ATOM    130  H36 UNL A   1      42.011  18.611  50.317  1.00  0.00    +0.000 H 
ATOM    129  H35 UNL A   1      43.140  19.417  51.450  1.00  0.00    +0.000 H 
BRANCH   25   24
ATOM    128  H34 UNL A   1      44.778  19.054  50.030  1.00  0.00    +0.000 H 
ATOM    127  H33 UNL A   1      43.905  19.916  48.763  1.00  0.00    +0.000 H 
ATOM     24  C21 UNL A   1      43.865  19.119  49.476  1.00  0.00    +0.000 C 
BRANCH   24   23
ATOM    125  H31 UNL A   1      42.625  17.691  48.506  1.00  0.00    +0.000 H 
ATOM    126  H32 UNL A   1      44.259  17.837  47.844  1.00  0.00    +0.000 H 
ATOM     23  C20 UNL A   1      43.665  17.802  48.734  1.00  0.00    +0.000 C 
BRANCH   23   22
ATOM    124  H30 UNL A   1      43.408  15.972  49.681  1.00  0.00    +0.000 H 
ATOM     22  N1  UNL A   1      44.098  16.655  49.511  1.00  0.00    +0.000 N 
BRANCH   22   20
ATOM     20  C19 UNL A   1      45.324  16.392  50.035  1.00  0.00    +0.000 C 
ATOM     21  O1  UNL A   1      46.229  16.161  49.226  1.00  0.00    +0.000 O 
BRANCH   20   19
ATOM    122  H28 UNL A   1      45.567  17.333  51.893  1.00  0.00    +0.000 H 
ATOM     19  C18 UNL A   1      45.624  16.331  51.523  1.00  0.00    +0.000 C 
ATOM    123  H29 UNL A   1      44.905  15.631  51.893  1.00  0.00    +0.000 H 
BRANCH   19   18
ATOM    121  H27 UNL A   1      47.167  16.356  52.862  1.00  0.00    +0.000 H 
ATOM     18  C17 UNL A   1      46.943  15.763  51.999  1.00  0.00    +0.000 C 
ATOM    120  H26 UNL A   1      47.619  15.818  51.172  1.00  0.00    +0.000 H 
BRANCH   18   17
ATOM     17  C16 UNL A   1      47.016  14.335  52.531  1.00  0.00    +0.000 C 
ATOM    118  H24 UNL A   1      47.720  14.382  53.336  1.00  0.00    +0.000 H 
ATOM    119  H25 UNL A   1      45.968  14.154  52.648  1.00  0.00    +0.000 H 
BRANCH   17   16
ATOM     16  S1  UNL A   1      47.461  12.794  51.611  1.00  0.00    +0.000 S 
BRANCH   16   15
ATOM    116  H22 UNL A   1      48.994  13.908  50.148  1.00  0.00    +0.000 H 
ATOM    117  H23 UNL A   1      49.805  12.971  51.467  1.00  0.00    +0.000 H 
ATOM     15  C15 UNL A   1      49.054  12.995  50.703  1.00  0.00    +0.000 C 
BRANCH   15   14
ATOM    114  H20 UNL A   1      48.602  11.277  49.513  1.00  0.00    +0.000 H 
ATOM    115  H21 UNL A   1      49.858  12.380  48.851  1.00  0.00    +0.000 H 
ATOM     14  C14 UNL A   1      49.468  11.874  49.710  1.00  0.00    +0.000 C 
BRANCH   14   13
ATOM    113  H19 UNL A   1      51.518  11.178  49.836  1.00  0.00    +0.000 H 
ATOM     13  C13 UNL A   1      50.567  10.954  50.171  1.00  0.00    +0.000 C 
BRANCH   13   12
ATOM     12  C12 UNL A   1      50.458   9.874  50.967  1.00  0.00    +0.000 C 
ATOM    112  H18 UNL A   1      49.810   9.916  51.768  1.00  0.00    +0.000 H 
BRANCH   12   11
ATOM     11  C11 UNL A   1      51.246   8.597  50.737  1.00  0.00    +0.000 C 
ATOM    110  H16 UNL A   1      50.552   7.785  50.682  1.00  0.00    +0.000 H 
ATOM    111  H17 UNL A   1      51.800   8.747  49.833  1.00  0.00    +0.000 H 
BRANCH   11   10
ATOM     10  C10 UNL A   1      52.259   8.272  51.795  1.00  0.00    +0.000 C 
ATOM    109  H15 UNL A   1      52.786   7.389  51.715  1.00  0.00    +0.000 H 
BRANCH   10    9
ATOM      9  C9  UNL A   1      52.513   9.076  52.842  1.00  0.00    +0.000 C 
ATOM    108  H14 UNL A   1      52.595  10.090  52.667  1.00  0.00    +0.000 H 
BRANCH    9    8
ATOM    106  H12 UNL A   1      51.951   7.841  54.472  1.00  0.00    +0.000 H 
ATOM    107  H13 UNL A   1      53.659   8.157  54.377  1.00  0.00    +0.000 H 
ATOM      8  C8  UNL A   1      52.687   8.586  54.254  1.00  0.00    +0.000 C 
BRANCH    8    7
ATOM    105  H11 UNL A   1      53.360  10.120  55.649  1.00  0.00    +0.000 H 
ATOM      7  C7  UNL A   1      52.517   9.753  55.180  1.00  0.00    +0.000 C 
BRANCH    7    6
ATOM      6  C6  UNL A   1      51.346  10.352  55.443  1.00  0.00    +0.000 C 
ATOM    104  H10 UNL A   1      50.535   9.761  55.684  1.00  0.00    +0.000 H 
BRANCH    6    5
ATOM      5  C5  UNL A   1      51.158  11.841  55.404  1.00  0.00    +0.000 C 
ATOM    102  H8  UNL A   1      50.363  12.120  56.062  1.00  0.00    +0.000 H 
ATOM    103  H9  UNL A   1      52.059  12.328  55.715  1.00  0.00    +0.000 H 
BRANCH    5    4
ATOM      4  C4  UNL A   1      50.818  12.252  53.999  1.00  0.00    +0.000 C 
ATOM    101  H7  UNL A   1      49.872  12.037  53.649  1.00  0.00    +0.000 H 
BRANCH    4    3
ATOM      3  C3  UNL A   1      51.665  12.879  53.170  1.00  0.00    +0.000 C 
ATOM    100  H6  UNL A   1      51.273  13.520  52.463  1.00  0.00    +0.000 H 
BRANCH    3    2
ATOM      2  C2  UNL A   1      53.154  12.697  53.214  1.00  0.00    +0.000 C 
ATOM     99  H5  UNL A   1      53.381  11.845  53.820  1.00  0.00    +0.000 H 
ATOM     98  H4  UNL A   1      53.604  13.575  53.628  1.00  0.00    +0.000 H 
BRANCH    2    1
ATOM      1  C1  UNL A   1      53.704  12.465  51.814  1.00  0.00    +0.000 C 
ATOM     97  H3  UNL A   1      54.600  11.883  51.875  1.00  0.00    +0.000 H 
ATOM     95  H1  UNL A   1      53.920  13.407  51.355  1.00  0.00    +0.000 H 
ATOM     96  H2  UNL A   1      52.978  11.941  51.228  1.00  0.00    +0.000 H 
ENDBRANCH    2    1
ENDBRANCH    3    2
ENDBRANCH    4    3
ENDBRANCH    5    4
ENDBRANCH    6    5
ENDBRANCH    7    6
ENDBRANCH    8    7
ENDBRANCH    9    8
ENDBRANCH   10    9
ENDBRANCH   11   10
ENDBRANCH   12   11
ENDBRANCH   13   12
ENDBRANCH   14   13
ENDBRANCH   15   14
ENDBRANCH   16   15
ENDBRANCH   17   16
ENDBRANCH   18   17
ENDBRANCH   19   18
ENDBRANCH   20   19
ENDBRANCH   22   20
ENDBRANCH   23   22
ENDBRANCH   24   23
ENDBRANCH   25   24
ENDBRANCH   26   25
ENDBRANCH   27   26
ENDBRANCH   28   27
ENDBRANCH   29   28
ENDBRANCH   30   29
ENDBRANCH   32   30
ENDBRANCH   36   35
BRANCH   40   41
ATOM     41  C35 UNL A   1      45.735  11.350  47.561  1.00  0.00    +0.000 C 
ATOM     42  C36 UNL A   1      45.265  10.605  46.468  1.00  0.00    +0.000 C 
ATOM     43  F1  UNL A   1      44.558   9.482  46.671  1.00  0.00    +0.000 F 
ATOM     44  C37 UNL A   1      45.549  10.990  45.160  1.00  0.00    +0.000 C 
ATOM     45  F2  UNL A   1      45.126  10.238  44.135  1.00  0.00    +0.000 F 
ATOM     46  C38 UNL A   1      46.274  12.147  44.918  1.00  0.00    +0.000 C 
ATOM     47  F3  UNL A   1      46.533  12.525  43.659  1.00  0.00    +0.000 F 
ATOM     48  C39 UNL A   1      46.735  12.908  45.981  1.00  0.00    +0.000 C 
ATOM     49  F4  UNL A   1      47.424  14.034  45.748  1.00  0.00    +0.000 F 
ATOM     50  C40 UNL A   1      46.480  12.508  47.291  1.00  0.00    +0.000 C 
ATOM     51  F5  UNL A   1      46.949  13.261  48.297  1.00  0.00    +0.000 F 
ENDBRANCH   40   41
BRANCH   57   58
ATOM     65  C50 UNL A   1      49.929   5.553  53.035  1.00  0.00    +0.000 C 
ATOM     66  F9  UNL A   1      51.162   5.776  53.513  1.00  0.00    +0.000 F 
ATOM     67  C51 UNL A   1      49.023   6.604  52.937  1.00  0.00    +0.000 C 
ATOM     68  F10 UNL A   1      49.406   7.825  53.340  1.00  0.00    +0.000 F 
ATOM     58  C46 UNL A   1      47.733   6.400  52.422  1.00  0.00    +0.000 C 
ATOM     59  C47 UNL A   1      47.390   5.105  52.005  1.00  0.00    +0.000 C 
ATOM     60  F6  UNL A   1      46.166   4.853  51.519  1.00  0.00    +0.000 F 
ATOM     61  C48 UNL A   1      48.288   4.049  52.141  1.00  0.00    +0.000 C 
ATOM     62  F7  UNL A   1      47.913   2.807  51.799  1.00  0.00    +0.000 F 
ATOM     63  C49 UNL A   1      49.558   4.273  52.650  1.00  0.00    +0.000 C 
ATOM     64  F8  UNL A   1      50.418   3.256  52.780  1.00  0.00    +0.000 F 
ENDBRANCH   57   58
BRANCH   72   73
ATOM     73  C55 UNL A   1      43.176   9.077  56.955  1.00  0.00    +0.000 C 
ATOM     74  C56 UNL A   1      42.222   8.078  57.195  1.00  0.00    +0.000 C 
ATOM     75  F11 UNL A   1      41.658   7.429  56.165  1.00  0.00    +0.000 F 
ATOM     76  C57 UNL A   1      41.800   7.780  58.490  1.00  0.00    +0.000 C 
ATOM     77  F12 UNL A   1      40.839   6.867  58.685  1.00  0.00    +0.000 F 
ATOM     78  C58 UNL A   1      42.355   8.446  59.573  1.00  0.00    +0.000 C 
ATOM     79  F13 UNL A   1      41.948   8.160  60.817  1.00  0.00    +0.000 F 
ATOM     80  C59 UNL A   1      43.325   9.414  59.363  1.00  0.00    +0.000 C 
ATOM     81  F14 UNL A   1      43.877  10.046  60.407  1.00  0.00    +0.000 F 
ATOM     82  C60 UNL A   1      43.719   9.738  58.066  1.00  0.00    +0.000 C 
ATOM     83  F15 UNL A   1      44.641  10.696  57.895  1.00  0.00    +0.000 F 
ENDBRANCH   72   73
TORSDOF 33
ENDMDL
MODEL 5
REMARK VINA RESULT:      -5.0     49.052     52.799
ROOT
ATOM    140  H46 UNL A   1      11.873  52.776   6.335  1.00  0.00    +0.000 H 
ATOM    141  H47 UNL A   1      11.383  50.305   5.665  1.00  0.00    +0.000 H 
ATOM    142  H48 UNL A   1      14.448  51.721   3.268  1.00  0.00    +0.000 H 
ATOM    143  H49 UNL A   1      18.516  50.843  -1.572  1.00  0.00    +0.000 H 
ATOM    144  H50 UNL A   1      19.041  53.223  -0.862  1.00  0.00    +0.000 H 
ATOM    145  H51 UNL A   1      16.023  51.796   1.615  1.00  0.00    +0.000 H 
ATOM    146  H52 UNL A   1      15.152  47.069   0.166  1.00  0.00    +0.000 H 
ATOM    147  H53 UNL A   1      13.209  47.058   1.831  1.00  0.00    +0.000 H 
ATOM    148  H54 UNL A   1      15.579  56.352   4.812  1.00  0.00    +0.000 H 
ATOM    149  H55 UNL A   1      17.159  56.586   2.812  1.00  0.00    +0.000 H 
ATOM     36  C31 UNL A   1      17.415  54.200   1.267  1.00  0.00    +0.000 C 
ATOM     37  C32 UNL A   1      16.507  54.446   2.438  1.00  0.00    +0.000 C 
ATOM     38  N3  UNL A   1      15.645  53.636   3.000  1.00  0.00    +0.000 N 
ATOM     39  C33 UNL A   1      15.079  54.350   4.047  1.00  0.00    +0.000 C 
ATOM     40  C34 UNL A   1      14.074  53.980   4.876  1.00  0.00    +0.000 C 
ATOM     52  C41 UNL A   1      13.414  52.701   4.828  1.00  0.00    +0.000 C 
ATOM     53  C42 UNL A   1      12.366  52.238   5.606  1.00  0.00    +0.000 C 
ATOM     54  C43 UNL A   1      12.091  50.919   5.232  1.00  0.00    +0.000 C 
ATOM     55  C44 UNL A   1      12.927  50.578   4.183  1.00  0.00    +0.000 C 
ATOM     56  N4  UNL A   1      13.742  51.675   3.952  1.00  0.00    +0.000 N 
ATOM     57  C45 UNL A   1      12.979  49.342   3.442  1.00  0.00    +0.000 C 
ATOM     69  C52 UNL A   1      13.829  49.087   2.417  1.00  0.00    +0.000 C 
ATOM     70  N5  UNL A   1      14.812  49.901   1.870  1.00  0.00    +0.000 N 
ATOM     71  C53 UNL A   1      15.388  49.190   0.931  1.00  0.00    +0.000 C 
ATOM     72  C54 UNL A   1      16.498  49.575  -0.010  1.00  0.00    +0.000 C 
ATOM     84  C61 UNL A   1      17.007  50.820   0.061  1.00  0.00    +0.000 C 
ATOM     85  C62 UNL A   1      18.056  51.353  -0.803  1.00  0.00    +0.000 C 
ATOM     86  C63 UNL A   1      18.325  52.615  -0.434  1.00  0.00    +0.000 C 
ATOM     87  C64 UNL A   1      17.441  52.992   0.671  1.00  0.00    +0.000 C 
ATOM     88  N6  UNL A   1      16.704  51.858   0.907  1.00  0.00    +0.000 N 
ATOM     89  C65 UNL A   1      14.847  47.830   0.792  1.00  0.00    +0.000 C 
ATOM     90  C66 UNL A   1      13.865  47.840   1.682  1.00  0.00    +0.000 C 
ATOM     91  C67 UNL A   1      15.742  55.634   4.090  1.00  0.00    +0.000 C 
ATOM     92  C68 UNL A   1      16.590  55.768   3.080  1.00  0.00    +0.000 C 
ENDROOT
BRANCH   36   35
ATOM     33  C28 UNL A   1      20.300  56.642   1.012  1.00  0.00    +0.000 C 
ATOM     34  C29 UNL A   1      19.501  55.580   1.434  1.00  0.00    +0.000 C 
ATOM     35  C30 UNL A   1      18.308  55.274   0.759  1.00  0.00    +0.000 C 
ATOM    138  H44 UNL A   1      21.157  56.885   1.532  1.00  0.00    +0.000 H 
ATOM    139  H45 UNL A   1      19.788  55.015   2.249  1.00  0.00    +0.000 H 
ATOM    150  H56 UNL A   1      17.088  55.792  -0.889  1.00  0.00    +0.000 H 
ATOM    151  H57 UNL A   1      18.588  57.498  -1.740  1.00  0.00    +0.000 H 
ATOM     93  C69 UNL A   1      17.965  56.004  -0.388  1.00  0.00    +0.000 C 
ATOM     94  C70 UNL A   1      18.803  57.016  -0.853  1.00  0.00    +0.000 C 
ATOM     32  C27 UNL A   1      19.935  57.378  -0.118  1.00  0.00    +0.000 C 
BRANCH   32   30
ATOM     30  C26 UNL A   1      20.792  58.520  -0.511  1.00  0.00    +0.000 C 
ATOM     31  O2  UNL A   1      20.507  59.649  -0.143  1.00  0.00    +0.000 O 
BRANCH   30   29
ATOM    137  H43 UNL A   1      21.719  58.449  -2.280  1.00  0.00    +0.000 H 
ATOM     29  N2  UNL A   1      21.884  58.317  -1.319  1.00  0.00    +0.000 N 
BRANCH   29   28
ATOM     28  C25 UNL A   1      23.243  57.939  -0.975  1.00  0.00    +0.000 C 
ATOM    135  H41 UNL A   1      23.789  58.822  -0.715  1.00  0.00    +0.000 H 
ATOM    136  H42 UNL A   1      23.188  57.250  -0.158  1.00  0.00    +0.000 H 
BRANCH   28   27
ATOM     27  C24 UNL A   1      23.969  57.237  -2.119  1.00  0.00    +0.000 C 
ATOM    133  H39 UNL A   1      24.610  57.952  -2.590  1.00  0.00    +0.000 H 
ATOM    134  H40 UNL A   1      24.493  56.416  -1.675  1.00  0.00    +0.000 H 
BRANCH   27   26
ATOM     26  C23 UNL A   1      23.066  56.630  -3.195  1.00  0.00    +0.000 C 
ATOM    131  H37 UNL A   1      22.423  55.918  -2.721  1.00  0.00    +0.000 H 
ATOM    132  H38 UNL A   1      22.548  57.455  -3.639  1.00  0.00    +0.000 H 
BRANCH   26   25
ATOM     25  C22 UNL A   1      23.787  55.921  -4.347  1.00  0.00    +0.000 C 
ATOM    130  H36 UNL A   1      23.544  56.472  -5.231  1.00  0.00    +0.000 H 
ATOM    129  H35 UNL A   1      23.454  54.904  -4.369  1.00  0.00    +0.000 H 
BRANCH   25   24
ATOM    128  H34 UNL A   1      25.594  55.642  -3.261  1.00  0.00    +0.000 H 
ATOM    127  H33 UNL A   1      25.682  56.893  -4.502  1.00  0.00    +0.000 H 
ATOM     24  C21 UNL A   1      25.318  55.915  -4.258  1.00  0.00    +0.000 C 
BRANCH   24   23
ATOM    125  H31 UNL A   1      26.971  55.145  -5.349  1.00  0.00    +0.000 H 
ATOM    126  H32 UNL A   1      25.811  53.932  -4.790  1.00  0.00    +0.000 H 
ATOM     23  C20 UNL A   1      25.936  54.905  -5.217  1.00  0.00    +0.000 C 
BRANCH   23   22
ATOM    124  H30 UNL A   1      24.318  55.070  -6.508  1.00  0.00    +0.000 H 
ATOM     22  N1  UNL A   1      25.289  54.903  -6.517  1.00  0.00    +0.000 N 
BRANCH   22   20
ATOM     20  C19 UNL A   1      25.838  54.705  -7.744  1.00  0.00    +0.000 C 
ATOM     21  O1  UNL A   1      25.313  53.833  -8.445  1.00  0.00    +0.000 O 
BRANCH   20   19
ATOM    122  H28 UNL A   1      26.943  55.509  -9.334  1.00  0.00    +0.000 H 
ATOM     19  C18 UNL A   1      27.052  55.449  -8.271  1.00  0.00    +0.000 C 
ATOM    123  H29 UNL A   1      27.036  56.370  -7.725  1.00  0.00    +0.000 H 
BRANCH   19   18
ATOM    121  H27 UNL A   1      28.611  54.254  -8.833  1.00  0.00    +0.000 H 
ATOM     18  C17 UNL A   1      28.439  54.908  -8.004  1.00  0.00    +0.000 C 
ATOM    120  H26 UNL A   1      28.416  54.472  -7.028  1.00  0.00    +0.000 H 
BRANCH   18   17
ATOM     17  C16 UNL A   1      29.647  55.840  -8.040  1.00  0.00    +0.000 C 
ATOM    118  H24 UNL A   1      30.438  55.273  -7.597  1.00  0.00    +0.000 H 
ATOM    119  H25 UNL A   1      29.601  56.120  -9.072  1.00  0.00    +0.000 H 
BRANCH   17   16
ATOM     16  S1  UNL A   1      29.810  57.528  -7.303  1.00  0.00    +0.000 S 
BRANCH   16   15
ATOM    116  H22 UNL A   1      31.475  58.568  -5.934  1.00  0.00    +0.000 H 
ATOM    117  H23 UNL A   1      31.888  56.872  -6.412  1.00  0.00    +0.000 H 
ATOM     15  C15 UNL A   1      31.530  57.835  -6.712  1.00  0.00    +0.000 C 
BRANCH   15   14
ATOM    114  H20 UNL A   1      32.077  58.431  -8.692  1.00  0.00    +0.000 H 
ATOM    115  H21 UNL A   1      32.948  59.259  -7.355  1.00  0.00    +0.000 H 
ATOM     14  C14 UNL A   1      32.573  58.336  -7.749  1.00  0.00    +0.000 C 
BRANCH   14   13
ATOM    113  H19 UNL A   1      34.516  57.528  -7.228  1.00  0.00    +0.000 H 
ATOM     13  C13 UNL A   1      33.781  57.461  -7.949  1.00  0.00    +0.000 C 
BRANCH   13   12
ATOM     12  C12 UNL A   1      34.016  56.601  -8.958  1.00  0.00    +0.000 C 
ATOM    112  H18 UNL A   1      34.579  56.924  -9.759  1.00  0.00    +0.000 H 
BRANCH   12   11
ATOM     11  C11 UNL A   1      33.491  55.176  -8.967  1.00  0.00    +0.000 C 
ATOM    110  H16 UNL A   1      33.956  54.646  -8.163  1.00  0.00    +0.000 H 
ATOM    111  H17 UNL A   1      32.427  55.251  -8.871  1.00  0.00    +0.000 H 
BRANCH   11   10
ATOM     10  C10 UNL A   1      33.742  54.412 -10.233  1.00  0.00    +0.000 C 
ATOM    109  H15 UNL A   1      33.570  54.885 -11.134  1.00  0.00    +0.000 H 
BRANCH   10    9
ATOM      9  C9  UNL A   1      34.179  53.141 -10.252  1.00  0.00    +0.000 C 
ATOM    108  H14 UNL A   1      33.951  52.562 -11.075  1.00  0.00    +0.000 H 
BRANCH    9    8
ATOM    106  H12 UNL A   1      34.744  52.984  -8.214  1.00  0.00    +0.000 H 
ATOM    107  H13 UNL A   1      34.749  51.470  -9.071  1.00  0.00    +0.000 H 
ATOM      8  C8  UNL A   1      34.980  52.512  -9.145  1.00  0.00    +0.000 C 
BRANCH    8    7
ATOM    105  H11 UNL A   1      36.920  51.939  -9.957  1.00  0.00    +0.000 H 
ATOM      7  C7  UNL A   1      36.435  52.698  -9.454  1.00  0.00    +0.000 C 
BRANCH    7    6
ATOM      6  C6  UNL A   1      37.152  53.781  -9.120  1.00  0.00    +0.000 C 
ATOM    104  H10 UNL A   1      37.877  54.112  -9.776  1.00  0.00    +0.000 H 
BRANCH    6    5
ATOM      5  C5  UNL A   1      36.949  54.538  -7.839  1.00  0.00    +0.000 C 
ATOM    102  H8  UNL A   1      35.938  54.881  -7.781  1.00  0.00    +0.000 H 
ATOM    103  H9  UNL A   1      37.151  53.898  -7.005  1.00  0.00    +0.000 H 
BRANCH    5    4
ATOM      4  C4  UNL A   1      37.884  55.714  -7.816  1.00  0.00    +0.000 C 
ATOM    101  H7  UNL A   1      38.843  55.563  -7.467  1.00  0.00    +0.000 H 
BRANCH    4    3
ATOM      3  C3  UNL A   1      37.551  56.950  -8.219  1.00  0.00    +0.000 C 
ATOM    100  H6  UNL A   1      36.846  57.468  -7.672  1.00  0.00    +0.000 H 
BRANCH    3    2
ATOM      2  C2  UNL A   1      38.148  57.618  -9.422  1.00  0.00    +0.000 C 
ATOM     99  H5  UNL A   1      39.013  57.068  -9.730  1.00  0.00    +0.000 H 
ATOM     98  H4  UNL A   1      38.419  58.621  -9.170  1.00  0.00    +0.000 H 
BRANCH    2    1
ATOM      1  C1  UNL A   1      37.147  57.642 -10.569  1.00  0.00    +0.000 C 
ATOM     97  H3  UNL A   1      36.959  56.642 -10.899  1.00  0.00    +0.000 H 
ATOM     95  H1  UNL A   1      37.547  58.216 -11.379  1.00  0.00    +0.000 H 
ATOM     96  H2  UNL A   1      36.233  58.086 -10.235  1.00  0.00    +0.000 H 
ENDBRANCH    2    1
ENDBRANCH    3    2
ENDBRANCH    4    3
ENDBRANCH    5    4
ENDBRANCH    6    5
ENDBRANCH    7    6
ENDBRANCH    8    7
ENDBRANCH    9    8
ENDBRANCH   10    9
ENDBRANCH   11   10
ENDBRANCH   12   11
ENDBRANCH   13   12
ENDBRANCH   14   13
ENDBRANCH   15   14
ENDBRANCH   16   15
ENDBRANCH   17   16
ENDBRANCH   18   17
ENDBRANCH   19   18
ENDBRANCH   20   19
ENDBRANCH   22   20
ENDBRANCH   23   22
ENDBRANCH   24   23
ENDBRANCH   25   24
ENDBRANCH   26   25
ENDBRANCH   27   26
ENDBRANCH   28   27
ENDBRANCH   29   28
ENDBRANCH   30   29
ENDBRANCH   32   30
ENDBRANCH   36   35
BRANCH   40   41
ATOM     41  C35 UNL A   1      13.610  54.979   5.898  1.00  0.00    +0.000 C 
ATOM     42  C36 UNL A   1      12.693  55.989   5.568  1.00  0.00    +0.000 C 
ATOM     43  F1  UNL A   1      12.262  56.123   4.304  1.00  0.00    +0.000 F 
ATOM     44  C37 UNL A   1      12.238  56.889   6.529  1.00  0.00    +0.000 C 
ATOM     45  F2  UNL A   1      11.396  57.871   6.180  1.00  0.00    +0.000 F 
ATOM     46  C38 UNL A   1      12.663  56.775   7.844  1.00  0.00    +0.000 C 
ATOM     47  F3  UNL A   1      12.213  57.632   8.771  1.00  0.00    +0.000 F 
ATOM     48  C39 UNL A   1      13.556  55.775   8.197  1.00  0.00    +0.000 C 
ATOM     49  F4  UNL A   1      13.955  55.655   9.471  1.00  0.00    +0.000 F 
ATOM     50  C40 UNL A   1      14.036  54.893   7.232  1.00  0.00    +0.000 C 
ATOM     51  F5  UNL A   1      14.908  53.944   7.604  1.00  0.00    +0.000 F 
ENDBRANCH   40   41
BRANCH   57   58
ATOM     65  C50 UNL A   1      11.410  46.336   5.172  1.00  0.00    +0.000 C 
ATOM     66  F9  UNL A   1      11.727  45.463   6.139  1.00  0.00    +0.000 F 
ATOM     67  C51 UNL A   1      12.304  47.345   4.827  1.00  0.00    +0.000 C 
ATOM     68  F10 UNL A   1      13.469  47.427   5.489  1.00  0.00    +0.000 F 
ATOM     58  C46 UNL A   1      12.005  48.259   3.805  1.00  0.00    +0.000 C 
ATOM     59  C47 UNL A   1      10.777  48.119   3.139  1.00  0.00    +0.000 C 
ATOM     60  F6  UNL A   1      10.435  48.974   2.165  1.00  0.00    +0.000 F 
ATOM     61  C48 UNL A   1       9.869  47.131   3.514  1.00  0.00    +0.000 C 
ATOM     62  F7  UNL A   1       8.674  47.060   2.909  1.00  0.00    +0.000 F 
ATOM     63  C49 UNL A   1      10.187  46.238   4.525  1.00  0.00    +0.000 C 
ATOM     64  F8  UNL A   1       9.312  45.290   4.883  1.00  0.00    +0.000 F 
ENDBRANCH   57   58
BRANCH   72   73
ATOM     73  C55 UNL A   1      17.023  48.607  -1.009  1.00  0.00    +0.000 C 
ATOM     74  C56 UNL A   1      18.167  47.840  -0.748  1.00  0.00    +0.000 C 
ATOM     75  F11 UNL A   1      18.805  47.966   0.425  1.00  0.00    +0.000 F 
ATOM     76  C57 UNL A   1      18.695  46.982  -1.712  1.00  0.00    +0.000 C 
ATOM     77  F12 UNL A   1      19.827  46.311  -1.459  1.00  0.00    +0.000 F 
ATOM     78  C58 UNL A   1      18.065  46.842  -2.939  1.00  0.00    +0.000 C 
ATOM     79  F13 UNL A   1      18.574  46.019  -3.866  1.00  0.00    +0.000 F 
ATOM     80  C59 UNL A   1      16.913  47.565  -3.208  1.00  0.00    +0.000 C 
ATOM     81  F14 UNL A   1      16.291  47.419  -4.385  1.00  0.00    +0.000 F 
ATOM     82  C60 UNL A   1      16.407  48.450  -2.259  1.00  0.00    +0.000 C 
ATOM     83  F15 UNL A   1      15.304  49.153  -2.558  1.00  0.00    +0.000 F 
ENDBRANCH   72   73
TORSDOF 33
ENDMDL
MODEL 6
REMARK VINA RESULT:      -5.0     44.865     50.237
ROOT
ATOM    140  H46 UNL A   1      16.850  17.552   8.625  1.00  0.00    +0.000 H 
ATOM    141  H47 UNL A   1      19.268  16.976   9.410  1.00  0.00    +0.000 H 
ATOM    142  H48 UNL A   1      19.523  19.121   5.878  1.00  0.00    +0.000 H 
ATOM    143  H49 UNL A   1      23.055  21.572   1.159  1.00  0.00    +0.000 H 
ATOM    144  H50 UNL A   1      20.701  22.196   0.440  1.00  0.00    +0.000 H 
ATOM    145  H51 UNL A   1      20.424  20.121   4.031  1.00  0.00    +0.000 H 
ATOM    146  H52 UNL A   1      25.135  19.032   5.378  1.00  0.00    +0.000 H 
ATOM    147  H53 UNL A   1      24.131  17.683   7.306  1.00  0.00    +0.000 H 
ATOM    148  H54 UNL A   1      14.879  20.489   4.584  1.00  0.00    +0.000 H 
ATOM    149  H55 UNL A   1      15.806  21.384   2.372  1.00  0.00    +0.000 H 
ATOM     36  C31 UNL A   1      18.651  21.252   2.182  1.00  0.00    +0.000 C 
ATOM     37  C32 UNL A   1      17.776  20.730   3.287  1.00  0.00    +0.000 C 
ATOM     38  N3  UNL A   1      18.117  20.109   4.388  1.00  0.00    +0.000 N 
ATOM     39  C33 UNL A   1      16.932  19.858   5.065  1.00  0.00    +0.000 C 
ATOM     40  C34 UNL A   1      16.745  19.164   6.214  1.00  0.00    +0.000 C 
ATOM     52  C41 UNL A   1      17.809  18.569   6.982  1.00  0.00    +0.000 C 
ATOM     53  C42 UNL A   1      17.722  17.822   8.145  1.00  0.00    +0.000 C 
ATOM     54  C43 UNL A   1      19.019  17.497   8.554  1.00  0.00    +0.000 C 
ATOM     55  C44 UNL A   1      19.912  17.990   7.618  1.00  0.00    +0.000 C 
ATOM     56  N4  UNL A   1      19.157  18.656   6.664  1.00  0.00    +0.000 N 
ATOM     57  C45 UNL A   1      21.347  17.863   7.591  1.00  0.00    +0.000 C 
ATOM     69  C52 UNL A   1      22.154  18.374   6.629  1.00  0.00    +0.000 C 
ATOM     70  N5  UNL A   1      21.816  19.115   5.504  1.00  0.00    +0.000 N 
ATOM     71  C53 UNL A   1      22.949  19.408   4.912  1.00  0.00    +0.000 C 
ATOM     72  C54 UNL A   1      23.187  20.168   3.635  1.00  0.00    +0.000 C 
ATOM     84  C61 UNL A   1      22.126  20.627   2.945  1.00  0.00    +0.000 C 
ATOM     85  C62 UNL A   1      22.191  21.346   1.676  1.00  0.00    +0.000 C 
ATOM     86  C63 UNL A   1      20.946  21.666   1.291  1.00  0.00    +0.000 C 
ATOM     87  C64 UNL A   1      19.991  21.143   2.270  1.00  0.00    +0.000 C 
ATOM     88  N6  UNL A   1      20.783  20.554   3.224  1.00  0.00    +0.000 N 
ATOM     89  C65 UNL A   1      24.139  18.901   5.611  1.00  0.00    +0.000 C 
ATOM     90  C66 UNL A   1      23.595  18.234   6.617  1.00  0.00    +0.000 C 
ATOM     91  C67 UNL A   1      15.867  20.455   4.290  1.00  0.00    +0.000 C 
ATOM     92  C68 UNL A   1      16.328  20.953   3.151  1.00  0.00    +0.000 C 
ENDROOT
BRANCH   36   35
ATOM     33  C28 UNL A   1      17.211  23.908  -0.103  1.00  0.00    +0.000 C 
ATOM     34  C29 UNL A   1      17.844  23.298   0.979  1.00  0.00    +0.000 C 
ATOM     35  C30 UNL A   1      18.057  21.909   0.989  1.00  0.00    +0.000 C 
ATOM    138  H44 UNL A   1      17.026  24.923  -0.090  1.00  0.00    +0.000 H 
ATOM    139  H45 UNL A   1      18.160  23.870   1.779  1.00  0.00    +0.000 H 
ATOM    150  H56 UNL A   1      17.835  20.132  -0.134  1.00  0.00    +0.000 H 
ATOM    151  H57 UNL A   1      16.927  21.229  -2.098  1.00  0.00    +0.000 H 
ATOM     93  C69 UNL A   1      17.689  21.153  -0.132  1.00  0.00    +0.000 C 
ATOM     94  C70 UNL A   1      17.124  21.775  -1.245  1.00  0.00    +0.000 C 
ATOM     32  C27 UNL A   1      16.826  23.140  -1.204  1.00  0.00    +0.000 C 
BRANCH   32   30
ATOM     30  C26 UNL A   1      16.124  23.821  -2.316  1.00  0.00    +0.000 C 
ATOM     31  O2  UNL A   1      16.768  24.389  -3.185  1.00  0.00    +0.000 O 
BRANCH   30   29
ATOM    137  H43 UNL A   1      14.335  24.559  -1.819  1.00  0.00    +0.000 H 
ATOM     29  N2  UNL A   1      14.751  23.846  -2.354  1.00  0.00    +0.000 N 
BRANCH   29   28
ATOM     28  C25 UNL A   1      13.820  22.983  -3.059  1.00  0.00    +0.000 C 
ATOM    135  H41 UNL A   1      14.121  21.966  -2.917  1.00  0.00    +0.000 H 
ATOM    136  H42 UNL A   1      12.844  23.169  -2.661  1.00  0.00    +0.000 H 
BRANCH   28   27
ATOM     27  C24 UNL A   1      13.766  23.270  -4.557  1.00  0.00    +0.000 C 
ATOM    133  H39 UNL A   1      14.363  24.137  -4.748  1.00  0.00    +0.000 H 
ATOM    134  H40 UNL A   1      14.126  22.386  -5.040  1.00  0.00    +0.000 H 
BRANCH   27   26
ATOM     26  C23 UNL A   1      12.369  23.524  -5.127  1.00  0.00    +0.000 C 
ATOM    131  H37 UNL A   1      12.255  22.917  -6.001  1.00  0.00    +0.000 H 
ATOM    132  H38 UNL A   1      11.686  23.283  -4.339  1.00  0.00    +0.000 H 
BRANCH   26   25
ATOM     25  C22 UNL A   1      12.061  24.974  -5.517  1.00  0.00    +0.000 C 
ATOM    130  H36 UNL A   1      11.337  24.921  -6.302  1.00  0.00    +0.000 H 
ATOM    129  H35 UNL A   1      12.980  25.439  -5.809  1.00  0.00    +0.000 H 
BRANCH   25   24
ATOM    128  H34 UNL A   1      11.438  25.264  -3.505  1.00  0.00    +0.000 H 
ATOM    127  H33 UNL A   1      10.426  26.078  -4.699  1.00  0.00    +0.000 H 
ATOM     24  C21 UNL A   1      11.428  25.830  -4.413  1.00  0.00    +0.000 C 
BRANCH   24   23
ATOM    125  H31 UNL A   1      12.347  27.611  -5.119  1.00  0.00    +0.000 H 
ATOM    126  H32 UNL A   1      11.641  27.722  -3.500  1.00  0.00    +0.000 H 
ATOM     23  C20 UNL A   1      12.207  27.119  -4.179  1.00  0.00    +0.000 C 
BRANCH   23   22
ATOM    124  H30 UNL A   1      13.848  25.959  -3.654  1.00  0.00    +0.000 H 
ATOM     22  N1  UNL A   1      13.508  26.880  -3.579  1.00  0.00    +0.000 N 
BRANCH   22   20
ATOM     20  C19 UNL A   1      14.322  27.753  -2.930  1.00  0.00    +0.000 C 
ATOM     21  O1  UNL A   1      15.311  27.269  -2.369  1.00  0.00    +0.000 O 
BRANCH   20   19
ATOM    122  H28 UNL A   1      13.773  29.581  -3.799  1.00  0.00    +0.000 H 
ATOM     19  C18 UNL A   1      14.068  29.247  -2.826  1.00  0.00    +0.000 C 
ATOM    123  H29 UNL A   1      13.343  29.323  -2.043  1.00  0.00    +0.000 H 
BRANCH   19   18
ATOM    121  H27 UNL A   1      14.916  31.106  -2.808  1.00  0.00    +0.000 H 
ATOM     18  C17 UNL A   1      15.177  30.167  -2.366  1.00  0.00    +0.000 C 
ATOM    120  H26 UNL A   1      16.097  29.716  -2.672  1.00  0.00    +0.000 H 
BRANCH   18   17
ATOM     17  C16 UNL A   1      15.326  30.510  -0.886  1.00  0.00    +0.000 C 
ATOM    118  H24 UNL A   1      15.413  29.562  -0.398  1.00  0.00    +0.000 H 
ATOM    119  H25 UNL A   1      16.114  31.228  -0.968  1.00  0.00    +0.000 H 
BRANCH   17   16
ATOM     16  S1  UNL A   1      14.174  31.483   0.182  1.00  0.00    +0.000 S 
BRANCH   16   15
ATOM    116  H22 UNL A   1      14.559  33.088   1.916  1.00  0.00    +0.000 H 
ATOM    117  H23 UNL A   1      14.997  31.396   2.386  1.00  0.00    +0.000 H 
ATOM     15  C15 UNL A   1      15.049  32.174   1.652  1.00  0.00    +0.000 C 
BRANCH   15   14
ATOM    114  H20 UNL A   1      16.903  32.054   0.592  1.00  0.00    +0.000 H 
ATOM    115  H21 UNL A   1      16.646  33.549   1.556  1.00  0.00    +0.000 H 
ATOM     14  C14 UNL A   1      16.565  32.483   1.513  1.00  0.00    +0.000 C 
BRANCH   14   13
ATOM    113  H19 UNL A   1      17.243  32.311   3.565  1.00  0.00    +0.000 H 
ATOM     13  C13 UNL A   1      17.451  31.965   2.615  1.00  0.00    +0.000 C 
BRANCH   13   12
ATOM     12  C12 UNL A   1      18.480  31.105   2.508  1.00  0.00    +0.000 C 
ATOM    112  H18 UNL A   1      19.115  30.994   3.314  1.00  0.00    +0.000 H 
BRANCH   12   11
ATOM     11  C11 UNL A   1      18.749  30.289   1.256  1.00  0.00    +0.000 C 
ATOM    110  H16 UNL A   1      18.668  29.254   1.511  1.00  0.00    +0.000 H 
ATOM    111  H17 UNL A   1      18.027  30.609   0.533  1.00  0.00    +0.000 H 
BRANCH   11   10
ATOM     10  C10 UNL A   1      20.093  30.509   0.627  1.00  0.00    +0.000 C 
ATOM    109  H15 UNL A   1      20.160  31.160  -0.170  1.00  0.00    +0.000 H 
BRANCH   10    9
ATOM      9  C9  UNL A   1      21.213  29.899   1.051  1.00  0.00    +0.000 C 
ATOM    108  H14 UNL A   1      22.116  30.224   0.671  1.00  0.00    +0.000 H 
BRANCH    9    8
ATOM    106  H12 UNL A   1      21.749  29.078   2.931  1.00  0.00    +0.000 H 
ATOM    107  H13 UNL A   1      20.230  28.500   2.311  1.00  0.00    +0.000 H 
ATOM      8  C8  UNL A   1      21.230  28.772   2.047  1.00  0.00    +0.000 C 
BRANCH    8    7
ATOM    105  H11 UNL A   1      22.744  27.803   0.814  1.00  0.00    +0.000 H 
ATOM      7  C7  UNL A   1      21.935  27.605   1.423  1.00  0.00    +0.000 C 
BRANCH    7    6
ATOM      6  C6  UNL A   1      21.587  26.322   1.601  1.00  0.00    +0.000 C 
ATOM    104  H10 UNL A   1      21.708  25.905   2.537  1.00  0.00    +0.000 H 
BRANCH    6    5
ATOM      5  C5  UNL A   1      21.028  25.463   0.504  1.00  0.00    +0.000 C 
ATOM    102  H8  UNL A   1      21.775  24.772   0.173  1.00  0.00    +0.000 H 
ATOM    103  H9  UNL A   1      20.182  24.917   0.867  1.00  0.00    +0.000 H 
BRANCH    5    4
ATOM      4  C4  UNL A   1      20.613  26.343  -0.641  1.00  0.00    +0.000 C 
ATOM    101  H7  UNL A   1      21.347  26.679  -1.283  1.00  0.00    +0.000 H 
BRANCH    4    3
ATOM      3  C3  UNL A   1      19.349  26.722  -0.880  1.00  0.00    +0.000 C 
ATOM    100  H6  UNL A   1      18.585  26.135  -0.511  1.00  0.00    +0.000 H 
BRANCH    3    2
ATOM      2  C2  UNL A   1      18.986  27.953  -1.659  1.00  0.00    +0.000 C 
ATOM     99  H5  UNL A   1      19.774  28.668  -1.561  1.00  0.00    +0.000 H 
ATOM     98  H4  UNL A   1      18.072  28.355  -1.275  1.00  0.00    +0.000 H 
BRANCH    2    1
ATOM      1  C1  UNL A   1      18.805  27.617  -3.132  1.00  0.00    +0.000 C 
ATOM     97  H3  UNL A   1      17.762  27.626  -3.374  1.00  0.00    +0.000 H 
ATOM     95  H1  UNL A   1      19.209  26.646  -3.329  1.00  0.00    +0.000 H 
ATOM     96  H2  UNL A   1      19.315  28.344  -3.729  1.00  0.00    +0.000 H 
ENDBRANCH    2    1
ENDBRANCH    3    2
ENDBRANCH    4    3
ENDBRANCH    5    4
ENDBRANCH    6    5
ENDBRANCH    7    6
ENDBRANCH    8    7
ENDBRANCH    9    8
ENDBRANCH   10    9
ENDBRANCH   11   10
ENDBRANCH   12   11
ENDBRANCH   13   12
ENDBRANCH   14   13
ENDBRANCH   15   14
ENDBRANCH   16   15
ENDBRANCH   17   16
ENDBRANCH   18   17
ENDBRANCH   19   18
ENDBRANCH   20   19
ENDBRANCH   22   20
ENDBRANCH   23   22
ENDBRANCH   24   23
ENDBRANCH   25   24
ENDBRANCH   26   25
ENDBRANCH   27   26
ENDBRANCH   28   27
ENDBRANCH   29   28
ENDBRANCH   30   29
ENDBRANCH   32   30
ENDBRANCH   36   35
BRANCH   40   41
ATOM     41  C35 UNL A   1      15.335  18.992   6.703  1.00  0.00    +0.000 C 
ATOM     42  C36 UNL A   1      14.565  17.878   6.336  1.00  0.00    +0.000 C 
ATOM     43  F1  UNL A   1      15.057  16.971   5.478  1.00  0.00    +0.000 F 
ATOM     44  C37 UNL A   1      13.272  17.705   6.824  1.00  0.00    +0.000 C 
ATOM     45  F2  UNL A   1      12.541  16.655   6.424  1.00  0.00    +0.000 F 
ATOM     46  C38 UNL A   1      12.737  18.624   7.714  1.00  0.00    +0.000 C 
ATOM     47  F3  UNL A   1      11.498  18.449   8.194  1.00  0.00    +0.000 F 
ATOM     48  C39 UNL A   1      13.484  19.724   8.103  1.00  0.00    +0.000 C 
ATOM     49  F4  UNL A   1      12.974  20.605   8.976  1.00  0.00    +0.000 F 
ATOM     50  C40 UNL A   1      14.767  19.915   7.594  1.00  0.00    +0.000 C 
ATOM     51  F5  UNL A   1      15.459  20.996   7.982  1.00  0.00    +0.000 F 
ENDBRANCH   40   41
BRANCH   57   58
ATOM     65  C50 UNL A   1      23.007  15.020   9.503  1.00  0.00    +0.000 C 
ATOM     66  F9  UNL A   1      23.351  13.741   9.291  1.00  0.00    +0.000 F 
ATOM     67  C51 UNL A   1      22.394  15.751   8.489  1.00  0.00    +0.000 C 
ATOM     68  F10 UNL A   1      22.173  15.155   7.308  1.00  0.00    +0.000 F 
ATOM     58  C46 UNL A   1      22.008  17.085   8.693  1.00  0.00    +0.000 C 
ATOM     59  C47 UNL A   1      22.254  17.654   9.951  1.00  0.00    +0.000 C 
ATOM     60  F6  UNL A   1      21.917  18.929  10.194  1.00  0.00    +0.000 F 
ATOM     61  C48 UNL A   1      22.902  16.931  10.950  1.00  0.00    +0.000 C 
ATOM     62  F7  UNL A   1      23.187  17.518  12.121  1.00  0.00    +0.000 F 
ATOM     63  C49 UNL A   1      23.273  15.613  10.727  1.00  0.00    +0.000 C 
ATOM     64  F8  UNL A   1      23.895  14.920  11.689  1.00  0.00    +0.000 F 
ENDBRANCH   57   58
BRANCH   72   73
ATOM     73  C55 UNL A   1      24.567  20.403   3.132  1.00  0.00    +0.000 C 
ATOM     74  C56 UNL A   1      25.252  19.423   2.400  1.00  0.00    +0.000 C 
ATOM     75  F11 UNL A   1      24.659  18.249   2.134  1.00  0.00    +0.000 F 
ATOM     76  C57 UNL A   1      26.568  19.620   1.988  1.00  0.00    +0.000 C 
ATOM     77  F12 UNL A   1      27.221  18.640   1.347  1.00  0.00    +0.000 F 
ATOM     78  C58 UNL A   1      27.212  20.818   2.262  1.00  0.00    +0.000 C 
ATOM     79  F13 UNL A   1      28.478  21.006   1.867  1.00  0.00    +0.000 F 
ATOM     80  C59 UNL A   1      26.543  21.815   2.955  1.00  0.00    +0.000 C 
ATOM     81  F14 UNL A   1      27.155  22.980   3.206  1.00  0.00    +0.000 F 
ATOM     82  C60 UNL A   1      25.240  21.604   3.400  1.00  0.00    +0.000 C 
ATOM     83  F15 UNL A   1      24.629  22.579   4.089  1.00  0.00    +0.000 F 
ENDBRANCH   72   73
TORSDOF 33
ENDMDL
MODEL 7
REMARK VINA RESULT:      -5.0     45.702     50.439
ROOT
ATOM    140  H46 UNL A   1      16.569  18.993   7.403  1.00  0.00    +0.000 H 
ATOM    141  H47 UNL A   1      18.430  17.185   7.656  1.00  0.00    +0.000 H 
ATOM    142  H48 UNL A   1      19.690  19.966   4.859  1.00  0.00    +0.000 H 
ATOM    143  H49 UNL A   1      23.998  21.906   0.568  1.00  0.00    +0.000 H 
ATOM    144  H50 UNL A   1      22.217  23.705   0.383  1.00  0.00    +0.000 H 
ATOM    145  H51 UNL A   1      20.969  20.975   3.258  1.00  0.00    +0.000 H 
ATOM    146  H52 UNL A   1      24.612  17.536   3.586  1.00  0.00    +0.000 H 
ATOM    147  H53 UNL A   1      23.076  16.256   5.182  1.00  0.00    +0.000 H 
ATOM    148  H54 UNL A   1      16.237  23.592   4.650  1.00  0.00    +0.000 H 
ATOM    149  H55 UNL A   1      17.494  24.614   2.668  1.00  0.00    +0.000 H 
ATOM     36  C31 UNL A   1      19.948  23.290   2.059  1.00  0.00    +0.000 C 
ATOM     37  C32 UNL A   1      18.921  22.901   3.084  1.00  0.00    +0.000 C 
ATOM     38  N3  UNL A   1      18.922  21.886   3.911  1.00  0.00    +0.000 N 
ATOM     39  C33 UNL A   1      17.752  21.995   4.649  1.00  0.00    +0.000 C 
ATOM     40  C34 UNL A   1      17.252  21.140   5.573  1.00  0.00    +0.000 C 
ATOM     52  C41 UNL A   1      17.907  19.927   5.992  1.00  0.00    +0.000 C 
ATOM     53  C42 UNL A   1      17.470  18.978   6.901  1.00  0.00    +0.000 C 
ATOM     54  C43 UNL A   1      18.461  17.998   7.022  1.00  0.00    +0.000 C 
ATOM     55  C44 UNL A   1      19.489  18.304   6.145  1.00  0.00    +0.000 C 
ATOM     56  N4  UNL A   1      19.141  19.496   5.528  1.00  0.00    +0.000 N 
ATOM     57  C45 UNL A   1      20.698  17.563   5.887  1.00  0.00    +0.000 C 
ATOM     69  C52 UNL A   1      21.659  17.929   5.003  1.00  0.00    +0.000 C 
ATOM     70  N5  UNL A   1      21.716  19.051   4.187  1.00  0.00    +0.000 N 
ATOM     71  C53 UNL A   1      22.860  18.973   3.549  1.00  0.00    +0.000 C 
ATOM     72  C54 UNL A   1      23.436  19.901   2.513  1.00  0.00    +0.000 C 
ATOM     84  C61 UNL A   1      22.720  20.975   2.131  1.00  0.00    +0.000 C 
ATOM     85  C62 UNL A   1      23.125  21.942   1.116  1.00  0.00    +0.000 C 
ATOM     86  C63 UNL A   1      22.177  22.887   1.011  1.00  0.00    +0.000 C 
ATOM     87  C64 UNL A   1      21.080  22.572   1.927  1.00  0.00    +0.000 C 
ATOM     88  N6  UNL A   1      21.497  21.428   2.561  1.00  0.00    +0.000 N 
ATOM     89  C65 UNL A   1      23.668  17.800   3.908  1.00  0.00    +0.000 C 
ATOM     90  C66 UNL A   1      22.866  17.171   4.754  1.00  0.00    +0.000 C 
ATOM     91  C67 UNL A   1      17.096  23.213   4.225  1.00  0.00    +0.000 C 
ATOM     92  C68 UNL A   1      17.747  23.778   3.217  1.00  0.00    +0.000 C 
ENDROOT
BRANCH   36   35
ATOM     33  C28 UNL A   1      18.937  25.438  -0.893  1.00  0.00    +0.000 C 
ATOM     34  C29 UNL A   1      19.060  24.347  -0.033  1.00  0.00    +0.000 C 
ATOM     35  C30 UNL A   1      19.741  24.476   1.189  1.00  0.00    +0.000 C 
ATOM    138  H44 UNL A   1      18.466  25.329  -1.804  1.00  0.00    +0.000 H 
ATOM    139  H45 UNL A   1      18.647  23.438  -0.296  1.00  0.00    +0.000 H 
ATOM    150  H56 UNL A   1      20.741  25.839   2.459  1.00  0.00    +0.000 H 
ATOM    151  H57 UNL A   1      20.340  27.777   1.057  1.00  0.00    +0.000 H 
ATOM     93  C69 UNL A   1      20.235  25.732   1.567  1.00  0.00    +0.000 C 
ATOM     94  C70 UNL A   1      20.045  26.840   0.741  1.00  0.00    +0.000 C 
ATOM     32  C27 UNL A   1      19.455  26.680  -0.516  1.00  0.00    +0.000 C 
BRANCH   32   30
ATOM     30  C26 UNL A   1      19.335  27.803  -1.473  1.00  0.00    +0.000 C 
ATOM     31  O2  UNL A   1      19.966  27.782  -2.519  1.00  0.00    +0.000 O 
BRANCH   30   29
ATOM    137  H43 UNL A   1      18.889  29.463  -0.453  1.00  0.00    +0.000 H 
ATOM     29  N2  UNL A   1      18.544  28.886  -1.171  1.00  0.00    +0.000 N 
BRANCH   29   28
ATOM     28  C25 UNL A   1      17.280  29.309  -1.746  1.00  0.00    +0.000 C 
ATOM    135  H41 UNL A   1      17.479  29.848  -2.649  1.00  0.00    +0.000 H 
ATOM    136  H42 UNL A   1      16.699  28.429  -1.929  1.00  0.00    +0.000 H 
BRANCH   28   27
ATOM     27  C24 UNL A   1      16.475  30.205  -0.810  1.00  0.00    +0.000 C 
ATOM    133  H39 UNL A   1      16.646  29.873   0.192  1.00  0.00    +0.000 H 
ATOM    134  H40 UNL A   1      16.811  31.203  -0.997  1.00  0.00    +0.000 H 
BRANCH   27   26
ATOM     26  C23 UNL A   1      14.963  30.217  -1.052  1.00  0.00    +0.000 C 
ATOM    131  H37 UNL A   1      14.482  30.384  -0.111  1.00  0.00    +0.000 H 
ATOM    132  H38 UNL A   1      14.790  30.989  -1.772  1.00  0.00    +0.000 H 
BRANCH   26   25
ATOM     25  C22 UNL A   1      14.377  28.939  -1.661  1.00  0.00    +0.000 C 
ATOM    130  H36 UNL A   1      14.784  28.127  -1.096  1.00  0.00    +0.000 H 
ATOM    129  H35 UNL A   1      14.640  28.916  -2.698  1.00  0.00    +0.000 H 
BRANCH   25   24
ATOM    128  H34 UNL A   1      12.534  28.071  -2.270  1.00  0.00    +0.000 H 
ATOM    127  H33 UNL A   1      12.405  29.755  -1.760  1.00  0.00    +0.000 H 
ATOM     24  C21 UNL A   1      12.852  28.803  -1.557  1.00  0.00    +0.000 C 
BRANCH   24   23
ATOM    125  H31 UNL A   1      13.274  28.332   0.471  1.00  0.00    +0.000 H 
ATOM    126  H32 UNL A   1      11.670  29.017   0.179  1.00  0.00    +0.000 H 
ATOM     23  C20 UNL A   1      12.419  28.338  -0.172  1.00  0.00    +0.000 C 
BRANCH   23   22
ATOM    124  H30 UNL A   1      11.967  26.498  -1.021  1.00  0.00    +0.000 H 
ATOM     22  N1  UNL A   1      11.838  27.008  -0.188  1.00  0.00    +0.000 N 
BRANCH   22   20
ATOM     20  C19 UNL A   1      11.140  26.369   0.787  1.00  0.00    +0.000 C 
ATOM     21  O1  UNL A   1      11.802  25.900   1.719  1.00  0.00    +0.000 O 
BRANCH   20   19
ATOM    122  H28 UNL A   1       9.378  25.792  -0.193  1.00  0.00    +0.000 H 
ATOM     19  C18 UNL A   1       9.634  26.171   0.774  1.00  0.00    +0.000 C 
ATOM    123  H29 UNL A   1       9.460  25.530   1.613  1.00  0.00    +0.000 H 
BRANCH   19   18
ATOM    121  H27 UNL A   1       7.835  27.098   0.489  1.00  0.00    +0.000 H 
ATOM     18  C17 UNL A   1       8.720  27.348   1.038  1.00  0.00    +0.000 C 
ATOM    120  H26 UNL A   1       9.254  28.225   0.740  1.00  0.00    +0.000 H 
BRANCH   18   17
ATOM     17  C16 UNL A   1       8.193  27.610   2.446  1.00  0.00    +0.000 C 
ATOM    118  H24 UNL A   1       7.644  28.524   2.362  1.00  0.00    +0.000 H 
ATOM    119  H25 UNL A   1       7.757  26.652   2.634  1.00  0.00    +0.000 H 
BRANCH   17   16
ATOM     16  S1  UNL A   1       9.160  27.786   4.012  1.00  0.00    +0.000 S 
BRANCH   16   15
ATOM    116  H22 UNL A   1      11.014  29.145   4.677  1.00  0.00    +0.000 H 
ATOM    117  H23 UNL A   1      11.393  28.028   3.305  1.00  0.00    +0.000 H 
ATOM     15  C15 UNL A   1      10.715  28.737   3.734  1.00  0.00    +0.000 C 
BRANCH   15   14
ATOM    114  H20 UNL A   1      10.458  29.495   1.750  1.00  0.00    +0.000 H 
ATOM    115  H21 UNL A   1       9.929  30.583   3.080  1.00  0.00    +0.000 H 
ATOM     14  C14 UNL A   1      10.675  29.908   2.713  1.00  0.00    +0.000 C 
BRANCH   14   13
ATOM    113  H19 UNL A   1      12.666  30.538   3.294  1.00  0.00    +0.000 H 
ATOM     13  C13 UNL A   1      11.934  30.724   2.591  1.00  0.00    +0.000 C 
BRANCH   13   12
ATOM     12  C12 UNL A   1      12.218  31.668   1.675  1.00  0.00    +0.000 C 
ATOM    112  H18 UNL A   1      12.979  32.335   1.874  1.00  0.00    +0.000 H 
BRANCH   12   11
ATOM     11  C11 UNL A   1      11.468  31.795   0.360  1.00  0.00    +0.000 C 
ATOM    110  H16 UNL A   1      11.485  30.841  -0.124  1.00  0.00    +0.000 H 
ATOM    111  H17 UNL A   1      10.483  32.129   0.612  1.00  0.00    +0.000 H 
BRANCH   11   10
ATOM     10  C10 UNL A   1      12.021  32.811  -0.595  1.00  0.00    +0.000 C 
ATOM    109  H15 UNL A   1      12.357  33.709  -0.215  1.00  0.00    +0.000 H 
BRANCH   10    9
ATOM      9  C9  UNL A   1      12.102  32.608  -1.921  1.00  0.00    +0.000 C 
ATOM    108  H14 UNL A   1      13.026  32.388  -2.323  1.00  0.00    +0.000 H 
BRANCH    9    8
ATOM    106  H12 UNL A   1      11.219  33.143  -3.773  1.00  0.00    +0.000 H 
ATOM    107  H13 UNL A   1      10.562  31.696  -3.066  1.00  0.00    +0.000 H 
ATOM      8  C8  UNL A   1      10.924  32.680  -2.854  1.00  0.00    +0.000 C 
BRANCH    8    7
ATOM    105  H11 UNL A   1      10.011  34.511  -2.102  1.00  0.00    +0.000 H 
ATOM      7  C7  UNL A   1       9.852  33.495  -2.197  1.00  0.00    +0.000 C 
BRANCH    7    6
ATOM      6  C6  UNL A   1       8.701  32.998  -1.722  1.00  0.00    +0.000 C 
ATOM    104  H10 UNL A   1       8.180  32.323  -2.304  1.00  0.00    +0.000 H 
BRANCH    6    5
ATOM      5  C5  UNL A   1       8.132  33.374  -0.384  1.00  0.00    +0.000 C 
ATOM    102  H8  UNL A   1       8.835  33.982   0.146  1.00  0.00    +0.000 H 
ATOM    103  H9  UNL A   1       7.224  33.924  -0.519  1.00  0.00    +0.000 H 
BRANCH    5    4
ATOM      4  C4  UNL A   1       7.857  32.121   0.397  1.00  0.00    +0.000 C 
ATOM    101  H7  UNL A   1       8.640  31.692   0.913  1.00  0.00    +0.000 H 
BRANCH    4    3
ATOM      3  C3  UNL A   1       6.658  31.524   0.467  1.00  0.00    +0.000 C 
ATOM    100  H6  UNL A   1       6.330  30.990  -0.353  1.00  0.00    +0.000 H 
BRANCH    3    2
ATOM      2  C2  UNL A   1       5.767  31.591   1.672  1.00  0.00    +0.000 C 
ATOM     99  H5  UNL A   1       6.341  31.345   2.540  1.00  0.00    +0.000 H 
ATOM     98  H4  UNL A   1       4.961  30.898   1.554  1.00  0.00    +0.000 H 
BRANCH    2    1
ATOM      1  C1  UNL A   1       5.200  32.994   1.838  1.00  0.00    +0.000 C 
ATOM     97  H3  UNL A   1       4.395  33.137   1.147  1.00  0.00    +0.000 H 
ATOM     95  H1  UNL A   1       5.968  33.713   1.646  1.00  0.00    +0.000 H 
ATOM     96  H2  UNL A   1       4.838  33.116   2.837  1.00  0.00    +0.000 H 
ENDBRANCH    2    1
ENDBRANCH    3    2
ENDBRANCH    4    3
ENDBRANCH    5    4
ENDBRANCH    6    5
ENDBRANCH    7    6
ENDBRANCH    8    7
ENDBRANCH    9    8
ENDBRANCH   10    9
ENDBRANCH   11   10
ENDBRANCH   12   11
ENDBRANCH   13   12
ENDBRANCH   14   13
ENDBRANCH   15   14
ENDBRANCH   16   15
ENDBRANCH   17   16
ENDBRANCH   18   17
ENDBRANCH   19   18
ENDBRANCH   20   19
ENDBRANCH   22   20
ENDBRANCH   23   22
ENDBRANCH   24   23
ENDBRANCH   25   24
ENDBRANCH   26   25
ENDBRANCH   27   26
ENDBRANCH   28   27
ENDBRANCH   29   28
ENDBRANCH   30   29
ENDBRANCH   32   30
ENDBRANCH   36   35
BRANCH   40   41
ATOM     41  C35 UNL A   1      15.921  21.475   6.185  1.00  0.00    +0.000 C 
ATOM     42  C36 UNL A   1      15.829  22.212   7.375  1.00  0.00    +0.000 C 
ATOM     43  F1  UNL A   1      16.942  22.576   8.032  1.00  0.00    +0.000 F 
ATOM     44  C37 UNL A   1      14.592  22.552   7.917  1.00  0.00    +0.000 C 
ATOM     45  F2  UNL A   1      14.530  23.220   9.078  1.00  0.00    +0.000 F 
ATOM     46  C38 UNL A   1      13.424  22.194   7.261  1.00  0.00    +0.000 C 
ATOM     47  F3  UNL A   1      12.234  22.535   7.775  1.00  0.00    +0.000 F 
ATOM     48  C39 UNL A   1      13.490  21.479   6.075  1.00  0.00    +0.000 C 
ATOM     49  F4  UNL A   1      12.362  21.145   5.432  1.00  0.00    +0.000 F 
ATOM     50  C40 UNL A   1      14.725  21.111   5.547  1.00  0.00    +0.000 C 
ATOM     51  F5  UNL A   1      14.754  20.410   4.404  1.00  0.00    +0.000 F 
ENDBRANCH   40   41
BRANCH   57   58
ATOM     65  C50 UNL A   1      21.888  15.051   8.488  1.00  0.00    +0.000 C 
ATOM     66  F9  UNL A   1      22.651  15.041   9.590  1.00  0.00    +0.000 F 
ATOM     67  C51 UNL A   1      21.686  16.240   7.794  1.00  0.00    +0.000 C 
ATOM     68  F10 UNL A   1      22.255  17.363   8.261  1.00  0.00    +0.000 F 
ATOM     58  C46 UNL A   1      20.908  16.273   6.627  1.00  0.00    +0.000 C 
ATOM     59  C47 UNL A   1      20.347  15.068   6.179  1.00  0.00    +0.000 C 
ATOM     60  F6  UNL A   1      19.583  15.046   5.077  1.00  0.00    +0.000 F 
ATOM     61  C48 UNL A   1      20.521  13.887   6.897  1.00  0.00    +0.000 C 
ATOM     62  F7  UNL A   1      19.918  12.762   6.487  1.00  0.00    +0.000 F 
ATOM     63  C49 UNL A   1      21.295  13.878   8.047  1.00  0.00    +0.000 C 
ATOM     64  F8  UNL A   1      21.461  12.741   8.735  1.00  0.00    +0.000 F 
ENDBRANCH   57   58
BRANCH   72   73
ATOM     73  C55 UNL A   1      24.770  19.637   1.910  1.00  0.00    +0.000 C 
ATOM     74  C56 UNL A   1      25.951  19.830   2.642  1.00  0.00    +0.000 C 
ATOM     75  F11 UNL A   1      25.889  20.252   3.914  1.00  0.00    +0.000 F 
ATOM     76  C57 UNL A   1      27.201  19.646   2.054  1.00  0.00    +0.000 C 
ATOM     77  F12 UNL A   1      28.313  19.901   2.758  1.00  0.00    +0.000 F 
ATOM     78  C58 UNL A   1      27.296  19.225   0.736  1.00  0.00    +0.000 C 
ATOM     79  F13 UNL A   1      28.498  19.050   0.172  1.00  0.00    +0.000 F 
ATOM     80  C59 UNL A   1      26.142  18.995   0.003  1.00  0.00    +0.000 C 
ATOM     81  F14 UNL A   1      26.229  18.571  -1.265  1.00  0.00    +0.000 F 
ATOM     82  C60 UNL A   1      24.893  19.215   0.578  1.00  0.00    +0.000 C 
ATOM     83  F15 UNL A   1      23.796  19.007  -0.165  1.00  0.00    +0.000 F 
ENDBRANCH   72   73
TORSDOF 33
ENDMDL
MODEL 8
REMARK VINA RESULT:      -5.0      4.340      7.406
ROOT
ATOM    140  H46 UNL A   1      18.941  33.672  47.475  1.00  0.00    +0.000 H 
ATOM    141  H47 UNL A   1      17.213  35.187  48.707  1.00  0.00    +0.000 H 
ATOM    142  H48 UNL A   1      20.674  37.379  48.113  1.00  0.00    +0.000 H 
ATOM    143  H49 UNL A   1      24.018  42.747  48.984  1.00  0.00    +0.000 H 
ATOM    144  H50 UNL A   1      25.668  41.293  47.716  1.00  0.00    +0.000 H 
ATOM    145  H51 UNL A   1      22.172  39.101  48.222  1.00  0.00    +0.000 H 
ATOM    146  H52 UNL A   1      18.978  42.115  50.653  1.00  0.00    +0.000 H 
ATOM    147  H53 UNL A   1      17.389  40.113  50.774  1.00  0.00    +0.000 H 
ATOM    148  H54 UNL A   1      23.840  34.546  45.455  1.00  0.00    +0.000 H 
ATOM    149  H55 UNL A   1      25.643  36.332  45.781  1.00  0.00    +0.000 H 
ATOM     36  C31 UNL A   1      24.712  38.673  47.122  1.00  0.00    +0.000 C 
ATOM     37  C32 UNL A   1      23.956  37.403  46.854  1.00  0.00    +0.000 C 
ATOM     38  N3  UNL A   1      22.724  37.091  47.172  1.00  0.00    +0.000 N 
ATOM     39  C33 UNL A   1      22.519  35.809  46.682  1.00  0.00    +0.000 C 
ATOM     40  C34 UNL A   1      21.433  35.011  46.830  1.00  0.00    +0.000 C 
ATOM     52  C41 UNL A   1      20.234  35.398  47.527  1.00  0.00    +0.000 C 
ATOM     53  C42 UNL A   1      19.089  34.653  47.757  1.00  0.00    +0.000 C 
ATOM     54  C43 UNL A   1      18.170  35.461  48.435  1.00  0.00    +0.000 C 
ATOM     55  C44 UNL A   1      18.762  36.688  48.680  1.00  0.00    +0.000 C 
ATOM     56  N4  UNL A   1      20.024  36.641  48.108  1.00  0.00    +0.000 N 
ATOM     57  C45 UNL A   1      18.219  37.821  49.386  1.00  0.00    +0.000 C 
ATOM     69  C52 UNL A   1      18.869  38.994  49.590  1.00  0.00    +0.000 C 
ATOM     70  N5  UNL A   1      20.140  39.373  49.179  1.00  0.00    +0.000 N 
ATOM     71  C53 UNL A   1      20.295  40.611  49.585  1.00  0.00    +0.000 C 
ATOM     72  C54 UNL A   1      21.489  41.516  49.443  1.00  0.00    +0.000 C 
ATOM     84  C61 UNL A   1      22.594  41.045  48.837  1.00  0.00    +0.000 C 
ATOM     85  C62 UNL A   1      23.839  41.785  48.657  1.00  0.00    +0.000 C 
ATOM     86  C63 UNL A   1      24.715  41.011  47.996  1.00  0.00    +0.000 C 
ATOM     87  C64 UNL A   1      24.104  39.707  47.737  1.00  0.00    +0.000 C 
ATOM     88  N6  UNL A   1      22.840  39.824  48.259  1.00  0.00    +0.000 N 
ATOM     89  C65 UNL A   1      19.125  41.164  50.281  1.00  0.00    +0.000 C 
ATOM     90  C66 UNL A   1      18.309  40.121  50.305  1.00  0.00    +0.000 C 
ATOM     91  C67 UNL A   1      23.726  35.423  45.984  1.00  0.00    +0.000 C 
ATOM     92  C68 UNL A   1      24.667  36.348  46.113  1.00  0.00    +0.000 C 
ENDROOT
BRANCH   36   35
ATOM     33  C28 UNL A   1      27.774  39.652  45.118  1.00  0.00    +0.000 C 
ATOM     34  C29 UNL A   1      26.456  39.582  45.568  1.00  0.00    +0.000 C 
ATOM     35  C30 UNL A   1      26.129  38.817  46.701  1.00  0.00    +0.000 C 
ATOM    138  H44 UNL A   1      28.003  40.187  44.266  1.00  0.00    +0.000 H 
ATOM    139  H45 UNL A   1      25.715  40.096  45.066  1.00  0.00    +0.000 H 
ATOM    150  H56 UNL A   1      26.926  37.613  48.245  1.00  0.00    +0.000 H 
ATOM    151  H57 UNL A   1      29.240  37.911  47.580  1.00  0.00    +0.000 H 
ATOM     93  C69 UNL A   1      27.154  38.182  47.415  1.00  0.00    +0.000 C 
ATOM     94  C70 UNL A   1      28.481  38.314  47.008  1.00  0.00    +0.000 C 
ATOM     32  C27 UNL A   1      28.784  38.994  45.825  1.00  0.00    +0.000 C 
BRANCH   32   30
ATOM     30  C26 UNL A   1      30.164  39.064  45.294  1.00  0.00    +0.000 C 
ATOM     31  O2  UNL A   1      31.073  39.452  46.012  1.00  0.00    +0.000 O 
BRANCH   30   29
ATOM    137  H43 UNL A   1      30.532  39.492  43.377  1.00  0.00    +0.000 H 
ATOM     29  N2  UNL A   1      30.419  38.728  43.986  1.00  0.00    +0.000 N 
BRANCH   29   28
ATOM     28  C25 UNL A   1      30.546  37.422  43.365  1.00  0.00    +0.000 C 
ATOM    135  H41 UNL A   1      29.988  37.422  42.452  1.00  0.00    +0.000 H 
ATOM    136  H42 UNL A   1      31.587  37.247  43.194  1.00  0.00    +0.000 H 
BRANCH   28   27
ATOM     27  C24 UNL A   1      30.029  36.292  44.251  1.00  0.00    +0.000 C 
ATOM    133  H39 UNL A   1      30.692  35.459  44.143  1.00  0.00    +0.000 H 
ATOM    134  H40 UNL A   1      29.995  36.689  45.244  1.00  0.00    +0.000 H 
BRANCH   27   26
ATOM     26  C23 UNL A   1      28.610  35.810  43.939  1.00  0.00    +0.000 C 
ATOM    131  H37 UNL A   1      28.020  36.667  43.688  1.00  0.00    +0.000 H 
ATOM    132  H38 UNL A   1      28.712  35.104  43.141  1.00  0.00    +0.000 H 
BRANCH   26   25
ATOM     25  C22 UNL A   1      27.898  35.061  45.071  1.00  0.00    +0.000 C 
ATOM    130  H36 UNL A   1      26.917  35.484  45.133  1.00  0.00    +0.000 H 
ATOM    129  H35 UNL A   1      28.476  35.183  45.963  1.00  0.00    +0.000 H 
BRANCH   25   24
ATOM    128  H34 UNL A   1      28.641  33.072  44.968  1.00  0.00    +0.000 H 
ATOM    127  H33 UNL A   1      27.321  33.408  43.847  1.00  0.00    +0.000 H 
ATOM     24  C21 UNL A   1      27.697  33.559  44.839  1.00  0.00    +0.000 C 
BRANCH   24   23
ATOM    125  H31 UNL A   1      26.831  33.455  46.776  1.00  0.00    +0.000 H 
ATOM    126  H32 UNL A   1      25.727  33.095  45.442  1.00  0.00    +0.000 H 
ATOM     23  C20 UNL A   1      26.713  32.959  45.836  1.00  0.00    +0.000 C 
BRANCH   23   22
ATOM    124  H30 UNL A   1      26.591  30.955  45.306  1.00  0.00    +0.000 H 
ATOM     22  N1  UNL A   1      26.918  31.535  46.031  1.00  0.00    +0.000 N 
BRANCH   22   20
ATOM     20  C19 UNL A   1      27.501  30.891  47.077  1.00  0.00    +0.000 C 
ATOM     21  O1  UNL A   1      28.372  31.519  47.691  1.00  0.00    +0.000 O 
BRANCH   20   19
ATOM    122  H28 UNL A   1      26.169  29.472  47.856  1.00  0.00    +0.000 H 
ATOM     19  C18 UNL A   1      27.177  29.468  47.497  1.00  0.00    +0.000 C 
ATOM    123  H29 UNL A   1      27.379  28.897  46.615  1.00  0.00    +0.000 H 
BRANCH   19   18
ATOM    121  H27 UNL A   1      27.288  28.429  49.252  1.00  0.00    +0.000 H 
ATOM     18  C17 UNL A   1      28.016  28.788  48.555  1.00  0.00    +0.000 C 
ATOM    120  H26 UNL A   1      28.718  29.515  48.905  1.00  0.00    +0.000 H 
BRANCH   18   17
ATOM     17  C16 UNL A   1      28.816  27.534  48.212  1.00  0.00    +0.000 C 
ATOM    118  H24 UNL A   1      29.628  27.533  48.909  1.00  0.00    +0.000 H 
ATOM    119  H25 UNL A   1      28.013  26.828  48.211  1.00  0.00    +0.000 H 
BRANCH   17   16
ATOM     16  S1  UNL A   1      29.586  27.078  46.595  1.00  0.00    +0.000 S 
BRANCH   16   15
ATOM    116  H22 UNL A   1      29.921  24.748  47.025  1.00  0.00    +0.000 H 
ATOM    117  H23 UNL A   1      31.053  25.424  45.785  1.00  0.00    +0.000 H 
ATOM     15  C15 UNL A   1      30.587  25.536  46.743  1.00  0.00    +0.000 C 
BRANCH   15   14
ATOM    114  H20 UNL A   1      31.385  25.207  48.700  1.00  0.00    +0.000 H 
ATOM    115  H21 UNL A   1      32.505  24.883  47.333  1.00  0.00    +0.000 H 
ATOM     14  C14 UNL A   1      31.766  25.533  47.755  1.00  0.00    +0.000 C 
BRANCH   14   13
ATOM    113  H19 UNL A   1      32.005  27.503  48.626  1.00  0.00    +0.000 H 
ATOM     13  C13 UNL A   1      32.460  26.851  47.968  1.00  0.00    +0.000 C 
BRANCH   13   12
ATOM     12  C12 UNL A   1      33.603  27.282  47.402  1.00  0.00    +0.000 C 
ATOM    112  H18 UNL A   1      34.491  26.842  47.688  1.00  0.00    +0.000 H 
BRANCH   12   11
ATOM     11  C11 UNL A   1      33.643  28.385  46.359  1.00  0.00    +0.000 C 
ATOM    110  H16 UNL A   1      33.325  27.970  45.426  1.00  0.00    +0.000 H 
ATOM    111  H17 UNL A   1      33.001  29.160  46.722  1.00  0.00    +0.000 H 
BRANCH   11   10
ATOM     10  C10 UNL A   1      34.986  29.020  46.152  1.00  0.00    +0.000 C 
ATOM    109  H15 UNL A   1      35.569  28.689  45.369  1.00  0.00    +0.000 H 
BRANCH   10    9
ATOM      9  C9  UNL A   1      35.466  29.999  46.937  1.00  0.00    +0.000 C 
ATOM    108  H14 UNL A   1      36.491  30.088  47.030  1.00  0.00    +0.000 H 
BRANCH    9    8
ATOM    106  H12 UNL A   1      34.931  31.973  47.497  1.00  0.00    +0.000 H 
ATOM    107  H13 UNL A   1      33.583  30.879  47.375  1.00  0.00    +0.000 H 
ATOM      8  C8  UNL A   1      34.602  30.973  47.690  1.00  0.00    +0.000 C 
BRANCH    8    7
ATOM    105  H11 UNL A   1      35.648  30.406  49.515  1.00  0.00    +0.000 H 
ATOM      7  C7  UNL A   1      34.719  30.674  49.154  1.00  0.00    +0.000 C 
BRANCH    7    6
ATOM      6  C6  UNL A   1      33.703  30.729  50.026  1.00  0.00    +0.000 C 
ATOM    104  H10 UNL A   1      33.676  31.509  50.702  1.00  0.00    +0.000 H 
BRANCH    6    5
ATOM      5  C5  UNL A   1      32.600  29.711  50.069  1.00  0.00    +0.000 C 
ATOM    102  H8  UNL A   1      32.839  28.896  49.418  1.00  0.00    +0.000 H 
ATOM    103  H9  UNL A   1      32.487  29.342  51.066  1.00  0.00    +0.000 H 
BRANCH    5    4
ATOM      4  C4  UNL A   1      31.322  30.359  49.618  1.00  0.00    +0.000 C 
ATOM    101  H7  UNL A   1      31.147  30.430  48.604  1.00  0.00    +0.000 H 
BRANCH    4    3
ATOM      3  C3  UNL A   1      30.393  30.854  50.450  1.00  0.00    +0.000 C 
ATOM    100  H6  UNL A   1      29.571  30.269  50.666  1.00  0.00    +0.000 H 
BRANCH    3    2
ATOM      2  C2  UNL A   1      30.484  32.212  51.081  1.00  0.00    +0.000 C 
ATOM     99  H5  UNL A   1      31.364  32.252  51.688  1.00  0.00    +0.000 H 
ATOM     98  H4  UNL A   1      29.614  32.381  51.679  1.00  0.00    +0.000 H 
BRANCH    2    1
ATOM      1  C1  UNL A   1      30.575  33.291  50.012  1.00  0.00    +0.000 C 
ATOM     97  H3  UNL A   1      29.600  33.481  49.613  1.00  0.00    +0.000 H 
ATOM     95  H1  UNL A   1      31.224  32.962  49.228  1.00  0.00    +0.000 H 
ATOM     96  H2  UNL A   1      30.964  34.189  50.444  1.00  0.00    +0.000 H 
ENDBRANCH    2    1
ENDBRANCH    3    2
ENDBRANCH    4    3
ENDBRANCH    5    4
ENDBRANCH    6    5
ENDBRANCH    7    6
ENDBRANCH    8    7
ENDBRANCH    9    8
ENDBRANCH   10    9
ENDBRANCH   11   10
ENDBRANCH   12   11
ENDBRANCH   13   12
ENDBRANCH   14   13
ENDBRANCH   15   14
ENDBRANCH   16   15
ENDBRANCH   17   16
ENDBRANCH   18   17
ENDBRANCH   19   18
ENDBRANCH   20   19
ENDBRANCH   22   20
ENDBRANCH   23   22
ENDBRANCH   24   23
ENDBRANCH   25   24
ENDBRANCH   26   25
ENDBRANCH   27   26
ENDBRANCH   28   27
ENDBRANCH   29   28
ENDBRANCH   30   29
ENDBRANCH   32   30
ENDBRANCH   36   35
BRANCH   40   41
ATOM     41  C35 UNL A   1      21.498  33.631  46.241  1.00  0.00    +0.000 C 
ATOM     42  C36 UNL A   1      22.027  32.551  46.965  1.00  0.00    +0.000 C 
ATOM     43  F1  UNL A   1      22.554  32.750  48.183  1.00  0.00    +0.000 F 
ATOM     44  C37 UNL A   1      22.049  31.266  46.427  1.00  0.00    +0.000 C 
ATOM     45  F2  UNL A   1      22.599  30.261  47.121  1.00  0.00    +0.000 F 
ATOM     46  C38 UNL A   1      21.510  31.029  45.172  1.00  0.00    +0.000 C 
ATOM     47  F3  UNL A   1      21.518  29.790  44.662  1.00  0.00    +0.000 F 
ATOM     48  C39 UNL A   1      20.967  32.077  44.445  1.00  0.00    +0.000 C 
ATOM     49  F4  UNL A   1      20.432  31.846  43.237  1.00  0.00    +0.000 F 
ATOM     50  C40 UNL A   1      20.971  33.368  44.966  1.00  0.00    +0.000 C 
ATOM     51  F5  UNL A   1      20.448  34.362  44.232  1.00  0.00    +0.000 F 
ENDBRANCH   40   41
BRANCH   57   58
ATOM     65  C50 UNL A   1      14.430  37.575  49.661  1.00  0.00    +0.000 C 
ATOM     66  F9  UNL A   1      13.367  37.589  48.844  1.00  0.00    +0.000 F 
ATOM     67  C51 UNL A   1      15.712  37.689  49.133  1.00  0.00    +0.000 C 
ATOM     68  F10 UNL A   1      15.854  37.797  47.803  1.00  0.00    +0.000 F 
ATOM     58  C46 UNL A   1      16.840  37.697  49.969  1.00  0.00    +0.000 C 
ATOM     59  C47 UNL A   1      16.632  37.592  51.352  1.00  0.00    +0.000 C 
ATOM     60  F6  UNL A   1      17.676  37.580  52.194  1.00  0.00    +0.000 F 
ATOM     61  C48 UNL A   1      15.349  37.439  51.873  1.00  0.00    +0.000 C 
ATOM     62  F7  UNL A   1      15.181  37.272  53.193  1.00  0.00    +0.000 F 
ATOM     63  C49 UNL A   1      14.249  37.437  51.029  1.00  0.00    +0.000 C 
ATOM     64  F8  UNL A   1      13.017  37.290  51.533  1.00  0.00    +0.000 F 
ENDBRANCH   57   58
BRANCH   72   73
ATOM     73  C55 UNL A   1      21.459  42.907  49.970  1.00  0.00    +0.000 C 
ATOM     74  C56 UNL A   1      21.847  43.196  51.286  1.00  0.00    +0.000 C 
ATOM     75  F11 UNL A   1      22.265  42.209  52.093  1.00  0.00    +0.000 F 
ATOM     76  C57 UNL A   1      21.755  44.489  51.797  1.00  0.00    +0.000 C 
ATOM     77  F12 UNL A   1      22.070  44.724  53.078  1.00  0.00    +0.000 F 
ATOM     78  C58 UNL A   1      21.312  45.527  50.990  1.00  0.00    +0.000 C 
ATOM     79  F13 UNL A   1      21.222  46.770  51.483  1.00  0.00    +0.000 F 
ATOM     80  C59 UNL A   1      20.954  45.272  49.676  1.00  0.00    +0.000 C 
ATOM     81  F14 UNL A   1      20.544  46.274  48.887  1.00  0.00    +0.000 F 
ATOM     82  C60 UNL A   1      21.011  43.973  49.175  1.00  0.00    +0.000 C 
ATOM     83  F15 UNL A   1      20.635  43.755  47.907  1.00  0.00    +0.000 F 
ENDBRANCH   72   73
TORSDOF 33
ENDMDL
MODEL 9
REMARK VINA RESULT:      -5.0     44.020     50.065
ROOT
ATOM    140  H46 UNL A   1      20.037  19.387   1.865  1.00  0.00    +0.000 H 
ATOM    141  H47 UNL A   1      20.736  17.434   3.444  1.00  0.00    +0.000 H 
ATOM    142  H48 UNL A   1      17.319  19.193   4.983  1.00  0.00    +0.000 H 
ATOM    143  H49 UNL A   1      12.936  19.608   9.606  1.00  0.00    +0.000 H 
ATOM    144  H50 UNL A   1      12.217  21.459   8.024  1.00  0.00    +0.000 H 
ATOM    145  H51 UNL A   1      15.596  19.653   6.412  1.00  0.00    +0.000 H 
ATOM    146  H52 UNL A   1      16.852  15.969   9.582  1.00  0.00    +0.000 H 
ATOM    147  H53 UNL A   1      18.933  15.615   8.136  1.00  0.00    +0.000 H 
ATOM    148  H54 UNL A   1      15.825  22.717   1.749  1.00  0.00    +0.000 H 
ATOM    149  H55 UNL A   1      14.047  23.451   3.437  1.00  0.00    +0.000 H 
ATOM     36  C31 UNL A   1      13.916  21.796   5.759  1.00  0.00    +0.000 C 
ATOM     37  C32 UNL A   1      14.897  21.715   4.624  1.00  0.00    +0.000 C 
ATOM     38  N3  UNL A   1      15.894  20.884   4.451  1.00  0.00    +0.000 N 
ATOM     39  C33 UNL A   1      16.472  21.231   3.239  1.00  0.00    +0.000 C 
ATOM     40  C34 UNL A   1      17.587  20.725   2.658  1.00  0.00    +0.000 C 
ATOM     52  C41 UNL A   1      18.379  19.660   3.217  1.00  0.00    +0.000 C 
ATOM     53  C42 UNL A   1      19.541  19.094   2.721  1.00  0.00    +0.000 C 
ATOM     54  C43 UNL A   1      19.926  18.059   3.579  1.00  0.00    +0.000 C 
ATOM     55  C44 UNL A   1      19.038  18.017   4.641  1.00  0.00    +0.000 C 
ATOM     56  N4  UNL A   1      18.087  18.996   4.400  1.00  0.00    +0.000 N 
ATOM     57  C45 UNL A   1      19.056  17.149   5.791  1.00  0.00    +0.000 C 
ATOM     69  C52 UNL A   1      18.146  17.175   6.797  1.00  0.00    +0.000 C 
ATOM     70  N5  UNL A   1      17.031  17.988   6.949  1.00  0.00    +0.000 N 
ATOM     71  C53 UNL A   1      16.453  17.601   8.061  1.00  0.00    +0.000 C 
ATOM     72  C54 UNL A   1      15.222  18.148   8.734  1.00  0.00    +0.000 C 
ATOM     84  C61 UNL A   1      14.585  19.194   8.174  1.00  0.00    +0.000 C 
ATOM     85  C62 UNL A   1      13.407  19.857   8.722  1.00  0.00    +0.000 C 
ATOM     86  C63 UNL A   1      13.034  20.842   7.891  1.00  0.00    +0.000 C 
ATOM     87  C64 UNL A   1      13.969  20.903   6.767  1.00  0.00    +0.000 C 
ATOM     88  N6  UNL A   1      14.848  19.877   7.012  1.00  0.00    +0.000 N 
ATOM     89  C65 UNL A   1      17.128  16.480   8.729  1.00  0.00    +0.000 C 
ATOM     90  C66 UNL A   1      18.182  16.297   7.948  1.00  0.00    +0.000 C 
ATOM     91  C67 UNL A   1      15.676  22.302   2.681  1.00  0.00    +0.000 C 
ATOM     92  C68 UNL A   1      14.727  22.680   3.526  1.00  0.00    +0.000 C 
ENDROOT
BRANCH   36   35
ATOM     33  C28 UNL A   1      12.095  25.031   6.515  1.00  0.00    +0.000 C 
ATOM     34  C29 UNL A   1      13.105  24.075   6.417  1.00  0.00    +0.000 C 
ATOM     35  C30 UNL A   1      12.864  22.845   5.781  1.00  0.00    +0.000 C 
ATOM    138  H44 UNL A   1      12.267  25.918   7.013  1.00  0.00    +0.000 H 
ATOM    139  H45 UNL A   1      14.038  24.272   6.815  1.00  0.00    +0.000 H 
ATOM    150  H56 UNL A   1      11.426  21.717   4.718  1.00  0.00    +0.000 H 
ATOM    151  H57 UNL A   1       9.745  23.465   4.708  1.00  0.00    +0.000 H 
ATOM     93  C69 UNL A   1      11.617  22.618   5.183  1.00  0.00    +0.000 C 
ATOM     94  C70 UNL A   1      10.632  23.604   5.216  1.00  0.00    +0.000 C 
ATOM     32  C27 UNL A   1      10.847  24.783   5.937  1.00  0.00    +0.000 C 
BRANCH   32   30
ATOM     30  C26 UNL A   1       9.791  25.808   6.094  1.00  0.00    +0.000 C 
ATOM     31  O2  UNL A   1       9.244  25.956   7.176  1.00  0.00    +0.000 O 
BRANCH   30   29
ATOM    137  H43 UNL A   1       8.528  26.320   4.632  1.00  0.00    +0.000 H 
ATOM     29  N2  UNL A   1       9.400  26.567   5.018  1.00  0.00    +0.000 N 
BRANCH   29   28
ATOM     28  C25 UNL A   1      10.071  27.674   4.362  1.00  0.00    +0.000 C 
ATOM    135  H41 UNL A   1       9.349  28.435   4.150  1.00  0.00    +0.000 H 
ATOM    136  H42 UNL A   1      10.835  28.025   5.024  1.00  0.00    +0.000 H 
BRANCH   28   27
ATOM     27  C24 UNL A   1      10.747  27.267   3.056  1.00  0.00    +0.000 C 
ATOM    133  H39 UNL A   1      11.563  26.618   3.296  1.00  0.00    +0.000 H 
ATOM    134  H40 UNL A   1       9.988  26.803   2.464  1.00  0.00    +0.000 H 
BRANCH   27   26
ATOM     26  C23 UNL A   1      11.295  28.421   2.213  1.00  0.00    +0.000 C 
ATOM    131  H37 UNL A   1      12.011  28.951   2.807  1.00  0.00    +0.000 H 
ATOM    132  H38 UNL A   1      11.708  27.969   1.336  1.00  0.00    +0.000 H 
BRANCH   26   25
ATOM     25  C22 UNL A   1      10.257  29.432   1.713  1.00  0.00    +0.000 C 
ATOM    130  H36 UNL A   1       9.478  29.442   2.446  1.00  0.00    +0.000 H 
ATOM    129  H35 UNL A   1       9.930  29.118   0.743  1.00  0.00    +0.000 H 
BRANCH   25   24
ATOM    128  H34 UNL A   1      10.268  31.457   2.360  1.00  0.00    +0.000 H 
ATOM    127  H33 UNL A   1      10.512  31.252   0.625  1.00  0.00    +0.000 H 
ATOM     24  C21 UNL A   1      10.751  30.879   1.600  1.00  0.00    +0.000 C 
BRANCH   24   23
ATOM    125  H31 UNL A   1      12.450  31.118   2.855  1.00  0.00    +0.000 H 
ATOM    126  H32 UNL A   1      12.699  30.076   1.448  1.00  0.00    +0.000 H 
ATOM     23  C20 UNL A   1      12.258  30.980   1.811  1.00  0.00    +0.000 C 
BRANCH   23   22
ATOM    124  H30 UNL A   1      12.298  32.901   1.022  1.00  0.00    +0.000 H 
ATOM     22  N1  UNL A   1      12.848  32.086   1.078  1.00  0.00    +0.000 N 
BRANCH   22   20
ATOM     20  C19 UNL A   1      14.056  32.152   0.458  1.00  0.00    +0.000 C 
ATOM     21  O1  UNL A   1      14.651  33.232   0.530  1.00  0.00    +0.000 O 
BRANCH   20   19
ATOM    122  H28 UNL A   1      15.729  31.034  -0.130  1.00  0.00    +0.000 H 
ATOM     19  C18 UNL A   1      14.679  31.012  -0.329  1.00  0.00    +0.000 C 
ATOM    123  H29 UNL A   1      14.136  30.152   0.007  1.00  0.00    +0.000 H 
BRANCH   19   18
ATOM    121  H27 UNL A   1      14.727  29.939  -2.067  1.00  0.00    +0.000 H 
ATOM     18  C17 UNL A   1      14.519  30.962  -1.832  1.00  0.00    +0.000 C 
ATOM    120  H26 UNL A   1      15.173  31.705  -2.236  1.00  0.00    +0.000 H 
BRANCH   18   17
ATOM     17  C16 UNL A   1      13.150  31.191  -2.466  1.00  0.00    +0.000 C 
ATOM    118  H24 UNL A   1      12.958  32.234  -2.325  1.00  0.00    +0.000 H 
ATOM    119  H25 UNL A   1      13.333  30.728  -3.413  1.00  0.00    +0.000 H 
BRANCH   17   16
ATOM     16  S1  UNL A   1      11.549  30.362  -2.058  1.00  0.00    +0.000 S 
BRANCH   16   15
ATOM    116  H22 UNL A   1      10.722  28.116  -2.077  1.00  0.00    +0.000 H 
ATOM    117  H23 UNL A   1      11.642  28.560  -3.571  1.00  0.00    +0.000 H 
ATOM     15  C15 UNL A   1      11.592  28.572  -2.501  1.00  0.00    +0.000 C 
BRANCH   15   14
ATOM    114  H20 UNL A   1      13.453  28.385  -1.464  1.00  0.00    +0.000 H 
ATOM    115  H21 UNL A   1      12.421  26.914  -1.493  1.00  0.00    +0.000 H 
ATOM     14  C14 UNL A   1      12.822  27.742  -2.041  1.00  0.00    +0.000 C 
BRANCH   14   13
ATOM    113  H19 UNL A   1      14.647  27.431  -3.170  1.00  0.00    +0.000 H 
ATOM     13  C13 UNL A   1      13.659  27.135  -3.135  1.00  0.00    +0.000 C 
BRANCH   13   12
ATOM     12  C12 UNL A   1      13.271  26.252  -4.075  1.00  0.00    +0.000 C 
ATOM    112  H18 UNL A   1      12.627  26.571  -4.814  1.00  0.00    +0.000 H 
BRANCH   12   11
ATOM     11  C11 UNL A   1      13.741  24.809  -4.095  1.00  0.00    +0.000 C 
ATOM    110  H16 UNL A   1      13.269  24.295  -3.284  1.00  0.00    +0.000 H 
ATOM    111  H17 UNL A   1      13.475  24.423  -5.057  1.00  0.00    +0.000 H 
BRANCH   11   10
ATOM     10  C10 UNL A   1      15.223  24.617  -3.965  1.00  0.00    +0.000 C 
ATOM    109  H15 UNL A   1      15.832  24.979  -4.715  1.00  0.00    +0.000 H 
BRANCH   10    9
ATOM      9  C9  UNL A   1      15.797  23.999  -2.920  1.00  0.00    +0.000 C 
ATOM    108  H14 UNL A   1      16.187  23.054  -3.068  1.00  0.00    +0.000 H 
BRANCH    9    8
ATOM    106  H12 UNL A   1      16.830  24.302  -1.092  1.00  0.00    +0.000 H 
ATOM    107  H13 UNL A   1      15.883  25.667  -1.607  1.00  0.00    +0.000 H 
ATOM      8  C8  UNL A   1      15.907  24.599  -1.545  1.00  0.00    +0.000 C 
BRANCH    8    7
ATOM    105  H11 UNL A   1      14.228  24.797  -0.169  1.00  0.00    +0.000 H 
ATOM      7  C7  UNL A   1      14.756  24.104  -0.722  1.00  0.00    +0.000 C 
BRANCH    7    6
ATOM      6  C6  UNL A   1      14.366  22.823  -0.652  1.00  0.00    +0.000 C 
ATOM    104  H10 UNL A   1      15.084  22.097  -0.500  1.00  0.00    +0.000 H 
BRANCH    6    5
ATOM      5  C5  UNL A   1      12.933  22.392  -0.783  1.00  0.00    +0.000 C 
ATOM    102  H8  UNL A   1      12.310  23.252  -0.907  1.00  0.00    +0.000 H 
ATOM    103  H9  UNL A   1      12.824  21.754  -1.635  1.00  0.00    +0.000 H 
BRANCH    5    4
ATOM      4  C4  UNL A   1      12.532  21.652   0.461  1.00  0.00    +0.000 C 
ATOM    101  H7  UNL A   1      12.820  20.666   0.550  1.00  0.00    +0.000 H 
BRANCH    4    3
ATOM      3  C3  UNL A   1      11.821  22.191   1.463  1.00  0.00    +0.000 C 
ATOM    100  H6  UNL A   1      11.398  21.556   2.158  1.00  0.00    +0.000 H 
BRANCH    3    2
ATOM      2  C2  UNL A   1      11.608  23.667   1.628  1.00  0.00    +0.000 C 
ATOM     99  H5  UNL A   1      12.182  24.183   0.888  1.00  0.00    +0.000 H 
ATOM     98  H4  UNL A   1      11.919  23.960   2.608  1.00  0.00    +0.000 H 
BRANCH    2    1
ATOM      1  C1  UNL A   1      10.138  24.016   1.443  1.00  0.00    +0.000 C 
ATOM     97  H3  UNL A   1       9.700  23.349   0.730  1.00  0.00    +0.000 H 
ATOM     95  H1  UNL A   1      10.053  25.023   1.090  1.00  0.00    +0.000 H 
ATOM     96  H2  UNL A   1       9.628  23.922   2.378  1.00  0.00    +0.000 H 
ENDBRANCH    2    1
ENDBRANCH    3    2
ENDBRANCH    4    3
ENDBRANCH    5    4
ENDBRANCH    6    5
ENDBRANCH    7    6
ENDBRANCH    8    7
ENDBRANCH    9    8
ENDBRANCH   10    9
ENDBRANCH   11   10
ENDBRANCH   12   11
ENDBRANCH   13   12
ENDBRANCH   14   13
ENDBRANCH   15   14
ENDBRANCH   16   15
ENDBRANCH   17   16
ENDBRANCH   18   17
ENDBRANCH   19   18
ENDBRANCH   20   19
ENDBRANCH   22   20
ENDBRANCH   23   22
ENDBRANCH   24   23
ENDBRANCH   25   24
ENDBRANCH   26   25
ENDBRANCH   27   26
ENDBRANCH   28   27
ENDBRANCH   29   28
ENDBRANCH   30   29
ENDBRANCH   32   30
ENDBRANCH   36   35
BRANCH   40   41
ATOM     41  C35 UNL A   1      18.030  21.330   1.355  1.00  0.00    +0.000 C 
ATOM     42  C36 UNL A   1      17.476  20.918   0.133  1.00  0.00    +0.000 C 
ATOM     43  F1  UNL A   1      16.582  19.918   0.100  1.00  0.00    +0.000 F 
ATOM     44  C37 UNL A   1      17.864  21.509  -1.067  1.00  0.00    +0.000 C 
ATOM     45  F2  UNL A   1      17.353  21.069  -2.225  1.00  0.00    +0.000 F 
ATOM     46  C38 UNL A   1      18.783  22.547  -1.066  1.00  0.00    +0.000 C 
ATOM     47  F3  UNL A   1      19.144  23.125  -2.219  1.00  0.00    +0.000 F 
ATOM     48  C39 UNL A   1      19.332  22.981   0.131  1.00  0.00    +0.000 C 
ATOM     49  F4  UNL A   1      20.210  23.994   0.135  1.00  0.00    +0.000 F 
ATOM     50  C40 UNL A   1      18.970  22.372   1.330  1.00  0.00    +0.000 C 
ATOM     51  F5  UNL A   1      19.527  22.809   2.469  1.00  0.00    +0.000 F 
ENDBRANCH   40   41
BRANCH   57   58
ATOM     65  C50 UNL A   1      21.072  13.935   5.484  1.00  0.00    +0.000 C 
ATOM     66  F9  UNL A   1      20.912  12.700   4.986  1.00  0.00    +0.000 F 
ATOM     67  C51 UNL A   1      20.041  14.864   5.380  1.00  0.00    +0.000 C 
ATOM     68  F10 UNL A   1      18.906  14.500   4.763  1.00  0.00    +0.000 F 
ATOM     58  C46 UNL A   1      20.176  16.156   5.911  1.00  0.00    +0.000 C 
ATOM     59  C47 UNL A   1      21.380  16.478   6.555  1.00  0.00    +0.000 C 
ATOM     60  F6  UNL A   1      21.566  17.703   7.067  1.00  0.00    +0.000 F 
ATOM     61  C48 UNL A   1      22.423  15.557   6.624  1.00  0.00    +0.000 C 
ATOM     62  F7  UNL A   1      23.589  15.910   7.184  1.00  0.00    +0.000 F 
ATOM     63  C49 UNL A   1      22.267  14.285   6.094  1.00  0.00    +0.000 C 
ATOM     64  F8  UNL A   1      23.271  13.402   6.162  1.00  0.00    +0.000 F 
ENDBRANCH   57   58
BRANCH   72   73
ATOM     73  C55 UNL A   1      14.718  17.555  10.001  1.00  0.00    +0.000 C 
ATOM     74  C56 UNL A   1      15.115  18.056  11.249  1.00  0.00    +0.000 C 
ATOM     75  F11 UNL A   1      15.960  19.097  11.314  1.00  0.00    +0.000 F 
ATOM     76  C57 UNL A   1      14.694  17.457  12.434  1.00  0.00    +0.000 C 
ATOM     77  F12 UNL A   1      15.142  17.917  13.610  1.00  0.00    +0.000 F 
ATOM     78  C58 UNL A   1      13.833  16.371  12.397  1.00  0.00    +0.000 C 
ATOM     79  F13 UNL A   1      13.429  15.794  13.537  1.00  0.00    +0.000 F 
ATOM     80  C59 UNL A   1      13.399  15.878  11.176  1.00  0.00    +0.000 C 
ATOM     81  F14 UNL A   1      12.553  14.840  11.135  1.00  0.00    +0.000 F 
ATOM     82  C60 UNL A   1      13.850  16.454   9.990  1.00  0.00    +0.000 C 
ATOM     83  F15 UNL A   1      13.431  15.938   8.825  1.00  0.00    +0.000 F 
ENDBRANCH   72   73
TORSDOF 33
ENDMDL
MODEL 10
REMARK VINA RESULT:      -4.9     33.528     40.037
ROOT
ATOM    140  H46 UNL A   1      44.091  44.255  22.884  1.00  0.00    +0.000 H 
ATOM    141  H47 UNL A   1      43.399  45.257  20.579  1.00  0.00    +0.000 H 
ATOM    142  H48 UNL A   1      47.449  44.407  20.464  1.00  0.00    +0.000 H 
ATOM    143  H49 UNL A   1      53.034  44.581  17.377  1.00  0.00    +0.000 H 
ATOM    144  H50 UNL A   1      53.686  43.535  19.597  1.00  0.00    +0.000 H 
ATOM    145  H51 UNL A   1      49.601  44.297  19.704  1.00  0.00    +0.000 H 
ATOM    146  H52 UNL A   1      48.435  46.272  15.239  1.00  0.00    +0.000 H 
ATOM    147  H53 UNL A   1      46.080  46.645  16.168  1.00  0.00    +0.000 H 
ATOM    148  H54 UNL A   1      48.665  42.182  24.787  1.00  0.00    +0.000 H 
ATOM    149  H55 UNL A   1      51.127  42.283  24.095  1.00  0.00    +0.000 H 
ATOM     36  C31 UNL A   1      51.538  43.289  21.456  1.00  0.00    +0.000 C 
ATOM     37  C32 UNL A   1      50.244  43.186  22.212  1.00  0.00    +0.000 C 
ATOM     38  N3  UNL A   1      49.038  43.531  21.836  1.00  0.00    +0.000 N 
ATOM     39  C33 UNL A   1      48.204  43.216  22.899  1.00  0.00    +0.000 C 
ATOM     40  C34 UNL A   1      46.878  43.459  23.035  1.00  0.00    +0.000 C 
ATOM     52  C41 UNL A   1      46.063  44.088  22.027  1.00  0.00    +0.000 C 
ATOM     53  C42 UNL A   1      44.716  44.404  22.077  1.00  0.00    +0.000 C 
ATOM     54  C43 UNL A   1      44.350  44.959  20.846  1.00  0.00    +0.000 C 
ATOM     55  C44 UNL A   1      45.479  45.043  20.050  1.00  0.00    +0.000 C 
ATOM     56  N4  UNL A   1      46.521  44.494  20.781  1.00  0.00    +0.000 N 
ATOM     57  C45 UNL A   1      45.602  45.586  18.720  1.00  0.00    +0.000 C 
ATOM     69  C52 UNL A   1      46.752  45.637  18.005  1.00  0.00    +0.000 C 
ATOM     70  N5  UNL A   1      48.021  45.191  18.353  1.00  0.00    +0.000 N 
ATOM     71  C53 UNL A   1      48.784  45.428  17.313  1.00  0.00    +0.000 C 
ATOM     72  C54 UNL A   1      50.257  45.177  17.137  1.00  0.00    +0.000 C 
ATOM     84  C61 UNL A   1      50.954  44.650  18.162  1.00  0.00    +0.000 C 
ATOM     85  C62 UNL A   1      52.389  44.384  18.158  1.00  0.00    +0.000 C 
ATOM     86  C63 UNL A   1      52.735  43.841  19.336  1.00  0.00    +0.000 C 
ATOM     87  C64 UNL A   1      51.551  43.754  20.192  1.00  0.00    +0.000 C 
ATOM     88  N6  UNL A   1      50.537  44.243  19.405  1.00  0.00    +0.000 N 
ATOM     89  C65 UNL A   1      48.076  46.032  16.176  1.00  0.00    +0.000 C 
ATOM     90  C66 UNL A   1      46.857  46.188  16.671  1.00  0.00    +0.000 C 
ATOM     91  C67 UNL A   1      49.026  42.587  23.910  1.00  0.00    +0.000 C 
ATOM     92  C68 UNL A   1      50.304  42.600  23.560  1.00  0.00    +0.000 C 
ENDROOT
BRANCH   36   35
ATOM     33  C28 UNL A   1      54.528  41.171  22.423  1.00  0.00    +0.000 C 
ATOM     34  C29 UNL A   1      53.372  41.610  21.777  1.00  0.00    +0.000 C 
ATOM     35  C30 UNL A   1      52.818  42.865  22.081  1.00  0.00    +0.000 C 
ATOM    138  H44 UNL A   1      54.911  40.235  22.221  1.00  0.00    +0.000 H 
ATOM    139  H45 UNL A   1      52.921  41.008  21.069  1.00  0.00    +0.000 H 
ATOM    150  H56 UNL A   1      53.080  44.623  23.226  1.00  0.00    +0.000 H 
ATOM    151  H57 UNL A   1      55.200  43.941  24.187  1.00  0.00    +0.000 H 
ATOM     93  C69 UNL A   1      53.480  43.701  22.990  1.00  0.00    +0.000 C 
ATOM     94  C70 UNL A   1      54.675  43.293  23.579  1.00  0.00    +0.000 C 
ATOM     32  C27 UNL A   1      55.164  42.004  23.346  1.00  0.00    +0.000 C 
BRANCH   32   30
ATOM     30  C26 UNL A   1      56.368  41.487  24.036  1.00  0.00    +0.000 C 
ATOM     31  O2  UNL A   1      56.259  40.590  24.858  1.00  0.00    +0.000 O 
BRANCH   30   29
ATOM    137  H43 UNL A   1      58.130  42.257  24.581  1.00  0.00    +0.000 H 
ATOM     29  N2  UNL A   1      57.600  42.038  23.781  1.00  0.00    +0.000 N 
BRANCH   29   28
ATOM     28  C25 UNL A   1      58.242  42.346  22.515  1.00  0.00    +0.000 C 
ATOM    135  H41 UNL A   1      59.122  41.745  22.423  1.00  0.00    +0.000 H 
ATOM    136  H42 UNL A   1      57.536  42.140  21.738  1.00  0.00    +0.000 H 
BRANCH   28   27
ATOM     27  C24 UNL A   1      58.639  43.814  22.396  1.00  0.00    +0.000 C 
ATOM    133  H39 UNL A   1      59.635  43.918  22.772  1.00  0.00    +0.000 H 
ATOM    134  H40 UNL A   1      58.543  44.062  21.360  1.00  0.00    +0.000 H 
BRANCH   27   26
ATOM     26  C23 UNL A   1      57.745  44.800  23.151  1.00  0.00    +0.000 C 
ATOM    131  H37 UNL A   1      56.879  44.267  23.486  1.00  0.00    +0.000 H 
ATOM    132  H38 UNL A   1      58.347  45.190  23.945  1.00  0.00    +0.000 H 
BRANCH   26   25
ATOM     25  C22 UNL A   1      57.269  46.017  22.350  1.00  0.00    +0.000 C 
ATOM    130  H36 UNL A   1      58.137  46.405  21.860  1.00  0.00    +0.000 H 
ATOM    129  H35 UNL A   1      56.816  46.705  23.033  1.00  0.00    +0.000 H 
BRANCH   25   24
ATOM    128  H34 UNL A   1      55.290  45.613  21.688  1.00  0.00    +0.000 H 
ATOM    127  H33 UNL A   1      56.545  44.812  20.742  1.00  0.00    +0.000 H 
ATOM     24  C21 UNL A   1      56.256  45.715  21.239  1.00  0.00    +0.000 C 
BRANCH   24   23
ATOM    125  H31 UNL A   1      56.039  47.767  20.731  1.00  0.00    +0.000 H 
ATOM    126  H32 UNL A   1      57.108  46.841  19.669  1.00  0.00    +0.000 H 
ATOM     23  C20 UNL A   1      56.188  46.842  20.215  1.00  0.00    +0.000 C 
BRANCH   23   22
ATOM    124  H30 UNL A   1      55.166  45.853  18.702  1.00  0.00    +0.000 H 
ATOM     22  N1  UNL A   1      55.108  46.661  19.261  1.00  0.00    +0.000 N 
BRANCH   22   20
ATOM     20  C19 UNL A   1      54.028  47.454  19.034  1.00  0.00    +0.000 C 
ATOM     21  O1  UNL A   1      54.075  48.171  18.028  1.00  0.00    +0.000 O 
BRANCH   20   19
ATOM    122  H28 UNL A   1      52.069  46.890  19.525  1.00  0.00    +0.000 H 
ATOM     19  C18 UNL A   1      52.815  47.532  19.945  1.00  0.00    +0.000 C 
ATOM    123  H29 UNL A   1      53.207  47.265  20.904  1.00  0.00    +0.000 H 
BRANCH   19   18
ATOM    121  H27 UNL A   1      51.225  48.597  20.661  1.00  0.00    +0.000 H 
ATOM     18  C17 UNL A   1      52.151  48.867  20.197  1.00  0.00    +0.000 C 
ATOM    120  H26 UNL A   1      52.103  49.371  19.255  1.00  0.00    +0.000 H 
BRANCH   18   17
ATOM     17  C16 UNL A   1      52.761  49.852  21.190  1.00  0.00    +0.000 C 
ATOM    118  H24 UNL A   1      52.681  50.805  20.710  1.00  0.00    +0.000 H 
ATOM    119  H25 UNL A   1      52.213  49.561  22.061  1.00  0.00    +0.000 H 
BRANCH   17   16
ATOM     16  S1  UNL A   1      54.461  49.837  21.916  1.00  0.00    +0.000 S 
BRANCH   16   15
ATOM    116  H22 UNL A   1      55.552  48.677  23.704  1.00  0.00    +0.000 H 
ATOM    117  H23 UNL A   1      53.949  49.378  24.168  1.00  0.00    +0.000 H 
ATOM     15  C15 UNL A   1      54.521  48.821  23.455  1.00  0.00    +0.000 C 
BRANCH   15   14
ATOM    114  H20 UNL A   1      53.446  47.273  22.444  1.00  0.00    +0.000 H 
ATOM    115  H21 UNL A   1      54.624  46.726  23.688  1.00  0.00    +0.000 H 
ATOM     14  C14 UNL A   1      53.851  47.419  23.424  1.00  0.00    +0.000 C 
BRANCH   14   13
ATOM    113  H19 UNL A   1      52.805  47.733  25.296  1.00  0.00    +0.000 H 
ATOM     13  C13 UNL A   1      52.745  47.192  24.419  1.00  0.00    +0.000 C 
BRANCH   13   12
ATOM     12  C12 UNL A   1      51.689  46.366  24.302  1.00  0.00    +0.000 C 
ATOM    112  H18 UNL A   1      51.242  46.266  23.379  1.00  0.00    +0.000 H 
BRANCH   12   11
ATOM     11  C11 UNL A   1      51.127  45.574  25.469  1.00  0.00    +0.000 C 
ATOM    110  H16 UNL A   1      51.370  44.543  25.318  1.00  0.00    +0.000 H 
ATOM    111  H17 UNL A   1      51.568  45.991  26.351  1.00  0.00    +0.000 H 
BRANCH   11   10
ATOM     10  C10 UNL A   1      49.643  45.678  25.657  1.00  0.00    +0.000 C 
ATOM    109  H15 UNL A   1      49.065  44.846  25.466  1.00  0.00    +0.000 H 
BRANCH   10    9
ATOM      9  C9  UNL A   1      49.029  46.803  26.062  1.00  0.00    +0.000 C 
ATOM    108  H14 UNL A   1      48.251  47.165  25.489  1.00  0.00    +0.000 H 
BRANCH    9    8
ATOM    106  H12 UNL A   1      48.637  47.471  28.036  1.00  0.00    +0.000 H 
ATOM    107  H13 UNL A   1      50.321  47.181  27.706  1.00  0.00    +0.000 H 
ATOM      8  C8  UNL A   1      49.408  47.567  27.301  1.00  0.00    +0.000 C 
BRANCH    8    7
ATOM    105  H11 UNL A   1      49.181  49.718  27.568  1.00  0.00    +0.000 H 
ATOM      7  C7  UNL A   1      49.577  49.010  26.931  1.00  0.00    +0.000 C 
BRANCH    7    6
ATOM      6  C6  UNL A   1      50.207  49.445  25.830  1.00  0.00    +0.000 C 
ATOM    104  H10 UNL A   1      51.139  49.059  25.612  1.00  0.00    +0.000 H 
BRANCH    6    5
ATOM      5  C5  UNL A   1      49.621  50.465  24.896  1.00  0.00    +0.000 C 
ATOM    102  H8  UNL A   1      48.570  50.552  25.074  1.00  0.00    +0.000 H 
ATOM    103  H9  UNL A   1      50.084  51.415  25.062  1.00  0.00    +0.000 H 
BRANCH    5    4
ATOM      4  C4  UNL A   1      49.858  50.022  23.480  1.00  0.00    +0.000 C 
ATOM    101  H7  UNL A   1      50.253  50.709  22.820  1.00  0.00    +0.000 H 
BRANCH    4    3
ATOM      3  C3  UNL A   1      49.589  48.792  23.020  1.00  0.00    +0.000 C 
ATOM    100  H6  UNL A   1      49.940  47.983  23.555  1.00  0.00    +0.000 H 
BRANCH    3    2
ATOM      2  C2  UNL A   1      48.806  48.529  21.767  1.00  0.00    +0.000 C 
ATOM     99  H5  UNL A   1      49.178  49.160  20.988  1.00  0.00    +0.000 H 
ATOM     98  H4  UNL A   1      47.772  48.735  21.948  1.00  0.00    +0.000 H 
BRANCH    2    1
ATOM      1  C1  UNL A   1      48.960  47.076  21.338  1.00  0.00    +0.000 C 
ATOM     97  H3  UNL A   1      48.147  46.807  20.696  1.00  0.00    +0.000 H 
ATOM     95  H1  UNL A   1      48.956  46.447  22.203  1.00  0.00    +0.000 H 
ATOM     96  H2  UNL A   1      49.884  46.955  20.813  1.00  0.00    +0.000 H 
ENDBRANCH    2    1
ENDBRANCH    3    2
ENDBRANCH    4    3
ENDBRANCH    5    4
ENDBRANCH    6    5
ENDBRANCH    7    6
ENDBRANCH    8    7
ENDBRANCH    9    8
ENDBRANCH   10    9
ENDBRANCH   11   10
ENDBRANCH   12   11
ENDBRANCH   13   12
ENDBRANCH   14   13
ENDBRANCH   15   14
ENDBRANCH   16   15
ENDBRANCH   17   16
ENDBRANCH   18   17
ENDBRANCH   19   18
ENDBRANCH   20   19
ENDBRANCH   22   20
ENDBRANCH   23   22
ENDBRANCH   24   23
ENDBRANCH   25   24
ENDBRANCH   26   25
ENDBRANCH   27   26
ENDBRANCH   28   27
ENDBRANCH   29   28
ENDBRANCH   30   29
ENDBRANCH   32   30
ENDBRANCH   36   35
BRANCH   40   41
ATOM     41  C35 UNL A   1      46.225  43.061  24.328  1.00  0.00    +0.000 C 
ATOM     42  C36 UNL A   1      45.937  41.719  24.618  1.00  0.00    +0.000 C 
ATOM     43  F1  UNL A   1      46.180  40.764  23.707  1.00  0.00    +0.000 F 
ATOM     44  C37 UNL A   1      45.366  41.352  25.835  1.00  0.00    +0.000 C 
ATOM     45  F2  UNL A   1      45.062  40.069  26.071  1.00  0.00    +0.000 F 
ATOM     46  C38 UNL A   1      45.106  42.315  26.798  1.00  0.00    +0.000 C 
ATOM     47  F3  UNL A   1      44.571  41.960  27.974  1.00  0.00    +0.000 F 
ATOM     48  C39 UNL A   1      45.396  43.646  26.540  1.00  0.00    +0.000 C 
ATOM     49  F4  UNL A   1      45.159  44.575  27.476  1.00  0.00    +0.000 F 
ATOM     50  C40 UNL A   1      45.939  44.019  25.313  1.00  0.00    +0.000 C 
ATOM     51  F5  UNL A   1      46.198  45.317  25.091  1.00  0.00    +0.000 F 
ENDBRANCH   40   41
BRANCH   57   58
ATOM     65  C50 UNL A   1      42.445  45.915  16.618  1.00  0.00    +0.000 C 
ATOM     66  F9  UNL A   1      41.716  45.157  15.786  1.00  0.00    +0.000 F 
ATOM     67  C51 UNL A   1      43.584  45.388  17.219  1.00  0.00    +0.000 C 
ATOM     68  F10 UNL A   1      43.919  44.115  16.958  1.00  0.00    +0.000 F 
ATOM     58  C46 UNL A   1      44.374  46.167  18.078  1.00  0.00    +0.000 C 
ATOM     59  C47 UNL A   1      43.982  47.494  18.306  1.00  0.00    +0.000 C 
ATOM     60  F6  UNL A   1      44.694  48.277  19.130  1.00  0.00    +0.000 F 
ATOM     61  C48 UNL A   1      42.821  48.006  17.733  1.00  0.00    +0.000 C 
ATOM     62  F7  UNL A   1      42.430  49.256  18.020  1.00  0.00    +0.000 F 
ATOM     63  C49 UNL A   1      42.056  47.219  16.885  1.00  0.00    +0.000 C 
ATOM     64  F8  UNL A   1      40.940  47.714  16.335  1.00  0.00    +0.000 F 
ENDBRANCH   57   58
BRANCH   72   73
ATOM     73  C55 UNL A   1      50.941  45.512  15.860  1.00  0.00    +0.000 C 
ATOM     74  C56 UNL A   1      51.106  44.554  14.849  1.00  0.00    +0.000 C 
ATOM     75  F11 UNL A   1      50.634  43.310  15.022  1.00  0.00    +0.000 F 
ATOM     76  C57 UNL A   1      51.806  44.852  13.681  1.00  0.00    +0.000 C 
ATOM     77  F12 UNL A   1      52.005  43.897  12.761  1.00  0.00    +0.000 F 
ATOM     78  C58 UNL A   1      52.318  46.125  13.481  1.00  0.00    +0.000 C 
ATOM     79  F13 UNL A   1      52.991  46.410  12.359  1.00  0.00    +0.000 F 
ATOM     80  C59 UNL A   1      52.138  47.099  14.452  1.00  0.00    +0.000 C 
ATOM     81  F14 UNL A   1      52.615  48.335  14.255  1.00  0.00    +0.000 F 
ATOM     82  C60 UNL A   1      51.471  46.791  15.635  1.00  0.00    +0.000 C 
ATOM     83  F15 UNL A   1      51.336  47.748  16.565  1.00  0.00    +0.000 F 
ENDBRANCH   72   73
TORSDOF 33
ENDMDL
