MODEL 1
REMARK VINA RESULT:      -8.5      0.000      0.000
ROOT
ATOM    133  H29 UNL A   1      44.751  26.810  27.624  1.00  0.00    +0.000 H 
ATOM    134  H30 UNL A   1      45.443  28.071  29.823  1.00  0.00    +0.000 H 
ATOM    135  H31 UNL A   1      42.818  25.036  30.833  1.00  0.00    +0.000 H 
ATOM    136  H32 UNL A   1      43.905  30.768  29.674  1.00  0.00    +0.000 H 
ATOM    137  H33 UNL A   1      42.783  28.895  28.334  1.00  0.00    +0.000 H 
ATOM    138  H34 UNL A   1      39.873  31.512  29.712  1.00  0.00    +0.000 H 
ATOM    139  H35 UNL A   1      43.358  30.940  34.439  1.00  0.00    +0.000 H 
ATOM    140  H36 UNL A   1      44.613  28.699  34.603  1.00  0.00    +0.000 H 
ATOM    141  H37 UNL A   1      39.728  24.589  27.018  1.00  0.00    +0.000 H 
ATOM    142  H38 UNL A   1      38.394  26.762  27.364  1.00  0.00    +0.000 H 
ATOM     38  C25 UNL A   1      39.930  28.707  28.940  1.00  0.00    +0.000 C 
ATOM     39  C26 UNL A   1      40.225  27.319  28.568  1.00  0.00    +0.000 C 
ATOM     40  N6  UNL A   1      41.247  26.661  28.978  1.00  0.00    +0.000 N 
ATOM     41  C27 UNL A   1      41.317  25.508  28.224  1.00  0.00    +0.000 C 
ATOM     42  C28 UNL A   1      42.523  24.882  28.124  1.00  0.00    +0.000 C 
ATOM     54  C35 UNL A   1      43.511  25.606  28.921  1.00  0.00    +0.000 C 
ATOM     55  C36 UNL A   1      44.413  26.599  28.576  1.00  0.00    +0.000 C 
ATOM     56  C37 UNL A   1      44.791  27.274  29.763  1.00  0.00    +0.000 C 
ATOM     57  C38 UNL A   1      44.135  26.679  30.828  1.00  0.00    +0.000 C 
ATOM     58  N7  UNL A   1      43.376  25.651  30.303  1.00  0.00    +0.000 N 
ATOM     59  C39 UNL A   1      44.183  26.920  32.261  1.00  0.00    +0.000 C 
ATOM     71  C46 UNL A   1      43.768  28.165  32.644  1.00  0.00    +0.000 C 
ATOM     72  N8  UNL A   1      42.941  28.929  31.861  1.00  0.00    +0.000 N 
ATOM     73  C47 UNL A   1      42.707  30.064  32.461  1.00  0.00    +0.000 C 
ATOM     74  C48 UNL A   1      41.863  31.163  31.866  1.00  0.00    +0.000 C 
ATOM     86  C55 UNL A   1      41.869  31.138  30.500  1.00  0.00    +0.000 C 
ATOM     87  C56 UNL A   1      42.903  30.523  29.684  1.00  0.00    +0.000 C 
ATOM     88  C57 UNL A   1      42.303  29.573  28.946  1.00  0.00    +0.000 C 
ATOM     89  C58 UNL A   1      40.864  29.660  29.154  1.00  0.00    +0.000 C 
ATOM     90  N9  UNL A   1      40.660  30.924  29.773  1.00  0.00    +0.000 N 
ATOM     91  C59 UNL A   1      43.374  30.168  33.754  1.00  0.00    +0.000 C 
ATOM     92  C60 UNL A   1      44.013  28.988  33.814  1.00  0.00    +0.000 C 
ATOM     93  C61 UNL A   1      40.045  25.410  27.557  1.00  0.00    +0.000 C 
ATOM     94  C62 UNL A   1      39.330  26.525  27.728  1.00  0.00    +0.000 C 
ENDROOT
BRANCH   38   37
ATOM     34  C21 UNL A   1      36.206  30.429  28.547  1.00  0.00    +0.000 C 
ATOM     35  C22 UNL A   1      36.461  29.763  29.756  1.00  0.00    +0.000 C 
ATOM     36  C23 UNL A   1      37.651  29.068  29.902  1.00  0.00    +0.000 C 
ATOM    131  H27 UNL A   1      35.773  29.790  30.524  1.00  0.00    +0.000 H 
ATOM    132  H28 UNL A   1      37.858  28.532  30.759  1.00  0.00    +0.000 H 
ATOM     37  C24 UNL A   1      38.552  29.125  28.849  1.00  0.00    +0.000 C 
ATOM    143  H39 UNL A   1      38.838  29.516  26.790  1.00  0.00    +0.000 H 
ATOM    144  H40 UNL A   1      36.561  30.312  26.464  1.00  0.00    +0.000 H 
ATOM     95  C63 UNL A   1      38.181  29.585  27.584  1.00  0.00    +0.000 C 
ATOM     96  C64 UNL A   1      36.939  30.131  27.407  1.00  0.00    +0.000 C 
BRANCH   34   32
ATOM     33  O7  UNL A   1      34.367  31.764  29.127  1.00  0.00    +0.000 O 
ATOM     32  C20 UNL A   1      35.504  31.728  28.671  1.00  0.00    +0.000 C 
BRANCH   32   31
ATOM    130  H26 UNL A   1      36.471  33.083  27.540  1.00  0.00    +0.000 H 
ATOM     31  N5  UNL A   1      36.209  32.901  28.472  1.00  0.00    +0.000 N 
BRANCH   31   30
ATOM    129  H25 UNL A   1      35.864  33.942  30.200  1.00  0.00    +0.000 H 
ATOM     30  C19 UNL A   1      36.619  33.906  29.442  1.00  0.00    +0.000 C 
ATOM    128  H24 UNL A   1      36.725  34.843  28.937  1.00  0.00    +0.000 H 
BRANCH   30   29
ATOM     29  C18 UNL A   1      37.931  33.575  30.127  1.00  0.00    +0.000 C 
ATOM    126  H22 UNL A   1      37.731  33.385  31.160  1.00  0.00    +0.000 H 
ATOM    127  H23 UNL A   1      38.336  32.726  29.617  1.00  0.00    +0.000 H 
BRANCH   29   28
ATOM    124  H20 UNL A   1      38.496  35.568  29.696  1.00  0.00    +0.000 H 
ATOM     28  C17 UNL A   1      38.984  34.680  30.039  1.00  0.00    +0.000 C 
ATOM    125  H21 UNL A   1      39.400  34.758  31.021  1.00  0.00    +0.000 H 
BRANCH   28   27
ATOM    122  H18 UNL A   1      40.455  33.382  29.225  1.00  0.00    +0.000 H 
ATOM     27  C16 UNL A   1      40.173  34.407  29.106  1.00  0.00    +0.000 C 
ATOM    123  H19 UNL A   1      39.833  34.653  28.122  1.00  0.00    +0.000 H 
BRANCH   27   26
ATOM    121  H17 UNL A   1      41.479  35.425  30.401  1.00  0.00    +0.000 H 
ATOM     26  C15 UNL A   1      41.416  35.265  29.344  1.00  0.00    +0.000 C 
ATOM    120  H16 UNL A   1      41.306  36.174  28.791  1.00  0.00    +0.000 H 
BRANCH   26   25
ATOM     25  C14 UNL A   1      42.722  34.607  28.925  1.00  0.00    +0.000 C 
ATOM    118  H14 UNL A   1      43.074  34.003  29.736  1.00  0.00    +0.000 H 
ATOM    119  H15 UNL A   1      42.519  34.027  28.050  1.00  0.00    +0.000 H 
BRANCH   25   24
ATOM    117  H13 UNL A   1      44.233  35.965  29.335  1.00  0.00    +0.000 H 
ATOM     24  N4  UNL A   1      43.753  35.556  28.579  1.00  0.00    +0.000 N 
BRANCH   24   22
ATOM     22  C13 UNL A   1      44.146  35.959  27.334  1.00  0.00    +0.000 C 
ATOM     23  O6  UNL A   1      43.345  36.622  26.669  1.00  0.00    +0.000 O 
BRANCH   22   21
ATOM    115  H11 UNL A   1      45.892  36.317  26.168  1.00  0.00    +0.000 H 
ATOM    116  H12 UNL A   1      46.090  35.179  27.536  1.00  0.00    +0.000 H 
ATOM     21  C12 UNL A   1      45.480  35.496  26.717  1.00  0.00    +0.000 C 
BRANCH   21   20
ATOM    114  H10 UNL A   1      46.112  34.297  25.154  1.00  0.00    +0.000 H 
ATOM     20  N3  UNL A   1      45.389  34.356  25.818  1.00  0.00    +0.000 N 
BRANCH   20   18
ATOM     18  C11 UNL A   1      44.463  33.358  25.743  1.00  0.00    +0.000 C 
ATOM     19  O5  UNL A   1      43.555  33.477  24.917  1.00  0.00    +0.000 O 
BRANCH   18   17
ATOM     17  C10 UNL A   1      44.533  32.122  26.658  1.00  0.00    +0.000 C 
ATOM    113  H9  UNL A   1      43.657  31.546  26.449  1.00  0.00    +0.000 H 
ATOM    112  H8  UNL A   1      44.587  32.463  27.671  1.00  0.00    +0.000 H 
BRANCH   17   16
ATOM    111  H7  UNL A   1      45.559  30.636  25.643  1.00  0.00    +0.000 H 
ATOM     16  N2  UNL A   1      45.674  31.237  26.415  1.00  0.00    +0.000 N 
BRANCH   16   14
ATOM     14  C9  UNL A   1      46.881  31.091  27.070  1.00  0.00    +0.000 C 
ATOM     15  O4  UNL A   1      47.794  31.862  26.796  1.00  0.00    +0.000 O 
BRANCH   14   12
ATOM     12  C8  UNL A   1      47.075  29.978  28.123  1.00  0.00    +0.000 C 
ATOM     13  O3  UNL A   1      46.655  30.201  29.254  1.00  0.00    +0.000 O 
BRANCH   12   11
ATOM     97  C65 UNL A   1      47.362  27.814  26.748  1.00  0.00    +0.000 C 
ATOM     98  C66 UNL A   1      46.380  27.888  25.733  1.00  0.00    +0.000 C 
ATOM     99  C67 UNL A   1      46.293  26.887  24.766  1.00  0.00    +0.000 C 
ATOM    100  C68 UNL A   1      47.156  25.801  24.802  1.00  0.00    +0.000 C 
ATOM    101  C69 UNL A   1      48.119  25.681  25.808  1.00  0.00    +0.000 C 
ATOM    102  C70 UNL A   1      48.213  26.703  26.770  1.00  0.00    +0.000 C 
ATOM      9  N1  UNL A   1      49.069  26.908  27.832  1.00  0.00    +0.000 N 
ATOM     10  C6  UNL A   1      48.787  28.088  28.482  1.00  0.00    +0.000 C 
ATOM     11  C7  UNL A   1      47.725  28.694  27.832  1.00  0.00    +0.000 C 
ATOM    110  H6  UNL A   1      49.280  28.457  29.309  1.00  0.00    +0.000 H 
ATOM    145  H41 UNL A   1      45.726  28.686  25.708  1.00  0.00    +0.000 H 
ATOM    146  H42 UNL A   1      45.583  26.955  24.020  1.00  0.00    +0.000 H 
ATOM    147  H43 UNL A   1      47.084  25.071  24.077  1.00  0.00    +0.000 H 
ATOM    148  H44 UNL A   1      48.747  24.862  25.843  1.00  0.00    +0.000 H 
BRANCH    9    6
ATOM      6  S1  UNL A   1      50.383  25.894  28.225  1.00  0.00    +0.000 S 
ATOM      7  O1  UNL A   1      51.497  26.397  27.454  1.00  0.00    +0.000 O 
ATOM      8  O2  UNL A   1      49.887  24.533  28.069  1.00  0.00    +0.000 O 
BRANCH    6    5
ATOM      2  C2  UNL A   1      51.369  26.701  32.618  1.00  0.00    +0.000 C 
ATOM      3  C3  UNL A   1      52.091  27.306  31.583  1.00  0.00    +0.000 C 
ATOM      4  C4  UNL A   1      51.786  27.025  30.250  1.00  0.00    +0.000 C 
ATOM      5  C5  UNL A   1      50.760  26.123  29.943  1.00  0.00    +0.000 C 
ATOM    103  C71 UNL A   1      50.062  25.483  30.969  1.00  0.00    +0.000 C 
ATOM    104  C72 UNL A   1      50.360  25.784  32.301  1.00  0.00    +0.000 C 
ATOM    108  H4  UNL A   1      52.854  27.965  31.807  1.00  0.00    +0.000 H 
ATOM    109  H5  UNL A   1      52.316  27.482  29.492  1.00  0.00    +0.000 H 
ATOM    149  H45 UNL A   1      49.329  24.792  30.744  1.00  0.00    +0.000 H 
ATOM    150  H46 UNL A   1      49.832  25.324  33.059  1.00  0.00    +0.000 H 
BRANCH    2    1
ATOM      1  C1  UNL A   1      51.682  27.037  34.047  1.00  0.00    +0.000 C 
ATOM    106  H2  UNL A   1      52.607  27.573  34.094  1.00  0.00    +0.000 H 
ATOM    107  H3  UNL A   1      51.764  26.135  34.616  1.00  0.00    +0.000 H 
ATOM    105  H1  UNL A   1      50.898  27.644  34.451  1.00  0.00    +0.000 H 
ENDBRANCH    2    1
ENDBRANCH    6    5
ENDBRANCH    9    6
ENDBRANCH   12   11
ENDBRANCH   14   12
ENDBRANCH   16   14
ENDBRANCH   17   16
ENDBRANCH   18   17
ENDBRANCH   20   18
ENDBRANCH   21   20
ENDBRANCH   22   21
ENDBRANCH   24   22
ENDBRANCH   25   24
ENDBRANCH   26   25
ENDBRANCH   27   26
ENDBRANCH   28   27
ENDBRANCH   29   28
ENDBRANCH   30   29
ENDBRANCH   31   30
ENDBRANCH   32   31
ENDBRANCH   34   32
ENDBRANCH   38   37
BRANCH   42   43
ATOM     43  C29 UNL A   1      42.902  23.851  27.084  1.00  0.00    +0.000 C 
ATOM     44  C30 UNL A   1      42.613  22.484  27.308  1.00  0.00    +0.000 C 
ATOM     45  F1  UNL A   1      41.899  22.083  28.368  1.00  0.00    +0.000 F 
ATOM     46  C31 UNL A   1      43.041  21.469  26.450  1.00  0.00    +0.000 C 
ATOM     47  F2  UNL A   1      42.742  20.193  26.731  1.00  0.00    +0.000 F 
ATOM     48  C32 UNL A   1      43.777  21.771  25.325  1.00  0.00    +0.000 C 
ATOM     49  F3  UNL A   1      44.208  20.797  24.513  1.00  0.00    +0.000 F 
ATOM     50  C33 UNL A   1      44.037  23.094  25.034  1.00  0.00    +0.000 C 
ATOM     51  F4  UNL A   1      44.731  23.407  23.931  1.00  0.00    +0.000 F 
ATOM     52  C34 UNL A   1      43.575  24.113  25.876  1.00  0.00    +0.000 C 
ATOM     53  F5  UNL A   1      43.761  25.359  25.431  1.00  0.00    +0.000 F 
ENDBRANCH   42   43
BRANCH   59   60
ATOM     65  C43 UNL A   1      45.876  24.001  35.024  1.00  0.00    +0.000 C 
ATOM     66  F8  UNL A   1      46.395  23.128  35.898  1.00  0.00    +0.000 F 
ATOM     67  C44 UNL A   1      44.566  24.407  35.144  1.00  0.00    +0.000 C 
ATOM     68  F9  UNL A   1      43.818  23.971  36.166  1.00  0.00    +0.000 F 
ATOM     69  C45 UNL A   1      44.021  25.289  34.213  1.00  0.00    +0.000 C 
ATOM     70  F10 UNL A   1      42.728  25.590  34.403  1.00  0.00    +0.000 F 
ATOM     60  C40 UNL A   1      44.781  25.858  33.159  1.00  0.00    +0.000 C 
ATOM     61  C41 UNL A   1      46.130  25.470  33.125  1.00  0.00    +0.000 C 
ATOM     62  F6  UNL A   1      47.004  26.036  32.283  1.00  0.00    +0.000 F 
ATOM     63  C42 UNL A   1      46.653  24.522  34.009  1.00  0.00    +0.000 C 
ATOM     64  F7  UNL A   1      47.932  24.140  33.885  1.00  0.00    +0.000 F 
ENDBRANCH   59   60
BRANCH   74   75
ATOM     75  C49 UNL A   1      40.569  31.661  32.416  1.00  0.00    +0.000 C 
ATOM     76  C50 UNL A   1      39.668  30.700  32.922  1.00  0.00    +0.000 C 
ATOM     77  F11 UNL A   1      39.746  29.425  32.505  1.00  0.00    +0.000 F 
ATOM     78  C51 UNL A   1      38.791  31.007  33.960  1.00  0.00    +0.000 C 
ATOM     79  F12 UNL A   1      38.059  30.036  34.526  1.00  0.00    +0.000 F 
ATOM     80  C52 UNL A   1      38.745  32.295  34.465  1.00  0.00    +0.000 C 
ATOM     81  F13 UNL A   1      37.986  32.570  35.534  1.00  0.00    +0.000 F 
ATOM     82  C53 UNL A   1      39.520  33.288  33.882  1.00  0.00    +0.000 C 
ATOM     83  F14 UNL A   1      39.472  34.537  34.373  1.00  0.00    +0.000 F 
ATOM     84  C54 UNL A   1      40.424  32.979  32.863  1.00  0.00    +0.000 C 
ATOM     85  F15 UNL A   1      41.238  33.943  32.410  1.00  0.00    +0.000 F 
ENDBRANCH   74   75
TORSDOF 25
ENDMDL
MODEL 2
REMARK VINA RESULT:      -8.4     25.384     31.522
ROOT
ATOM    133  H29 UNL A   1      18.475  38.049  45.959  1.00  0.00    +0.000 H 
ATOM    134  H30 UNL A   1      19.996  36.775  44.238  1.00  0.00    +0.000 H 
ATOM    135  H31 UNL A   1      19.051  34.176  47.316  1.00  0.00    +0.000 H 
ATOM    136  H32 UNL A   1      22.834  37.952  44.706  1.00  0.00    +0.000 H 
ATOM    137  H33 UNL A   1      21.316  38.139  46.761  1.00  0.00    +0.000 H 
ATOM    138  H34 UNL A   1      25.255  37.768  48.010  1.00  0.00    +0.000 H 
ATOM    139  H35 UNL A   1      24.950  33.768  43.684  1.00  0.00    +0.000 H 
ATOM    140  H36 UNL A   1      22.616  32.750  43.303  1.00  0.00    +0.000 H 
ATOM    141  H37 UNL A   1      18.678  36.955  51.371  1.00  0.00    +0.000 H 
ATOM    142  H38 UNL A   1      21.176  37.482  51.691  1.00  0.00    +0.000 H 
ATOM     38  C25 UNL A   1      22.655  37.172  49.172  1.00  0.00    +0.000 C 
ATOM     39  C26 UNL A   1      21.253  36.900  49.508  1.00  0.00    +0.000 C 
ATOM     40  N6  UNL A   1      20.407  36.363  48.707  1.00  0.00    +0.000 N 
ATOM     41  C27 UNL A   1      19.159  36.508  49.275  1.00  0.00    +0.000 C 
ATOM     42  C28 UNL A   1      18.072  36.455  48.454  1.00  0.00    +0.000 C 
ATOM     54  C35 UNL A   1      18.514  36.205  47.084  1.00  0.00    +0.000 C 
ATOM     55  C36 UNL A   1      18.799  37.073  46.042  1.00  0.00    +0.000 C 
ATOM     56  C37 UNL A   1      19.613  36.383  45.112  1.00  0.00    +0.000 C 
ATOM     57  C38 UNL A   1      19.806  35.093  45.578  1.00  0.00    +0.000 C 
ATOM     58  N7  UNL A   1      19.113  34.992  46.769  1.00  0.00    +0.000 N 
ATOM     59  C39 UNL A   1      20.502  33.947  45.015  1.00  0.00    +0.000 C 
ATOM     71  C46 UNL A   1      21.845  34.128  44.834  1.00  0.00    +0.000 C 
ATOM     72  N8  UNL A   1      22.554  35.067  45.538  1.00  0.00    +0.000 N 
ATOM     73  C47 UNL A   1      23.805  35.029  45.167  1.00  0.00    +0.000 C 
ATOM     74  C48 UNL A   1      24.864  35.953  45.713  1.00  0.00    +0.000 C 
ATOM     86  C55 UNL A   1      24.345  37.145  46.132  1.00  0.00    +0.000 C 
ATOM     87  C56 UNL A   1      23.084  37.709  45.677  1.00  0.00    +0.000 C 
ATOM     88  C57 UNL A   1      22.307  37.851  46.764  1.00  0.00    +0.000 C 
ATOM     89  C58 UNL A   1      23.095  37.533  47.947  1.00  0.00    +0.000 C 
ATOM     90  N9  UNL A   1      24.445  37.541  47.499  1.00  0.00    +0.000 N 
ATOM     91  C59 UNL A   1      24.062  34.020  44.147  1.00  0.00    +0.000 C 
ATOM     92  C60 UNL A   1      22.833  33.504  43.973  1.00  0.00    +0.000 C 
ATOM     93  C61 UNL A   1      19.404  36.895  50.640  1.00  0.00    +0.000 C 
ATOM     94  C62 UNL A   1      20.697  37.167  50.833  1.00  0.00    +0.000 C 
ENDROOT
BRANCH   38   37
ATOM     34  C21 UNL A   1      24.866  37.227  52.649  1.00  0.00    +0.000 C 
ATOM     35  C22 UNL A   1      24.738  38.450  51.972  1.00  0.00    +0.000 C 
ATOM     36  C23 UNL A   1      24.104  38.472  50.741  1.00  0.00    +0.000 C 
ATOM    131  H27 UNL A   1      25.112  39.318  52.385  1.00  0.00    +0.000 H 
ATOM    132  H28 UNL A   1      24.026  39.343  50.193  1.00  0.00    +0.000 H 
ATOM     37  C24 UNL A   1      23.578  37.275  50.276  1.00  0.00    +0.000 C 
ATOM    143  H39 UNL A   1      23.603  35.165  50.413  1.00  0.00    +0.000 H 
ATOM    144  H40 UNL A   1      25.112  35.150  52.323  1.00  0.00    +0.000 H 
ATOM     95  C63 UNL A   1      23.922  36.048  50.844  1.00  0.00    +0.000 C 
ATOM     96  C64 UNL A   1      24.686  36.025  51.979  1.00  0.00    +0.000 C 
BRANCH   34   32
ATOM     33  O7  UNL A   1      25.623  37.770  54.802  1.00  0.00    +0.000 O 
ATOM     32  C20 UNL A   1      24.720  37.295  54.122  1.00  0.00    +0.000 C 
BRANCH   32   31
ATOM    130  H26 UNL A   1      23.192  36.086  54.625  1.00  0.00    +0.000 H 
ATOM     31  N5  UNL A   1      23.492  37.022  54.695  1.00  0.00    +0.000 N 
BRANCH   31   30
ATOM    129  H25 UNL A   1      22.968  38.070  56.373  1.00  0.00    +0.000 H 
ATOM     30  C19 UNL A   1      22.578  37.918  55.387  1.00  0.00    +0.000 C 
ATOM    128  H24 UNL A   1      21.608  37.468  55.405  1.00  0.00    +0.000 H 
BRANCH   30   29
ATOM     29  C18 UNL A   1      22.467  39.282  54.731  1.00  0.00    +0.000 C 
ATOM    126  H22 UNL A   1      22.133  39.981  55.468  1.00  0.00    +0.000 H 
ATOM    127  H23 UNL A   1      23.436  39.514  54.343  1.00  0.00    +0.000 H 
BRANCH   29   28
ATOM    124  H20 UNL A   1      21.990  39.848  52.748  1.00  0.00    +0.000 H 
ATOM     28  C17 UNL A   1      21.499  39.334  53.549  1.00  0.00    +0.000 C 
ATOM    125  H21 UNL A   1      21.254  38.316  53.333  1.00  0.00    +0.000 H 
BRANCH   28   27
ATOM    122  H18 UNL A   1      20.142  40.351  54.827  1.00  0.00    +0.000 H 
ATOM     27  C16 UNL A   1      20.158  40.037  53.805  1.00  0.00    +0.000 C 
ATOM    123  H19 UNL A   1      20.113  40.843  53.102  1.00  0.00    +0.000 H 
BRANCH   27   26
ATOM    121  H17 UNL A   1      18.681  38.701  54.475  1.00  0.00    +0.000 H 
ATOM     26  C15 UNL A   1      18.907  39.195  53.553  1.00  0.00    +0.000 C 
ATOM    120  H16 UNL A   1      19.116  38.515  52.755  1.00  0.00    +0.000 H 
BRANCH   26   25
ATOM     25  C14 UNL A   1      17.673  40.003  53.178  1.00  0.00    +0.000 C 
ATOM    118  H14 UNL A   1      17.165  39.499  52.382  1.00  0.00    +0.000 H 
ATOM    119  H15 UNL A   1      17.066  40.081  54.056  1.00  0.00    +0.000 H 
BRANCH   25   24
ATOM    117  H13 UNL A   1      18.551  41.872  53.353  1.00  0.00    +0.000 H 
ATOM     24  N4  UNL A   1      17.980  41.346  52.749  1.00  0.00    +0.000 N 
BRANCH   24   22
ATOM     22  C13 UNL A   1      17.574  41.980  51.608  1.00  0.00    +0.000 C 
ATOM     23  O6  UNL A   1      16.463  42.517  51.617  1.00  0.00    +0.000 O 
BRANCH   22   21
ATOM    115  H11 UNL A   1      19.432  42.052  50.569  1.00  0.00    +0.000 H 
ATOM    116  H12 UNL A   1      18.191  40.968  49.868  1.00  0.00    +0.000 H 
ATOM     21  C12 UNL A   1      18.403  41.919  50.310  1.00  0.00    +0.000 C 
BRANCH   21   20
ATOM    114  H10 UNL A   1      17.282  42.685  48.749  1.00  0.00    +0.000 H 
ATOM     20  N3  UNL A   1      18.060  42.915  49.305  1.00  0.00    +0.000 N 
BRANCH   20   18
ATOM     18  C11 UNL A   1      18.643  44.111  49.008  1.00  0.00    +0.000 C 
ATOM     19  O5  UNL A   1      18.287  44.681  47.973  1.00  0.00    +0.000 O 
BRANCH   18   17
ATOM     17  C10 UNL A   1      19.714  44.736  49.918  1.00  0.00    +0.000 C 
ATOM    113  H9  UNL A   1      19.743  44.135  50.802  1.00  0.00    +0.000 H 
ATOM    112  H8  UNL A   1      19.438  45.753  50.104  1.00  0.00    +0.000 H 
BRANCH   17   16
ATOM    111  H7  UNL A   1      21.623  45.494  49.649  1.00  0.00    +0.000 H 
ATOM     16  N2  UNL A   1      21.073  44.727  49.371  1.00  0.00    +0.000 N 
BRANCH   16   14
ATOM     14  C9  UNL A   1      21.722  43.839  48.535  1.00  0.00    +0.000 C 
ATOM     15  O4  UNL A   1      21.897  44.158  47.364  1.00  0.00    +0.000 O 
BRANCH   14   12
ATOM     12  C8  UNL A   1      22.214  42.475  49.066  1.00  0.00    +0.000 C 
ATOM     13  O3  UNL A   1      21.472  41.511  48.900  1.00  0.00    +0.000 O 
BRANCH   12   11
ATOM     97  C65 UNL A   1      23.704  42.361  51.168  1.00  0.00    +0.000 C 
ATOM     98  C66 UNL A   1      22.833  42.604  52.254  1.00  0.00    +0.000 C 
ATOM     99  C67 UNL A   1      23.311  42.561  53.563  1.00  0.00    +0.000 C 
ATOM    100  C68 UNL A   1      24.650  42.296  53.811  1.00  0.00    +0.000 C 
ATOM    101  C69 UNL A   1      25.546  42.080  52.761  1.00  0.00    +0.000 C 
ATOM    102  C70 UNL A   1      25.054  42.107  51.443  1.00  0.00    +0.000 C 
ATOM      9  N1  UNL A   1      25.649  41.883  50.220  1.00  0.00    +0.000 N 
ATOM     10  C6  UNL A   1      24.741  41.996  49.192  1.00  0.00    +0.000 C 
ATOM     11  C7  UNL A   1      23.504  42.289  49.742  1.00  0.00    +0.000 C 
ATOM    110  H6  UNL A   1      24.945  41.882  48.188  1.00  0.00    +0.000 H 
ATOM    145  H41 UNL A   1      21.838  42.815  52.076  1.00  0.00    +0.000 H 
ATOM    146  H42 UNL A   1      22.665  42.726  54.352  1.00  0.00    +0.000 H 
ATOM    147  H43 UNL A   1      24.989  42.261  54.785  1.00  0.00    +0.000 H 
ATOM    148  H44 UNL A   1      26.547  41.902  52.948  1.00  0.00    +0.000 H 
BRANCH    9    6
ATOM      6  S1  UNL A   1      27.276  41.414  50.008  1.00  0.00    +0.000 S 
ATOM      7  O1  UNL A   1      27.392  40.133  50.666  1.00  0.00    +0.000 O 
ATOM      8  O2  UNL A   1      28.072  42.566  50.412  1.00  0.00    +0.000 O 
BRANCH    6    5
ATOM      2  C2  UNL A   1      28.198  40.859  45.562  1.00  0.00    +0.000 C 
ATOM      3  C3  UNL A   1      28.494  42.054  46.226  1.00  0.00    +0.000 C 
ATOM      4  C4  UNL A   1      28.181  42.207  47.578  1.00  0.00    +0.000 C 
ATOM      5  C5  UNL A   1      27.555  41.165  48.273  1.00  0.00    +0.000 C 
ATOM    103  C71 UNL A   1      27.218  39.985  47.609  1.00  0.00    +0.000 C 
ATOM    104  C72 UNL A   1      27.551  39.831  46.260  1.00  0.00    +0.000 C 
ATOM    108  H4  UNL A   1      28.947  42.828  45.714  1.00  0.00    +0.000 H 
ATOM    109  H5  UNL A   1      28.411  43.088  48.065  1.00  0.00    +0.000 H 
ATOM    149  H45 UNL A   1      26.726  39.229  48.111  1.00  0.00    +0.000 H 
ATOM    150  H46 UNL A   1      27.319  38.952  45.773  1.00  0.00    +0.000 H 
BRANCH    2    1
ATOM      1  C1  UNL A   1      28.570  40.692  44.117  1.00  0.00    +0.000 C 
ATOM    106  H2  UNL A   1      28.631  39.650  43.882  1.00  0.00    +0.000 H 
ATOM    107  H3  UNL A   1      29.518  41.155  43.937  1.00  0.00    +0.000 H 
ATOM    105  H1  UNL A   1      27.825  41.153  43.502  1.00  0.00    +0.000 H 
ENDBRANCH    2    1
ENDBRANCH    6    5
ENDBRANCH    9    6
ENDBRANCH   12   11
ENDBRANCH   14   12
ENDBRANCH   16   14
ENDBRANCH   17   16
ENDBRANCH   18   17
ENDBRANCH   20   18
ENDBRANCH   21   20
ENDBRANCH   22   21
ENDBRANCH   24   22
ENDBRANCH   25   24
ENDBRANCH   26   25
ENDBRANCH   27   26
ENDBRANCH   28   27
ENDBRANCH   29   28
ENDBRANCH   30   29
ENDBRANCH   31   30
ENDBRANCH   32   31
ENDBRANCH   34   32
ENDBRANCH   38   37
BRANCH   42   43
ATOM     43  C29 UNL A   1      16.682  36.946  48.794  1.00  0.00    +0.000 C 
ATOM     44  C30 UNL A   1      16.517  38.035  49.681  1.00  0.00    +0.000 C 
ATOM     45  F1  UNL A   1      17.564  38.730  50.142  1.00  0.00    +0.000 F 
ATOM     46  C31 UNL A   1      15.265  38.460  50.133  1.00  0.00    +0.000 C 
ATOM     47  F2  UNL A   1      15.183  39.492  50.984  1.00  0.00    +0.000 F 
ATOM     48  C32 UNL A   1      14.119  37.819  49.716  1.00  0.00    +0.000 C 
ATOM     49  F3  UNL A   1      12.920  38.211  50.166  1.00  0.00    +0.000 F 
ATOM     50  C33 UNL A   1      14.226  36.787  48.807  1.00  0.00    +0.000 C 
ATOM     51  F4  UNL A   1      13.118  36.168  48.373  1.00  0.00    +0.000 F 
ATOM     52  C34 UNL A   1      15.478  36.386  48.327  1.00  0.00    +0.000 C 
ATOM     53  F5  UNL A   1      15.459  35.475  47.351  1.00  0.00    +0.000 F 
ENDBRANCH   42   43
BRANCH   59   60
ATOM     65  C43 UNL A   1      18.363  30.384  43.692  1.00  0.00    +0.000 C 
ATOM     66  F8  UNL A   1      17.735  29.279  43.270  1.00  0.00    +0.000 F 
ATOM     67  C44 UNL A   1      19.326  30.304  44.672  1.00  0.00    +0.000 C 
ATOM     68  F9  UNL A   1      19.678  29.112  45.174  1.00  0.00    +0.000 F 
ATOM     69  C45 UNL A   1      19.952  31.460  45.132  1.00  0.00    +0.000 C 
ATOM     70  F10 UNL A   1      20.848  31.273  46.112  1.00  0.00    +0.000 F 
ATOM     60  C40 UNL A   1      19.693  32.743  44.583  1.00  0.00    +0.000 C 
ATOM     61  C41 UNL A   1      18.758  32.761  43.536  1.00  0.00    +0.000 C 
ATOM     62  F6  UNL A   1      18.522  33.869  42.822  1.00  0.00    +0.000 F 
ATOM     63  C42 UNL A   1      18.071  31.612  43.134  1.00  0.00    +0.000 C 
ATOM     64  F7  UNL A   1      17.140  31.703  42.173  1.00  0.00    +0.000 F 
ENDBRANCH   59   60
BRANCH   74   75
ATOM     75  C49 UNL A   1      26.048  35.540  46.520  1.00  0.00    +0.000 C 
ATOM     76  C50 UNL A   1      27.282  36.158  46.225  1.00  0.00    +0.000 C 
ATOM     77  F11 UNL A   1      27.483  36.703  45.013  1.00  0.00    +0.000 F 
ATOM     78  C51 UNL A   1      28.248  36.353  47.209  1.00  0.00    +0.000 C 
ATOM     79  F12 UNL A   1      29.341  37.081  46.938  1.00  0.00    +0.000 F 
ATOM     80  C52 UNL A   1      28.033  35.873  48.490  1.00  0.00    +0.000 C 
ATOM     81  F13 UNL A   1      28.906  36.152  49.466  1.00  0.00    +0.000 F 
ATOM     82  C53 UNL A   1      26.889  35.135  48.763  1.00  0.00    +0.000 C 
ATOM     83  F14 UNL A   1      26.685  34.669  50.005  1.00  0.00    +0.000 F 
ATOM     84  C54 UNL A   1      25.903  34.964  47.788  1.00  0.00    +0.000 C 
ATOM     85  F15 UNL A   1      24.762  34.349  48.128  1.00  0.00    +0.000 F 
ENDBRANCH   74   75
TORSDOF 25
ENDMDL
MODEL 3
REMARK VINA RESULT:      -8.3     24.532     30.964
ROOT
ATOM    133  H29 UNL A   1      18.412  37.935  46.060  1.00  0.00    +0.000 H 
ATOM    134  H30 UNL A   1      19.929  36.741  44.278  1.00  0.00    +0.000 H 
ATOM    135  H31 UNL A   1      19.320  34.130  47.430  1.00  0.00    +0.000 H 
ATOM    136  H32 UNL A   1      22.699  38.115  44.587  1.00  0.00    +0.000 H 
ATOM    137  H33 UNL A   1      21.277  38.229  46.715  1.00  0.00    +0.000 H 
ATOM    138  H34 UNL A   1      25.290  38.145  47.766  1.00  0.00    +0.000 H 
ATOM    139  H35 UNL A   1      25.043  34.069  43.506  1.00  0.00    +0.000 H 
ATOM    140  H36 UNL A   1      22.768  32.890  43.257  1.00  0.00    +0.000 H 
ATOM    141  H37 UNL A   1      18.961  36.938  51.467  1.00  0.00    +0.000 H 
ATOM    142  H38 UNL A   1      21.430  37.638  51.652  1.00  0.00    +0.000 H 
ATOM     38  C25 UNL A   1      22.798  37.392  49.065  1.00  0.00    +0.000 C 
ATOM     39  C26 UNL A   1      21.437  37.030  49.475  1.00  0.00    +0.000 C 
ATOM     40  N6  UNL A   1      20.591  36.425  48.725  1.00  0.00    +0.000 N 
ATOM     41  C27 UNL A   1      19.366  36.493  49.354  1.00  0.00    +0.000 C 
ATOM     42  C28 UNL A   1      18.245  36.355  48.591  1.00  0.00    +0.000 C 
ATOM     54  C35 UNL A   1      18.634  36.115  47.203  1.00  0.00    +0.000 C 
ATOM     55  C36 UNL A   1      18.806  36.985  46.138  1.00  0.00    +0.000 C 
ATOM     56  C37 UNL A   1      19.618  36.337  45.175  1.00  0.00    +0.000 C 
ATOM     57  C38 UNL A   1      19.922  35.070  45.645  1.00  0.00    +0.000 C 
ATOM     58  N7  UNL A   1      19.298  34.941  46.871  1.00  0.00    +0.000 N 
ATOM     59  C39 UNL A   1      20.666  33.966  45.061  1.00  0.00    +0.000 C 
ATOM     71  C46 UNL A   1      21.982  34.235  44.809  1.00  0.00    +0.000 C 
ATOM     72  N8  UNL A   1      22.659  35.230  45.465  1.00  0.00    +0.000 N 
ATOM     73  C47 UNL A   1      23.890  35.272  45.032  1.00  0.00    +0.000 C 
ATOM     74  C48 UNL A   1      24.910  36.274  45.513  1.00  0.00    +0.000 C 
ATOM     86  C55 UNL A   1      24.331  37.434  45.943  1.00  0.00    +0.000 C 
ATOM     87  C56 UNL A   1      23.014  37.904  45.547  1.00  0.00    +0.000 C 
ATOM     88  C57 UNL A   1      22.284  38.010  46.671  1.00  0.00    +0.000 C 
ATOM     89  C58 UNL A   1      23.151  37.763  47.815  1.00  0.00    +0.000 C 
ATOM     90  N9  UNL A   1      24.472  37.856  47.299  1.00  0.00    +0.000 N 
ATOM     91  C59 UNL A   1      24.165  34.268  44.011  1.00  0.00    +0.000 C 
ATOM     92  C60 UNL A   1      22.967  33.667  43.907  1.00  0.00    +0.000 C 
ATOM     93  C61 UNL A   1      19.652  36.917  50.700  1.00  0.00    +0.000 C 
ATOM     94  C62 UNL A   1      20.931  37.279  50.824  1.00  0.00    +0.000 C 
ENDROOT
BRANCH   38   37
ATOM     34  C21 UNL A   1      25.151  37.702  52.435  1.00  0.00    +0.000 C 
ATOM     35  C22 UNL A   1      25.002  38.868  51.669  1.00  0.00    +0.000 C 
ATOM     36  C23 UNL A   1      24.317  38.799  50.466  1.00  0.00    +0.000 C 
ATOM    131  H27 UNL A   1      25.396  39.763  51.996  1.00  0.00    +0.000 H 
ATOM    132  H28 UNL A   1      24.222  39.624  49.855  1.00  0.00    +0.000 H 
ATOM     37  C24 UNL A   1      23.766  37.574  50.119  1.00  0.00    +0.000 C 
ATOM    143  H39 UNL A   1      23.786  35.481  50.422  1.00  0.00    +0.000 H 
ATOM    144  H40 UNL A   1      25.371  35.604  52.265  1.00  0.00    +0.000 H 
ATOM     95  C63 UNL A   1      24.127  36.392  50.768  1.00  0.00    +0.000 C 
ATOM     96  C64 UNL A   1      24.936  36.452  51.870  1.00  0.00    +0.000 C 
BRANCH   34   32
ATOM     33  O7  UNL A   1      26.053  38.254  54.528  1.00  0.00    +0.000 O 
ATOM     32  C20 UNL A   1      25.065  37.887  53.902  1.00  0.00    +0.000 C 
BRANCH   32   31
ATOM    130  H26 UNL A   1      23.408  36.963  54.572  1.00  0.00    +0.000 H 
ATOM     31  N5  UNL A   1      23.828  37.852  54.520  1.00  0.00    +0.000 N 
BRANCH   31   30
ATOM    129  H25 UNL A   1      23.551  39.227  56.010  1.00  0.00    +0.000 H 
ATOM     30  C19 UNL A   1      23.058  38.940  55.103  1.00  0.00    +0.000 C 
ATOM    128  H24 UNL A   1      22.061  38.595  55.281  1.00  0.00    +0.000 H 
BRANCH   30   29
ATOM     29  C18 UNL A   1      22.993  40.169  54.216  1.00  0.00    +0.000 C 
ATOM    126  H22 UNL A   1      22.778  41.016  54.833  1.00  0.00    +0.000 H 
ATOM    127  H23 UNL A   1      23.940  40.241  53.724  1.00  0.00    +0.000 H 
BRANCH   29   28
ATOM    124  H20 UNL A   1      22.315  40.614  52.261  1.00  0.00    +0.000 H 
ATOM     28  C17 UNL A   1      21.934  40.097  53.116  1.00  0.00    +0.000 C 
ATOM    125  H21 UNL A   1      21.757  39.054  52.957  1.00  0.00    +0.000 H 
BRANCH   28   27
ATOM    122  H18 UNL A   1      20.586  41.005  54.483  1.00  0.00    +0.000 H 
ATOM     27  C16 UNL A   1      20.564  40.701  53.458  1.00  0.00    +0.000 C 
ATOM    123  H19 UNL A   1      20.422  41.507  52.769  1.00  0.00    +0.000 H 
BRANCH   27   26
ATOM    121  H17 UNL A   1      19.166  39.331  54.222  1.00  0.00    +0.000 H 
ATOM     26  C15 UNL A   1      19.362  39.775  53.268  1.00  0.00    +0.000 C 
ATOM    120  H16 UNL A   1      19.609  39.056  52.516  1.00  0.00    +0.000 H 
BRANCH   26   25
ATOM     25  C14 UNL A   1      18.084  40.485  52.849  1.00  0.00    +0.000 C 
ATOM    118  H14 UNL A   1      17.596  39.895  52.100  1.00  0.00    +0.000 H 
ATOM    119  H15 UNL A   1      17.482  40.600  53.725  1.00  0.00    +0.000 H 
BRANCH   25   24
ATOM    117  H13 UNL A   1      18.991  42.347  52.778  1.00  0.00    +0.000 H 
ATOM     24  N4  UNL A   1      18.315  41.805  52.312  1.00  0.00    +0.000 N 
BRANCH   24   22
ATOM     22  C13 UNL A   1      17.711  42.397  51.239  1.00  0.00    +0.000 C 
ATOM     23  O6  UNL A   1      16.658  43.008  51.440  1.00  0.00    +0.000 O 
BRANCH   22   21
ATOM    115  H11 UNL A   1      19.280  41.958  49.866  1.00  0.00    +0.000 H 
ATOM    116  H12 UNL A   1      17.642  41.430  49.370  1.00  0.00    +0.000 H 
ATOM     21  C12 UNL A   1      18.241  42.204  49.804  1.00  0.00    +0.000 C 
BRANCH   21   20
ATOM    114  H10 UNL A   1      17.266  43.383  48.411  1.00  0.00    +0.000 H 
ATOM     20  N3  UNL A   1      18.103  43.357  48.928  1.00  0.00    +0.000 N 
BRANCH   20   18
ATOM     18  C11 UNL A   1      18.944  44.407  48.705  1.00  0.00    +0.000 C 
ATOM     19  O5  UNL A   1      18.768  45.076  47.684  1.00  0.00    +0.000 O 
BRANCH   18   17
ATOM     17  C10 UNL A   1      20.082  44.750  49.682  1.00  0.00    +0.000 C 
ATOM    113  H9  UNL A   1      20.088  43.976  50.419  1.00  0.00    +0.000 H 
ATOM    112  H8  UNL A   1      19.889  45.722  50.088  1.00  0.00    +0.000 H 
BRANCH   17   16
ATOM    111  H7  UNL A   1      21.996  45.496  49.412  1.00  0.00    +0.000 H 
ATOM     16  N2  UNL A   1      21.422  44.764  49.090  1.00  0.00    +0.000 N 
BRANCH   16   14
ATOM     14  C9  UNL A   1      22.026  43.937  48.162  1.00  0.00    +0.000 C 
ATOM     15  O4  UNL A   1      22.166  44.348  47.015  1.00  0.00    +0.000 O 
BRANCH   14   12
ATOM     12  C8  UNL A   1      22.512  42.528  48.562  1.00  0.00    +0.000 C 
ATOM     13  O3  UNL A   1      21.659  41.730  48.940  1.00  0.00    +0.000 O 
BRANCH   12   11
ATOM     97  C65 UNL A   1      24.843  42.184  49.612  1.00  0.00    +0.000 C 
ATOM     98  C66 UNL A   1      24.716  42.624  50.950  1.00  0.00    +0.000 C 
ATOM     99  C67 UNL A   1      25.794  42.525  51.828  1.00  0.00    +0.000 C 
ATOM    100  C68 UNL A   1      27.007  42.011  51.393  1.00  0.00    +0.000 C 
ATOM    101  C69 UNL A   1      27.178  41.593  50.070  1.00  0.00    +0.000 C 
ATOM    102  C70 UNL A   1      26.080  41.679  49.193  1.00  0.00    +0.000 C 
ATOM      9  N1  UNL A   1      25.907  41.309  47.877  1.00  0.00    +0.000 N 
ATOM     10  C6  UNL A   1      24.626  41.568  47.448  1.00  0.00    +0.000 C 
ATOM     11  C7  UNL A   1      23.919  42.112  48.507  1.00  0.00    +0.000 C 
ATOM    110  H6  UNL A   1      24.254  41.387  46.502  1.00  0.00    +0.000 H 
ATOM    145  H41 UNL A   1      23.820  43.020  51.276  1.00  0.00    +0.000 H 
ATOM    146  H42 UNL A   1      25.689  42.836  52.807  1.00  0.00    +0.000 H 
ATOM    147  H43 UNL A   1      27.795  41.937  52.055  1.00  0.00    +0.000 H 
ATOM    148  H44 UNL A   1      28.087  41.229  49.744  1.00  0.00    +0.000 H 
BRANCH    9    6
ATOM      6  S1  UNL A   1      27.090  40.525  46.929  1.00  0.00    +0.000 S 
ATOM      7  O1  UNL A   1      26.540  40.482  45.593  1.00  0.00    +0.000 O 
ATOM      8  O2  UNL A   1      27.438  39.314  47.660  1.00  0.00    +0.000 O 
BRANCH    6    5
ATOM      2  C2  UNL A   1      30.903  43.038  46.683  1.00  0.00    +0.000 C 
ATOM      3  C3  UNL A   1      30.952  41.642  46.762  1.00  0.00    +0.000 C 
ATOM      4  C4  UNL A   1      29.774  40.899  46.860  1.00  0.00    +0.000 C 
ATOM      5  C5  UNL A   1      28.536  41.552  46.893  1.00  0.00    +0.000 C 
ATOM    103  C71 UNL A   1      28.480  42.946  46.856  1.00  0.00    +0.000 C 
ATOM    104  C72 UNL A   1      29.662  43.683  46.739  1.00  0.00    +0.000 C 
ATOM    108  H4  UNL A   1      31.864  41.159  46.748  1.00  0.00    +0.000 H 
ATOM    109  H5  UNL A   1      29.816  39.869  46.909  1.00  0.00    +0.000 H 
ATOM    149  H45 UNL A   1      27.569  43.430  46.915  1.00  0.00    +0.000 H 
ATOM    150  H46 UNL A   1      29.619  44.713  46.693  1.00  0.00    +0.000 H 
BRANCH    2    1
ATOM      1  C1  UNL A   1      32.173  43.826  46.543  1.00  0.00    +0.000 C 
ATOM    106  H2  UNL A   1      32.099  44.477  45.697  1.00  0.00    +0.000 H 
ATOM    107  H3  UNL A   1      32.996  43.155  46.405  1.00  0.00    +0.000 H 
ATOM    105  H1  UNL A   1      32.332  44.408  47.427  1.00  0.00    +0.000 H 
ENDBRANCH    2    1
ENDBRANCH    6    5
ENDBRANCH    9    6
ENDBRANCH   12   11
ENDBRANCH   14   12
ENDBRANCH   16   14
ENDBRANCH   17   16
ENDBRANCH   18   17
ENDBRANCH   20   18
ENDBRANCH   21   20
ENDBRANCH   22   21
ENDBRANCH   24   22
ENDBRANCH   25   24
ENDBRANCH   26   25
ENDBRANCH   27   26
ENDBRANCH   28   27
ENDBRANCH   29   28
ENDBRANCH   30   29
ENDBRANCH   31   30
ENDBRANCH   32   31
ENDBRANCH   34   32
ENDBRANCH   38   37
BRANCH   42   43
ATOM     43  C29 UNL A   1      16.844  36.755  48.995  1.00  0.00    +0.000 C 
ATOM     44  C30 UNL A   1      15.735  36.289  48.251  1.00  0.00    +0.000 C 
ATOM     45  F1  UNL A   1      15.879  35.399  47.261  1.00  0.00    +0.000 F 
ATOM     46  C31 UNL A   1      14.427  36.716  48.492  1.00  0.00    +0.000 C 
ATOM     47  F2  UNL A   1      13.426  36.243  47.739  1.00  0.00    +0.000 F 
ATOM     48  C32 UNL A   1      14.165  37.626  49.493  1.00  0.00    +0.000 C 
ATOM     49  F3  UNL A   1      12.915  38.053  49.712  1.00  0.00    +0.000 F 
ATOM     50  C33 UNL A   1      15.206  38.067  50.283  1.00  0.00    +0.000 C 
ATOM     51  F4  UNL A   1      14.965  38.934  51.277  1.00  0.00    +0.000 F 
ATOM     52  C34 UNL A   1      16.511  37.610  50.063  1.00  0.00    +0.000 C 
ATOM     53  F5  UNL A   1      17.417  37.991  50.968  1.00  0.00    +0.000 F 
ENDBRANCH   42   43
BRANCH   59   60
ATOM     65  C43 UNL A   1      18.713  30.244  43.896  1.00  0.00    +0.000 C 
ATOM     66  F8  UNL A   1      18.143  29.091  43.523  1.00  0.00    +0.000 F 
ATOM     67  C44 UNL A   1      19.703  30.251  44.853  1.00  0.00    +0.000 C 
ATOM     68  F9  UNL A   1      20.138  29.098  45.380  1.00  0.00    +0.000 F 
ATOM     69  C45 UNL A   1      20.269  31.456  45.263  1.00  0.00    +0.000 C 
ATOM     70  F10 UNL A   1      21.198  31.352  46.225  1.00  0.00    +0.000 F 
ATOM     60  C40 UNL A   1      19.920  32.704  44.685  1.00  0.00    +0.000 C 
ATOM     61  C41 UNL A   1      18.962  32.635  43.661  1.00  0.00    +0.000 C 
ATOM     62  F6  UNL A   1      18.642  33.704  42.922  1.00  0.00    +0.000 F 
ATOM     63  C42 UNL A   1      18.335  31.435  43.310  1.00  0.00    +0.000 C 
ATOM     64  F7  UNL A   1      17.377  31.441  42.372  1.00  0.00    +0.000 F 
ENDBRANCH   59   60
BRANCH   74   75
ATOM     75  C49 UNL A   1      26.158  35.954  46.263  1.00  0.00    +0.000 C 
ATOM     76  C50 UNL A   1      26.104  34.886  47.185  1.00  0.00    +0.000 C 
ATOM     77  F11 UNL A   1      24.923  34.511  47.703  1.00  0.00    +0.000 F 
ATOM     78  C51 UNL A   1      27.228  34.110  47.460  1.00  0.00    +0.000 C 
ATOM     79  F12 UNL A   1      27.111  33.010  48.217  1.00  0.00    +0.000 F 
ATOM     80  C52 UNL A   1      28.443  34.426  46.876  1.00  0.00    +0.000 C 
ATOM     81  F13 UNL A   1      29.499  33.621  47.049  1.00  0.00    +0.000 F 
ATOM     82  C53 UNL A   1      28.548  35.558  46.080  1.00  0.00    +0.000 C 
ATOM     83  F14 UNL A   1      29.727  35.863  45.517  1.00  0.00    +0.000 F 
ATOM     84  C54 UNL A   1      27.418  36.321  45.775  1.00  0.00    +0.000 C 
ATOM     85  F15 UNL A   1      27.540  37.336  44.908  1.00  0.00    +0.000 F 
ENDBRANCH   74   75
TORSDOF 25
ENDMDL
MODEL 4
REMARK VINA RESULT:      -8.1     24.088     30.824
ROOT
ATOM    133  H29 UNL A   1      18.634  37.830  45.885  1.00  0.00    +0.000 H 
ATOM    134  H30 UNL A   1      20.052  36.487  44.127  1.00  0.00    +0.000 H 
ATOM    135  H31 UNL A   1      18.938  33.897  47.155  1.00  0.00    +0.000 H 
ATOM    136  H32 UNL A   1      22.969  37.447  44.601  1.00  0.00    +0.000 H 
ATOM    137  H33 UNL A   1      21.479  37.698  46.670  1.00  0.00    +0.000 H 
ATOM    138  H34 UNL A   1      25.387  37.018  47.884  1.00  0.00    +0.000 H 
ATOM    139  H35 UNL A   1      24.773  33.145  43.475  1.00  0.00    +0.000 H 
ATOM    140  H36 UNL A   1      22.370  32.306  43.089  1.00  0.00    +0.000 H 
ATOM    141  H37 UNL A   1      18.787  36.607  51.271  1.00  0.00    +0.000 H 
ATOM    142  H38 UNL A   1      21.318  36.946  51.585  1.00  0.00    +0.000 H 
ATOM     38  C25 UNL A   1      22.757  36.585  49.050  1.00  0.00    +0.000 C 
ATOM     39  C26 UNL A   1      21.341  36.407  49.390  1.00  0.00    +0.000 C 
ATOM     40  N6  UNL A   1      20.455  35.949  48.583  1.00  0.00    +0.000 N 
ATOM     41  C27 UNL A   1      19.224  36.171  49.163  1.00  0.00    +0.000 C 
ATOM     42  C28 UNL A   1      18.132  36.215  48.348  1.00  0.00    +0.000 C 
ATOM     54  C35 UNL A   1      18.547  35.964  46.970  1.00  0.00    +0.000 C 
ATOM     55  C36 UNL A   1      18.888  36.832  45.945  1.00  0.00    +0.000 C 
ATOM     56  C37 UNL A   1      19.646  36.105  44.995  1.00  0.00    +0.000 C 
ATOM     57  C38 UNL A   1      19.748  34.794  45.432  1.00  0.00    +0.000 C 
ATOM     58  N7  UNL A   1      19.055  34.718  46.625  1.00  0.00    +0.000 N 
ATOM     59  C39 UNL A   1      20.357  33.614  44.841  1.00  0.00    +0.000 C 
ATOM     71  C46 UNL A   1      21.708  33.702  44.654  1.00  0.00    +0.000 C 
ATOM     72  N8  UNL A   1      22.486  34.572  45.373  1.00  0.00    +0.000 N 
ATOM     73  C47 UNL A   1      23.729  34.453  44.993  1.00  0.00    +0.000 C 
ATOM     74  C48 UNL A   1      24.855  35.286  45.552  1.00  0.00    +0.000 C 
ATOM     86  C55 UNL A   1      24.425  36.504  45.999  1.00  0.00    +0.000 C 
ATOM     87  C56 UNL A   1      23.206  37.166  45.565  1.00  0.00    +0.000 C 
ATOM     88  C57 UNL A   1      22.447  37.340  46.660  1.00  0.00    +0.000 C 
ATOM     89  C58 UNL A   1      23.216  36.940  47.830  1.00  0.00    +0.000 C 
ATOM     90  N9  UNL A   1      24.560  36.861  47.373  1.00  0.00    +0.000 N 
ATOM     91  C59 UNL A   1      23.908  33.450  43.950  1.00  0.00    +0.000 C 
ATOM     92  C60 UNL A   1      22.645  33.028  43.774  1.00  0.00    +0.000 C 
ATOM     93  C61 UNL A   1      19.503  36.511  50.534  1.00  0.00    +0.000 C 
ATOM     94  C62 UNL A   1      20.813  36.685  50.724  1.00  0.00    +0.000 C 
ENDROOT
BRANCH   38   37
ATOM     34  C21 UNL A   1      24.977  36.435  52.520  1.00  0.00    +0.000 C 
ATOM     35  C22 UNL A   1      24.985  37.656  51.827  1.00  0.00    +0.000 C 
ATOM     36  C23 UNL A   1      24.351  37.734  50.597  1.00  0.00    +0.000 C 
ATOM    131  H27 UNL A   1      25.455  38.482  52.226  1.00  0.00    +0.000 H 
ATOM    132  H28 UNL A   1      24.370  38.600  50.038  1.00  0.00    +0.000 H 
ATOM     37  C24 UNL A   1      23.691  36.598  50.150  1.00  0.00    +0.000 C 
ATOM    143  H39 UNL A   1      23.479  34.500  50.315  1.00  0.00    +0.000 H 
ATOM    144  H40 UNL A   1      24.985  34.340  52.221  1.00  0.00    +0.000 H 
ATOM     95  C63 UNL A   1      23.897  35.347  50.733  1.00  0.00    +0.000 C 
ATOM     96  C64 UNL A   1      24.659  35.253  51.866  1.00  0.00    +0.000 C 
BRANCH   34   32
ATOM     33  O7  UNL A   1      25.847  36.688  54.683  1.00  0.00    +0.000 O 
ATOM     32  C20 UNL A   1      24.846  36.539  53.992  1.00  0.00    +0.000 C 
BRANCH   32   31
ATOM    130  H26 UNL A   1      23.549  36.565  55.530  1.00  0.00    +0.000 H 
ATOM     31  N5  UNL A   1      23.590  36.679  54.553  1.00  0.00    +0.000 N 
BRANCH   31   30
ATOM    129  H25 UNL A   1      21.628  36.209  54.203  1.00  0.00    +0.000 H 
ATOM     30  C19 UNL A   1      22.319  36.971  53.906  1.00  0.00    +0.000 C 
ATOM    128  H24 UNL A   1      22.471  36.983  52.847  1.00  0.00    +0.000 H 
BRANCH   30   29
ATOM     29  C18 UNL A   1      21.728  38.305  54.324  1.00  0.00    +0.000 C 
ATOM    126  H22 UNL A   1      20.677  38.281  54.126  1.00  0.00    +0.000 H 
ATOM    127  H23 UNL A   1      21.954  38.427  55.362  1.00  0.00    +0.000 H 
BRANCH   29   28
ATOM    124  H20 UNL A   1      22.038  40.390  54.142  1.00  0.00    +0.000 H 
ATOM     28  C17 UNL A   1      22.325  39.512  53.601  1.00  0.00    +0.000 C 
ATOM    125  H21 UNL A   1      23.379  39.338  53.574  1.00  0.00    +0.000 H 
BRANCH   28   27
ATOM    122  H18 UNL A   1      22.674  40.242  51.638  1.00  0.00    +0.000 H 
ATOM     27  C16 UNL A   1      21.899  39.701  52.138  1.00  0.00    +0.000 C 
ATOM    123  H19 UNL A   1      21.738  38.716  51.753  1.00  0.00    +0.000 H 
BRANCH   27   26
ATOM    121  H17 UNL A   1      20.690  41.399  52.408  1.00  0.00    +0.000 H 
ATOM     26  C15 UNL A   1      20.586  40.453  51.919  1.00  0.00    +0.000 C 
ATOM    120  H16 UNL A   1      19.790  39.862  52.320  1.00  0.00    +0.000 H 
BRANCH   26   25
ATOM     25  C14 UNL A   1      20.270  40.751  50.461  1.00  0.00    +0.000 C 
ATOM    118  H14 UNL A   1      21.034  41.391  50.070  1.00  0.00    +0.000 H 
ATOM    119  H15 UNL A   1      20.228  39.814  49.947  1.00  0.00    +0.000 H 
BRANCH   25   24
ATOM    117  H13 UNL A   1      18.445  41.064  49.529  1.00  0.00    +0.000 H 
ATOM     24  N4  UNL A   1      18.992  41.398  50.275  1.00  0.00    +0.000 N 
BRANCH   24   22
ATOM     22  C13 UNL A   1      18.450  42.417  51.005  1.00  0.00    +0.000 C 
ATOM     23  O6  UNL A   1      17.325  42.243  51.482  1.00  0.00    +0.000 O 
BRANCH   22   21
ATOM    115  H11 UNL A   1      18.572  44.392  51.796  1.00  0.00    +0.000 H 
ATOM    116  H12 UNL A   1      20.138  43.586  51.469  1.00  0.00    +0.000 H 
ATOM     21  C12 UNL A   1      19.145  43.788  51.124  1.00  0.00    +0.000 C 
BRANCH   21   20
ATOM    114  H10 UNL A   1      18.568  44.380  49.228  1.00  0.00    +0.000 H 
ATOM     20  N3  UNL A   1      19.294  44.521  49.876  1.00  0.00    +0.000 N 
BRANCH   20   18
ATOM     18  C11 UNL A   1      20.276  45.370  49.459  1.00  0.00    +0.000 C 
ATOM     19  O5  UNL A   1      19.966  46.258  48.660  1.00  0.00    +0.000 O 
BRANCH   18   17
ATOM     17  C10 UNL A   1      21.726  45.233  49.954  1.00  0.00    +0.000 C 
ATOM    113  H9  UNL A   1      22.094  44.314  49.552  1.00  0.00    +0.000 H 
ATOM    112  H8  UNL A   1      21.714  45.255  51.024  1.00  0.00    +0.000 H 
BRANCH   17   16
ATOM    111  H7  UNL A   1      22.968  46.873  50.203  1.00  0.00    +0.000 H 
ATOM     16  N2  UNL A   1      22.640  46.280  49.489  1.00  0.00    +0.000 N 
BRANCH   16   14
ATOM     14  C9  UNL A   1      23.123  46.586  48.232  1.00  0.00    +0.000 C 
ATOM     15  O4  UNL A   1      23.185  47.765  47.899  1.00  0.00    +0.000 O 
BRANCH   14   12
ATOM     12  C8  UNL A   1      23.575  45.467  47.268  1.00  0.00    +0.000 C 
ATOM     13  O3  UNL A   1      23.005  45.402  46.183  1.00  0.00    +0.000 O 
BRANCH   12   11
ATOM     97  C65 UNL A   1      24.414  43.120  47.931  1.00  0.00    +0.000 C 
ATOM     98  C66 UNL A   1      23.248  42.331  48.056  1.00  0.00    +0.000 C 
ATOM     99  C67 UNL A   1      23.346  40.972  48.357  1.00  0.00    +0.000 C 
ATOM    100  C68 UNL A   1      24.589  40.388  48.555  1.00  0.00    +0.000 C 
ATOM    101  C69 UNL A   1      25.761  41.143  48.468  1.00  0.00    +0.000 C 
ATOM    102  C70 UNL A   1      25.656  42.509  48.146  1.00  0.00    +0.000 C 
ATOM      9  N1  UNL A   1      26.598  43.493  47.935  1.00  0.00    +0.000 N 
ATOM     10  C6  UNL A   1      26.006  44.692  47.610  1.00  0.00    +0.000 C 
ATOM     11  C7  UNL A   1      24.635  44.503  47.589  1.00  0.00    +0.000 C 
ATOM    110  H6  UNL A   1      26.498  45.578  47.414  1.00  0.00    +0.000 H 
ATOM    145  H41 UNL A   1      22.319  42.762  47.923  1.00  0.00    +0.000 H 
ATOM    146  H42 UNL A   1      22.491  40.400  48.433  1.00  0.00    +0.000 H 
ATOM    147  H43 UNL A   1      24.648  39.381  48.771  1.00  0.00    +0.000 H 
ATOM    148  H44 UNL A   1      26.683  40.710  48.636  1.00  0.00    +0.000 H 
BRANCH    9    6
ATOM      6  S1  UNL A   1      28.285  43.238  47.960  1.00  0.00    +0.000 S 
ATOM      7  O1  UNL A   1      28.598  42.898  49.329  1.00  0.00    +0.000 O 
ATOM      8  O2  UNL A   1      28.867  44.399  47.300  1.00  0.00    +0.000 O 
BRANCH    6    5
ATOM      2  C2  UNL A   1      29.282  39.731  45.198  1.00  0.00    +0.000 C 
ATOM      3  C3  UNL A   1      28.615  40.867  44.726  1.00  0.00    +0.000 C 
ATOM      4  C4  UNL A   1      28.301  41.914  45.594  1.00  0.00    +0.000 C 
ATOM      5  C5  UNL A   1      28.643  41.825  46.950  1.00  0.00    +0.000 C 
ATOM    103  C71 UNL A   1      29.271  40.678  47.438  1.00  0.00    +0.000 C 
ATOM    104  C72 UNL A   1      29.599  39.642  46.559  1.00  0.00    +0.000 C 
ATOM    108  H4  UNL A   1      28.354  40.931  43.730  1.00  0.00    +0.000 H 
ATOM    109  H5  UNL A   1      27.818  42.753  45.238  1.00  0.00    +0.000 H 
ATOM    149  H45 UNL A   1      29.493  40.596  48.443  1.00  0.00    +0.000 H 
ATOM    150  H46 UNL A   1      30.080  38.802  46.917  1.00  0.00    +0.000 H 
BRANCH    2    1
ATOM      1  C1  UNL A   1      29.646  38.627  44.249  1.00  0.00    +0.000 C 
ATOM    106  H2  UNL A   1      29.982  39.046  43.324  1.00  0.00    +0.000 H 
ATOM    107  H3  UNL A   1      28.788  38.012  44.071  1.00  0.00    +0.000 H 
ATOM    105  H1  UNL A   1      30.428  38.033  44.676  1.00  0.00    +0.000 H 
ENDBRANCH    2    1
ENDBRANCH    6    5
ENDBRANCH    9    6
ENDBRANCH   12   11
ENDBRANCH   14   12
ENDBRANCH   16   14
ENDBRANCH   17   16
ENDBRANCH   18   17
ENDBRANCH   20   18
ENDBRANCH   21   20
ENDBRANCH   22   21
ENDBRANCH   24   22
ENDBRANCH   25   24
ENDBRANCH   26   25
ENDBRANCH   27   26
ENDBRANCH   28   27
ENDBRANCH   29   28
ENDBRANCH   30   29
ENDBRANCH   31   30
ENDBRANCH   32   31
ENDBRANCH   34   32
ENDBRANCH   38   37
BRANCH   42   43
ATOM     43  C29 UNL A   1      16.782  36.797  48.708  1.00  0.00    +0.000 C 
ATOM     44  C30 UNL A   1      16.701  37.881  49.613  1.00  0.00    +0.000 C 
ATOM     45  F1  UNL A   1      17.798  38.494  50.073  1.00  0.00    +0.000 F 
ATOM     46  C31 UNL A   1      15.486  38.386  50.082  1.00  0.00    +0.000 C 
ATOM     47  F2  UNL A   1      15.483  39.408  50.949  1.00  0.00    +0.000 F 
ATOM     48  C32 UNL A   1      14.294  37.833  49.666  1.00  0.00    +0.000 C 
ATOM     49  F3  UNL A   1      13.129  38.302  50.132  1.00  0.00    +0.000 F 
ATOM     50  C33 UNL A   1      14.321  36.810  48.742  1.00  0.00    +0.000 C 
ATOM     51  F4  UNL A   1      13.169  36.277  48.308  1.00  0.00    +0.000 F 
ATOM     52  C34 UNL A   1      15.538  36.330  48.244  1.00  0.00    +0.000 C 
ATOM     53  F5  UNL A   1      15.447  35.437  47.255  1.00  0.00    +0.000 F 
ENDBRANCH   42   43
BRANCH   59   60
ATOM     65  C43 UNL A   1      17.960  30.241  43.461  1.00  0.00    +0.000 C 
ATOM     66  F8  UNL A   1      17.253  29.192  43.023  1.00  0.00    +0.000 F 
ATOM     67  C44 UNL A   1      18.900  30.078  44.454  1.00  0.00    +0.000 C 
ATOM     68  F9  UNL A   1      19.149  28.859  44.952  1.00  0.00    +0.000 F 
ATOM     69  C45 UNL A   1      19.609  31.178  44.931  1.00  0.00    +0.000 C 
ATOM     70  F10 UNL A   1      20.473  30.914  45.922  1.00  0.00    +0.000 F 
ATOM     60  C40 UNL A   1      19.461  32.481  44.388  1.00  0.00    +0.000 C 
ATOM     61  C41 UNL A   1      18.546  32.580  43.328  1.00  0.00    +0.000 C 
ATOM     62  F6  UNL A   1      18.409  33.707  42.619  1.00  0.00    +0.000 F 
ATOM     63  C42 UNL A   1      17.775  31.492  42.908  1.00  0.00    +0.000 C 
ATOM     64  F7  UNL A   1      16.868  31.662  41.935  1.00  0.00    +0.000 F 
ENDBRANCH   59   60
BRANCH   74   75
ATOM     75  C49 UNL A   1      26.011  34.771  46.342  1.00  0.00    +0.000 C 
ATOM     76  C50 UNL A   1      25.809  33.592  47.091  1.00  0.00    +0.000 C 
ATOM     77  F11 UNL A   1      24.566  33.238  47.456  1.00  0.00    +0.000 F 
ATOM     78  C51 UNL A   1      26.853  32.704  47.336  1.00  0.00    +0.000 C 
ATOM     79  F12 UNL A   1      26.601  31.520  47.913  1.00  0.00    +0.000 F 
ATOM     80  C52 UNL A   1      28.132  33.006  46.901  1.00  0.00    +0.000 C 
ATOM     81  F13 UNL A   1      29.116  32.107  47.036  1.00  0.00    +0.000 F 
ATOM     82  C53 UNL A   1      28.378  34.227  46.289  1.00  0.00    +0.000 C 
ATOM     83  F14 UNL A   1      29.619  34.518  45.870  1.00  0.00    +0.000 F 
ATOM     84  C54 UNL A   1      27.329  35.108  46.012  1.00  0.00    +0.000 C 
ATOM     85  F15 UNL A   1      27.591  36.222  45.314  1.00  0.00    +0.000 F 
ENDBRANCH   74   75
TORSDOF 25
ENDMDL
MODEL 5
REMARK VINA RESULT:      -8.0     24.283     30.651
ROOT
ATOM    133  H29 UNL A   1      18.774  38.233  46.006  1.00  0.00    +0.000 H 
ATOM    134  H30 UNL A   1      20.226  36.950  44.232  1.00  0.00    +0.000 H 
ATOM    135  H31 UNL A   1      19.532  34.415  47.427  1.00  0.00    +0.000 H 
ATOM    136  H32 UNL A   1      23.053  38.211  44.500  1.00  0.00    +0.000 H 
ATOM    137  H33 UNL A   1      21.654  38.416  46.636  1.00  0.00    +0.000 H 
ATOM    138  H34 UNL A   1      25.667  38.179  47.659  1.00  0.00    +0.000 H 
ATOM    139  H35 UNL A   1      25.217  34.054  43.464  1.00  0.00    +0.000 H 
ATOM    140  H36 UNL A   1      22.892  32.968  43.249  1.00  0.00    +0.000 H 
ATOM    141  H37 UNL A   1      19.322  37.295  51.423  1.00  0.00    +0.000 H 
ATOM    142  H38 UNL A   1      21.820  37.893  51.580  1.00  0.00    +0.000 H 
ATOM     38  C25 UNL A   1      23.156  37.551  48.987  1.00  0.00    +0.000 C 
ATOM     39  C26 UNL A   1      21.784  37.253  49.413  1.00  0.00    +0.000 C 
ATOM     40  N6  UNL A   1      20.908  36.672  48.677  1.00  0.00    +0.000 N 
ATOM     41  C27 UNL A   1      19.692  36.802  49.315  1.00  0.00    +0.000 C 
ATOM     42  C28 UNL A   1      18.561  36.699  48.561  1.00  0.00    +0.000 C 
ATOM     54  C35 UNL A   1      18.928  36.423  47.174  1.00  0.00    +0.000 C 
ATOM     55  C36 UNL A   1      19.128  37.268  46.096  1.00  0.00    +0.000 C 
ATOM     56  C37 UNL A   1      19.905  36.573  45.137  1.00  0.00    +0.000 C 
ATOM     57  C38 UNL A   1      20.159  35.301  45.624  1.00  0.00    +0.000 C 
ATOM     58  N7  UNL A   1      19.539  35.217  46.856  1.00  0.00    +0.000 N 
ATOM     59  C39 UNL A   1      20.851  34.158  45.052  1.00  0.00    +0.000 C 
ATOM     71  C46 UNL A   1      22.176  34.368  44.786  1.00  0.00    +0.000 C 
ATOM     72  N8  UNL A   1      22.899  35.343  45.422  1.00  0.00    +0.000 N 
ATOM     73  C47 UNL A   1      24.127  35.327  44.979  1.00  0.00    +0.000 C 
ATOM     74  C48 UNL A   1      25.192  36.292  45.438  1.00  0.00    +0.000 C 
ATOM     86  C55 UNL A   1      24.666  37.482  45.854  1.00  0.00    +0.000 C 
ATOM     87  C56 UNL A   1      23.366  38.001  45.461  1.00  0.00    +0.000 C 
ATOM     88  C57 UNL A   1      22.651  38.154  46.588  1.00  0.00    +0.000 C 
ATOM     89  C58 UNL A   1      23.515  37.888  47.730  1.00  0.00    +0.000 C 
ATOM     90  N9  UNL A   1      24.835  37.918  47.202  1.00  0.00    +0.000 N 
ATOM     91  C59 UNL A   1      24.351  34.297  43.973  1.00  0.00    +0.000 C 
ATOM     92  C60 UNL A   1      23.128  33.746  43.886  1.00  0.00    +0.000 C 
ATOM     93  C61 UNL A   1      20.006  37.233  50.652  1.00  0.00    +0.000 C 
ATOM     94  C62 UNL A   1      21.300  37.543  50.761  1.00  0.00    +0.000 C 
ENDROOT
BRANCH   38   37
ATOM     34  C21 UNL A   1      25.552  37.792  52.332  1.00  0.00    +0.000 C 
ATOM     35  C22 UNL A   1      25.414  38.968  51.578  1.00  0.00    +0.000 C 
ATOM     36  C23 UNL A   1      24.715  38.920  50.383  1.00  0.00    +0.000 C 
ATOM    131  H27 UNL A   1      25.827  39.854  51.908  1.00  0.00    +0.000 H 
ATOM    132  H28 UNL A   1      24.626  39.753  49.780  1.00  0.00    +0.000 H 
ATOM     37  C24 UNL A   1      24.139  37.708  50.032  1.00  0.00    +0.000 C 
ATOM    143  H39 UNL A   1      24.128  35.612  50.316  1.00  0.00    +0.000 H 
ATOM    144  H40 UNL A   1      25.737  35.692  52.141  1.00  0.00    +0.000 H 
ATOM     95  C63 UNL A   1      24.488  36.514  50.667  1.00  0.00    +0.000 C 
ATOM     96  C64 UNL A   1      25.311  36.552  51.759  1.00  0.00    +0.000 C 
BRANCH   34   32
ATOM     33  O7  UNL A   1      25.641  36.997  54.537  1.00  0.00    +0.000 O 
ATOM     32  C20 UNL A   1      25.487  37.966  53.802  1.00  0.00    +0.000 C 
BRANCH   32   31
ATOM    130  H26 UNL A   1      26.340  39.597  54.616  1.00  0.00    +0.000 H 
ATOM     31  N5  UNL A   1      25.466  39.243  54.334  1.00  0.00    +0.000 N 
BRANCH   31   30
ATOM    129  H25 UNL A   1      24.096  40.117  55.578  1.00  0.00    +0.000 H 
ATOM     30  C19 UNL A   1      24.337  40.138  54.535  1.00  0.00    +0.000 C 
ATOM    128  H24 UNL A   1      23.522  39.801  53.929  1.00  0.00    +0.000 H 
BRANCH   30   29
ATOM     29  C18 UNL A   1      24.645  41.579  54.172  1.00  0.00    +0.000 C 
ATOM    126  H22 UNL A   1      24.514  42.180  55.048  1.00  0.00    +0.000 H 
ATOM    127  H23 UNL A   1      25.648  41.594  53.802  1.00  0.00    +0.000 H 
BRANCH   29   28
ATOM    124  H20 UNL A   1      22.972  41.454  52.882  1.00  0.00    +0.000 H 
ATOM     28  C17 UNL A   1      23.762  42.152  53.063  1.00  0.00    +0.000 C 
ATOM    125  H21 UNL A   1      23.434  43.105  53.420  1.00  0.00    +0.000 H 
BRANCH   28   27
ATOM    122  H18 UNL A   1      24.241  41.616  51.064  1.00  0.00    +0.000 H 
ATOM     27  C16 UNL A   1      24.459  42.430  51.722  1.00  0.00    +0.000 C 
ATOM    123  H19 UNL A   1      24.079  43.373  51.388  1.00  0.00    +0.000 H 
BRANCH   27   26
ATOM    121  H17 UNL A   1      26.392  41.821  51.165  1.00  0.00    +0.000 H 
ATOM     26  C15 UNL A   1      25.978  42.591  51.783  1.00  0.00    +0.000 C 
ATOM    120  H16 UNL A   1      26.283  42.514  52.805  1.00  0.00    +0.000 H 
BRANCH   26   25
ATOM     25  C14 UNL A   1      26.491  43.914  51.231  1.00  0.00    +0.000 C 
ATOM    118  H14 UNL A   1      27.081  43.713  50.361  1.00  0.00    +0.000 H 
ATOM    119  H15 UNL A   1      25.636  44.517  51.007  1.00  0.00    +0.000 H 
BRANCH   25   24
ATOM    117  H13 UNL A   1      28.250  44.749  51.940  1.00  0.00    +0.000 H 
ATOM     24  N4  UNL A   1      27.299  44.649  52.174  1.00  0.00    +0.000 N 
BRANCH   24   22
ATOM     22  C13 UNL A   1      26.910  45.223  53.351  1.00  0.00    +0.000 C 
ATOM     23  O6  UNL A   1      27.301  44.702  54.399  1.00  0.00    +0.000 O 
BRANCH   22   21
ATOM    115  H11 UNL A   1      25.976  46.855  54.353  1.00  0.00    +0.000 H 
ATOM    116  H12 UNL A   1      26.189  47.047  52.585  1.00  0.00    +0.000 H 
ATOM     21  C12 UNL A   1      25.911  46.397  53.388  1.00  0.00    +0.000 C 
BRANCH   21   20
ATOM    114  H10 UNL A   1      24.107  45.506  53.869  1.00  0.00    +0.000 H 
ATOM     20  N3  UNL A   1      24.520  46.039  53.153  1.00  0.00    +0.000 N 
BRANCH   20   18
ATOM     18  C11 UNL A   1      23.698  46.320  52.103  1.00  0.00    +0.000 C 
ATOM     19  O5  UNL A   1      22.902  45.447  51.747  1.00  0.00    +0.000 O 
BRANCH   18   17
ATOM     17  C10 UNL A   1      23.755  47.673  51.372  1.00  0.00    +0.000 C 
ATOM    113  H9  UNL A   1      24.486  48.260  51.886  1.00  0.00    +0.000 H 
ATOM    112  H8  UNL A   1      22.775  48.102  51.392  1.00  0.00    +0.000 H 
BRANCH   17   16
ATOM    111  H7  UNL A   1      23.558  47.999  49.335  1.00  0.00    +0.000 H 
ATOM     16  N2  UNL A   1      24.193  47.603  49.976  1.00  0.00    +0.000 N 
BRANCH   16   14
ATOM     14  C9  UNL A   1      25.333  47.084  49.394  1.00  0.00    +0.000 C 
ATOM     15  O4  UNL A   1      26.397  47.192  49.993  1.00  0.00    +0.000 O 
BRANCH   14   12
ATOM     12  C8  UNL A   1      25.267  46.386  48.018  1.00  0.00    +0.000 C 
ATOM     13  O3  UNL A   1      24.989  47.086  47.050  1.00  0.00    +0.000 O 
BRANCH   12   11
ATOM     97  C65 UNL A   1      24.558  43.906  48.078  1.00  0.00    +0.000 C 
ATOM     98  C66 UNL A   1      23.221  43.913  48.535  1.00  0.00    +0.000 C 
ATOM     99  C67 UNL A   1      22.505  42.721  48.634  1.00  0.00    +0.000 C 
ATOM    100  C68 UNL A   1      23.105  41.515  48.303  1.00  0.00    +0.000 C 
ATOM    101  C69 UNL A   1      24.434  41.466  47.876  1.00  0.00    +0.000 C 
ATOM    102  C70 UNL A   1      25.146  42.675  47.761  1.00  0.00    +0.000 C 
ATOM      9  N1  UNL A   1      26.421  42.969  47.326  1.00  0.00    +0.000 N 
ATOM     10  C6  UNL A   1      26.664  44.323  47.367  1.00  0.00    +0.000 C 
ATOM     11  C7  UNL A   1      25.519  44.952  47.827  1.00  0.00    +0.000 C 
ATOM    110  H6  UNL A   1      27.545  44.789  47.101  1.00  0.00    +0.000 H 
ATOM    145  H41 UNL A   1      22.773  44.806  48.795  1.00  0.00    +0.000 H 
ATOM    146  H42 UNL A   1      21.524  42.736  48.955  1.00  0.00    +0.000 H 
ATOM    147  H43 UNL A   1      22.562  40.640  48.375  1.00  0.00    +0.000 H 
ATOM    148  H44 UNL A   1      24.885  40.565  47.649  1.00  0.00    +0.000 H 
BRANCH    9    6
ATOM      6  S1  UNL A   1      27.521  41.821  46.708  1.00  0.00    +0.000 S 
ATOM      7  O1  UNL A   1      28.730  42.563  46.432  1.00  0.00    +0.000 O 
ATOM      8  O2  UNL A   1      26.797  41.107  45.664  1.00  0.00    +0.000 O 
BRANCH    6    5
ATOM      2  C2  UNL A   1      28.561  38.693  49.879  1.00  0.00    +0.000 C 
ATOM      3  C3  UNL A   1      28.150  38.323  48.593  1.00  0.00    +0.000 C 
ATOM      4  C4  UNL A   1      27.815  39.296  47.651  1.00  0.00    +0.000 C 
ATOM      5  C5  UNL A   1      27.878  40.653  47.994  1.00  0.00    +0.000 C 
ATOM    103  C71 UNL A   1      28.247  41.030  49.286  1.00  0.00    +0.000 C 
ATOM    104  C72 UNL A   1      28.599  40.051  50.219  1.00  0.00    +0.000 C 
ATOM    108  H4  UNL A   1      28.094  37.323  48.341  1.00  0.00    +0.000 H 
ATOM    109  H5  UNL A   1      27.522  39.017  46.702  1.00  0.00    +0.000 H 
ATOM    149  H45 UNL A   1      28.260  42.028  49.551  1.00  0.00    +0.000 H 
ATOM    150  H46 UNL A   1      28.889  40.331  51.169  1.00  0.00    +0.000 H 
BRANCH    2    1
ATOM      1  C1  UNL A   1      28.952  37.639  50.873  1.00  0.00    +0.000 C 
ATOM    106  H2  UNL A   1      29.511  38.088  51.668  1.00  0.00    +0.000 H 
ATOM    107  H3  UNL A   1      29.553  36.897  50.390  1.00  0.00    +0.000 H 
ATOM    105  H1  UNL A   1      28.071  37.180  51.272  1.00  0.00    +0.000 H 
ENDBRANCH    2    1
ENDBRANCH    6    5
ENDBRANCH    9    6
ENDBRANCH   12   11
ENDBRANCH   14   12
ENDBRANCH   16   14
ENDBRANCH   17   16
ENDBRANCH   18   17
ENDBRANCH   20   18
ENDBRANCH   21   20
ENDBRANCH   22   21
ENDBRANCH   24   22
ENDBRANCH   25   24
ENDBRANCH   26   25
ENDBRANCH   27   26
ENDBRANCH   28   27
ENDBRANCH   29   28
ENDBRANCH   30   29
ENDBRANCH   31   30
ENDBRANCH   32   31
ENDBRANCH   34   32
ENDBRANCH   38   37
BRANCH   42   43
ATOM     43  C29 UNL A   1      17.180  37.164  48.970  1.00  0.00    +0.000 C 
ATOM     44  C30 UNL A   1      17.033  38.341  49.741  1.00  0.00    +0.000 C 
ATOM     45  F1  UNL A   1      18.076  39.131  50.022  1.00  0.00    +0.000 F 
ATOM     46  C31 UNL A   1      15.803  38.760  50.255  1.00  0.00    +0.000 C 
ATOM     47  F2  UNL A   1      15.738  39.879  50.989  1.00  0.00    +0.000 F 
ATOM     48  C32 UNL A   1      14.662  38.024  50.020  1.00  0.00    +0.000 C 
ATOM     49  F3  UNL A   1      13.486  38.413  50.530  1.00  0.00    +0.000 F 
ATOM     50  C33 UNL A   1      14.746  36.900  49.226  1.00  0.00    +0.000 C 
ATOM     51  F4  UNL A   1      13.641  36.185  48.967  1.00  0.00    +0.000 F 
ATOM     52  C34 UNL A   1      15.973  36.501  48.681  1.00  0.00    +0.000 C 
ATOM     53  F5  UNL A   1      15.919  35.482  47.819  1.00  0.00    +0.000 F 
ENDBRANCH   42   43
BRANCH   59   60
ATOM     65  C43 UNL A   1      18.735  30.505  43.957  1.00  0.00    +0.000 C 
ATOM     66  F8  UNL A   1      18.114  29.372  43.605  1.00  0.00    +0.000 F 
ATOM     67  C44 UNL A   1      19.735  30.483  44.903  1.00  0.00    +0.000 C 
ATOM     68  F9  UNL A   1      20.128  29.320  45.440  1.00  0.00    +0.000 F 
ATOM     69  C45 UNL A   1      20.355  31.669  45.291  1.00  0.00    +0.000 C 
ATOM     70  F10 UNL A   1      21.289  31.539  46.244  1.00  0.00    +0.000 F 
ATOM     60  C40 UNL A   1      20.051  32.923  44.700  1.00  0.00    +0.000 C 
ATOM     61  C41 UNL A   1      19.079  32.880  43.688  1.00  0.00    +0.000 C 
ATOM     62  F6  UNL A   1      18.795  33.953  42.938  1.00  0.00    +0.000 F 
ATOM     63  C42 UNL A   1      18.400  31.703  43.359  1.00  0.00    +0.000 C 
ATOM     64  F7  UNL A   1      17.432  31.737  42.431  1.00  0.00    +0.000 F 
ENDBRANCH   59   60
BRANCH   74   75
ATOM     75  C49 UNL A   1      26.431  35.931  46.184  1.00  0.00    +0.000 C 
ATOM     76  C50 UNL A   1      26.317  34.955  47.197  1.00  0.00    +0.000 C 
ATOM     77  F11 UNL A   1      25.125  34.729  47.775  1.00  0.00    +0.000 F 
ATOM     78  C51 UNL A   1      27.379  34.112  47.513  1.00  0.00    +0.000 C 
ATOM     79  F12 UNL A   1      27.193  33.095  48.367  1.00  0.00    +0.000 F 
ATOM     80  C52 UNL A   1      28.597  34.270  46.875  1.00  0.00    +0.000 C 
ATOM     81  F13 UNL A   1      29.587  33.394  47.094  1.00  0.00    +0.000 F 
ATOM     82  C53 UNL A   1      28.773  35.316  45.980  1.00  0.00    +0.000 C 
ATOM     83  F14 UNL A   1      29.956  35.468  45.365  1.00  0.00    +0.000 F 
ATOM     84  C54 UNL A   1      27.702  36.145  45.636  1.00  0.00    +0.000 C 
ATOM     85  F15 UNL A   1      27.882  37.066  44.679  1.00  0.00    +0.000 F 
ENDBRANCH   74   75
TORSDOF 25
ENDMDL
MODEL 6
REMARK VINA RESULT:      -8.0     40.249     45.192
ROOT
ATOM    133  H29 UNL A   1       9.897  44.988   7.455  1.00  0.00    +0.000 H 
ATOM    134  H30 UNL A   1      12.316  44.964   8.481  1.00  0.00    +0.000 H 
ATOM    135  H31 UNL A   1      10.492  48.527   9.529  1.00  0.00    +0.000 H 
ATOM    136  H32 UNL A   1      14.186  45.431   6.043  1.00  0.00    +0.000 H 
ATOM    137  H33 UNL A   1      11.827  46.368   5.695  1.00  0.00    +0.000 H 
ATOM    138  H34 UNL A   1      14.536  48.685   3.572  1.00  0.00    +0.000 H 
ATOM    139  H35 UNL A   1      17.350  47.879   8.695  1.00  0.00    +0.000 H 
ATOM    140  H36 UNL A   1      15.820  47.527  10.735  1.00  0.00    +0.000 H 
ATOM    141  H37 UNL A   1       7.510  49.679   5.776  1.00  0.00    +0.000 H 
ATOM    142  H38 UNL A   1       9.311  50.336   4.059  1.00  0.00    +0.000 H 
ATOM     38  C25 UNL A   1      11.902  49.124   4.727  1.00  0.00    +0.000 C 
ATOM     39  C26 UNL A   1      10.620  49.118   5.442  1.00  0.00    +0.000 C 
ATOM     40  N6  UNL A   1      10.443  48.609   6.606  1.00  0.00    +0.000 N 
ATOM     41  C27 UNL A   1       9.083  48.563   6.827  1.00  0.00    +0.000 C 
ATOM     42  C28 UNL A   1       8.613  47.671   7.743  1.00  0.00    +0.000 C 
ATOM     54  C35 UNL A   1       9.738  46.953   8.339  1.00  0.00    +0.000 C 
ATOM     55  C36 UNL A   1      10.329  45.744   8.009  1.00  0.00    +0.000 C 
ATOM     56  C37 UNL A   1      11.630  45.729   8.568  1.00  0.00    +0.000 C 
ATOM     57  C38 UNL A   1      11.821  46.918   9.253  1.00  0.00    +0.000 C 
ATOM     58  N7  UNL A   1      10.653  47.644   9.123  1.00  0.00    +0.000 N 
ATOM     59  C39 UNL A   1      12.930  47.417  10.051  1.00  0.00    +0.000 C 
ATOM     71  C46 UNL A   1      14.101  47.573   9.364  1.00  0.00    +0.000 C 
ATOM     72  N8  UNL A   1      14.131  47.725   8.001  1.00  0.00    +0.000 N 
ATOM     73  C47 UNL A   1      15.369  47.850   7.609  1.00  0.00    +0.000 C 
ATOM     74  C48 UNL A   1      15.775  47.999   6.163  1.00  0.00    +0.000 C 
ATOM     86  C55 UNL A   1      14.877  47.420   5.312  1.00  0.00    +0.000 C 
ATOM     87  C56 UNL A   1      13.945  46.366   5.677  1.00  0.00    +0.000 C 
ATOM     88  C57 UNL A   1      12.709  46.842   5.448  1.00  0.00    +0.000 C 
ATOM     89  C58 UNL A   1      12.823  48.138   4.792  1.00  0.00    +0.000 C 
ATOM     90  N9  UNL A   1      14.173  48.207   4.353  1.00  0.00    +0.000 N 
ATOM     91  C59 UNL A   1      16.321  47.799   8.712  1.00  0.00    +0.000 C 
ATOM     92  C60 UNL A   1      15.497  47.621   9.759  1.00  0.00    +0.000 C 
ATOM     93  C61 UNL A   1       8.502  49.398   5.807  1.00  0.00    +0.000 C 
ATOM     94  C62 UNL A   1       9.421  49.758   4.907  1.00  0.00    +0.000 C 
ENDROOT
BRANCH   38   37
ATOM     34  C21 UNL A   1      12.735  51.643   1.573  1.00  0.00    +0.000 C 
ATOM     35  C22 UNL A   1      13.031  52.130   2.855  1.00  0.00    +0.000 C 
ATOM     36  C23 UNL A   1      12.669  51.377   3.960  1.00  0.00    +0.000 C 
ATOM    131  H27 UNL A   1      13.511  53.036   2.974  1.00  0.00    +0.000 H 
ATOM    132  H28 UNL A   1      12.832  51.719   4.920  1.00  0.00    +0.000 H 
ATOM     37  C24 UNL A   1      12.079  50.144   3.722  1.00  0.00    +0.000 C 
ATOM    143  H39 UNL A   1      11.053  48.916   2.338  1.00  0.00    +0.000 H 
ATOM    144  H40 UNL A   1      11.312  50.496   0.505  1.00  0.00    +0.000 H 
ATOM     95  C63 UNL A   1      11.584  49.793   2.465  1.00  0.00    +0.000 C 
ATOM     96  C64 UNL A   1      11.810  50.623   1.400  1.00  0.00    +0.000 C 
BRANCH   34   32
ATOM     33  O7  UNL A   1      14.071  53.069   0.276  1.00  0.00    +0.000 O 
ATOM     32  C20 UNL A   1      13.758  51.912   0.537  1.00  0.00    +0.000 C 
BRANCH   32   31
ATOM    130  H26 UNL A   1      14.704  50.917  -0.935  1.00  0.00    +0.000 H 
ATOM     31  N5  UNL A   1      14.500  50.862   0.027  1.00  0.00    +0.000 N 
BRANCH   31   30
ATOM    129  H25 UNL A   1      14.418  49.528   1.576  1.00  0.00    +0.000 H 
ATOM     30  C19 UNL A   1      15.024  49.688   0.708  1.00  0.00    +0.000 C 
ATOM    128  H24 UNL A   1      16.047  49.870   0.962  1.00  0.00    +0.000 H 
BRANCH   30   29
ATOM     29  C18 UNL A   1      14.951  48.427  -0.133  1.00  0.00    +0.000 C 
ATOM    126  H22 UNL A   1      15.417  47.634   0.414  1.00  0.00    +0.000 H 
ATOM    127  H23 UNL A   1      13.914  48.248  -0.326  1.00  0.00    +0.000 H 
BRANCH   29   28
ATOM    124  H20 UNL A   1      14.879  48.711  -2.228  1.00  0.00    +0.000 H 
ATOM     28  C17 UNL A   1      15.637  48.537  -1.494  1.00  0.00    +0.000 C 
ATOM    125  H21 UNL A   1      16.344  49.334  -1.396  1.00  0.00    +0.000 H 
BRANCH   28   27
ATOM    122  H18 UNL A   1      16.104  46.468  -1.387  1.00  0.00    +0.000 H 
ATOM     27  C16 UNL A   1      16.452  47.314  -1.940  1.00  0.00    +0.000 C 
ATOM    123  H19 UNL A   1      16.301  47.235  -2.997  1.00  0.00    +0.000 H 
BRANCH   27   26
ATOM    121  H17 UNL A   1      18.374  46.470  -2.037  1.00  0.00    +0.000 H 
ATOM     26  C15 UNL A   1      17.965  47.414  -1.742  1.00  0.00    +0.000 C 
ATOM    120  H16 UNL A   1      18.153  47.648  -0.716  1.00  0.00    +0.000 H 
BRANCH   26   25
ATOM     25  C14 UNL A   1      18.642  48.470  -2.604  1.00  0.00    +0.000 C 
ATOM    118  H14 UNL A   1      19.442  48.007  -3.144  1.00  0.00    +0.000 H 
ATOM    119  H15 UNL A   1      17.896  48.873  -3.257  1.00  0.00    +0.000 H 
BRANCH   25   24
ATOM    117  H13 UNL A   1      19.976  49.367  -1.296  1.00  0.00    +0.000 H 
ATOM     24  N4  UNL A   1      19.181  49.569  -1.840  1.00  0.00    +0.000 N 
BRANCH   24   22
ATOM     22  C13 UNL A   1      18.725  50.856  -1.776  1.00  0.00    +0.000 C 
ATOM     23  O6  UNL A   1      18.928  51.583  -2.751  1.00  0.00    +0.000 O 
BRANCH   22   21
ATOM    115  H11 UNL A   1      17.380  50.725  -0.129  1.00  0.00    +0.000 H 
ATOM    116  H12 UNL A   1      18.913  51.596   0.186  1.00  0.00    +0.000 H 
ATOM     21  C12 UNL A   1      18.100  51.430  -0.490  1.00  0.00    +0.000 C 
BRANCH   21   20
ATOM    114  H10 UNL A   1      16.504  52.660  -0.958  1.00  0.00    +0.000 H 
ATOM     20  N3  UNL A   1      17.433  52.715  -0.641  1.00  0.00    +0.000 N 
BRANCH   20   18
ATOM     18  C11 UNL A   1      17.887  53.981  -0.416  1.00  0.00    +0.000 C 
ATOM     19  O5  UNL A   1      18.997  54.108   0.107  1.00  0.00    +0.000 O 
BRANCH   18   17
ATOM     17  C10 UNL A   1      17.050  55.216  -0.789  1.00  0.00    +0.000 C 
ATOM    113  H9  UNL A   1      16.336  54.886  -1.512  1.00  0.00    +0.000 H 
ATOM    112  H8  UNL A   1      17.716  55.967  -1.161  1.00  0.00    +0.000 H 
BRANCH   17   16
ATOM    111  H7  UNL A   1      15.304  55.713   0.211  1.00  0.00    +0.000 H 
ATOM     16  N2  UNL A   1      16.280  55.798   0.313  1.00  0.00    +0.000 N 
BRANCH   16   14
ATOM     14  C9  UNL A   1      16.673  56.444   1.469  1.00  0.00    +0.000 C 
ATOM     15  O4  UNL A   1      17.002  57.623   1.399  1.00  0.00    +0.000 O 
BRANCH   14   12
ATOM     12  C8  UNL A   1      16.698  55.695   2.820  1.00  0.00    +0.000 C 
ATOM     13  O3  UNL A   1      17.661  54.966   3.035  1.00  0.00    +0.000 O 
BRANCH   12   11
ATOM     97  C65 UNL A   1      14.228  55.810   3.553  1.00  0.00    +0.000 C 
ATOM     98  C66 UNL A   1      13.480  55.691   2.359  1.00  0.00    +0.000 C 
ATOM     99  C67 UNL A   1      12.087  55.661   2.402  1.00  0.00    +0.000 C 
ATOM    100  C68 UNL A   1      11.421  55.766   3.614  1.00  0.00    +0.000 C 
ATOM    101  C69 UNL A   1      12.126  55.914   4.812  1.00  0.00    +0.000 C 
ATOM    102  C70 UNL A   1      13.533  55.926   4.764  1.00  0.00    +0.000 C 
ATOM      9  N1  UNL A   1      14.499  55.998   5.745  1.00  0.00    +0.000 N 
ATOM     10  C6  UNL A   1      15.764  55.945   5.206  1.00  0.00    +0.000 C 
ATOM     11  C7  UNL A   1      15.642  55.820   3.833  1.00  0.00    +0.000 C 
ATOM    110  H6  UNL A   1      16.650  55.990   5.734  1.00  0.00    +0.000 H 
ATOM    145  H41 UNL A   1      13.969  55.626   1.452  1.00  0.00    +0.000 H 
ATOM    146  H42 UNL A   1      11.549  55.560   1.527  1.00  0.00    +0.000 H 
ATOM    147  H43 UNL A   1      10.390  55.736   3.632  1.00  0.00    +0.000 H 
ATOM    148  H44 UNL A   1      11.627  56.012   5.711  1.00  0.00    +0.000 H 
BRANCH    9    6
ATOM      6  S1  UNL A   1      14.176  56.034   7.419  1.00  0.00    +0.000 S 
ATOM      7  O1  UNL A   1      13.520  57.300   7.654  1.00  0.00    +0.000 O 
ATOM      8  O2  UNL A   1      15.432  55.682   8.068  1.00  0.00    +0.000 O 
BRANCH    6    5
ATOM      2  C2  UNL A   1      11.355  52.574   8.419  1.00  0.00    +0.000 C 
ATOM      3  C3  UNL A   1      12.526  52.373   7.678  1.00  0.00    +0.000 C 
ATOM      4  C4  UNL A   1      13.358  53.449   7.366  1.00  0.00    +0.000 C 
ATOM      5  C5  UNL A   1      13.016  54.742   7.784  1.00  0.00    +0.000 C 
ATOM    103  C71 UNL A   1      11.830  54.958   8.487  1.00  0.00    +0.000 C 
ATOM    104  C72 UNL A   1      11.011  53.873   8.812  1.00  0.00    +0.000 C 
ATOM    108  H4  UNL A   1      12.775  51.423   7.361  1.00  0.00    +0.000 H 
ATOM    109  H5  UNL A   1      14.224  53.293   6.828  1.00  0.00    +0.000 H 
ATOM    149  H45 UNL A   1      11.559  55.915   8.765  1.00  0.00    +0.000 H 
ATOM    150  H46 UNL A   1      10.143  54.030   9.348  1.00  0.00    +0.000 H 
BRANCH    2    1
ATOM      1  C1  UNL A   1      10.486  51.405   8.779  1.00  0.00    +0.000 C 
ATOM    106  H2  UNL A   1      10.420  50.738   7.945  1.00  0.00    +0.000 H 
ATOM    107  H3  UNL A   1       9.507  51.753   9.034  1.00  0.00    +0.000 H 
ATOM    105  H1  UNL A   1      10.910  50.889   9.615  1.00  0.00    +0.000 H 
ENDBRANCH    2    1
ENDBRANCH    6    5
ENDBRANCH    9    6
ENDBRANCH   12   11
ENDBRANCH   14   12
ENDBRANCH   16   14
ENDBRANCH   17   16
ENDBRANCH   18   17
ENDBRANCH   20   18
ENDBRANCH   21   20
ENDBRANCH   22   21
ENDBRANCH   24   22
ENDBRANCH   25   24
ENDBRANCH   26   25
ENDBRANCH   27   26
ENDBRANCH   28   27
ENDBRANCH   29   28
ENDBRANCH   30   29
ENDBRANCH   31   30
ENDBRANCH   32   31
ENDBRANCH   34   32
ENDBRANCH   38   37
BRANCH   42   43
ATOM     43  C29 UNL A   1       7.180  47.204   7.870  1.00  0.00    +0.000 C 
ATOM     44  C30 UNL A   1       6.258  47.957   8.635  1.00  0.00    +0.000 C 
ATOM     45  F1  UNL A   1       6.586  49.146   9.156  1.00  0.00    +0.000 F 
ATOM     46  C31 UNL A   1       4.957  47.523   8.894  1.00  0.00    +0.000 C 
ATOM     47  F2  UNL A   1       4.140  48.282   9.638  1.00  0.00    +0.000 F 
ATOM     48  C32 UNL A   1       4.512  46.316   8.399  1.00  0.00    +0.000 C 
ATOM     49  F3  UNL A   1       3.271  45.888   8.665  1.00  0.00    +0.000 F 
ATOM     50  C33 UNL A   1       5.356  45.572   7.601  1.00  0.00    +0.000 C 
ATOM     51  F4  UNL A   1       4.931  44.407   7.091  1.00  0.00    +0.000 F 
ATOM     52  C34 UNL A   1       6.648  46.026   7.311  1.00  0.00    +0.000 C 
ATOM     53  F5  UNL A   1       7.331  45.300   6.421  1.00  0.00    +0.000 F 
ENDBRANCH   42   43
BRANCH   59   60
ATOM     65  C43 UNL A   1      12.151  47.855  14.319  1.00  0.00    +0.000 C 
ATOM     66  F8  UNL A   1      11.878  47.982  15.624  1.00  0.00    +0.000 F 
ATOM     67  C44 UNL A   1      12.130  46.615  13.723  1.00  0.00    +0.000 C 
ATOM     68  F9  UNL A   1      11.786  45.532  14.434  1.00  0.00    +0.000 F 
ATOM     69  C45 UNL A   1      12.447  46.484  12.373  1.00  0.00    +0.000 C 
ATOM     70  F10 UNL A   1      12.431  45.228  11.903  1.00  0.00    +0.000 F 
ATOM     60  C40 UNL A   1      12.733  47.596  11.540  1.00  0.00    +0.000 C 
ATOM     61  C41 UNL A   1      12.668  48.845  12.178  1.00  0.00    +0.000 C 
ATOM     62  F6  UNL A   1      12.765  49.992  11.493  1.00  0.00    +0.000 F 
ATOM     63  C42 UNL A   1      12.431  48.967  13.550  1.00  0.00    +0.000 C 
ATOM     64  F7  UNL A   1      12.447  50.182  14.117  1.00  0.00    +0.000 F 
ENDBRANCH   59   60
BRANCH   74   75
ATOM     75  C49 UNL A   1      16.430  49.197   5.562  1.00  0.00    +0.000 C 
ATOM     76  C50 UNL A   1      17.187  48.999   4.388  1.00  0.00    +0.000 C 
ATOM     77  F11 UNL A   1      17.682  47.782   4.109  1.00  0.00    +0.000 F 
ATOM     78  C51 UNL A   1      17.310  50.003   3.429  1.00  0.00    +0.000 C 
ATOM     79  F12 UNL A   1      17.901  49.737   2.256  1.00  0.00    +0.000 F 
ATOM     80  C52 UNL A   1      16.741  51.244   3.655  1.00  0.00    +0.000 C 
ATOM     81  F13 UNL A   1      16.760  52.176   2.692  1.00  0.00    +0.000 F 
ATOM     82  C53 UNL A   1      16.116  51.503   4.867  1.00  0.00    +0.000 C 
ATOM     83  F14 UNL A   1      15.567  52.708   5.084  1.00  0.00    +0.000 F 
ATOM     84  C54 UNL A   1      15.962  50.491   5.818  1.00  0.00    +0.000 C 
ATOM     85  F15 UNL A   1      15.249  50.749   6.923  1.00  0.00    +0.000 F 
ENDBRANCH   74   75
TORSDOF 25
ENDMDL
MODEL 7
REMARK VINA RESULT:      -8.0      2.195      3.548
ROOT
ATOM    133  H29 UNL A   1      44.844  26.966  27.774  1.00  0.00    +0.000 H 
ATOM    134  H30 UNL A   1      45.537  28.120  30.031  1.00  0.00    +0.000 H 
ATOM    135  H31 UNL A   1      43.012  24.961  30.905  1.00  0.00    +0.000 H 
ATOM    136  H32 UNL A   1      43.926  30.777  30.058  1.00  0.00    +0.000 H 
ATOM    137  H33 UNL A   1      42.833  28.953  28.630  1.00  0.00    +0.000 H 
ATOM    138  H34 UNL A   1      39.877  31.406  30.197  1.00  0.00    +0.000 H 
ATOM    139  H35 UNL A   1      43.451  30.665  34.832  1.00  0.00    +0.000 H 
ATOM    140  H36 UNL A   1      44.768  28.453  34.850  1.00  0.00    +0.000 H 
ATOM    141  H37 UNL A   1      39.874  24.645  27.116  1.00  0.00    +0.000 H 
ATOM    142  H38 UNL A   1      38.488  26.757  27.604  1.00  0.00    +0.000 H 
ATOM     38  C25 UNL A   1      39.997  28.653  29.265  1.00  0.00    +0.000 C 
ATOM     39  C26 UNL A   1      40.322  27.296  28.811  1.00  0.00    +0.000 C 
ATOM     40  N6  UNL A   1      41.367  26.644  29.168  1.00  0.00    +0.000 N 
ATOM     41  C27 UNL A   1      41.457  25.538  28.349  1.00  0.00    +0.000 C 
ATOM     42  C28 UNL A   1      42.677  24.952  28.196  1.00  0.00    +0.000 C 
ATOM     54  C35 UNL A   1      43.658  25.657  29.018  1.00  0.00    +0.000 C 
ATOM     55  C36 UNL A   1      44.528  26.693  28.718  1.00  0.00    +0.000 C 
ATOM     56  C37 UNL A   1      44.906  27.310  29.935  1.00  0.00    +0.000 C 
ATOM     57  C38 UNL A   1      44.283  26.638  30.974  1.00  0.00    +0.000 C 
ATOM     58  N7  UNL A   1      43.544  25.620  30.402  1.00  0.00    +0.000 N 
ATOM     59  C39 UNL A   1      44.348  26.798  32.418  1.00  0.00    +0.000 C 
ATOM     71  C46 UNL A   1      43.906  28.007  32.877  1.00  0.00    +0.000 C 
ATOM     72  N8  UNL A   1      43.047  28.791  32.151  1.00  0.00    +0.000 N 
ATOM     73  C47 UNL A   1      42.792  29.884  32.817  1.00  0.00    +0.000 C 
ATOM     74  C48 UNL A   1      41.909  30.991  32.298  1.00  0.00    +0.000 C 
ATOM     86  C55 UNL A   1      41.894  31.044  30.933  1.00  0.00    +0.000 C 
ATOM     87  C56 UNL A   1      42.931  30.504  30.068  1.00  0.00    +0.000 C 
ATOM     88  C57 UNL A   1      42.345  29.582  29.286  1.00  0.00    +0.000 C 
ATOM     89  C58 UNL A   1      40.908  29.617  29.520  1.00  0.00    +0.000 C 
ATOM     90  N9  UNL A   1      40.680  30.838  30.212  1.00  0.00    +0.000 N 
ATOM     91  C59 UNL A   1      43.477  29.934  34.104  1.00  0.00    +0.000 C 
ATOM     92  C60 UNL A   1      44.148  28.770  34.088  1.00  0.00    +0.000 C 
ATOM     93  C61 UNL A   1      40.177  25.443  27.696  1.00  0.00    +0.000 C 
ATOM     94  C62 UNL A   1      39.436  26.526  27.940  1.00  0.00    +0.000 C 
ENDROOT
BRANCH   38   37
ATOM     34  C21 UNL A   1      36.222  30.298  29.081  1.00  0.00    +0.000 C 
ATOM     35  C22 UNL A   1      36.488  29.468  30.181  1.00  0.00    +0.000 C 
ATOM     36  C23 UNL A   1      37.698  28.796  30.239  1.00  0.00    +0.000 C 
ATOM    131  H27 UNL A   1      35.792  29.359  30.935  1.00  0.00    +0.000 H 
ATOM    132  H28 UNL A   1      37.914  28.145  31.009  1.00  0.00    +0.000 H 
ATOM     37  C24 UNL A   1      38.607  29.036  29.218  1.00  0.00    +0.000 C 
ATOM    143  H39 UNL A   1      38.898  29.739  27.245  1.00  0.00    +0.000 H 
ATOM    144  H40 UNL A   1      36.600  30.504  27.009  1.00  0.00    +0.000 H 
ATOM     95  C63 UNL A   1      38.233  29.669  28.031  1.00  0.00    +0.000 C 
ATOM     96  C64 UNL A   1      36.975  30.196  27.920  1.00  0.00    +0.000 C 
BRANCH   34   32
ATOM     33  O7  UNL A   1      35.082  31.750  30.528  1.00  0.00    +0.000 O 
ATOM     32  C20 UNL A   1      35.478  31.542  29.386  1.00  0.00    +0.000 C 
BRANCH   32   31
ATOM    130  H26 UNL A   1      34.696  32.465  27.778  1.00  0.00    +0.000 H 
ATOM     31  N5  UNL A   1      35.421  32.548  28.439  1.00  0.00    +0.000 N 
BRANCH   31   30
ATOM    129  H25 UNL A   1      35.642  34.561  28.137  1.00  0.00    +0.000 H 
ATOM     30  C19 UNL A   1      36.279  33.713  28.280  1.00  0.00    +0.000 C 
ATOM    128  H24 UNL A   1      36.923  33.549  27.441  1.00  0.00    +0.000 H 
BRANCH   30   29
ATOM     29  C18 UNL A   1      37.138  33.994  29.499  1.00  0.00    +0.000 C 
ATOM    126  H22 UNL A   1      37.070  35.038  29.722  1.00  0.00    +0.000 H 
ATOM    127  H23 UNL A   1      36.763  33.374  30.286  1.00  0.00    +0.000 H 
BRANCH   29   28
ATOM    124  H20 UNL A   1      38.877  32.953  30.106  1.00  0.00    +0.000 H 
ATOM     28  C17 UNL A   1      38.614  33.637  29.326  1.00  0.00    +0.000 C 
ATOM    125  H21 UNL A   1      38.697  33.232  28.341  1.00  0.00    +0.000 H 
BRANCH   28   27
ATOM    122  H18 UNL A   1      39.589  35.292  28.422  1.00  0.00    +0.000 H 
ATOM     27  C16 UNL A   1      39.602  34.811  29.377  1.00  0.00    +0.000 C 
ATOM    123  H19 UNL A   1      39.274  35.433  30.182  1.00  0.00    +0.000 H 
BRANCH   27   26
ATOM    121  H17 UNL A   1      41.184  33.427  29.398  1.00  0.00    +0.000 H 
ATOM     26  C15 UNL A   1      41.052  34.446  29.697  1.00  0.00    +0.000 C 
ATOM    120  H16 UNL A   1      41.212  34.597  30.744  1.00  0.00    +0.000 H 
BRANCH   26   25
ATOM     25  C14 UNL A   1      42.087  35.261  28.935  1.00  0.00    +0.000 C 
ATOM    118  H14 UNL A   1      42.352  34.728  28.046  1.00  0.00    +0.000 H 
ATOM    119  H15 UNL A   1      41.647  36.211  28.719  1.00  0.00    +0.000 H 
BRANCH   25   24
ATOM    117  H13 UNL A   1      43.282  36.315  30.261  1.00  0.00    +0.000 H 
ATOM     24  N4  UNL A   1      43.289  35.509  29.695  1.00  0.00    +0.000 N 
BRANCH   24   22
ATOM     22  C13 UNL A   1      44.435  34.767  29.727  1.00  0.00    +0.000 C 
ATOM     23  O6  UNL A   1      44.342  33.584  30.066  1.00  0.00    +0.000 O 
BRANCH   22   21
ATOM    115  H11 UNL A   1      46.469  35.090  30.273  1.00  0.00    +0.000 H 
ATOM    116  H12 UNL A   1      46.130  35.069  28.514  1.00  0.00    +0.000 H 
ATOM     21  C12 UNL A   1      45.818  35.402  29.483  1.00  0.00    +0.000 C 
BRANCH   21   20
ATOM    114  H10 UNL A   1      45.619  37.299  30.284  1.00  0.00    +0.000 H 
ATOM     20  N3  UNL A   1      45.836  36.856  29.433  1.00  0.00    +0.000 N 
BRANCH   20   18
ATOM     18  C11 UNL A   1      46.103  37.705  28.400  1.00  0.00    +0.000 C 
ATOM     19  O5  UNL A   1      45.178  37.982  27.632  1.00  0.00    +0.000 O 
BRANCH   18   17
ATOM     17  C10 UNL A   1      47.506  38.297  28.183  1.00  0.00    +0.000 C 
ATOM    113  H9  UNL A   1      47.994  38.266  29.134  1.00  0.00    +0.000 H 
ATOM    112  H8  UNL A   1      47.392  39.288  27.797  1.00  0.00    +0.000 H 
BRANCH   17   16
ATOM    111  H7  UNL A   1      49.198  37.221  27.660  1.00  0.00    +0.000 H 
ATOM     16  N2  UNL A   1      48.359  37.545  27.259  1.00  0.00    +0.000 N 
BRANCH   16   14
ATOM     14  C9  UNL A   1      48.201  37.208  25.929  1.00  0.00    +0.000 C 
ATOM     15  O4  UNL A   1      47.737  38.047  25.163  1.00  0.00    +0.000 O 
BRANCH   14   12
ATOM     12  C8  UNL A   1      48.598  35.806  25.419  1.00  0.00    +0.000 C 
ATOM     13  O3  UNL A   1      49.410  35.755  24.501  1.00  0.00    +0.000 O 
BRANCH   12   11
ATOM     97  C65 UNL A   1      46.653  34.249  26.089  1.00  0.00    +0.000 C 
ATOM     98  C66 UNL A   1      45.477  34.953  25.740  1.00  0.00    +0.000 C 
ATOM     99  C67 UNL A   1      44.226  34.365  25.922  1.00  0.00    +0.000 C 
ATOM    100  C68 UNL A   1      44.122  33.092  26.464  1.00  0.00    +0.000 C 
ATOM    101  C69 UNL A   1      45.261  32.378  26.847  1.00  0.00    +0.000 C 
ATOM    102  C70 UNL A   1      46.522  32.970  26.644  1.00  0.00    +0.000 C 
ATOM      9  N1  UNL A   1      47.808  32.520  26.857  1.00  0.00    +0.000 N 
ATOM     10  C6  UNL A   1      48.737  33.460  26.473  1.00  0.00    +0.000 C 
ATOM     11  C7  UNL A   1      48.057  34.560  25.978  1.00  0.00    +0.000 C 
ATOM    110  H6  UNL A   1      49.761  33.362  26.540  1.00  0.00    +0.000 H 
ATOM    145  H41 UNL A   1      45.547  35.906  25.350  1.00  0.00    +0.000 H 
ATOM    146  H42 UNL A   1      43.373  34.880  25.652  1.00  0.00    +0.000 H 
ATOM    147  H43 UNL A   1      43.190  32.667  26.587  1.00  0.00    +0.000 H 
ATOM    148  H44 UNL A   1      45.179  31.439  27.268  1.00  0.00    +0.000 H 
BRANCH    9    6
ATOM      6  S1  UNL A   1      48.206  30.959  27.416  1.00  0.00    +0.000 S 
ATOM      7  O1  UNL A   1      49.641  30.859  27.277  1.00  0.00    +0.000 O 
ATOM      8  O2  UNL A   1      47.298  30.052  26.726  1.00  0.00    +0.000 O 
BRANCH    6    5
ATOM      2  C2  UNL A   1      47.366  30.601  31.898  1.00  0.00    +0.000 C 
ATOM      3  C3  UNL A   1      47.560  29.469  31.098  1.00  0.00    +0.000 C 
ATOM      4  C4  UNL A   1      47.791  29.604  29.728  1.00  0.00    +0.000 C 
ATOM      5  C5  UNL A   1      47.817  30.877  29.145  1.00  0.00    +0.000 C 
ATOM    103  C71 UNL A   1      47.584  32.009  29.928  1.00  0.00    +0.000 C 
ATOM    104  C72 UNL A   1      47.372  31.868  31.302  1.00  0.00    +0.000 C 
ATOM    108  H4  UNL A   1      47.532  28.529  31.523  1.00  0.00    +0.000 H 
ATOM    109  H5  UNL A   1      47.943  28.766  29.145  1.00  0.00    +0.000 H 
ATOM    149  H45 UNL A   1      47.569  32.946  29.494  1.00  0.00    +0.000 H 
ATOM    150  H46 UNL A   1      47.218  32.706  31.884  1.00  0.00    +0.000 H 
BRANCH    2    1
ATOM      1  C1  UNL A   1      47.153  30.446  33.376  1.00  0.00    +0.000 C 
ATOM    106  H2  UNL A   1      46.858  31.385  33.795  1.00  0.00    +0.000 H 
ATOM    107  H3  UNL A   1      48.063  30.121  33.836  1.00  0.00    +0.000 H 
ATOM    105  H1  UNL A   1      46.386  29.720  33.551  1.00  0.00    +0.000 H 
ENDBRANCH    2    1
ENDBRANCH    6    5
ENDBRANCH    9    6
ENDBRANCH   12   11
ENDBRANCH   14   12
ENDBRANCH   16   14
ENDBRANCH   17   16
ENDBRANCH   18   17
ENDBRANCH   20   18
ENDBRANCH   21   20
ENDBRANCH   22   21
ENDBRANCH   24   22
ENDBRANCH   25   24
ENDBRANCH   26   25
ENDBRANCH   27   26
ENDBRANCH   28   27
ENDBRANCH   29   28
ENDBRANCH   30   29
ENDBRANCH   31   30
ENDBRANCH   32   31
ENDBRANCH   34   32
ENDBRANCH   38   37
BRANCH   42   43
ATOM     43  C29 UNL A   1      43.066  23.992  27.094  1.00  0.00    +0.000 C 
ATOM     44  C30 UNL A   1      42.675  22.635  27.170  1.00  0.00    +0.000 C 
ATOM     45  F1  UNL A   1      41.860  22.193  28.136  1.00  0.00    +0.000 F 
ATOM     46  C31 UNL A   1      43.102  21.671  26.253  1.00  0.00    +0.000 C 
ATOM     47  F2  UNL A   1      42.701  20.400  26.393  1.00  0.00    +0.000 F 
ATOM     48  C32 UNL A   1      43.937  22.019  25.214  1.00  0.00    +0.000 C 
ATOM     49  F3  UNL A   1      44.365  21.092  24.347  1.00  0.00    +0.000 F 
ATOM     50  C33 UNL A   1      44.301  23.340  25.066  1.00  0.00    +0.000 C 
ATOM     51  F4  UNL A   1      45.094  23.700  24.046  1.00  0.00    +0.000 F 
ATOM     52  C34 UNL A   1      43.843  24.312  25.964  1.00  0.00    +0.000 C 
ATOM     53  F5  UNL A   1      44.141  25.576  25.650  1.00  0.00    +0.000 F 
ENDBRANCH   42   43
BRANCH   59   60
ATOM     65  C43 UNL A   1      46.151  23.770  34.987  1.00  0.00    +0.000 C 
ATOM     66  F8  UNL A   1      46.701  22.862  35.803  1.00  0.00    +0.000 F 
ATOM     67  C44 UNL A   1      44.816  24.086  35.101  1.00  0.00    +0.000 C 
ATOM     68  F9  UNL A   1      44.071  23.525  36.063  1.00  0.00    +0.000 F 
ATOM     69  C45 UNL A   1      44.240  25.007  34.228  1.00  0.00    +0.000 C 
ATOM     70  F10 UNL A   1      42.926  25.215  34.403  1.00  0.00    +0.000 F 
ATOM     60  C40 UNL A   1      44.988  25.704  33.245  1.00  0.00    +0.000 C 
ATOM     61  C41 UNL A   1      46.359  25.402  33.219  1.00  0.00    +0.000 C 
ATOM     62  F6  UNL A   1      47.217  26.085  32.451  1.00  0.00    +0.000 F 
ATOM     63  C42 UNL A   1      46.918  24.418  34.040  1.00  0.00    +0.000 C 
ATOM     64  F7  UNL A   1      48.221  24.123  33.923  1.00  0.00    +0.000 F 
ENDBRANCH   59   60
BRANCH   74   75
ATOM     75  C49 UNL A   1      40.612  31.421  32.894  1.00  0.00    +0.000 C 
ATOM     76  C50 UNL A   1      40.319  32.802  32.881  1.00  0.00    +0.000 C 
ATOM     77  F11 UNL A   1      41.318  33.696  32.792  1.00  0.00    +0.000 F 
ATOM     78  C51 UNL A   1      39.007  33.263  32.807  1.00  0.00    +0.000 C 
ATOM     79  F12 UNL A   1      38.766  34.571  32.638  1.00  0.00    +0.000 F 
ATOM     80  C52 UNL A   1      37.958  32.359  32.816  1.00  0.00    +0.000 C 
ATOM     81  F13 UNL A   1      36.702  32.788  32.634  1.00  0.00    +0.000 F 
ATOM     82  C53 UNL A   1      38.220  31.005  32.973  1.00  0.00    +0.000 C 
ATOM     83  F14 UNL A   1      37.201  30.132  32.984  1.00  0.00    +0.000 F 
ATOM     84  C54 UNL A   1      39.535  30.536  33.016  1.00  0.00    +0.000 C 
ATOM     85  F15 UNL A   1      39.745  29.212  33.049  1.00  0.00    +0.000 F 
ENDBRANCH   74   75
TORSDOF 25
ENDMDL
MODEL 8
REMARK VINA RESULT:      -8.0     31.726     37.237
ROOT
ATOM    133  H29 UNL A   1      18.711  15.324   7.258  1.00  0.00    +0.000 H 
ATOM    134  H30 UNL A   1      21.295  14.852   7.340  1.00  0.00    +0.000 H 
ATOM    135  H31 UNL A   1      20.598  18.582   8.990  1.00  0.00    +0.000 H 
ATOM    136  H32 UNL A   1      22.227  15.175   4.394  1.00  0.00    +0.000 H 
ATOM    137  H33 UNL A   1      20.095  16.493   4.925  1.00  0.00    +0.000 H 
ATOM    138  H34 UNL A   1      22.225  18.486   1.974  1.00  0.00    +0.000 H 
ATOM    139  H35 UNL A   1      26.495  16.916   5.732  1.00  0.00    +0.000 H 
ATOM    140  H36 UNL A   1      25.753  16.678   8.186  1.00  0.00    +0.000 H 
ATOM    141  H37 UNL A   1      16.721  20.432   6.571  1.00  0.00    +0.000 H 
ATOM    142  H38 UNL A   1      17.878  20.906   4.322  1.00  0.00    +0.000 H 
ATOM     38  C25 UNL A   1      20.290  19.260   4.004  1.00  0.00    +0.000 C 
ATOM     39  C26 UNL A   1      19.365  19.410   5.134  1.00  0.00    +0.000 C 
ATOM     40  N6  UNL A   1      19.529  18.861   6.281  1.00  0.00    +0.000 N 
ATOM     41  C27 UNL A   1      18.350  19.016   6.979  1.00  0.00    +0.000 C 
ATOM     42  C28 UNL A   1      18.092  18.151   8.000  1.00  0.00    +0.000 C 
ATOM     54  C35 UNL A   1      19.215  17.228   8.146  1.00  0.00    +0.000 C 
ATOM     55  C36 UNL A   1      19.434  15.965   7.621  1.00  0.00    +0.000 C 
ATOM     56  C37 UNL A   1      20.826  15.708   7.673  1.00  0.00    +0.000 C 
ATOM     57  C38 UNL A   1      21.448  16.805   8.246  1.00  0.00    +0.000 C 
ATOM     58  N7  UNL A   1      20.452  17.714   8.549  1.00  0.00    +0.000 N 
ATOM     59  C39 UNL A   1      22.835  17.070   8.591  1.00  0.00    +0.000 C 
ATOM     71  C46 UNL A   1      23.695  17.084   7.528  1.00  0.00    +0.000 C 
ATOM     72  N8  UNL A   1      23.264  17.317   6.248  1.00  0.00    +0.000 N 
ATOM     73  C47 UNL A   1      24.283  17.270   5.434  1.00  0.00    +0.000 C 
ATOM     74  C48 UNL A   1      24.168  17.447   3.941  1.00  0.00    +0.000 C 
ATOM     86  C55 UNL A   1      22.942  17.073   3.469  1.00  0.00    +0.000 C 
ATOM     87  C56 UNL A   1      22.035  16.158   4.143  1.00  0.00    +0.000 C 
ATOM     88  C57 UNL A   1      20.899  16.837   4.377  1.00  0.00    +0.000 C 
ATOM     89  C58 UNL A   1      20.991  18.139   3.729  1.00  0.00    +0.000 C 
ATOM     90  N9  UNL A   1      22.088  18.023   2.832  1.00  0.00    +0.000 N 
ATOM     91  C59 UNL A   1      25.541  16.998   6.120  1.00  0.00    +0.000 C 
ATOM     92  C60 UNL A   1      25.126  16.885   7.393  1.00  0.00    +0.000 C 
ATOM     93  C61 UNL A   1      17.596  19.996   6.241  1.00  0.00    +0.000 C 
ATOM     94  C62 UNL A   1      18.182  20.264   5.071  1.00  0.00    +0.000 C 
ENDROOT
BRANCH   38   37
ATOM     34  C21 UNL A   1      20.013  22.579   1.577  1.00  0.00    +0.000 C 
ATOM     35  C22 UNL A   1      19.386  21.413   1.112  1.00  0.00    +0.000 C 
ATOM     36  C23 UNL A   1      19.541  20.236   1.828  1.00  0.00    +0.000 C 
ATOM    131  H27 UNL A   1      18.820  21.430   0.250  1.00  0.00    +0.000 H 
ATOM    132  H28 UNL A   1      19.131  19.349   1.497  1.00  0.00    +0.000 H 
ATOM     37  C24 UNL A   1      20.269  20.302   3.007  1.00  0.00    +0.000 C 
ATOM    143  H39 UNL A   1      21.687  21.380   4.148  1.00  0.00    +0.000 H 
ATOM    144  H40 UNL A   1      21.735  23.260   2.602  1.00  0.00    +0.000 H 
ATOM     95  C63 UNL A   1      21.071  21.401   3.319  1.00  0.00    +0.000 C 
ATOM     96  C64 UNL A   1      21.033  22.508   2.515  1.00  0.00    +0.000 C 
BRANCH   34   32
ATOM     33  O7  UNL A   1      19.710  24.895   1.789  1.00  0.00    +0.000 O 
ATOM     32  C20 UNL A   1      19.242  23.831   1.400  1.00  0.00    +0.000 C 
BRANCH   32   31
ATOM    130  H26 UNL A   1      18.236  24.105  -0.322  1.00  0.00    +0.000 H 
ATOM     31  N5  UNL A   1      18.105  23.822   0.612  1.00  0.00    +0.000 N 
BRANCH   31   30
ATOM    129  H25 UNL A   1      16.138  24.331   0.865  1.00  0.00    +0.000 H 
ATOM     30  C19 UNL A   1      16.742  23.452   0.966  1.00  0.00    +0.000 C 
ATOM    128  H24 UNL A   1      16.741  23.077   1.968  1.00  0.00    +0.000 H 
BRANCH   30   29
ATOM     29  C18 UNL A   1      16.154  22.393   0.052  1.00  0.00    +0.000 C 
ATOM    126  H22 UNL A   1      16.954  21.946  -0.501  1.00  0.00    +0.000 H 
ATOM    127  H23 UNL A   1      15.642  21.696   0.682  1.00  0.00    +0.000 H 
BRANCH   29   28
ATOM    124  H20 UNL A   1      14.239  22.326  -0.845  1.00  0.00    +0.000 H 
ATOM     28  C17 UNL A   1      15.122  22.922  -0.943  1.00  0.00    +0.000 C 
ATOM    125  H21 UNL A   1      14.986  23.953  -0.695  1.00  0.00    +0.000 H 
BRANCH   28   27
ATOM    122  H18 UNL A   1      15.573  21.885  -2.741  1.00  0.00    +0.000 H 
ATOM     27  C16 UNL A   1      15.539  22.905  -2.421  1.00  0.00    +0.000 C 
ATOM    123  H19 UNL A   1      14.811  23.497  -2.935  1.00  0.00    +0.000 H 
BRANCH   27   26
ATOM    121  H17 UNL A   1      17.219  24.026  -1.841  1.00  0.00    +0.000 H 
ATOM     26  C15 UNL A   1      16.892  23.542  -2.738  1.00  0.00    +0.000 C 
ATOM    120  H16 UNL A   1      16.759  24.221  -3.554  1.00  0.00    +0.000 H 
BRANCH   26   25
ATOM     25  C14 UNL A   1      17.980  22.548  -3.118  1.00  0.00    +0.000 C 
ATOM    118  H14 UNL A   1      17.608  21.558  -2.954  1.00  0.00    +0.000 H 
ATOM    119  H15 UNL A   1      18.225  22.722  -4.144  1.00  0.00    +0.000 H 
BRANCH   25   24
ATOM    117  H13 UNL A   1      19.078  22.849  -1.386  1.00  0.00    +0.000 H 
ATOM     24  N4  UNL A   1      19.194  22.713  -2.354  1.00  0.00    +0.000 N 
BRANCH   24   22
ATOM     22  C13 UNL A   1      20.482  22.704  -2.807  1.00  0.00    +0.000 C 
ATOM     23  O6  UNL A   1      20.942  21.629  -3.202  1.00  0.00    +0.000 O 
BRANCH   22   21
ATOM    115  H11 UNL A   1      22.398  23.636  -2.840  1.00  0.00    +0.000 H 
ATOM    116  H12 UNL A   1      21.041  24.623  -3.467  1.00  0.00    +0.000 H 
ATOM     21  C12 UNL A   1      21.384  23.950  -2.708  1.00  0.00    +0.000 C 
BRANCH   21   20
ATOM    114  H10 UNL A   1      21.612  24.183  -0.665  1.00  0.00    +0.000 H 
ATOM     20  N3  UNL A   1      21.300  24.682  -1.453  1.00  0.00    +0.000 N 
BRANCH   20   18
ATOM     18  C11 UNL A   1      20.859  25.946  -1.192  1.00  0.00    +0.000 C 
ATOM     19  O5  UNL A   1      21.646  26.727  -0.651  1.00  0.00    +0.000 O 
BRANCH   18   17
ATOM     17  C10 UNL A   1      19.431  26.392  -1.547  1.00  0.00    +0.000 C 
ATOM    113  H9  UNL A   1      18.999  26.762  -0.642  1.00  0.00    +0.000 H 
ATOM    112  H8  UNL A   1      18.911  25.549  -1.952  1.00  0.00    +0.000 H 
BRANCH   17   16
ATOM    111  H7  UNL A   1      19.747  27.276  -3.394  1.00  0.00    +0.000 H 
ATOM     16  N2  UNL A   1      19.348  27.486  -2.519  1.00  0.00    +0.000 N 
BRANCH   16   14
ATOM     14  C9  UNL A   1      18.814  28.756  -2.430  1.00  0.00    +0.000 C 
ATOM     15  O4  UNL A   1      18.532  29.347  -3.467  1.00  0.00    +0.000 O 
BRANCH   14   12
ATOM     12  C8  UNL A   1      18.580  29.418  -1.055  1.00  0.00    +0.000 C 
ATOM     13  O3  UNL A   1      19.517  29.405  -0.262  1.00  0.00    +0.000 O 
BRANCH   12   11
ATOM     97  C65 UNL A   1      17.184  31.123   0.287  1.00  0.00    +0.000 C 
ATOM     98  C66 UNL A   1      18.122  31.837   1.067  1.00  0.00    +0.000 C 
ATOM     99  C67 UNL A   1      17.703  32.888   1.883  1.00  0.00    +0.000 C 
ATOM    100  C68 UNL A   1      16.360  33.229   1.950  1.00  0.00    +0.000 C 
ATOM    101  C69 UNL A   1      15.402  32.527   1.215  1.00  0.00    +0.000 C 
ATOM    102  C70 UNL A   1      15.833  31.479   0.380  1.00  0.00    +0.000 C 
ATOM      9  N1  UNL A   1      15.166  30.648  -0.495  1.00  0.00    +0.000 N 
ATOM     10  C6  UNL A   1      16.031  29.782  -1.122  1.00  0.00    +0.000 C 
ATOM     11  C7  UNL A   1      17.311  30.049  -0.667  1.00  0.00    +0.000 C 
ATOM    110  H6  UNL A   1      15.773  29.060  -1.812  1.00  0.00    +0.000 H 
ATOM    145  H41 UNL A   1      19.121  31.579   1.032  1.00  0.00    +0.000 H 
ATOM    146  H42 UNL A   1      18.396  33.413   2.440  1.00  0.00    +0.000 H 
ATOM    147  H43 UNL A   1      16.065  34.012   2.553  1.00  0.00    +0.000 H 
ATOM    148  H44 UNL A   1      14.400  32.770   1.282  1.00  0.00    +0.000 H 
BRANCH    9    6
ATOM      6  S1  UNL A   1      13.499  30.751  -0.845  1.00  0.00    +0.000 S 
ATOM      7  O1  UNL A   1      13.302  29.917  -2.008  1.00  0.00    +0.000 O 
ATOM      8  O2  UNL A   1      13.187  32.174  -0.853  1.00  0.00    +0.000 O 
BRANCH    6    5
ATOM      2  C2  UNL A   1      11.045  29.036   2.613  1.00  0.00    +0.000 C 
ATOM      3  C3  UNL A   1      11.286  30.409   2.498  1.00  0.00    +0.000 C 
ATOM      4  C4  UNL A   1      12.058  30.906   1.447  1.00  0.00    +0.000 C 
ATOM      5  C5  UNL A   1      12.607  30.025   0.506  1.00  0.00    +0.000 C 
ATOM    103  C71 UNL A   1      12.407  28.650   0.636  1.00  0.00    +0.000 C 
ATOM    104  C72 UNL A   1      11.617  28.162   1.681  1.00  0.00    +0.000 C 
ATOM    108  H4  UNL A   1      10.890  31.060   3.196  1.00  0.00    +0.000 H 
ATOM    109  H5  UNL A   1      12.224  31.921   1.362  1.00  0.00    +0.000 H 
ATOM    149  H45 UNL A   1      12.839  27.997  -0.037  1.00  0.00    +0.000 H 
ATOM    150  H46 UNL A   1      11.453  27.146   1.766  1.00  0.00    +0.000 H 
BRANCH    2    1
ATOM      1  C1  UNL A   1      10.184  28.516   3.728  1.00  0.00    +0.000 C 
ATOM    106  H2  UNL A   1       9.163  28.772   3.540  1.00  0.00    +0.000 H 
ATOM    107  H3  UNL A   1      10.497  28.953   4.654  1.00  0.00    +0.000 H 
ATOM    105  H1  UNL A   1      10.281  27.451   3.786  1.00  0.00    +0.000 H 
ENDBRANCH    2    1
ENDBRANCH    6    5
ENDBRANCH    9    6
ENDBRANCH   12   11
ENDBRANCH   14   12
ENDBRANCH   16   14
ENDBRANCH   17   16
ENDBRANCH   18   17
ENDBRANCH   20   18
ENDBRANCH   21   20
ENDBRANCH   22   21
ENDBRANCH   24   22
ENDBRANCH   25   24
ENDBRANCH   26   25
ENDBRANCH   27   26
ENDBRANCH   28   27
ENDBRANCH   29   28
ENDBRANCH   30   29
ENDBRANCH   31   30
ENDBRANCH   32   31
ENDBRANCH   34   32
ENDBRANCH   38   37
BRANCH   42   43
ATOM     43  C29 UNL A   1      16.740  17.909   8.634  1.00  0.00    +0.000 C 
ATOM     44  C30 UNL A   1      16.436  18.488   9.888  1.00  0.00    +0.000 C 
ATOM     45  F1  UNL A   1      17.269  19.351  10.483  1.00  0.00    +0.000 F 
ATOM     46  C31 UNL A   1      15.259  18.209  10.586  1.00  0.00    +0.000 C 
ATOM     47  F2  UNL A   1      15.041  18.784  11.777  1.00  0.00    +0.000 F 
ATOM     48  C32 UNL A   1      14.327  17.339  10.062  1.00  0.00    +0.000 C 
ATOM     49  F3  UNL A   1      13.208  17.053  10.740  1.00  0.00    +0.000 F 
ATOM     50  C33 UNL A   1      14.553  16.793   8.816  1.00  0.00    +0.000 C 
ATOM     51  F4  UNL A   1      13.645  15.963   8.281  1.00  0.00    +0.000 F 
ATOM     52  C34 UNL A   1      15.716  17.103   8.101  1.00  0.00    +0.000 C 
ATOM     53  F5  UNL A   1      15.771  16.631   6.853  1.00  0.00    +0.000 F 
ENDBRANCH   42   43
BRANCH   59   60
ATOM     65  C43 UNL A   1      24.139  17.446  12.736  1.00  0.00    +0.000 C 
ATOM     66  F8  UNL A   1      24.572  17.565  13.998  1.00  0.00    +0.000 F 
ATOM     67  C44 UNL A   1      24.154  18.533  11.892  1.00  0.00    +0.000 C 
ATOM     68  F9  UNL A   1      24.651  19.704  12.312  1.00  0.00    +0.000 F 
ATOM     69  C45 UNL A   1      23.671  18.412  10.590  1.00  0.00    +0.000 C 
ATOM     70  F10 UNL A   1      23.699  19.540   9.865  1.00  0.00    +0.000 F 
ATOM     60  C40 UNL A   1      23.214  17.181  10.052  1.00  0.00    +0.000 C 
ATOM     61  C41 UNL A   1      23.289  16.088  10.929  1.00  0.00    +0.000 C 
ATOM     62  F6  UNL A   1      23.036  14.838  10.519  1.00  0.00    +0.000 F 
ATOM     63  C42 UNL A   1      23.696  16.229  12.259  1.00  0.00    +0.000 C 
ATOM     64  F7  UNL A   1      23.682  15.160  13.069  1.00  0.00    +0.000 F 
ENDBRANCH   59   60
BRANCH   74   75
ATOM     75  C49 UNL A   1      24.761  18.562   3.148  1.00  0.00    +0.000 C 
ATOM     76  C50 UNL A   1      24.699  19.858   3.705  1.00  0.00    +0.000 C 
ATOM     77  F11 UNL A   1      23.764  20.145   4.626  1.00  0.00    +0.000 F 
ATOM     78  C51 UNL A   1      25.679  20.810   3.434  1.00  0.00    +0.000 C 
ATOM     79  F12 UNL A   1      25.680  21.975   4.097  1.00  0.00    +0.000 F 
ATOM     80  C52 UNL A   1      26.701  20.513   2.549  1.00  0.00    +0.000 C 
ATOM     81  F13 UNL A   1      27.705  21.382   2.369  1.00  0.00    +0.000 F 
ATOM     82  C53 UNL A   1      26.699  19.297   1.881  1.00  0.00    +0.000 C 
ATOM     83  F14 UNL A   1      27.690  19.013   1.022  1.00  0.00    +0.000 F 
ATOM     84  C54 UNL A   1      25.737  18.327   2.173  1.00  0.00    +0.000 C 
ATOM     85  F15 UNL A   1      25.840  17.122   1.593  1.00  0.00    +0.000 F 
ENDBRANCH   74   75
TORSDOF 25
ENDMDL
MODEL 9
REMARK VINA RESULT:      -8.0     39.581     44.186
ROOT
ATOM    133  H29 UNL A   1      28.576  26.147  -7.662  1.00  0.00    +0.000 H 
ATOM    134  H30 UNL A   1      26.418  27.610  -7.985  1.00  0.00    +0.000 H 
ATOM    135  H31 UNL A   1      25.363  24.160  -5.958  1.00  0.00    +0.000 H 
ATOM    136  H32 UNL A   1      25.725  27.299 -10.998  1.00  0.00    +0.000 H 
ATOM    137  H33 UNL A   1      27.069  25.326 -10.066  1.00  0.00    +0.000 H 
ATOM    138  H34 UNL A   1      24.606  23.971 -13.118  1.00  0.00    +0.000 H 
ATOM    139  H35 UNL A   1      21.012  27.582 -10.143  1.00  0.00    +0.000 H 
ATOM    140  H36 UNL A   1      21.543  27.827  -7.636  1.00  0.00    +0.000 H 
ATOM    141  H37 UNL A   1      28.358  20.627  -7.645  1.00  0.00    +0.000 H 
ATOM    142  H38 UNL A   1      27.332  20.359  -9.990  1.00  0.00    +0.000 H 
ATOM     38  C25 UNL A   1      25.849  22.768 -10.778  1.00  0.00    +0.000 C 
ATOM     39  C26 UNL A   1      26.516  22.414  -9.521  1.00  0.00    +0.000 C 
ATOM     40  N6  UNL A   1      26.481  23.129  -8.456  1.00  0.00    +0.000 N 
ATOM     41  C27 UNL A   1      27.420  22.612  -7.588  1.00  0.00    +0.000 C 
ATOM     42  C28 UNL A   1      27.909  23.430  -6.614  1.00  0.00    +0.000 C 
ATOM     54  C35 UNL A   1      27.254  24.733  -6.703  1.00  0.00    +0.000 C 
ATOM     55  C36 UNL A   1      27.623  25.899  -7.354  1.00  0.00    +0.000 C 
ATOM     56  C37 UNL A   1      26.460  26.689  -7.522  1.00  0.00    +0.000 C 
ATOM     57  C38 UNL A   1      25.391  26.014  -6.956  1.00  0.00    +0.000 C 
ATOM     58  N7  UNL A   1      25.894  24.834  -6.442  1.00  0.00    +0.000 N 
ATOM     59  C39 UNL A   1      23.991  26.368  -6.791  1.00  0.00    +0.000 C 
ATOM     71  C46 UNL A   1      23.309  26.557  -7.960  1.00  0.00    +0.000 C 
ATOM     72  N8  UNL A   1      23.729  26.006  -9.144  1.00  0.00    +0.000 N 
ATOM     73  C47 UNL A   1      22.901  26.346 -10.094  1.00  0.00    +0.000 C 
ATOM     74  C48 UNL A   1      23.078  25.943 -11.537  1.00  0.00    +0.000 C 
ATOM     86  C55 UNL A   1      24.390  25.736 -11.859  1.00  0.00    +0.000 C 
ATOM     87  C56 UNL A   1      25.522  26.297 -11.139  1.00  0.00    +0.000 C 
ATOM     88  C57 UNL A   1      26.251  25.260 -10.693  1.00  0.00    +0.000 C 
ATOM     89  C58 UNL A   1      25.698  24.029 -11.240  1.00  0.00    +0.000 C 
ATOM     90  N9  UNL A   1      24.837  24.451 -12.290  1.00  0.00    +0.000 N 
ATOM     91  C59 UNL A   1      21.805  27.181  -9.619  1.00  0.00    +0.000 C 
ATOM     92  C60 UNL A   1      22.105  27.286  -8.313  1.00  0.00    +0.000 C 
ATOM     93  C61 UNL A   1      27.774  21.326  -8.130  1.00  0.00    +0.000 C 
ATOM     94  C62 UNL A   1      27.246  21.160  -9.346  1.00  0.00    +0.000 C 
ENDROOT
BRANCH   38   37
ATOM     34  C21 UNL A   1      25.073  19.313 -12.887  1.00  0.00    +0.000 C 
ATOM     35  C22 UNL A   1      26.011  20.191 -13.452  1.00  0.00    +0.000 C 
ATOM     36  C23 UNL A   1      26.230  21.419 -12.849  1.00  0.00    +0.000 C 
ATOM    131  H27 UNL A   1      26.530  19.926 -14.303  1.00  0.00    +0.000 H 
ATOM    132  H28 UNL A   1      26.881  22.108 -13.255  1.00  0.00    +0.000 H 
ATOM     37  C24 UNL A   1      25.537  21.682 -11.675  1.00  0.00    +0.000 C 
ATOM    143  H39 UNL A   1      23.884  21.187 -10.454  1.00  0.00    +0.000 H 
ATOM    144  H40 UNL A   1      23.246  19.276 -11.820  1.00  0.00    +0.000 H 
ATOM     95  C63 UNL A   1      24.449  20.907 -11.271  1.00  0.00    +0.000 C 
ATOM     96  C64 UNL A   1      24.139  19.772 -11.969  1.00  0.00    +0.000 C 
BRANCH   34   32
ATOM     33  O7  UNL A   1      24.812  17.123 -13.685  1.00  0.00    +0.000 O 
ATOM     32  C20 UNL A   1      25.430  17.877 -12.942  1.00  0.00    +0.000 C 
BRANCH   32   31
ATOM    130  H26 UNL A   1      26.586  17.502 -11.337  1.00  0.00    +0.000 H 
ATOM     31  N5  UNL A   1      26.587  17.441 -12.320  1.00  0.00    +0.000 N 
BRANCH   31   30
ATOM    129  H25 UNL A   1      27.852  17.263 -13.919  1.00  0.00    +0.000 H 
ATOM     30  C19 UNL A   1      27.804  16.906 -12.911  1.00  0.00    +0.000 C 
ATOM    128  H24 UNL A   1      27.764  15.838 -12.866  1.00  0.00    +0.000 H 
BRANCH   30   29
ATOM     29  C18 UNL A   1      29.065  17.372 -12.207  1.00  0.00    +0.000 C 
ATOM    126  H22 UNL A   1      28.931  18.395 -11.921  1.00  0.00    +0.000 H 
ATOM    127  H23 UNL A   1      29.207  16.721 -11.370  1.00  0.00    +0.000 H 
BRANCH   29   28
ATOM    124  H20 UNL A   1      30.123  16.633 -13.884  1.00  0.00    +0.000 H 
ATOM     28  C17 UNL A   1      30.333  17.275 -13.055  1.00  0.00    +0.000 C 
ATOM    125  H21 UNL A   1      30.573  18.281 -13.329  1.00  0.00    +0.000 H 
BRANCH   28   27
ATOM    122  H18 UNL A   1      31.333  16.582 -11.314  1.00  0.00    +0.000 H 
ATOM     27  C16 UNL A   1      31.581  16.732 -12.344  1.00  0.00    +0.000 C 
ATOM    123  H19 UNL A   1      31.843  15.834 -12.863  1.00  0.00    +0.000 H 
BRANCH   27   26
ATOM    121  H17 UNL A   1      33.554  17.170 -11.767  1.00  0.00    +0.000 H 
ATOM     26  C15 UNL A   1      32.822  17.623 -12.403  1.00  0.00    +0.000 C 
ATOM    120  H16 UNL A   1      32.544  18.606 -12.084  1.00  0.00    +0.000 H 
BRANCH   26   25
ATOM     25  C14 UNL A   1      33.452  17.731 -13.784  1.00  0.00    +0.000 C 
ATOM    118  H14 UNL A   1      34.310  17.092 -13.817  1.00  0.00    +0.000 H 
ATOM    119  H15 UNL A   1      32.708  17.442 -14.496  1.00  0.00    +0.000 H 
BRANCH   25   24
ATOM    117  H13 UNL A   1      34.546  19.149 -14.826  1.00  0.00    +0.000 H 
ATOM     24  N4  UNL A   1      33.866  19.072 -14.118  1.00  0.00    +0.000 N 
BRANCH   24   22
ATOM     22  C13 UNL A   1      33.434  20.249 -13.574  1.00  0.00    +0.000 C 
ATOM     23  O6  UNL A   1      32.346  20.689 -13.955  1.00  0.00    +0.000 O 
BRANCH   22   21
ATOM    115  H11 UNL A   1      33.761  21.930 -12.307  1.00  0.00    +0.000 H 
ATOM    116  H12 UNL A   1      34.585  20.417 -11.820  1.00  0.00    +0.000 H 
ATOM     21  C12 UNL A   1      34.321  21.074 -12.621  1.00  0.00    +0.000 C 
BRANCH   21   20
ATOM    114  H10 UNL A   1      36.332  20.922 -13.082  1.00  0.00    +0.000 H 
ATOM     20  N3  UNL A   1      35.577  21.543 -13.188  1.00  0.00    +0.000 N 
BRANCH   20   18
ATOM     18  C11 UNL A   1      35.877  22.702 -13.840  1.00  0.00    +0.000 C 
ATOM     19  O5  UNL A   1      36.204  23.676 -13.158  1.00  0.00    +0.000 O 
BRANCH   18   17
ATOM     17  C10 UNL A   1      35.809  22.807 -15.373  1.00  0.00    +0.000 C 
ATOM    113  H9  UNL A   1      36.455  22.046 -15.755  1.00  0.00    +0.000 H 
ATOM    112  H8  UNL A   1      36.106  23.796 -15.652  1.00  0.00    +0.000 H 
BRANCH   17   16
ATOM    111  H7  UNL A   1      34.053  21.732 -15.616  1.00  0.00    +0.000 H 
ATOM     16  N2  UNL A   1      34.487  22.550 -15.952  1.00  0.00    +0.000 N 
BRANCH   16   14
ATOM     14  C9  UNL A   1      33.740  23.246 -16.882  1.00  0.00    +0.000 C 
ATOM     15  O4  UNL A   1      33.836  22.932 -18.064  1.00  0.00    +0.000 O 
BRANCH   14   12
ATOM     12  C8  UNL A   1      32.806  24.394 -16.443  1.00  0.00    +0.000 C 
ATOM     13  O3  UNL A   1      32.656  25.324 -17.229  1.00  0.00    +0.000 O 
BRANCH   12   11
ATOM     97  C65 UNL A   1      30.671  24.383 -14.994  1.00  0.00    +0.000 C 
ATOM     98  C66 UNL A   1      29.599  24.327 -15.914  1.00  0.00    +0.000 C 
ATOM     99  C67 UNL A   1      28.284  24.253 -15.458  1.00  0.00    +0.000 C 
ATOM    100  C68 UNL A   1      28.014  24.253 -14.097  1.00  0.00    +0.000 C 
ATOM    101  C69 UNL A   1      29.047  24.337 -13.159  1.00  0.00    +0.000 C 
ATOM    102  C70 UNL A   1      30.373  24.393 -13.626  1.00  0.00    +0.000 C 
ATOM      9  N1  UNL A   1      31.590  24.425 -12.978  1.00  0.00    +0.000 N 
ATOM     10  C6  UNL A   1      32.634  24.447 -13.874  1.00  0.00    +0.000 C 
ATOM     11  C7  UNL A   1      32.104  24.416 -15.152  1.00  0.00    +0.000 C 
ATOM    110  H6  UNL A   1      33.637  24.481 -13.635  1.00  0.00    +0.000 H 
ATOM    145  H41 UNL A   1      29.792  24.340 -16.928  1.00  0.00    +0.000 H 
ATOM    146  H42 UNL A   1      27.507  24.198 -16.136  1.00  0.00    +0.000 H 
ATOM    147  H43 UNL A   1      27.037  24.191 -13.772  1.00  0.00    +0.000 H 
ATOM    148  H44 UNL A   1      28.842  24.356 -12.147  1.00  0.00    +0.000 H 
BRANCH    9    6
ATOM      6  S1  UNL A   1      31.787  24.333 -11.286  1.00  0.00    +0.000 S 
ATOM      7  O1  UNL A   1      30.714  25.129 -10.734  1.00  0.00    +0.000 O 
ATOM      8  O2  UNL A   1      33.187  24.646 -11.037  1.00  0.00    +0.000 O 
BRANCH    6    5
ATOM      2  C2  UNL A   1      31.138  20.055  -9.803  1.00  0.00    +0.000 C 
ATOM      3  C3  UNL A   1      32.154  20.864  -9.281  1.00  0.00    +0.000 C 
ATOM      4  C4  UNL A   1      32.346  22.158  -9.767  1.00  0.00    +0.000 C 
ATOM      5  C5  UNL A   1      31.528  22.649 -10.792  1.00  0.00    +0.000 C 
ATOM    103  C71 UNL A   1      30.539  21.835 -11.347  1.00  0.00    +0.000 C 
ATOM    104  C72 UNL A   1      30.340  20.547 -10.843  1.00  0.00    +0.000 C 
ATOM    108  H4  UNL A   1      32.764  20.501  -8.532  1.00  0.00    +0.000 H 
ATOM    109  H5  UNL A   1      33.091  22.753  -9.372  1.00  0.00    +0.000 H 
ATOM    149  H45 UNL A   1      29.958  22.183 -12.127  1.00  0.00    +0.000 H 
ATOM    150  H46 UNL A   1      29.597  19.952 -11.240  1.00  0.00    +0.000 H 
BRANCH    2    1
ATOM      1  C1  UNL A   1      30.917  18.678  -9.248  1.00  0.00    +0.000 C 
ATOM    106  H2  UNL A   1      30.094  18.695  -8.566  1.00  0.00    +0.000 H 
ATOM    107  H3  UNL A   1      31.799  18.354  -8.735  1.00  0.00    +0.000 H 
ATOM    105  H1  UNL A   1      30.702  18.001 -10.050  1.00  0.00    +0.000 H 
ENDBRANCH    2    1
ENDBRANCH    6    5
ENDBRANCH    9    6
ENDBRANCH   12   11
ENDBRANCH   14   12
ENDBRANCH   16   14
ENDBRANCH   17   16
ENDBRANCH   18   17
ENDBRANCH   20   18
ENDBRANCH   21   20
ENDBRANCH   22   21
ENDBRANCH   24   22
ENDBRANCH   25   24
ENDBRANCH   26   25
ENDBRANCH   27   26
ENDBRANCH   28   27
ENDBRANCH   29   28
ENDBRANCH   30   29
ENDBRANCH   31   30
ENDBRANCH   32   31
ENDBRANCH   34   32
ENDBRANCH   38   37
BRANCH   42   43
ATOM     43  C29 UNL A   1      29.173  23.197  -5.816  1.00  0.00    +0.000 C 
ATOM     44  C30 UNL A   1      30.433  23.255  -6.458  1.00  0.00    +0.000 C 
ATOM     45  F1  UNL A   1      30.551  23.631  -7.737  1.00  0.00    +0.000 F 
ATOM     46  C31 UNL A   1      31.628  22.931  -5.811  1.00  0.00    +0.000 C 
ATOM     47  F2  UNL A   1      32.784  22.996  -6.485  1.00  0.00    +0.000 F 
ATOM     48  C32 UNL A   1      31.621  22.538  -4.491  1.00  0.00    +0.000 C 
ATOM     49  F3  UNL A   1      32.764  22.206  -3.875  1.00  0.00    +0.000 F 
ATOM     50  C33 UNL A   1      30.424  22.520  -3.806  1.00  0.00    +0.000 C 
ATOM     51  F4  UNL A   1      30.403  22.162  -2.514  1.00  0.00    +0.000 F 
ATOM     52  C34 UNL A   1      29.232  22.880  -4.446  1.00  0.00    +0.000 C 
ATOM     53  F5  UNL A   1      28.155  22.962  -3.659  1.00  0.00    +0.000 F 
ENDBRANCH   42   43
BRANCH   59   60
ATOM     65  C43 UNL A   1      22.250  27.029  -2.846  1.00  0.00    +0.000 C 
ATOM     66  F8  UNL A   1      21.684  27.231  -1.650  1.00  0.00    +0.000 F 
ATOM     67  C44 UNL A   1      22.123  25.812  -3.478  1.00  0.00    +0.000 C 
ATOM     68  F9  UNL A   1      21.388  24.839  -2.922  1.00  0.00    +0.000 F 
ATOM     69  C45 UNL A   1      22.742  25.596  -4.707  1.00  0.00    +0.000 C 
ATOM     70  F10 UNL A   1      22.584  24.365  -5.216  1.00  0.00    +0.000 F 
ATOM     60  C40 UNL A   1      23.460  26.609  -5.394  1.00  0.00    +0.000 C 
ATOM     61  C41 UNL A   1      23.497  27.853  -4.744  1.00  0.00    +0.000 C 
ATOM     62  F6  UNL A   1      24.006  28.941  -5.335  1.00  0.00    +0.000 F 
ATOM     63  C42 UNL A   1      22.946  28.043  -3.473  1.00  0.00    +0.000 C 
ATOM     64  F7  UNL A   1      23.071  29.235  -2.872  1.00  0.00    +0.000 F 
ENDBRANCH   59   60
BRANCH   74   75
ATOM     75  C49 UNL A   1      22.161  25.060 -12.313  1.00  0.00    +0.000 C 
ATOM     76  C50 UNL A   1      21.845  25.454 -13.631  1.00  0.00    +0.000 C 
ATOM     77  F11 UNL A   1      21.957  26.744 -13.989  1.00  0.00    +0.000 F 
ATOM     78  C51 UNL A   1      21.560  24.513 -14.619  1.00  0.00    +0.000 C 
ATOM     79  F12 UNL A   1      21.418  24.905 -15.893  1.00  0.00    +0.000 F 
ATOM     80  C52 UNL A   1      21.516  23.168 -14.296  1.00  0.00    +0.000 C 
ATOM     81  F13 UNL A   1      21.353  22.252 -15.260  1.00  0.00    +0.000 F 
ATOM     82  C53 UNL A   1      21.682  22.773 -12.976  1.00  0.00    +0.000 C 
ATOM     83  F14 UNL A   1      21.637  21.468 -12.666  1.00  0.00    +0.000 F 
ATOM     84  C54 UNL A   1      21.999  23.709 -11.988  1.00  0.00    +0.000 C 
ATOM     85  F15 UNL A   1      22.268  23.272 -10.750  1.00  0.00    +0.000 F 
ENDBRANCH   74   75
TORSDOF 25
ENDMDL
MODEL 10
REMARK VINA RESULT:      -7.9     31.547     36.718
ROOT
ATOM    133  H29 UNL A   1      22.242  21.652  -1.005  1.00  0.00    +0.000 H 
ATOM    134  H30 UNL A   1      20.962  23.288  -2.614  1.00  0.00    +0.000 H 
ATOM    135  H31 UNL A   1      20.967  24.933   1.183  1.00  0.00    +0.000 H 
ATOM    136  H32 UNL A   1      18.241  21.877  -3.132  1.00  0.00    +0.000 H 
ATOM    137  H33 UNL A   1      19.327  21.185  -0.917  1.00  0.00    +0.000 H 
ATOM    138  H34 UNL A   1      15.201  20.973  -0.533  1.00  0.00    +0.000 H 
ATOM    139  H35 UNL A   1      15.910  26.061  -3.434  1.00  0.00    +0.000 H 
ATOM    140  H36 UNL A   1      18.141  27.266  -2.991  1.00  0.00    +0.000 H 
ATOM    141  H37 UNL A   1      20.833  21.126   4.312  1.00  0.00    +0.000 H 
ATOM    142  H38 UNL A   1      18.399  20.398   3.907  1.00  0.00    +0.000 H 
ATOM     38  C25 UNL A   1      17.430  21.344   1.300  1.00  0.00    +0.000 C 
ATOM     39  C26 UNL A   1      18.696  21.581   2.004  1.00  0.00    +0.000 C 
ATOM     40  N6  UNL A   1      19.618  22.370   1.589  1.00  0.00    +0.000 N 
ATOM     41  C27 UNL A   1      20.735  22.133   2.362  1.00  0.00    +0.000 C 
ATOM     42  C28 UNL A   1      21.951  22.477   1.852  1.00  0.00    +0.000 C 
ATOM     54  C35 UNL A   1      21.768  23.089   0.538  1.00  0.00    +0.000 C 
ATOM     55  C36 UNL A   1      21.799  22.544  -0.736  1.00  0.00    +0.000 C 
ATOM     56  C37 UNL A   1      21.114  23.430  -1.604  1.00  0.00    +0.000 C 
ATOM     57  C38 UNL A   1      20.686  24.519  -0.862  1.00  0.00    +0.000 C 
ATOM     58  N7  UNL A   1      21.110  24.308   0.436  1.00  0.00    +0.000 N 
ATOM     59  C39 UNL A   1      19.991  25.740  -1.235  1.00  0.00    +0.000 C 
ATOM     71  C46 UNL A   1      18.741  25.548  -1.757  1.00  0.00    +0.000 C 
ATOM     72  N8  UNL A   1      18.017  24.411  -1.510  1.00  0.00    +0.000 N 
ATOM     73  C47 UNL A   1      16.871  24.487  -2.129  1.00  0.00    +0.000 C 
ATOM     74  C48 UNL A   1      15.835  23.391  -2.105  1.00  0.00    +0.000 C 
ATOM     86  C55 UNL A   1      16.393  22.157  -1.919  1.00  0.00    +0.000 C 
ATOM     87  C56 UNL A   1      17.775  21.816  -2.213  1.00  0.00    +0.000 C 
ATOM     88  C57 UNL A   1      18.329  21.407  -1.059  1.00  0.00    +0.000 C 
ATOM     89  C58 UNL A   1      17.288  21.329  -0.043  1.00  0.00    +0.000 C 
ATOM     90  N9  UNL A   1      16.067  21.379  -0.768  1.00  0.00    +0.000 N 
ATOM     91  C59 UNL A   1      16.709  25.733  -2.869  1.00  0.00    +0.000 C 
ATOM     92  C60 UNL A   1      17.881  26.341  -2.616  1.00  0.00    +0.000 C 
ATOM     93  C61 UNL A   1      20.267  21.356   3.480  1.00  0.00    +0.000 C 
ATOM     94  C62 UNL A   1      19.001  20.972   3.297  1.00  0.00    +0.000 C 
ENDROOT
BRANCH   38   37
ATOM     34  C21 UNL A   1      14.587  20.171   4.043  1.00  0.00    +0.000 C 
ATOM     35  C22 UNL A   1      14.987  19.205   3.108  1.00  0.00    +0.000 C 
ATOM     36  C23 UNL A   1      15.854  19.572   2.092  1.00  0.00    +0.000 C 
ATOM    131  H27 UNL A   1      14.640  18.235   3.176  1.00  0.00    +0.000 H 
ATOM    132  H28 UNL A   1      16.139  18.901   1.362  1.00  0.00    +0.000 H 
ATOM     37  C24 UNL A   1      16.322  20.878   2.098  1.00  0.00    +0.000 C 
ATOM    143  H39 UNL A   1      16.029  22.854   2.791  1.00  0.00    +0.000 H 
ATOM    144  H40 UNL A   1      14.176  22.238   4.243  1.00  0.00    +0.000 H 
ATOM     95  C63 UNL A   1      15.733  21.869   2.884  1.00  0.00    +0.000 C 
ATOM     96  C64 UNL A   1      14.759  21.523   3.781  1.00  0.00    +0.000 C 
BRANCH   34   32
ATOM     33  O7  UNL A   1      13.679  18.760   5.683  1.00  0.00    +0.000 O 
ATOM     32  C20 UNL A   1      14.441  19.689   5.436  1.00  0.00    +0.000 C 
BRANCH   32   31
ATOM    130  H26 UNL A   1      14.894  20.491   7.226  1.00  0.00    +0.000 H 
ATOM     31  N5  UNL A   1      15.315  20.144   6.407  1.00  0.00    +0.000 N 
BRANCH   31   30
ATOM    129  H25 UNL A   1      17.077  20.914   7.108  1.00  0.00    +0.000 H 
ATOM     30  C19 UNL A   1      16.770  20.182   6.390  1.00  0.00    +0.000 C 
ATOM    128  H24 UNL A   1      17.093  20.431   5.401  1.00  0.00    +0.000 H 
BRANCH   30   29
ATOM     29  C18 UNL A   1      17.407  18.864   6.789  1.00  0.00    +0.000 C 
ATOM    126  H22 UNL A   1      17.761  18.954   7.795  1.00  0.00    +0.000 H 
ATOM    127  H23 UNL A   1      16.653  18.114   6.678  1.00  0.00    +0.000 H 
BRANCH   29   28
ATOM    124  H20 UNL A   1      18.193  17.817   5.127  1.00  0.00    +0.000 H 
ATOM     28  C17 UNL A   1      18.580  18.439   5.907  1.00  0.00    +0.000 C 
ATOM    125  H21 UNL A   1      19.025  19.348   5.562  1.00  0.00    +0.000 H 
BRANCH   28   27
ATOM    122  H18 UNL A   1      19.327  17.303   7.538  1.00  0.00    +0.000 H 
ATOM     27  C16 UNL A   1      19.708  17.667   6.608  1.00  0.00    +0.000 C 
ATOM    123  H19 UNL A   1      20.000  16.896   5.926  1.00  0.00    +0.000 H 
BRANCH   27   26
ATOM    121  H17 UNL A   1      21.541  17.893   7.610  1.00  0.00    +0.000 H 
ATOM     26  C15 UNL A   1      20.978  18.465   6.901  1.00  0.00    +0.000 C 
ATOM    120  H16 UNL A   1      20.692  19.426   7.274  1.00  0.00    +0.000 H 
BRANCH   26   25
ATOM     25  C14 UNL A   1      21.881  18.673   5.694  1.00  0.00    +0.000 C 
ATOM    118  H14 UNL A   1      21.267  18.800   4.827  1.00  0.00    +0.000 H 
ATOM    119  H15 UNL A   1      22.482  19.535   5.892  1.00  0.00    +0.000 H 
BRANCH   25   24
ATOM    117  H13 UNL A   1      23.492  17.443   6.130  1.00  0.00    +0.000 H 
ATOM     24  N4  UNL A   1      22.782  17.569   5.460  1.00  0.00    +0.000 N 
BRANCH   24   22
ATOM     22  C13 UNL A   1      22.772  16.678   4.424  1.00  0.00    +0.000 C 
ATOM     23  O6  UNL A   1      23.515  16.907   3.466  1.00  0.00    +0.000 O 
BRANCH   22   21
ATOM    115  H11 UNL A   1      20.854  15.832   4.801  1.00  0.00    +0.000 H 
ATOM    116  H12 UNL A   1      21.703  15.218   3.349  1.00  0.00    +0.000 H 
ATOM     21  C12 UNL A   1      21.779  15.501   4.378  1.00  0.00    +0.000 C 
BRANCH   21   20
ATOM    114  H10 UNL A   1      21.659  13.503   4.904  1.00  0.00    +0.000 H 
ATOM     20  N3  UNL A   1      22.197  14.305   5.094  1.00  0.00    +0.000 N 
BRANCH   20   18
ATOM     18  C11 UNL A   1      23.210  14.114   5.986  1.00  0.00    +0.000 C 
ATOM     19  O5  UNL A   1      22.917  13.677   7.102  1.00  0.00    +0.000 O 
BRANCH   18   17
ATOM     17  C10 UNL A   1      24.671  14.436   5.629  1.00  0.00    +0.000 C 
ATOM    113  H9  UNL A   1      24.635  15.106   4.797  1.00  0.00    +0.000 H 
ATOM    112  H8  UNL A   1      25.170  13.515   5.412  1.00  0.00    +0.000 H 
BRANCH   17   16
ATOM    111  H7  UNL A   1      25.250  14.790   7.587  1.00  0.00    +0.000 H 
ATOM     16  N2  UNL A   1      25.426  15.126   6.679  1.00  0.00    +0.000 N 
BRANCH   16   14
ATOM     14  C9  UNL A   1      26.339  16.161   6.626  1.00  0.00    +0.000 C 
ATOM     15  O4  UNL A   1      27.457  15.934   6.175  1.00  0.00    +0.000 O 
BRANCH   14   12
ATOM     12  C8  UNL A   1      25.959  17.572   7.124  1.00  0.00    +0.000 C 
ATOM     13  O3  UNL A   1      25.895  18.463   6.283  1.00  0.00    +0.000 O 
BRANCH   12   11
ATOM     97  C65 UNL A   1      24.524  17.415   9.262  1.00  0.00    +0.000 C 
ATOM     98  C66 UNL A   1      23.421  16.604   8.910  1.00  0.00    +0.000 C 
ATOM     99  C67 UNL A   1      22.461  16.268   9.864  1.00  0.00    +0.000 C 
ATOM    100  C68 UNL A   1      22.570  16.743  11.163  1.00  0.00    +0.000 C 
ATOM    101  C69 UNL A   1      23.631  17.571  11.540  1.00  0.00    +0.000 C 
ATOM    102  C70 UNL A   1      24.605  17.891  10.577  1.00  0.00    +0.000 C 
ATOM      9  N1  UNL A   1      25.775  18.620  10.639  1.00  0.00    +0.000 N 
ATOM     10  C6  UNL A   1      26.422  18.632   9.425  1.00  0.00    +0.000 C 
ATOM     11  C7  UNL A   1      25.676  17.883   8.532  1.00  0.00    +0.000 C 
ATOM    110  H6  UNL A   1      27.310  19.115   9.216  1.00  0.00    +0.000 H 
ATOM    145  H41 UNL A   1      23.327  16.258   7.941  1.00  0.00    +0.000 H 
ATOM    146  H42 UNL A   1      21.667  15.663   9.602  1.00  0.00    +0.000 H 
ATOM    147  H43 UNL A   1      21.857  16.481  11.861  1.00  0.00    +0.000 H 
ATOM    148  H44 UNL A   1      23.699  17.939  12.503  1.00  0.00    +0.000 H 
BRANCH    9    6
ATOM      6  S1  UNL A   1      26.402  19.321  12.062  1.00  0.00    +0.000 S 
ATOM      7  O1  UNL A   1      27.802  19.550  11.788  1.00  0.00    +0.000 O 
ATOM      8  O2  UNL A   1      25.958  18.462  13.151  1.00  0.00    +0.000 O 
BRANCH    6    5
ATOM      2  C2  UNL A   1      24.295  23.309  12.823  1.00  0.00    +0.000 C 
ATOM      3  C3  UNL A   1      23.608  22.093  12.899  1.00  0.00    +0.000 C 
ATOM      4  C4  UNL A   1      24.268  20.891  12.639  1.00  0.00    +0.000 C 
ATOM      5  C5  UNL A   1      25.623  20.899  12.287  1.00  0.00    +0.000 C 
ATOM    103  C71 UNL A   1      26.307  22.111  12.168  1.00  0.00    +0.000 C 
ATOM    104  C72 UNL A   1      25.644  23.309  12.448  1.00  0.00    +0.000 C 
ATOM    108  H4  UNL A   1      22.606  22.084  13.149  1.00  0.00    +0.000 H 
ATOM    109  H5  UNL A   1      23.758  19.996  12.707  1.00  0.00    +0.000 H 
ATOM    149  H45 UNL A   1      27.297  22.120  11.875  1.00  0.00    +0.000 H 
ATOM    150  H46 UNL A   1      26.155  24.203  12.377  1.00  0.00    +0.000 H 
BRANCH    2    1
ATOM      1  C1  UNL A   1      23.585  24.593  13.138  1.00  0.00    +0.000 C 
ATOM    106  H2  UNL A   1      24.301  25.381  13.247  1.00  0.00    +0.000 H 
ATOM    107  H3  UNL A   1      23.035  24.483  14.050  1.00  0.00    +0.000 H 
ATOM    105  H1  UNL A   1      22.910  24.833  12.341  1.00  0.00    +0.000 H 
ENDBRANCH    2    1
ENDBRANCH    6    5
ENDBRANCH    9    6
ENDBRANCH   12   11
ENDBRANCH   14   12
ENDBRANCH   16   14
ENDBRANCH   17   16
ENDBRANCH   18   17
ENDBRANCH   20   18
ENDBRANCH   21   20
ENDBRANCH   22   21
ENDBRANCH   24   22
ENDBRANCH   25   24
ENDBRANCH   26   25
ENDBRANCH   27   26
ENDBRANCH   28   27
ENDBRANCH   29   28
ENDBRANCH   30   29
ENDBRANCH   31   30
ENDBRANCH   32   31
ENDBRANCH   34   32
ENDBRANCH   38   37
BRANCH   42   43
ATOM     43  C29 UNL A   1      23.291  21.984   2.351  1.00  0.00    +0.000 C 
ATOM     44  C30 UNL A   1      24.235  22.904   2.864  1.00  0.00    +0.000 C 
ATOM     45  F1  UNL A   1      23.932  24.196   3.037  1.00  0.00    +0.000 F 
ATOM     46  C31 UNL A   1      25.532  22.535   3.226  1.00  0.00    +0.000 C 
ATOM     47  F2  UNL A   1      26.379  23.462   3.694  1.00  0.00    +0.000 F 
ATOM     48  C32 UNL A   1      25.948  21.228   3.095  1.00  0.00    +0.000 C 
ATOM     49  F3  UNL A   1      27.198  20.876   3.421  1.00  0.00    +0.000 F 
ATOM     50  C33 UNL A   1      25.046  20.283   2.652  1.00  0.00    +0.000 C 
ATOM     51  F4  UNL A   1      25.426  19.002   2.542  1.00  0.00    +0.000 F 
ATOM     52  C34 UNL A   1      23.734  20.648   2.324  1.00  0.00    +0.000 C 
ATOM     53  F5  UNL A   1      22.907  19.638   2.039  1.00  0.00    +0.000 F 
ENDBRANCH   42   43
BRANCH   59   60
ATOM     65  C43 UNL A   1      21.912  29.645  -0.950  1.00  0.00    +0.000 C 
ATOM     66  F8  UNL A   1      22.472  30.859  -0.868  1.00  0.00    +0.000 F 
ATOM     67  C44 UNL A   1      21.055  29.208   0.035  1.00  0.00    +0.000 C 
ATOM     68  F9  UNL A   1      20.734  30.015   1.055  1.00  0.00    +0.000 F 
ATOM     69  C45 UNL A   1      20.502  27.931  -0.037  1.00  0.00    +0.000 C 
ATOM     70  F10 UNL A   1      19.710  27.594   0.991  1.00  0.00    +0.000 F 
ATOM     60  C40 UNL A   1      20.727  27.058  -1.133  1.00  0.00    +0.000 C 
ATOM     61  C41 UNL A   1      21.548  27.579  -2.146  1.00  0.00    +0.000 C 
ATOM     62  F6  UNL A   1      21.730  26.935  -3.306  1.00  0.00    +0.000 F 
ATOM     63  C42 UNL A   1      22.168  28.827  -2.032  1.00  0.00    +0.000 C 
ATOM     64  F7  UNL A   1      22.995  29.244  -3.001  1.00  0.00    +0.000 F 
ENDBRANCH   59   60
BRANCH   74   75
ATOM     75  C49 UNL A   1      14.474  23.491  -1.504  1.00  0.00    +0.000 C 
ATOM     76  C50 UNL A   1      13.396  22.974  -2.253  1.00  0.00    +0.000 C 
ATOM     77  F11 UNL A   1      13.507  22.850  -3.586  1.00  0.00    +0.000 F 
ATOM     78  C51 UNL A   1      12.268  22.446  -1.629  1.00  0.00    +0.000 C 
ATOM     79  F12 UNL A   1      11.332  21.821  -2.357  1.00  0.00    +0.000 F 
ATOM     80  C52 UNL A   1      12.162  22.488  -0.249  1.00  0.00    +0.000 C 
ATOM     81  F13 UNL A   1      11.134  21.885   0.363  1.00  0.00    +0.000 F 
ATOM     82  C53 UNL A   1      13.146  23.122   0.496  1.00  0.00    +0.000 C 
ATOM     83  F14 UNL A   1      13.040  23.163   1.833  1.00  0.00    +0.000 F 
ATOM     84  C54 UNL A   1      14.294  23.624  -0.123  1.00  0.00    +0.000 C 
ATOM     85  F15 UNL A   1      15.274  24.122   0.645  1.00  0.00    +0.000 F 
ENDBRANCH   74   75
TORSDOF 25
ENDMDL
