MODEL 1
REMARK VINA RESULT:     -11.3      0.000      0.000
ROOT
ATOM     28  C23 UNL A   1      38.030  30.241  29.843  1.00  0.00    +0.000 C 
ATOM     29  C24 UNL A   1      39.062  29.309  29.276  1.00  0.00    +0.000 C 
ATOM     30  N4  UNL A   1      40.134  28.813  29.841  1.00  0.00    +0.000 N 
ATOM     31  C25 UNL A   1      40.699  27.966  28.897  1.00  0.00    +0.000 C 
ATOM     32  C26 UNL A   1      41.847  27.251  28.984  1.00  0.00    +0.000 C 
ATOM     44  C33 UNL A   1      42.726  27.262  30.123  1.00  0.00    +0.000 C 
ATOM     45  C34 UNL A   1      43.934  26.609  30.289  1.00  0.00    +0.000 C 
ATOM     46  C35 UNL A   1      44.414  26.894  31.572  1.00  0.00    +0.000 C 
ATOM     47  C36 UNL A   1      43.524  27.758  32.190  1.00  0.00    +0.000 C 
ATOM     48  N5  UNL A   1      42.490  27.969  31.293  1.00  0.00    +0.000 N 
ATOM     49  C37 UNL A   1      43.611  28.345  33.501  1.00  0.00    +0.000 C 
ATOM     61  C44 UNL A   1      42.690  29.178  34.043  1.00  0.00    +0.000 C 
ATOM     62  N6  UNL A   1      41.514  29.660  33.484  1.00  0.00    +0.000 N 
ATOM     63  C45 UNL A   1      40.972  30.431  34.393  1.00  0.00    +0.000 C 
ATOM     64  C46 UNL A   1      39.703  31.237  34.320  1.00  0.00    +0.000 C 
ATOM     76  C53 UNL A   1      38.984  31.237  33.180  1.00  0.00    +0.000 C 
ATOM     77  C54 UNL A   1      37.731  31.955  32.968  1.00  0.00    +0.000 C 
ATOM     78  C55 UNL A   1      37.257  31.658  31.748  1.00  0.00    +0.000 C 
ATOM     79  C56 UNL A   1      38.195  30.760  31.075  1.00  0.00    +0.000 C 
ATOM     80  N7  UNL A   1      39.206  30.588  31.989  1.00  0.00    +0.000 N 
ATOM     81  C57 UNL A   1      41.727  30.497  35.653  1.00  0.00    +0.000 C 
ATOM     82  C58 UNL A   1      42.782  29.744  35.374  1.00  0.00    +0.000 C 
ATOM     83  C59 UNL A   1      39.833  27.984  27.738  1.00  0.00    +0.000 C 
ATOM     84  C60 UNL A   1      38.842  28.849  27.896  1.00  0.00    +0.000 C 
ATOM    119  H27 UNL A   1      44.402  26.015  29.586  1.00  0.00    +0.000 H 
ATOM    120  H28 UNL A   1      45.283  26.523  31.987  1.00  0.00    +0.000 H 
ATOM    121  H29 UNL A   1      41.704  28.537  31.461  1.00  0.00    +0.000 H 
ATOM    122  H30 UNL A   1      37.281  32.588  33.648  1.00  0.00    +0.000 H 
ATOM    123  H31 UNL A   1      36.371  32.007  31.349  1.00  0.00    +0.000 H 
ATOM    124  H32 UNL A   1      40.011  30.053  31.808  1.00  0.00    +0.000 H 
ATOM    125  H33 UNL A   1      41.498  30.998  36.525  1.00  0.00    +0.000 H 
ATOM    126  H34 UNL A   1      43.569  29.581  36.021  1.00  0.00    +0.000 H 
ATOM    127  H35 UNL A   1      39.969  27.400  26.898  1.00  0.00    +0.000 H 
ATOM    128  H36 UNL A   1      38.109  29.129  27.226  1.00  0.00    +0.000 H 
ENDROOT
BRANCH   28   27
ATOM    129  H37 UNL A   1      36.129  28.508  29.123  1.00  0.00    +0.000 H 
ATOM    130  H38 UNL A   1      34.135  28.894  27.800  1.00  0.00    +0.000 H 
ATOM     27  C22 UNL A   1      36.786  30.518  29.079  1.00  0.00    +0.000 C 
ATOM    117  H25 UNL A   1      35.037  32.999  27.634  1.00  0.00    +0.000 H 
ATOM     86  C62 UNL A   1      34.739  29.687  28.068  1.00  0.00    +0.000 C 
ATOM     85  C61 UNL A   1      35.908  29.461  28.792  1.00  0.00    +0.000 C 
ATOM     24  C19 UNL A   1      34.388  30.989  27.703  1.00  0.00    +0.000 C 
ATOM     25  C20 UNL A   1      35.272  32.046  27.948  1.00  0.00    +0.000 C 
ATOM     26  C21 UNL A   1      36.475  31.807  28.621  1.00  0.00    +0.000 C 
ATOM    118  H26 UNL A   1      37.136  32.583  28.781  1.00  0.00    +0.000 H 
BRANCH   24   22
ATOM     22  C18 UNL A   1      33.093  31.285  27.047  1.00  0.00    +0.000 C 
ATOM     23  O2  UNL A   1      32.654  32.429  27.067  1.00  0.00    +0.000 O 
BRANCH   22   21
ATOM    116  H24 UNL A   1      32.405  29.407  26.916  1.00  0.00    +0.000 H 
ATOM     21  N3  UNL A   1      32.371  30.276  26.454  1.00  0.00    +0.000 N 
BRANCH   21   20
ATOM    114  H22 UNL A   1      30.900  31.139  25.303  1.00  0.00    +0.000 H 
ATOM    115  H23 UNL A   1      32.240  30.376  24.420  1.00  0.00    +0.000 H 
ATOM     20  C17 UNL A   1      31.565  30.303  25.247  1.00  0.00    +0.000 C 
BRANCH   20   19
ATOM    113  H21 UNL A   1      29.773  29.268  25.447  1.00  0.00    +0.000 H 
ATOM     19  C16 UNL A   1      30.735  29.042  25.038  1.00  0.00    +0.000 C 
ATOM    112  H20 UNL A   1      31.246  28.233  25.517  1.00  0.00    +0.000 H 
BRANCH   19   18
ATOM     18  C15 UNL A   1      30.469  28.630  23.589  1.00  0.00    +0.000 C 
ATOM    110  H18 UNL A   1      29.622  29.188  23.248  1.00  0.00    +0.000 H 
ATOM    111  H19 UNL A   1      31.385  28.830  23.075  1.00  0.00    +0.000 H 
BRANCH   18   17
ATOM     17  C14 UNL A   1      30.183  27.150  23.322  1.00  0.00    +0.000 C 
ATOM    108  H16 UNL A   1      29.582  27.096  22.439  1.00  0.00    +0.000 H 
ATOM    109  H17 UNL A   1      31.150  26.697  23.251  1.00  0.00    +0.000 H 
BRANCH   17   16
ATOM    106  H14 UNL A   1      28.838  27.032  24.952  1.00  0.00    +0.000 H 
ATOM    107  H15 UNL A   1      28.947  25.574  23.890  1.00  0.00    +0.000 H 
ATOM     16  C13 UNL A   1      29.464  26.351  24.414  1.00  0.00    +0.000 C 
BRANCH   16   15
ATOM    105  H13 UNL A   1      29.819  25.697  26.375  1.00  0.00    +0.000 H 
ATOM     15  C12 UNL A   1      30.333  25.622  25.438  1.00  0.00    +0.000 C 
ATOM    104  H12 UNL A   1      31.297  26.086  25.446  1.00  0.00    +0.000 H 
BRANCH   15   14
ATOM     14  N2  UNL A   1      30.514  24.212  25.185  1.00  0.00    +0.000 N 
ATOM    103  H11 UNL A   1      30.152  23.617  25.880  1.00  0.00    +0.000 H 
BRANCH   14   12
ATOM     12  C11 UNL A   1      31.114  23.567  24.125  1.00  0.00    +0.000 C 
ATOM     13  O1  UNL A   1      30.452  23.486  23.090  1.00  0.00    +0.000 O 
BRANCH   12   11
ATOM      3  C2  UNL A   1      34.800  23.096  24.218  1.00  0.00    +0.000 C 
ATOM      4  C3  UNL A   1      33.673  23.901  24.086  1.00  0.00    +0.000 C 
ATOM    131  H39 UNL A   1      31.403  20.372  23.820  1.00  0.00    +0.000 H 
ATOM    134  H42 UNL A   1      36.099  20.747  24.987  1.00  0.00    +0.000 H 
ATOM    133  H41 UNL A   1      35.004  18.634  25.159  1.00  0.00    +0.000 H 
ATOM    132  H40 UNL A   1      32.641  18.448  24.418  1.00  0.00    +0.000 H 
ATOM     11  C10 UNL A   1      32.494  23.075  24.196  1.00  0.00    +0.000 C 
ATOM     87  C63 UNL A   1      32.971  21.769  24.235  1.00  0.00    +0.000 C 
ATOM     88  C64 UNL A   1      32.381  20.470  24.136  1.00  0.00    +0.000 C 
ATOM     89  C65 UNL A   1      33.095  19.374  24.453  1.00  0.00    +0.000 C 
ATOM     90  C66 UNL A   1      34.488  19.469  24.841  1.00  0.00    +0.000 C 
ATOM     91  C67 UNL A   1      35.091  20.665  24.779  1.00  0.00    +0.000 C 
ATOM     92  N8  UNL A   1      34.353  21.806  24.433  1.00  0.00    +0.000 N 
BRANCH    3    2
ATOM     97  H5  UNL A   1      36.367  24.262  23.446  1.00  0.00    +0.000 H 
ATOM      2  C1  UNL A   1      36.251  23.439  24.120  1.00  0.00    +0.000 C 
ATOM     96  H4  UNL A   1      36.791  22.588  23.761  1.00  0.00    +0.000 H 
BRANCH    2    1
ATOM      1  N1  UNL A   1      36.775  23.822  25.422  1.00  0.00    +0.000 N 
ATOM     93  H1  UNL A   1      36.671  24.829  25.547  1.00  0.00    +0.000 H 
ATOM     94  H2  UNL A   1      37.761  23.572  25.479  1.00  0.00    +0.000 H 
ATOM     95  H3  UNL A   1      36.258  23.334  26.153  1.00  0.00    +0.000 H 
ENDBRANCH    2    1
ENDBRANCH    3    2
BRANCH    4    5
ATOM     98  H6  UNL A   1      33.515  25.215  21.758  1.00  0.00    +0.000 H 
ATOM     99  H7  UNL A   1      33.658  27.610  21.389  1.00  0.00    +0.000 H 
ATOM    100  H8  UNL A   1      33.981  29.114  23.265  1.00  0.00    +0.000 H 
ATOM      5  C4  UNL A   1      33.763  25.335  23.852  1.00  0.00    +0.000 C 
ATOM    102  H10 UNL A   1      34.055  25.832  25.885  1.00  0.00    +0.000 H 
ATOM      6  C5  UNL A   1      33.655  25.852  22.557  1.00  0.00    +0.000 C 
ATOM      7  C6  UNL A   1      33.737  27.231  22.346  1.00  0.00    +0.000 C 
ATOM      9  C8  UNL A   1      34.039  27.586  24.716  1.00  0.00    +0.000 C 
ATOM     10  C9  UNL A   1      33.964  26.209  24.929  1.00  0.00    +0.000 C 
ATOM    101  H9  UNL A   1      34.179  28.225  25.513  1.00  0.00    +0.000 H 
ATOM      8  C7  UNL A   1      33.926  28.097  23.424  1.00  0.00    +0.000 C 
ENDBRANCH    4    5
ENDBRANCH   12   11
ENDBRANCH   14   12
ENDBRANCH   15   14
ENDBRANCH   16   15
ENDBRANCH   17   16
ENDBRANCH   18   17
ENDBRANCH   19   18
ENDBRANCH   20   19
ENDBRANCH   21   20
ENDBRANCH   22   21
ENDBRANCH   24   22
ENDBRANCH   28   27
BRANCH   32   33
ATOM     33  C27 UNL A   1      42.215  26.391  27.810  1.00  0.00    +0.000 C 
ATOM     34  C28 UNL A   1      43.132  26.823  26.841  1.00  0.00    +0.000 C 
ATOM     35  F1  UNL A   1      43.678  28.045  26.926  1.00  0.00    +0.000 F 
ATOM     36  C29 UNL A   1      43.460  26.016  25.755  1.00  0.00    +0.000 C 
ATOM     37  F2  UNL A   1      44.298  26.471  24.813  1.00  0.00    +0.000 F 
ATOM     38  C30 UNL A   1      42.906  24.751  25.636  1.00  0.00    +0.000 C 
ATOM     39  F3  UNL A   1      43.224  23.974  24.591  1.00  0.00    +0.000 F 
ATOM     40  C31 UNL A   1      42.016  24.293  26.595  1.00  0.00    +0.000 C 
ATOM     41  F4  UNL A   1      41.488  23.065  26.487  1.00  0.00    +0.000 F 
ATOM     42  C32 UNL A   1      41.664  25.109  27.667  1.00  0.00    +0.000 C 
ATOM     43  F5  UNL A   1      40.787  24.645  28.570  1.00  0.00    +0.000 F 
ENDBRANCH   32   33
BRANCH   49   50
ATOM     50  C38 UNL A   1      44.827  28.031  34.321  1.00  0.00    +0.000 C 
ATOM     51  C39 UNL A   1      45.961  28.854  34.300  1.00  0.00    +0.000 C 
ATOM     52  F6  UNL A   1      46.010  29.915  33.480  1.00  0.00    +0.000 F 
ATOM     53  C40 UNL A   1      47.063  28.573  35.104  1.00  0.00    +0.000 C 
ATOM     54  F7  UNL A   1      48.150  29.354  35.045  1.00  0.00    +0.000 F 
ATOM     55  C41 UNL A   1      47.039  27.482  35.960  1.00  0.00    +0.000 C 
ATOM     56  F8  UNL A   1      48.096  27.220  36.743  1.00  0.00    +0.000 F 
ATOM     57  C42 UNL A   1      45.923  26.660  36.004  1.00  0.00    +0.000 C 
ATOM     58  F9  UNL A   1      45.895  25.612  36.839  1.00  0.00    +0.000 F 
ATOM     59  C43 UNL A   1      44.830  26.924  35.184  1.00  0.00    +0.000 C 
ATOM     60  F10 UNL A   1      43.766  26.110  35.242  1.00  0.00    +0.000 F 
ENDBRANCH   49   50
BRANCH   64   65
ATOM     65  C47 UNL A   1      39.253  32.052  35.476  1.00  0.00    +0.000 C 
ATOM     66  C48 UNL A   1      39.634  33.396  35.596  1.00  0.00    +0.000 C 
ATOM     67  F11 UNL A   1      40.435  33.948  34.673  1.00  0.00    +0.000 F 
ATOM     68  C49 UNL A   1      39.226  34.166  36.683  1.00  0.00    +0.000 C 
ATOM     69  F12 UNL A   1      39.636  35.436  36.793  1.00  0.00    +0.000 F 
ATOM     70  C50 UNL A   1      38.408  33.615  37.658  1.00  0.00    +0.000 C 
ATOM     71  F13 UNL A   1      38.010  34.357  38.700  1.00  0.00    +0.000 F 
ATOM     72  C51 UNL A   1      38.006  32.291  37.553  1.00  0.00    +0.000 C 
ATOM     73  F14 UNL A   1      37.205  31.759  38.486  1.00  0.00    +0.000 F 
ATOM     74  C52 UNL A   1      38.434  31.513  36.479  1.00  0.00    +0.000 C 
ATOM     75  F15 UNL A   1      38.039  30.233  36.408  1.00  0.00    +0.000 F 
ENDBRANCH   64   65
TORSDOF 18
ENDMDL
MODEL 2
REMARK VINA RESULT:     -11.1     33.153     39.002
ROOT
ATOM     28  C23 UNL A   1      10.748   2.809  21.500  1.00  0.00    +0.000 C 
ATOM     29  C24 UNL A   1       9.828   3.735  22.244  1.00  0.00    +0.000 C 
ATOM     30  N4  UNL A   1       9.375   4.912  21.897  1.00  0.00    +0.000 N 
ATOM     31  C25 UNL A   1       8.519   5.303  22.918  1.00  0.00    +0.000 C 
ATOM     32  C26 UNL A   1       7.836   6.466  23.050  1.00  0.00    +0.000 C 
ATOM     44  C33 UNL A   1       7.899   7.554  22.110  1.00  0.00    +0.000 C 
ATOM     45  C34 UNL A   1       7.282   8.791  22.178  1.00  0.00    +0.000 C 
ATOM     46  C35 UNL A   1       7.611   9.509  21.024  1.00  0.00    +0.000 C 
ATOM     47  C36 UNL A   1       8.468   8.735  20.256  1.00  0.00    +0.000 C 
ATOM     48  N5  UNL A   1       8.629   7.536  20.931  1.00  0.00    +0.000 N 
ATOM     49  C37 UNL A   1       9.090   9.065  19.001  1.00  0.00    +0.000 C 
ATOM     61  C44 UNL A   1       9.913   8.247  18.302  1.00  0.00    +0.000 C 
ATOM     62  N6  UNL A   1      10.349   6.968  18.623  1.00  0.00    +0.000 N 
ATOM     63  C45 UNL A   1      11.129   6.595  17.639  1.00  0.00    +0.000 C 
ATOM     64  C46 UNL A   1      11.900   5.314  17.471  1.00  0.00    +0.000 C 
ATOM     76  C53 UNL A   1      11.852   4.382  18.443  1.00  0.00    +0.000 C 
ATOM     77  C54 UNL A   1      12.532   3.090  18.413  1.00  0.00    +0.000 C 
ATOM     78  C55 UNL A   1      12.192   2.390  19.506  1.00  0.00    +0.000 C 
ATOM     79  C56 UNL A   1      11.301   3.202  20.337  1.00  0.00    +0.000 C 
ATOM     80  N7  UNL A   1      11.180   4.380  19.641  1.00  0.00    +0.000 N 
ATOM     81  C57 UNL A   1      11.247   7.586  16.558  1.00  0.00    +0.000 C 
ATOM     82  C58 UNL A   1      10.514   8.586  17.028  1.00  0.00    +0.000 C 
ATOM     83  C59 UNL A   1       8.485   4.222  23.879  1.00  0.00    +0.000 C 
ATOM     84  C60 UNL A   1       9.328   3.257  23.543  1.00  0.00    +0.000 C 
ATOM    119  H27 UNL A   1       6.682   9.126  22.949  1.00  0.00    +0.000 H 
ATOM    120  H28 UNL A   1       7.274  10.454  20.784  1.00  0.00    +0.000 H 
ATOM    121  H29 UNL A   1       9.181   6.783  20.620  1.00  0.00    +0.000 H 
ATOM    122  H30 UNL A   1      13.171   2.767  17.669  1.00  0.00    +0.000 H 
ATOM    123  H31 UNL A   1      12.508   1.432  19.726  1.00  0.00    +0.000 H 
ATOM    124  H32 UNL A   1      10.661   5.149  19.970  1.00  0.00    +0.000 H 
ATOM    125  H33 UNL A   1      11.764   7.521  15.668  1.00  0.00    +0.000 H 
ATOM    126  H34 UNL A   1      10.389   9.491  16.549  1.00  0.00    +0.000 H 
ATOM    127  H35 UNL A   1       7.884   4.205  24.717  1.00  0.00    +0.000 H 
ATOM    128  H36 UNL A   1       9.571   2.396  24.057  1.00  0.00    +0.000 H 
ENDROOT
BRANCH   28   27
ATOM    129  H37 UNL A   1       9.152   0.684  21.225  1.00  0.00    +0.000 H 
ATOM    130  H38 UNL A   1       9.432  -1.557  22.107  1.00  0.00    +0.000 H 
ATOM     27  C22 UNL A   1      10.972   1.429  22.003  1.00  0.00    +0.000 C 
ATOM    117  H25 UNL A   1      13.187  -0.477  23.667  1.00  0.00    +0.000 H 
ATOM     86  C62 UNL A   1      10.180  -0.856  22.229  1.00  0.00    +0.000 C 
ATOM     85  C61 UNL A   1      10.003   0.444  21.759  1.00  0.00    +0.000 C 
ATOM     24  C19 UNL A   1      11.372  -1.209  22.866  1.00  0.00    +0.000 C 
ATOM     25  C20 UNL A   1      12.329  -0.228  23.150  1.00  0.00    +0.000 C 
ATOM     26  C21 UNL A   1      12.122   1.090  22.733  1.00  0.00    +0.000 C 
ATOM    118  H26 UNL A   1      12.818   1.817  22.963  1.00  0.00    +0.000 H 
BRANCH   24   22
ATOM     22  C18 UNL A   1      11.651  -2.609  23.263  1.00  0.00    +0.000 C 
ATOM     23  O2  UNL A   1      12.266  -3.342  22.498  1.00  0.00    +0.000 O 
BRANCH   22   21
ATOM    116  H24 UNL A   1      10.820  -4.005  24.436  1.00  0.00    +0.000 H 
ATOM     21  N3  UNL A   1      11.189  -3.093  24.466  1.00  0.00    +0.000 N 
BRANCH   21   20
ATOM    114  H22 UNL A   1      10.950  -1.417  25.635  1.00  0.00    +0.000 H 
ATOM    115  H23 UNL A   1      10.417  -2.955  26.349  1.00  0.00    +0.000 H 
ATOM     20  C17 UNL A   1      11.166  -2.457  25.770  1.00  0.00    +0.000 C 
BRANCH   20   19
ATOM    113  H21 UNL A   1      13.148  -3.076  25.862  1.00  0.00    +0.000 H 
ATOM     19  C16 UNL A   1      12.478  -2.581  26.534  1.00  0.00    +0.000 C 
ATOM    112  H20 UNL A   1      12.278  -3.115  27.440  1.00  0.00    +0.000 H 
BRANCH   19   18
ATOM     18  C15 UNL A   1      13.178  -1.275  26.910  1.00  0.00    +0.000 C 
ATOM    110  H18 UNL A   1      12.422  -0.523  27.011  1.00  0.00    +0.000 H 
ATOM    111  H19 UNL A   1      13.718  -1.501  27.805  1.00  0.00    +0.000 H 
BRANCH   18   17
ATOM     17  C14 UNL A   1      14.233  -0.738  25.939  1.00  0.00    +0.000 C 
ATOM    108  H16 UNL A   1      15.106  -1.348  26.048  1.00  0.00    +0.000 H 
ATOM    109  H17 UNL A   1      13.759  -0.774  24.981  1.00  0.00    +0.000 H 
BRANCH   17   16
ATOM    106  H14 UNL A   1      15.323   0.951  25.277  1.00  0.00    +0.000 H 
ATOM    107  H15 UNL A   1      13.762   1.281  26.124  1.00  0.00    +0.000 H 
ATOM     16  C13 UNL A   1      14.673   0.721  26.095  1.00  0.00    +0.000 C 
BRANCH   16   15
ATOM    105  H13 UNL A   1      16.356   1.492  27.081  1.00  0.00    +0.000 H 
ATOM     15  C12 UNL A   1      15.407   1.099  27.382  1.00  0.00    +0.000 C 
ATOM    104  H12 UNL A   1      15.486   0.222  27.989  1.00  0.00    +0.000 H 
BRANCH   15   14
ATOM     14  N2  UNL A   1      14.768   2.132  28.163  1.00  0.00    +0.000 N 
ATOM    103  H11 UNL A   1      14.730   1.956  29.130  1.00  0.00    +0.000 H 
BRANCH   14   12
ATOM     12  C11 UNL A   1      14.203   3.326  27.769  1.00  0.00    +0.000 C 
ATOM     13  O1  UNL A   1      14.919   4.078  27.108  1.00  0.00    +0.000 O 
BRANCH   12   11
ATOM      3  C2  UNL A   1      10.961   4.777  28.868  1.00  0.00    +0.000 C 
ATOM      4  C3  UNL A   1      12.352   4.780  28.830  1.00  0.00    +0.000 C 
ATOM    131  H39 UNL A   1      12.136   0.935  27.143  1.00  0.00    +0.000 H 
ATOM    134  H42 UNL A   1       8.452   3.994  27.926  1.00  0.00    +0.000 H 
ATOM    133  H41 UNL A   1       8.070   1.972  26.720  1.00  0.00    +0.000 H 
ATOM    132  H40 UNL A   1       9.945   0.363  26.462  1.00  0.00    +0.000 H 
ATOM     11  C10 UNL A   1      12.800   3.651  28.051  1.00  0.00    +0.000 C 
ATOM     87  C63 UNL A   1      11.648   2.920  27.779  1.00  0.00    +0.000 C 
ATOM     88  C64 UNL A   1      11.371   1.620  27.248  1.00  0.00    +0.000 C 
ATOM     89  C65 UNL A   1      10.119   1.288  26.884  1.00  0.00    +0.000 C 
ATOM     90  C66 UNL A   1       9.012   2.203  27.075  1.00  0.00    +0.000 C 
ATOM     91  C67 UNL A   1       9.237   3.357  27.720  1.00  0.00    +0.000 C 
ATOM     92  N8  UNL A   1      10.538   3.698  28.115  1.00  0.00    +0.000 N 
BRANCH    3    2
ATOM     97  H5  UNL A   1      10.450   5.976  30.514  1.00  0.00    +0.000 H 
ATOM      2  C1  UNL A   1      10.011   5.681  29.584  1.00  0.00    +0.000 C 
ATOM     96  H4  UNL A   1       9.092   5.160  29.757  1.00  0.00    +0.000 H 
BRANCH    2    1
ATOM      1  N1  UNL A   1       9.743   6.871  28.793  1.00  0.00    +0.000 N 
ATOM     93  H1  UNL A   1       8.847   6.770  28.318  1.00  0.00    +0.000 H 
ATOM     94  H2  UNL A   1      10.482   6.993  28.101  1.00  0.00    +0.000 H 
ATOM     95  H3  UNL A   1       9.713   7.687  29.404  1.00  0.00    +0.000 H 
ENDBRANCH    2    1
ENDBRANCH    3    2
BRANCH    4    5
ATOM     98  H6  UNL A   1      13.451   4.648  31.268  1.00  0.00    +0.000 H 
ATOM     99  H7  UNL A   1      14.784   6.336  32.392  1.00  0.00    +0.000 H 
ATOM    100  H8  UNL A   1      15.258   8.446  31.292  1.00  0.00    +0.000 H 
ATOM      5  C4  UNL A   1      13.148   5.787  29.516  1.00  0.00    +0.000 C 
ATOM    102  H10 UNL A   1      13.037   7.203  27.950  1.00  0.00    +0.000 H 
ATOM      6  C5  UNL A   1      13.649   5.545  30.799  1.00  0.00    +0.000 C 
ATOM      7  C6  UNL A   1      14.417   6.517  31.445  1.00  0.00    +0.000 C 
ATOM      9  C8  UNL A   1      14.186   7.981  29.538  1.00  0.00    +0.000 C 
ATOM     10  C9  UNL A   1      13.414   7.014  28.892  1.00  0.00    +0.000 C 
ATOM    101  H9  UNL A   1      14.385   8.879  29.070  1.00  0.00    +0.000 H 
ATOM      8  C7  UNL A   1      14.687   7.732  30.814  1.00  0.00    +0.000 C 
ENDBRANCH    4    5
ENDBRANCH   12   11
ENDBRANCH   14   12
ENDBRANCH   15   14
ENDBRANCH   16   15
ENDBRANCH   17   16
ENDBRANCH   18   17
ENDBRANCH   19   18
ENDBRANCH   20   19
ENDBRANCH   21   20
ENDBRANCH   22   21
ENDBRANCH   24   22
ENDBRANCH   28   27
BRANCH   32   33
ATOM     33  C27 UNL A   1       6.957   6.618  24.256  1.00  0.00    +0.000 C 
ATOM     34  C28 UNL A   1       5.680   6.041  24.311  1.00  0.00    +0.000 C 
ATOM     35  F1  UNL A   1       5.199   5.364  23.259  1.00  0.00    +0.000 F 
ATOM     36  C29 UNL A   1       4.873   6.196  25.436  1.00  0.00    +0.000 C 
ATOM     37  F2  UNL A   1       3.636   5.680  25.446  1.00  0.00    +0.000 F 
ATOM     38  C30 UNL A   1       5.339   6.896  26.537  1.00  0.00    +0.000 C 
ATOM     39  F3  UNL A   1       4.563   7.042  27.619  1.00  0.00    +0.000 F 
ATOM     40  C31 UNL A   1       6.608   7.455  26.513  1.00  0.00    +0.000 C 
ATOM     41  F4  UNL A   1       7.066   8.123  27.582  1.00  0.00    +0.000 F 
ATOM     42  C32 UNL A   1       7.406   7.327  25.380  1.00  0.00    +0.000 C 
ATOM     43  F5  UNL A   1       8.623   7.893  25.380  1.00  0.00    +0.000 F 
ENDBRANCH   32   33
BRANCH   49   50
ATOM     50  C38 UNL A   1       8.829  10.430  18.436  1.00  0.00    +0.000 C 
ATOM     51  C39 UNL A   1       9.665  11.517  18.724  1.00  0.00    +0.000 C 
ATOM     52  F6  UNL A   1      10.689  11.374  19.578  1.00  0.00    +0.000 F 
ATOM     53  C40 UNL A   1       9.434  12.766  18.152  1.00  0.00    +0.000 C 
ATOM     54  F7  UNL A   1      10.225  13.801  18.465  1.00  0.00    +0.000 F 
ATOM     55  C41 UNL A   1       8.382  12.942  17.266  1.00  0.00    +0.000 C 
ATOM     56  F8  UNL A   1       8.168  14.142  16.707  1.00  0.00    +0.000 F 
ATOM     57  C42 UNL A   1       7.548  11.877  16.960  1.00  0.00    +0.000 C 
ATOM     58  F9  UNL A   1       6.538  12.042  16.095  1.00  0.00    +0.000 F 
ATOM     59  C43 UNL A   1       7.761  10.634  17.548  1.00  0.00    +0.000 C 
ATOM     60  F10 UNL A   1       6.937   9.622  17.240  1.00  0.00    +0.000 F 
ENDBRANCH   49   50
BRANCH   64   65
ATOM     65  C47 UNL A   1      12.732   5.080  16.264  1.00  0.00    +0.000 C 
ATOM     66  C48 UNL A   1      12.202   4.425  15.144  1.00  0.00    +0.000 C 
ATOM     67  F11 UNL A   1      10.938   3.977  15.169  1.00  0.00    +0.000 F 
ATOM     68  C49 UNL A   1      12.978   4.193  14.011  1.00  0.00    +0.000 C 
ATOM     69  F12 UNL A   1      12.458   3.530  12.970  1.00  0.00    +0.000 F 
ATOM     70  C50 UNL A   1      14.292   4.634  13.966  1.00  0.00    +0.000 C 
ATOM     71  F13 UNL A   1      15.037   4.415  12.873  1.00  0.00    +0.000 F 
ATOM     72  C51 UNL A   1      14.835   5.298  15.056  1.00  0.00    +0.000 C 
ATOM     73  F14 UNL A   1      16.100   5.737  15.011  1.00  0.00    +0.000 F 
ATOM     74  C52 UNL A   1      14.066   5.509  16.200  1.00  0.00    +0.000 C 
ATOM     75  F15 UNL A   1      14.620   6.145  17.243  1.00  0.00    +0.000 F 
ENDBRANCH   64   65
TORSDOF 18
ENDMDL
MODEL 3
REMARK VINA RESULT:     -10.9      4.030      9.408
ROOT
ATOM     28  C23 UNL A   1      41.463  25.959  27.625  1.00  0.00    +0.000 C 
ATOM     29  C24 UNL A   1      40.746  27.047  28.371  1.00  0.00    +0.000 C 
ATOM     30  N4  UNL A   1      41.149  28.257  28.667  1.00  0.00    +0.000 N 
ATOM     31  C25 UNL A   1      40.079  28.864  29.312  1.00  0.00    +0.000 C 
ATOM     32  C26 UNL A   1      40.013  30.103  29.855  1.00  0.00    +0.000 C 
ATOM     44  C33 UNL A   1      41.103  31.043  29.867  1.00  0.00    +0.000 C 
ATOM     45  C34 UNL A   1      41.149  32.305  30.433  1.00  0.00    +0.000 C 
ATOM     46  C35 UNL A   1      42.406  32.858  30.168  1.00  0.00    +0.000 C 
ATOM     47  C36 UNL A   1      43.158  31.924  29.473  1.00  0.00    +0.000 C 
ATOM     48  N5  UNL A   1      42.343  30.819  29.288  1.00  0.00    +0.000 N 
ATOM     49  C37 UNL A   1      44.516  32.033  29.010  1.00  0.00    +0.000 C 
ATOM     61  C44 UNL A   1      45.184  31.073  28.324  1.00  0.00    +0.000 C 
ATOM     62  N6  UNL A   1      44.748  29.812  27.943  1.00  0.00    +0.000 N 
ATOM     63  C45 UNL A   1      45.752  29.260  27.307  1.00  0.00    +0.000 C 
ATOM     64  C46 UNL A   1      45.852  27.887  26.700  1.00  0.00    +0.000 C 
ATOM     76  C53 UNL A   1      44.811  27.038  26.811  1.00  0.00    +0.000 C 
ATOM     77  C54 UNL A   1      44.759  25.686  26.261  1.00  0.00    +0.000 C 
ATOM     78  C55 UNL A   1      43.542  25.168  26.490  1.00  0.00    +0.000 C 
ATOM     79  C56 UNL A   1      42.742  26.136  27.240  1.00  0.00    +0.000 C 
ATOM     80  N7  UNL A   1      43.588  27.205  27.411  1.00  0.00    +0.000 N 
ATOM     81  C57 UNL A   1      46.932  30.129  27.180  1.00  0.00    +0.000 C 
ATOM     82  C58 UNL A   1      46.545  31.208  27.847  1.00  0.00    +0.000 C 
ATOM     83  C59 UNL A   1      38.996  27.904  29.330  1.00  0.00    +0.000 C 
ATOM     84  C60 UNL A   1      39.379  26.742  28.821  1.00  0.00    +0.000 C 
ATOM    119  H27 UNL A   1      40.386  32.760  30.961  1.00  0.00    +0.000 H 
ATOM    120  H28 UNL A   1      42.720  33.801  30.443  1.00  0.00    +0.000 H 
ATOM    121  H29 UNL A   1      42.606  29.995  28.817  1.00  0.00    +0.000 H 
ATOM    122  H30 UNL A   1      45.533  25.207  25.774  1.00  0.00    +0.000 H 
ATOM    123  H31 UNL A   1      43.222  24.234  26.185  1.00  0.00    +0.000 H 
ATOM    124  H32 UNL A   1      43.340  28.012  27.917  1.00  0.00    +0.000 H 
ATOM    125  H33 UNL A   1      47.827  29.947  26.700  1.00  0.00    +0.000 H 
ATOM    126  H34 UNL A   1      47.138  32.037  28.006  1.00  0.00    +0.000 H 
ATOM    127  H35 UNL A   1      38.050  28.098  29.693  1.00  0.00    +0.000 H 
ATOM    128  H36 UNL A   1      38.855  25.855  28.756  1.00  0.00    +0.000 H 
ENDROOT
BRANCH   28   27
ATOM    129  H37 UNL A   1      39.409  25.740  25.930  1.00  0.00    +0.000 H 
ATOM    130  H38 UNL A   1      38.128  23.770  25.335  1.00  0.00    +0.000 H 
ATOM     27  C22 UNL A   1      40.732  24.726  27.233  1.00  0.00    +0.000 C 
ATOM    117  H25 UNL A   1      40.660  21.399  27.714  1.00  0.00    +0.000 H 
ATOM     86  C62 UNL A   1      38.953  23.684  25.948  1.00  0.00    +0.000 C 
ATOM     85  C61 UNL A   1      39.666  24.821  26.324  1.00  0.00    +0.000 C 
ATOM     24  C19 UNL A   1      39.359  22.427  26.403  1.00  0.00    +0.000 C 
ATOM     25  C20 UNL A   1      40.394  22.322  27.338  1.00  0.00    +0.000 C 
ATOM     26  C21 UNL A   1      41.068  23.471  27.764  1.00  0.00    +0.000 C 
ATOM    118  H26 UNL A   1      41.816  23.396  28.471  1.00  0.00    +0.000 H 
BRANCH   24   22
ATOM     22  C18 UNL A   1      38.709  21.185  25.922  1.00  0.00    +0.000 C 
ATOM     23  O2  UNL A   1      39.348  20.140  25.896  1.00  0.00    +0.000 O 
BRANCH   22   21
ATOM    116  H24 UNL A   1      36.943  22.073  25.589  1.00  0.00    +0.000 H 
ATOM     21  N3  UNL A   1      37.409  21.213  25.474  1.00  0.00    +0.000 N 
BRANCH   21   20
ATOM    114  H22 UNL A   1      36.839  20.148  23.808  1.00  0.00    +0.000 H 
ATOM    115  H23 UNL A   1      36.889  19.244  25.337  1.00  0.00    +0.000 H 
ATOM     20  C17 UNL A   1      36.622  20.161  24.856  1.00  0.00    +0.000 C 
BRANCH   20   19
ATOM    113  H21 UNL A   1      35.003  20.816  25.983  1.00  0.00    +0.000 H 
ATOM     19  C16 UNL A   1      35.119  20.338  25.033  1.00  0.00    +0.000 C 
ATOM    112  H20 UNL A   1      34.667  19.371  24.961  1.00  0.00    +0.000 H 
BRANCH   19   18
ATOM     18  C15 UNL A   1      34.414  21.255  24.033  1.00  0.00    +0.000 C 
ATOM    110  H18 UNL A   1      34.837  22.233  24.141  1.00  0.00    +0.000 H 
ATOM    111  H19 UNL A   1      34.571  20.794  23.081  1.00  0.00    +0.000 H 
BRANCH   18   17
ATOM     17  C14 UNL A   1      32.895  21.395  24.157  1.00  0.00    +0.000 C 
ATOM    108  H16 UNL A   1      32.478  20.411  24.094  1.00  0.00    +0.000 H 
ATOM    109  H17 UNL A   1      32.747  21.900  25.088  1.00  0.00    +0.000 H 
BRANCH   17   16
ATOM    106  H14 UNL A   1      32.863  23.004  22.783  1.00  0.00    +0.000 H 
ATOM    107  H15 UNL A   1      31.827  21.580  22.380  1.00  0.00    +0.000 H 
ATOM     16  C13 UNL A   1      32.169  22.266  23.127  1.00  0.00    +0.000 C 
BRANCH   16   15
ATOM    105  H13 UNL A   1      31.021  23.145  24.645  1.00  0.00    +0.000 H 
ATOM     15  C12 UNL A   1      30.912  23.001  23.590  1.00  0.00    +0.000 C 
ATOM    104  H12 UNL A   1      30.063  22.403  23.331  1.00  0.00    +0.000 H 
BRANCH   15   14
ATOM     14  N2  UNL A   1      30.731  24.314  23.016  1.00  0.00    +0.000 N 
ATOM    103  H11 UNL A   1      29.825  24.496  22.678  1.00  0.00    +0.000 H 
BRANCH   14   12
ATOM     12  C11 UNL A   1      31.624  25.352  22.867  1.00  0.00    +0.000 C 
ATOM     13  O1  UNL A   1      32.315  25.337  21.848  1.00  0.00    +0.000 O 
BRANCH   12   11
ATOM      3  C2  UNL A   1      32.282  27.663  25.704  1.00  0.00    +0.000 C 
ATOM      4  C3  UNL A   1      32.432  26.435  25.067  1.00  0.00    +0.000 C 
ATOM    131  H39 UNL A   1      29.414  27.650  22.404  1.00  0.00    +0.000 H 
ATOM    134  H42 UNL A   1      31.639  30.380  25.742  1.00  0.00    +0.000 H 
ATOM    133  H41 UNL A   1      30.137  31.399  24.195  1.00  0.00    +0.000 H 
ATOM    132  H40 UNL A   1      28.907  29.953  22.594  1.00  0.00    +0.000 H 
ATOM     11  C10 UNL A   1      31.693  26.460  23.827  1.00  0.00    +0.000 C 
ATOM     87  C63 UNL A   1      30.996  27.663  23.846  1.00  0.00    +0.000 C 
ATOM     88  C64 UNL A   1      29.943  28.239  23.067  1.00  0.00    +0.000 C 
ATOM     89  C65 UNL A   1      29.639  29.543  23.194  1.00  0.00    +0.000 C 
ATOM     90  C66 UNL A   1      30.319  30.384  24.159  1.00  0.00    +0.000 C 
ATOM     91  C67 UNL A   1      31.192  29.815  25.004  1.00  0.00    +0.000 C 
ATOM     92  N8  UNL A   1      31.498  28.452  24.884  1.00  0.00    +0.000 N 
BRANCH    3    2
ATOM     97  H5  UNL A   1      32.789  27.305  27.710  1.00  0.00    +0.000 H 
ATOM      2  C1  UNL A   1      32.783  28.132  27.031  1.00  0.00    +0.000 C 
ATOM     96  H4  UNL A   1      32.142  28.907  27.397  1.00  0.00    +0.000 H 
BRANCH    2    1
ATOM      1  N1  UNL A   1      34.137  28.651  26.912  1.00  0.00    +0.000 N 
ATOM     93  H1  UNL A   1      34.563  28.707  27.837  1.00  0.00    +0.000 H 
ATOM     94  H2  UNL A   1      34.110  29.580  26.493  1.00  0.00    +0.000 H 
ATOM     95  H3  UNL A   1      34.689  28.029  26.321  1.00  0.00    +0.000 H 
ENDBRANCH    2    1
ENDBRANCH    3    2
BRANCH    4    5
ATOM     98  H6  UNL A   1      35.021  25.867  24.694  1.00  0.00    +0.000 H 
ATOM     99  H7  UNL A   1      36.302  24.053  25.674  1.00  0.00    +0.000 H 
ATOM    100  H8  UNL A   1      35.236  22.491  27.193  1.00  0.00    +0.000 H 
ATOM      5  C4  UNL A   1      33.209  25.348  25.644  1.00  0.00    +0.000 C 
ATOM    102  H10 UNL A   1      31.592  24.529  26.732  1.00  0.00    +0.000 H 
ATOM      6  C5  UNL A   1      34.565  25.203  25.337  1.00  0.00    +0.000 C 
ATOM      7  C6  UNL A   1      35.302  24.158  25.902  1.00  0.00    +0.000 C 
ATOM      9  C8  UNL A   1      33.335  23.395  27.079  1.00  0.00    +0.000 C 
ATOM     10  C9  UNL A   1      32.596  24.433  26.511  1.00  0.00    +0.000 C 
ATOM    101  H9  UNL A   1      32.881  22.729  27.723  1.00  0.00    +0.000 H 
ATOM      8  C7  UNL A   1      34.688  23.257  26.774  1.00  0.00    +0.000 C 
ENDBRANCH    4    5
ENDBRANCH   12   11
ENDBRANCH   14   12
ENDBRANCH   15   14
ENDBRANCH   16   15
ENDBRANCH   17   16
ENDBRANCH   18   17
ENDBRANCH   19   18
ENDBRANCH   20   19
ENDBRANCH   21   20
ENDBRANCH   22   21
ENDBRANCH   24   22
ENDBRANCH   28   27
BRANCH   32   33
ATOM     33  C27 UNL A   1      38.712  30.515  30.478  1.00  0.00    +0.000 C 
ATOM     34  C28 UNL A   1      37.642  30.987  29.703  1.00  0.00    +0.000 C 
ATOM     35  F1  UNL A   1      37.777  31.116  28.375  1.00  0.00    +0.000 F 
ATOM     36  C29 UNL A   1      36.442  31.372  30.296  1.00  0.00    +0.000 C 
ATOM     37  F2  UNL A   1      35.453  31.869  29.541  1.00  0.00    +0.000 F 
ATOM     38  C30 UNL A   1      36.276  31.257  31.667  1.00  0.00    +0.000 C 
ATOM     39  F3  UNL A   1      35.120  31.625  32.237  1.00  0.00    +0.000 F 
ATOM     40  C31 UNL A   1      37.311  30.771  32.451  1.00  0.00    +0.000 C 
ATOM     41  F4  UNL A   1      37.148  30.648  33.776  1.00  0.00    +0.000 F 
ATOM     42  C32 UNL A   1      38.522  30.413  31.864  1.00  0.00    +0.000 C 
ATOM     43  F5  UNL A   1      39.512  29.961  32.650  1.00  0.00    +0.000 F 
ENDBRANCH   32   33
BRANCH   49   50
ATOM     50  C38 UNL A   1      45.259  33.294  29.335  1.00  0.00    +0.000 C 
ATOM     51  C39 UNL A   1      45.214  34.413  28.492  1.00  0.00    +0.000 C 
ATOM     52  F6  UNL A   1      44.554  34.352  27.325  1.00  0.00    +0.000 F 
ATOM     53  C40 UNL A   1      45.872  35.592  28.834  1.00  0.00    +0.000 C 
ATOM     54  F7  UNL A   1      45.844  36.639  27.998  1.00  0.00    +0.000 F 
ATOM     55  C41 UNL A   1      46.562  35.681  30.033  1.00  0.00    +0.000 C 
ATOM     56  F8  UNL A   1      47.184  36.821  30.366  1.00  0.00    +0.000 F 
ATOM     57  C42 UNL A   1      46.611  34.589  30.887  1.00  0.00    +0.000 C 
ATOM     58  F9  UNL A   1      47.268  34.678  32.052  1.00  0.00    +0.000 F 
ATOM     59  C43 UNL A   1      45.976  33.402  30.537  1.00  0.00    +0.000 C 
ATOM     60  F10 UNL A   1      46.044  32.360  31.379  1.00  0.00    +0.000 F 
ENDBRANCH   49   50
BRANCH   64   65
ATOM     65  C47 UNL A   1      47.092  27.450  26.010  1.00  0.00    +0.000 C 
ATOM     66  C48 UNL A   1      48.127  26.829  26.723  1.00  0.00    +0.000 C 
ATOM     67  F11 UNL A   1      48.013  26.649  28.047  1.00  0.00    +0.000 F 
ATOM     68  C49 UNL A   1      49.298  26.425  26.086  1.00  0.00    +0.000 C 
ATOM     69  F12 UNL A   1      50.287  25.868  26.798  1.00  0.00    +0.000 F 
ATOM     70  C50 UNL A   1      49.447  26.611  24.720  1.00  0.00    +0.000 C 
ATOM     71  F13 UNL A   1      50.571  26.217  24.106  1.00  0.00    +0.000 F 
ATOM     72  C51 UNL A   1      48.431  27.210  23.991  1.00  0.00    +0.000 C 
ATOM     73  F14 UNL A   1      48.565  27.380  22.669  1.00  0.00    +0.000 F 
ATOM     74  C52 UNL A   1      47.268  27.637  24.632  1.00  0.00    +0.000 C 
ATOM     75  F15 UNL A   1      46.306  28.223  23.904  1.00  0.00    +0.000 F 
ENDBRANCH   64   65
TORSDOF 18
ENDMDL
MODEL 4
REMARK VINA RESULT:     -10.9     37.764     43.021
ROOT
ATOM     28  C23 UNL A   1      14.052  53.824   5.080  1.00  0.00    +0.000 C 
ATOM     29  C24 UNL A   1      15.017  54.242   4.008  1.00  0.00    +0.000 C 
ATOM     30  N4  UNL A   1      15.485  53.555   2.997  1.00  0.00    +0.000 N 
ATOM     31  C25 UNL A   1      16.291  54.433   2.285  1.00  0.00    +0.000 C 
ATOM     32  C26 UNL A   1      17.038  54.189   1.181  1.00  0.00    +0.000 C 
ATOM     44  C33 UNL A   1      17.137  52.906   0.536  1.00  0.00    +0.000 C 
ATOM     45  C34 UNL A   1      17.903  52.546  -0.559  1.00  0.00    +0.000 C 
ATOM     46  C35 UNL A   1      17.653  51.200  -0.845  1.00  0.00    +0.000 C 
ATOM     47  C36 UNL A   1      16.762  50.710   0.097  1.00  0.00    +0.000 C 
ATOM     48  N5  UNL A   1      16.448  51.770   0.933  1.00  0.00    +0.000 N 
ATOM     49  C37 UNL A   1      16.236  49.376   0.224  1.00  0.00    +0.000 C 
ATOM     61  C44 UNL A   1      15.356  48.974   1.173  1.00  0.00    +0.000 C 
ATOM     62  N6  UNL A   1      14.797  49.707   2.210  1.00  0.00    +0.000 N 
ATOM     63  C45 UNL A   1      14.014  48.880   2.856  1.00  0.00    +0.000 C 
ATOM     64  C46 UNL A   1      13.179  49.125   4.084  1.00  0.00    +0.000 C 
ATOM     76  C53 UNL A   1      13.213  50.336   4.675  1.00  0.00    +0.000 C 
ATOM     77  C54 UNL A   1      12.449  50.722   5.857  1.00  0.00    +0.000 C 
ATOM     78  C55 UNL A   1      12.666  52.022   6.114  1.00  0.00    +0.000 C 
ATOM     79  C56 UNL A   1      13.620  52.550   5.137  1.00  0.00    +0.000 C 
ATOM     80  N7  UNL A   1      13.912  51.469   4.340  1.00  0.00    +0.000 N 
ATOM     81  C57 UNL A   1      13.957  47.530   2.275  1.00  0.00    +0.000 C 
ATOM     82  C58 UNL A   1      14.820  47.632   1.273  1.00  0.00    +0.000 C 
ATOM     83  C59 UNL A   1      16.219  55.713   2.956  1.00  0.00    +0.000 C 
ATOM     84  C60 UNL A   1      15.498  55.632   4.064  1.00  0.00    +0.000 C 
ATOM    119  H27 UNL A   1      18.548  53.165  -1.075  1.00  0.00    +0.000 H 
ATOM    120  H28 UNL A   1      18.061  50.663  -1.625  1.00  0.00    +0.000 H 
ATOM    121  H29 UNL A   1      15.829  51.722   1.697  1.00  0.00    +0.000 H 
ATOM    122  H30 UNL A   1      11.838  50.097   6.407  1.00  0.00    +0.000 H 
ATOM    123  H31 UNL A   1      12.231  52.563   6.878  1.00  0.00    +0.000 H 
ATOM    124  H32 UNL A   1      14.562  51.505   3.602  1.00  0.00    +0.000 H 
ATOM    125  H33 UNL A   1      13.396  46.716   2.569  1.00  0.00    +0.000 H 
ATOM    126  H34 UNL A   1      15.077  46.855   0.645  1.00  0.00    +0.000 H 
ATOM    127  H35 UNL A   1      16.671  56.577   2.617  1.00  0.00    +0.000 H 
ATOM    128  H36 UNL A   1      15.319  56.353   4.780  1.00  0.00    +0.000 H 
ENDROOT
BRANCH   28   27
ATOM    129  H37 UNL A   1      15.050  54.570   7.444  1.00  0.00    +0.000 H 
ATOM    130  H38 UNL A   1      14.149  56.146   9.050  1.00  0.00    +0.000 H 
ATOM     27  C22 UNL A   1      13.508  54.838   6.020  1.00  0.00    +0.000 C 
ATOM    117  H25 UNL A   1      11.011  57.056   6.400  1.00  0.00    +0.000 H 
ATOM     86  C62 UNL A   1      13.688  56.020   8.135  1.00  0.00    +0.000 C 
ATOM     85  C61 UNL A   1      14.181  55.085   7.227  1.00  0.00    +0.000 C 
ATOM     24  C19 UNL A   1      12.569  56.788   7.803  1.00  0.00    +0.000 C 
ATOM     25  C20 UNL A   1      11.867  56.525   6.622  1.00  0.00    +0.000 C 
ATOM     26  C21 UNL A   1      12.327  55.542   5.741  1.00  0.00    +0.000 C 
ATOM    118  H26 UNL A   1      11.795  55.333   4.881  1.00  0.00    +0.000 H 
BRANCH   24   22
ATOM     22  C18 UNL A   1      12.094  57.881   8.683  1.00  0.00    +0.000 C 
ATOM     23  O2  UNL A   1      12.703  58.944   8.708  1.00  0.00    +0.000 O 
BRANCH   22   21
ATOM    116  H24 UNL A   1      10.136  57.955   9.102  1.00  0.00    +0.000 H 
ATOM     21  N3  UNL A   1      10.999  57.691   9.494  1.00  0.00    +0.000 N 
BRANCH   21   20
ATOM    114  H22 UNL A   1      11.808  57.464  11.372  1.00  0.00    +0.000 H 
ATOM    115  H23 UNL A   1      10.034  57.540  11.286  1.00  0.00    +0.000 H 
ATOM     20  C17 UNL A   1      10.930  57.157  10.842  1.00  0.00    +0.000 C 
BRANCH   20   19
ATOM    113  H21 UNL A   1      10.444  55.346   9.945  1.00  0.00    +0.000 H 
ATOM     19  C16 UNL A   1      10.842  55.638  10.895  1.00  0.00    +0.000 C 
ATOM    112  H20 UNL A   1      10.231  55.376  11.734  1.00  0.00    +0.000 H 
BRANCH   19   18
ATOM     18  C15 UNL A   1      12.162  54.879  11.027  1.00  0.00    +0.000 C 
ATOM    110  H18 UNL A   1      12.807  55.218  10.241  1.00  0.00    +0.000 H 
ATOM    111  H19 UNL A   1      12.503  55.090  12.018  1.00  0.00    +0.000 H 
BRANCH   18   17
ATOM     17  C14 UNL A   1      12.106  53.351  10.948  1.00  0.00    +0.000 C 
ATOM    108  H16 UNL A   1      13.088  52.984  11.160  1.00  0.00    +0.000 H 
ATOM    109  H17 UNL A   1      11.347  53.073  11.649  1.00  0.00    +0.000 H 
BRANCH   17   16
ATOM    106  H14 UNL A   1      11.082  53.450   9.098  1.00  0.00    +0.000 H 
ATOM    107  H15 UNL A   1      12.564  52.417   9.145  1.00  0.00    +0.000 H 
ATOM     16  C13 UNL A   1      11.657  52.718   9.626  1.00  0.00    +0.000 C 
BRANCH   16   15
ATOM    105  H13 UNL A   1       9.939  51.628   9.121  1.00  0.00    +0.000 H 
ATOM     15  C12 UNL A   1      10.815  51.445   9.707  1.00  0.00    +0.000 C 
ATOM    104  H12 UNL A   1      10.602  51.254  10.738  1.00  0.00    +0.000 H 
BRANCH   15   14
ATOM     14  N2  UNL A   1      11.441  50.269   9.151  1.00  0.00    +0.000 N 
ATOM    103  H11 UNL A   1      11.120  50.014   8.256  1.00  0.00    +0.000 H 
BRANCH   14   12
ATOM     12  C11 UNL A   1      12.415  49.445   9.673  1.00  0.00    +0.000 C 
ATOM     13  O1  UNL A   1      12.435  48.289   9.252  1.00  0.00    +0.000 O 
BRANCH   12   11
ATOM      3  C2  UNL A   1      15.434  50.745  11.409  1.00  0.00    +0.000 C 
ATOM      4  C3  UNL A   1      14.775  50.307  10.264  1.00  0.00    +0.000 C 
ATOM    131  H39 UNL A   1      11.671  48.987  12.774  1.00  0.00    +0.000 H 
ATOM    134  H42 UNL A   1      15.488  51.707  14.030  1.00  0.00    +0.000 H 
ATOM    133  H41 UNL A   1      13.745  51.317  15.611  1.00  0.00    +0.000 H 
ATOM    132  H40 UNL A   1      11.879  49.804  14.984  1.00  0.00    +0.000 H 
ATOM     11  C10 UNL A   1      13.424  49.939  10.616  1.00  0.00    +0.000 C 
ATOM     87  C63 UNL A   1      13.375  50.027  12.003  1.00  0.00    +0.000 C 
ATOM     88  C64 UNL A   1      12.447  49.624  13.014  1.00  0.00    +0.000 C 
ATOM     89  C65 UNL A   1      12.581  50.070  14.277  1.00  0.00    +0.000 C 
ATOM     90  C66 UNL A   1      13.694  50.914  14.662  1.00  0.00    +0.000 C 
ATOM     91  C67 UNL A   1      14.654  51.164  13.759  1.00  0.00    +0.000 C 
ATOM     92  N8  UNL A   1      14.524  50.685  12.448  1.00  0.00    +0.000 N 
BRANCH    3    2
ATOM     97  H5  UNL A   1      16.944  51.635  12.565  1.00  0.00    +0.000 H 
ATOM      2  C1  UNL A   1      16.852  51.176  11.604  1.00  0.00    +0.000 C 
ATOM     96  H4  UNL A   1      17.118  51.870  10.834  1.00  0.00    +0.000 H 
BRANCH    2    1
ATOM      1  N1  UNL A   1      17.746  50.030  11.544  1.00  0.00    +0.000 N 
ATOM     93  H1  UNL A   1      18.411  50.158  10.781  1.00  0.00    +0.000 H 
ATOM     94  H2  UNL A   1      17.203  49.182  11.382  1.00  0.00    +0.000 H 
ATOM     95  H3  UNL A   1      18.252  49.947  12.425  1.00  0.00    +0.000 H 
ENDBRANCH    2    1
ENDBRANCH    3    2
BRANCH    4    5
ATOM     98  H6  UNL A   1      15.212  52.294   8.524  1.00  0.00    +0.000 H 
ATOM     99  H7  UNL A   1      16.315  52.164   6.365  1.00  0.00    +0.000 H 
ATOM    100  H8  UNL A   1      17.175  50.043   5.562  1.00  0.00    +0.000 H 
ATOM      5  C4  UNL A   1      15.429  50.240   8.966  1.00  0.00    +0.000 C 
ATOM    102  H10 UNL A   1      15.801  48.162   9.057  1.00  0.00    +0.000 H 
ATOM      6  C5  UNL A   1      15.575  51.390   8.184  1.00  0.00    +0.000 C 
ATOM      7  C6  UNL A   1      16.210  51.315   6.941  1.00  0.00    +0.000 C 
ATOM      9  C8  UNL A   1      16.556  48.944   7.251  1.00  0.00    +0.000 C 
ATOM     10  C9  UNL A   1      15.916  49.015   8.489  1.00  0.00    +0.000 C 
ATOM    101  H9  UNL A   1      16.919  48.041   6.908  1.00  0.00    +0.000 H 
ATOM      8  C7  UNL A   1      16.702  50.094   6.477  1.00  0.00    +0.000 C 
ENDBRANCH    4    5
ENDBRANCH   12   11
ENDBRANCH   14   12
ENDBRANCH   15   14
ENDBRANCH   16   15
ENDBRANCH   17   16
ENDBRANCH   18   17
ENDBRANCH   19   18
ENDBRANCH   20   19
ENDBRANCH   21   20
ENDBRANCH   22   21
ENDBRANCH   24   22
ENDBRANCH   28   27
BRANCH   32   33
ATOM     33  C27 UNL A   1      17.806  55.339   0.598  1.00  0.00    +0.000 C 
ATOM     34  C28 UNL A   1      19.042  55.739   1.125  1.00  0.00    +0.000 C 
ATOM     35  F1  UNL A   1      19.553  55.117   2.197  1.00  0.00    +0.000 F 
ATOM     36  C29 UNL A   1      19.741  56.813   0.577  1.00  0.00    +0.000 C 
ATOM     37  F2  UNL A   1      20.895  57.211   1.129  1.00  0.00    +0.000 F 
ATOM     38  C30 UNL A   1      19.235  57.480  -0.528  1.00  0.00    +0.000 C 
ATOM     39  F3  UNL A   1      19.909  58.511  -1.056  1.00  0.00    +0.000 F 
ATOM     40  C31 UNL A   1      18.026  57.086  -1.080  1.00  0.00    +0.000 C 
ATOM     41  F4  UNL A   1      17.541  57.724  -2.155  1.00  0.00    +0.000 F 
ATOM     42  C32 UNL A   1      17.311  56.033  -0.517  1.00  0.00    +0.000 C 
ATOM     43  F5  UNL A   1      16.136  55.685  -1.063  1.00  0.00    +0.000 F 
ENDBRANCH   32   33
BRANCH   49   50
ATOM     50  C38 UNL A   1      16.719  48.346  -0.753  1.00  0.00    +0.000 C 
ATOM     51  C39 UNL A   1      15.948  47.961  -1.858  1.00  0.00    +0.000 C 
ATOM     52  F6  UNL A   1      14.714  48.461  -2.027  1.00  0.00    +0.000 F 
ATOM     53  C40 UNL A   1      16.433  47.038  -2.781  1.00  0.00    +0.000 C 
ATOM     54  F7  UNL A   1      15.667  46.658  -3.812  1.00  0.00    +0.000 F 
ATOM     55  C41 UNL A   1      17.705  46.505  -2.629  1.00  0.00    +0.000 C 
ATOM     56  F8  UNL A   1      18.175  45.626  -3.526  1.00  0.00    +0.000 F 
ATOM     57  C42 UNL A   1      18.488  46.880  -1.548  1.00  0.00    +0.000 C 
ATOM     58  F9  UNL A   1      19.722  46.374  -1.407  1.00  0.00    +0.000 F 
ATOM     59  C43 UNL A   1      17.997  47.784  -0.611  1.00  0.00    +0.000 C 
ATOM     60  F10 UNL A   1      18.774  48.124   0.427  1.00  0.00    +0.000 F 
ENDBRANCH   49   50
BRANCH   64   65
ATOM     65  C47 UNL A   1      12.345  48.042   4.664  1.00  0.00    +0.000 C 
ATOM     66  C48 UNL A   1      12.818  47.270   5.734  1.00  0.00    +0.000 C 
ATOM     67  F11 UNL A   1      14.047  47.489   6.225  1.00  0.00    +0.000 F 
ATOM     68  C49 UNL A   1      12.047  46.245   6.279  1.00  0.00    +0.000 C 
ATOM     69  F12 UNL A   1      12.539  45.498   7.275  1.00  0.00    +0.000 F 
ATOM     70  C50 UNL A   1      10.778  45.990   5.780  1.00  0.00    +0.000 C 
ATOM     71  F13 UNL A   1      10.035  45.007   6.308  1.00  0.00    +0.000 F 
ATOM     72  C51 UNL A   1      10.283  46.750   4.732  1.00  0.00    +0.000 C 
ATOM     73  F14 UNL A   1       9.053  46.515   4.256  1.00  0.00    +0.000 F 
ATOM     74  C52 UNL A   1      11.064  47.760   4.170  1.00  0.00    +0.000 C 
ATOM     75  F15 UNL A   1      10.563  48.472   3.150  1.00  0.00    +0.000 F 
ENDBRANCH   64   65
TORSDOF 18
ENDMDL
MODEL 5
REMARK VINA RESULT:     -10.9      4.003      9.325
ROOT
ATOM     28  C23 UNL A   1      41.426  26.072  27.635  1.00  0.00    +0.000 C 
ATOM     29  C24 UNL A   1      40.750  27.164  28.413  1.00  0.00    +0.000 C 
ATOM     30  N4  UNL A   1      41.193  28.354  28.731  1.00  0.00    +0.000 N 
ATOM     31  C25 UNL A   1      40.149  28.979  29.401  1.00  0.00    +0.000 C 
ATOM     32  C26 UNL A   1      40.126  30.207  29.972  1.00  0.00    +0.000 C 
ATOM     44  C33 UNL A   1      41.244  31.113  29.992  1.00  0.00    +0.000 C 
ATOM     45  C34 UNL A   1      41.335  32.360  30.585  1.00  0.00    +0.000 C 
ATOM     46  C35 UNL A   1      42.606  32.881  30.318  1.00  0.00    +0.000 C 
ATOM     47  C36 UNL A   1      43.321  31.940  29.594  1.00  0.00    +0.000 C 
ATOM     48  N5  UNL A   1      42.471  30.864  29.395  1.00  0.00    +0.000 N 
ATOM     49  C37 UNL A   1      44.677  32.018  29.119  1.00  0.00    +0.000 C 
ATOM     61  C44 UNL A   1      45.308  31.055  28.404  1.00  0.00    +0.000 C 
ATOM     62  N6  UNL A   1      44.830  29.816  28.000  1.00  0.00    +0.000 N 
ATOM     63  C45 UNL A   1      45.809  29.248  27.341  1.00  0.00    +0.000 C 
ATOM     64  C46 UNL A   1      45.861  27.886  26.703  1.00  0.00    +0.000 C 
ATOM     76  C53 UNL A   1      44.796  27.067  26.807  1.00  0.00    +0.000 C 
ATOM     77  C54 UNL A   1      44.697  25.730  26.228  1.00  0.00    +0.000 C 
ATOM     78  C55 UNL A   1      43.467  25.244  26.459  1.00  0.00    +0.000 C 
ATOM     79  C56 UNL A   1      42.705  26.219  27.239  1.00  0.00    +0.000 C 
ATOM     80  N7  UNL A   1      43.585  27.258  27.425  1.00  0.00    +0.000 N 
ATOM     81  C57 UNL A   1      47.014  30.083  27.220  1.00  0.00    +0.000 C 
ATOM     82  C58 UNL A   1      46.667  31.158  27.914  1.00  0.00    +0.000 C 
ATOM     83  C59 UNL A   1      39.038  28.052  29.411  1.00  0.00    +0.000 C 
ATOM     84  C60 UNL A   1      39.379  26.891  28.871  1.00  0.00    +0.000 C 
ATOM    119  H27 UNL A   1      40.592  32.826  31.131  1.00  0.00    +0.000 H 
ATOM    120  H28 UNL A   1      42.951  33.808  30.610  1.00  0.00    +0.000 H 
ATOM    121  H29 UNL A   1      42.703  30.044  28.903  1.00  0.00    +0.000 H 
ATOM    122  H30 UNL A   1      45.450  25.239  25.722  1.00  0.00    +0.000 H 
ATOM    123  H31 UNL A   1      43.116  24.328  26.138  1.00  0.00    +0.000 H 
ATOM    124  H32 UNL A   1      43.367  28.061  27.950  1.00  0.00    +0.000 H 
ATOM    125  H33 UNL A   1      47.898  29.885  26.726  1.00  0.00    +0.000 H 
ATOM    126  H34 UNL A   1      47.286  31.966  28.085  1.00  0.00    +0.000 H 
ATOM    127  H35 UNL A   1      38.102  28.267  29.788  1.00  0.00    +0.000 H 
ATOM    128  H36 UNL A   1      38.828  26.022  28.793  1.00  0.00    +0.000 H 
ENDROOT
BRANCH   28   27
ATOM    129  H37 UNL A   1      39.356  25.951  25.950  1.00  0.00    +0.000 H 
ATOM    130  H38 UNL A   1      38.008  24.035  25.325  1.00  0.00    +0.000 H 
ATOM     27  C22 UNL A   1      40.653  24.871  27.225  1.00  0.00    +0.000 C 
ATOM    117  H25 UNL A   1      40.477  21.539  27.643  1.00  0.00    +0.000 H 
ATOM     86  C62 UNL A   1      38.834  23.910  25.931  1.00  0.00    +0.000 C 
ATOM     85  C61 UNL A   1      39.585  25.017  26.325  1.00  0.00    +0.000 C 
ATOM     24  C19 UNL A   1      39.202  22.633  26.359  1.00  0.00    +0.000 C 
ATOM     25  C20 UNL A   1      40.239  22.478  27.286  1.00  0.00    +0.000 C 
ATOM     26  C21 UNL A   1      40.951  23.596  27.729  1.00  0.00    +0.000 C 
ATOM    118  H26 UNL A   1      41.701  23.483  28.430  1.00  0.00    +0.000 H 
BRANCH   24   22
ATOM     22  C18 UNL A   1      38.510  21.422  25.860  1.00  0.00    +0.000 C 
ATOM     23  O2  UNL A   1      39.091  20.343  25.878  1.00  0.00    +0.000 O 
BRANCH   22   21
ATOM    116  H24 UNL A   1      36.952  22.422  25.092  1.00  0.00    +0.000 H 
ATOM     21  N3  UNL A   1      37.237  21.514  25.345  1.00  0.00    +0.000 N 
BRANCH   21   20
ATOM    114  H22 UNL A   1      36.238  20.242  24.073  1.00  0.00    +0.000 H 
ATOM    115  H23 UNL A   1      36.545  19.631  25.714  1.00  0.00    +0.000 H 
ATOM     20  C17 UNL A   1      36.254  20.471  25.119  1.00  0.00    +0.000 C 
BRANCH   20   19
ATOM    113  H21 UNL A   1      34.804  21.922  25.455  1.00  0.00    +0.000 H 
ATOM     19  C16 UNL A   1      34.844  20.857  25.548  1.00  0.00    +0.000 C 
ATOM    112  H20 UNL A   1      34.695  20.489  26.542  1.00  0.00    +0.000 H 
BRANCH   19   18
ATOM     18  C15 UNL A   1      33.697  20.335  24.682  1.00  0.00    +0.000 C 
ATOM    110  H18 UNL A   1      33.852  20.703  23.689  1.00  0.00    +0.000 H 
ATOM    111  H19 UNL A   1      33.738  19.271  24.785  1.00  0.00    +0.000 H 
BRANCH   18   17
ATOM     17  C14 UNL A   1      32.274  20.716  25.097  1.00  0.00    +0.000 C 
ATOM    108  H16 UNL A   1      31.613  20.356  24.337  1.00  0.00    +0.000 H 
ATOM    109  H17 UNL A   1      32.149  20.276  26.065  1.00  0.00    +0.000 H 
BRANCH   17   16
ATOM    106  H14 UNL A   1      32.709  22.764  24.785  1.00  0.00    +0.000 H 
ATOM    107  H15 UNL A   1      30.963  22.326  24.946  1.00  0.00    +0.000 H 
ATOM     16  C13 UNL A   1      31.963  22.202  25.307  1.00  0.00    +0.000 C 
BRANCH   16   15
ATOM    105  H13 UNL A   1      32.779  22.292  27.237  1.00  0.00    +0.000 H 
ATOM     15  C12 UNL A   1      31.927  22.715  26.746  1.00  0.00    +0.000 C 
ATOM    104  H12 UNL A   1      30.997  22.416  27.182  1.00  0.00    +0.000 H 
BRANCH   15   14
ATOM     14  N2  UNL A   1      32.049  24.147  26.882  1.00  0.00    +0.000 N 
ATOM    103  H11 UNL A   1      32.746  24.446  27.510  1.00  0.00    +0.000 H 
BRANCH   14   12
ATOM     12  C11 UNL A   1      31.345  25.164  26.273  1.00  0.00    +0.000 C 
ATOM     13  O1  UNL A   1      30.119  25.052  26.267  1.00  0.00    +0.000 O 
BRANCH   12   11
ATOM      3  C2  UNL A   1      33.336  27.663  24.373  1.00  0.00    +0.000 C 
ATOM      4  C3  UNL A   1      32.916  26.357  24.609  1.00  0.00    +0.000 C 
ATOM    131  H39 UNL A   1      31.244  27.735  28.212  1.00  0.00    +0.000 H 
ATOM    134  H42 UNL A   1      33.100  30.433  24.631  1.00  0.00    +0.000 H 
ATOM    133  H41 UNL A   1      31.988  31.496  26.455  1.00  0.00    +0.000 H 
ATOM    132  H40 UNL A   1      31.177  30.096  28.339  1.00  0.00    +0.000 H 
ATOM     11  C10 UNL A   1      32.012  26.354  25.733  1.00  0.00    +0.000 C 
ATOM     87  C63 UNL A   1      32.047  27.653  26.229  1.00  0.00    +0.000 C 
ATOM     88  C64 UNL A   1      31.576  28.301  27.415  1.00  0.00    +0.000 C 
ATOM     89  C65 UNL A   1      31.562  29.644  27.495  1.00  0.00    +0.000 C 
ATOM     90  C66 UNL A   1      32.076  30.468  26.420  1.00  0.00    +0.000 C 
ATOM     91  C67 UNL A   1      32.667  29.866  25.377  1.00  0.00    +0.000 C 
ATOM     92  N8  UNL A   1      32.698  28.467  25.299  1.00  0.00    +0.000 N 
BRANCH    3    2
ATOM     97  H5  UNL A   1      35.172  27.565  23.359  1.00  0.00    +0.000 H 
ATOM      2  C1  UNL A   1      34.312  28.201  23.378  1.00  0.00    +0.000 C 
ATOM     96  H4  UNL A   1      34.592  29.194  23.660  1.00  0.00    +0.000 H 
BRANCH    2    1
ATOM      1  N1  UNL A   1      33.722  28.231  22.049  1.00  0.00    +0.000 N 
ATOM     93  H1  UNL A   1      34.107  29.016  21.524  1.00  0.00    +0.000 H 
ATOM     94  H2  UNL A   1      32.711  28.338  22.128  1.00  0.00    +0.000 H 
ATOM     95  H3  UNL A   1      33.935  27.361  21.562  1.00  0.00    +0.000 H 
ENDBRANCH    2    1
ENDBRANCH    3    2
BRANCH    4    5
ATOM     98  H6  UNL A   1      35.172  24.946  24.900  1.00  0.00    +0.000 H 
ATOM     99  H7  UNL A   1      35.933  23.065  23.567  1.00  0.00    +0.000 H 
ATOM    100  H8  UNL A   1      34.587  22.261  21.715  1.00  0.00    +0.000 H 
ATOM      5  C4  UNL A   1      33.385  25.233  23.812  1.00  0.00    +0.000 C 
ATOM    102  H10 UNL A   1      31.728  25.237  22.500  1.00  0.00    +0.000 H 
ATOM      6  C5  UNL A   1      34.599  24.607  24.112  1.00  0.00    +0.000 C 
ATOM      7  C6  UNL A   1      35.036  23.525  23.344  1.00  0.00    +0.000 C 
ATOM      9  C8  UNL A   1      33.056  23.687  21.971  1.00  0.00    +0.000 C 
ATOM     10  C9  UNL A   1      32.619  24.772  22.733  1.00  0.00    +0.000 C 
ATOM    101  H9  UNL A   1      32.484  23.347  21.182  1.00  0.00    +0.000 H 
ATOM      8  C7  UNL A   1      34.264  23.063  22.277  1.00  0.00    +0.000 C 
ENDBRANCH    4    5
ENDBRANCH   12   11
ENDBRANCH   14   12
ENDBRANCH   15   14
ENDBRANCH   16   15
ENDBRANCH   17   16
ENDBRANCH   18   17
ENDBRANCH   19   18
ENDBRANCH   20   19
ENDBRANCH   21   20
ENDBRANCH   22   21
ENDBRANCH   24   22
ENDBRANCH   28   27
BRANCH   32   33
ATOM     33  C27 UNL A   1      38.845  30.645  30.618  1.00  0.00    +0.000 C 
ATOM     34  C28 UNL A   1      37.790  31.184  29.869  1.00  0.00    +0.000 C 
ATOM     35  F1  UNL A   1      37.921  31.355  28.545  1.00  0.00    +0.000 F 
ATOM     36  C29 UNL A   1      36.608  31.590  30.484  1.00  0.00    +0.000 C 
ATOM     37  F2  UNL A   1      35.634  32.151  29.754  1.00  0.00    +0.000 F 
ATOM     38  C30 UNL A   1      36.446  31.433  31.851  1.00  0.00    +0.000 C 
ATOM     39  F3  UNL A   1      35.307  31.822  32.442  1.00  0.00    +0.000 F 
ATOM     40  C31 UNL A   1      37.466  30.880  32.609  1.00  0.00    +0.000 C 
ATOM     41  F4  UNL A   1      37.306  30.716  33.930  1.00  0.00    +0.000 F 
ATOM     42  C32 UNL A   1      38.660  30.499  32.002  1.00  0.00    +0.000 C 
ATOM     43  F5  UNL A   1      39.636  29.982  32.764  1.00  0.00    +0.000 F 
ENDBRANCH   32   33
BRANCH   49   50
ATOM     50  C38 UNL A   1      45.462  33.249  29.463  1.00  0.00    +0.000 C 
ATOM     51  C39 UNL A   1      45.434  34.390  28.650  1.00  0.00    +0.000 C 
ATOM     52  F6  UNL A   1      44.752  34.379  27.494  1.00  0.00    +0.000 F 
ATOM     53  C40 UNL A   1      46.131  35.541  29.010  1.00  0.00    +0.000 C 
ATOM     54  F7  UNL A   1      46.118  36.611  28.203  1.00  0.00    +0.000 F 
ATOM     55  C41 UNL A   1      46.844  35.579  30.199  1.00  0.00    +0.000 C 
ATOM     56  F8  UNL A   1      47.505  36.692  30.550  1.00  0.00    +0.000 F 
ATOM     57  C42 UNL A   1      46.877  34.464  31.022  1.00  0.00    +0.000 C 
ATOM     58  F9  UNL A   1      47.557  34.503  32.177  1.00  0.00    +0.000 F 
ATOM     59  C43 UNL A   1      46.202  33.304  30.654  1.00  0.00    +0.000 C 
ATOM     60  F10 UNL A   1      46.255  32.239  31.466  1.00  0.00    +0.000 F 
ENDBRANCH   49   50
BRANCH   64   65
ATOM     65  C47 UNL A   1      47.080  27.428  25.989  1.00  0.00    +0.000 C 
ATOM     66  C48 UNL A   1      47.212  27.613  24.606  1.00  0.00    +0.000 C 
ATOM     67  F11 UNL A   1      46.218  28.184  23.910  1.00  0.00    +0.000 F 
ATOM     68  C49 UNL A   1      48.347  27.177  23.926  1.00  0.00    +0.000 C 
ATOM     69  F12 UNL A   1      48.430  27.331  22.598  1.00  0.00    +0.000 F 
ATOM     70  C50 UNL A   1      49.383  26.571  24.620  1.00  0.00    +0.000 C 
ATOM     71  F13 UNL A   1      50.478  26.157  23.967  1.00  0.00    +0.000 F 
ATOM     72  C51 UNL A   1      49.282  26.390  25.991  1.00  0.00    +0.000 C 
ATOM     73  F14 UNL A   1      50.286  25.817  26.668  1.00  0.00    +0.000 F 
ATOM     74  C52 UNL A   1      48.135  26.804  26.669  1.00  0.00    +0.000 C 
ATOM     75  F15 UNL A   1      48.060  26.607  27.994  1.00  0.00    +0.000 F 
ENDBRANCH   64   65
TORSDOF 18
ENDMDL
MODEL 6
REMARK VINA RESULT:     -10.8      0.592      7.228
ROOT
ATOM     28  C23 UNL A   1      38.094  29.804  29.882  1.00  0.00    +0.000 C 
ATOM     29  C24 UNL A   1      38.349  30.334  31.264  1.00  0.00    +0.000 C 
ATOM     30  N4  UNL A   1      39.394  30.172  32.037  1.00  0.00    +0.000 N 
ATOM     31  C25 UNL A   1      39.138  30.921  33.178  1.00  0.00    +0.000 C 
ATOM     32  C26 UNL A   1      39.895  31.042  34.296  1.00  0.00    +0.000 C 
ATOM     44  C33 UNL A   1      41.150  30.370  34.502  1.00  0.00    +0.000 C 
ATOM     45  C34 UNL A   1      41.968  30.392  35.618  1.00  0.00    +0.000 C 
ATOM     46  C35 UNL A   1      43.096  29.609  35.349  1.00  0.00    +0.000 C 
ATOM     47  C36 UNL A   1      42.961  29.066  34.081  1.00  0.00    +0.000 C 
ATOM     48  N5  UNL A   1      41.766  29.547  33.571  1.00  0.00    +0.000 N 
ATOM     49  C37 UNL A   1      43.855  28.177  33.388  1.00  0.00    +0.000 C 
ATOM     61  C44 UNL A   1      43.657  27.694  32.138  1.00  0.00    +0.000 C 
ATOM     62  N6  UNL A   1      42.588  27.910  31.279  1.00  0.00    +0.000 N 
ATOM     63  C45 UNL A   1      42.854  27.227  30.193  1.00  0.00    +0.000 C 
ATOM     64  C46 UNL A   1      42.029  27.073  28.943  1.00  0.00    +0.000 C 
ATOM     76  C53 UNL A   1      40.824  27.670  28.869  1.00  0.00    +0.000 C 
ATOM     77  C54 UNL A   1      39.925  27.622  27.720  1.00  0.00    +0.000 C 
ATOM     78  C55 UNL A   1      38.856  28.396  27.966  1.00  0.00    +0.000 C 
ATOM     79  C56 UNL A   1      38.976  28.963  29.310  1.00  0.00    +0.000 C 
ATOM     80  N7  UNL A   1      40.161  28.452  29.782  1.00  0.00    +0.000 N 
ATOM     81  C57 UNL A   1      44.146  26.527  30.226  1.00  0.00    +0.000 C 
ATOM     82  C58 UNL A   1      44.578  26.816  31.446  1.00  0.00    +0.000 C 
ATOM     83  C59 UNL A   1      37.858  31.567  32.983  1.00  0.00    +0.000 C 
ATOM     84  C60 UNL A   1      37.299  31.186  31.844  1.00  0.00    +0.000 C 
ATOM    119  H27 UNL A   1      41.778  30.898  36.498  1.00  0.00    +0.000 H 
ATOM    120  H28 UNL A   1      43.894  29.462  35.987  1.00  0.00    +0.000 H 
ATOM    121  H29 UNL A   1      41.407  29.336  32.679  1.00  0.00    +0.000 H 
ATOM    122  H30 UNL A   1      40.085  27.080  26.855  1.00  0.00    +0.000 H 
ATOM    123  H31 UNL A   1      38.075  28.565  27.313  1.00  0.00    +0.000 H 
ATOM    124  H32 UNL A   1      40.501  28.631  30.688  1.00  0.00    +0.000 H 
ATOM    125  H33 UNL A   1      44.598  25.958  29.493  1.00  0.00    +0.000 H 
ATOM    126  H34 UNL A   1      45.458  26.461  31.851  1.00  0.00    +0.000 H 
ATOM    127  H35 UNL A   1      37.437  32.238  33.643  1.00  0.00    +0.000 H 
ATOM    128  H36 UNL A   1      36.369  31.423  31.464  1.00  0.00    +0.000 H 
ENDROOT
BRANCH   28   27
ATOM    129  H37 UNL A   1      35.931  28.408  29.166  1.00  0.00    +0.000 H 
ATOM    130  H38 UNL A   1      34.031  29.115  27.838  1.00  0.00    +0.000 H 
ATOM     27  C22 UNL A   1      36.914  30.281  29.115  1.00  0.00    +0.000 C 
ATOM    117  H25 UNL A   1      35.605  33.012  27.655  1.00  0.00    +0.000 H 
ATOM     86  C62 UNL A   1      34.759  29.797  28.103  1.00  0.00    +0.000 C 
ATOM     85  C61 UNL A   1      35.872  29.383  28.831  1.00  0.00    +0.000 C 
ATOM     24  C19 UNL A   1      34.630  31.138  27.733  1.00  0.00    +0.000 C 
ATOM     25  C20 UNL A   1      35.677  32.034  27.975  1.00  0.00    +0.000 C 
ATOM     26  C21 UNL A   1      36.822  31.602  28.650  1.00  0.00    +0.000 C 
ATOM    118  H26 UNL A   1      37.604  32.258  28.809  1.00  0.00    +0.000 H 
BRANCH   24   22
ATOM     22  C18 UNL A   1      33.403  31.642  27.073  1.00  0.00    +0.000 C 
ATOM     23  O2  UNL A   1      32.894  32.687  27.462  1.00  0.00    +0.000 O 
BRANCH   22   21
ATOM    116  H24 UNL A   1      33.331  30.892  25.216  1.00  0.00    +0.000 H 
ATOM     21  N3  UNL A   1      32.818  30.924  26.056  1.00  0.00    +0.000 N 
BRANCH   21   20
ATOM    114  H22 UNL A   1      31.762  29.159  26.099  1.00  0.00    +0.000 H 
ATOM    115  H23 UNL A   1      30.984  30.557  26.872  1.00  0.00    +0.000 H 
ATOM     20  C17 UNL A   1      31.556  30.207  26.038  1.00  0.00    +0.000 C 
BRANCH   20   19
ATOM    113  H21 UNL A   1      31.225  31.259  24.276  1.00  0.00    +0.000 H 
ATOM     19  C16 UNL A   1      30.725  30.463  24.787  1.00  0.00    +0.000 C 
ATOM    112  H20 UNL A   1      29.727  30.689  25.099  1.00  0.00    +0.000 H 
BRANCH   19   18
ATOM     18  C15 UNL A   1      30.646  29.322  23.772  1.00  0.00    +0.000 C 
ATOM    110  H18 UNL A   1      29.831  29.537  23.112  1.00  0.00    +0.000 H 
ATOM    111  H19 UNL A   1      31.611  29.296  23.312  1.00  0.00    +0.000 H 
BRANCH   18   17
ATOM     17  C14 UNL A   1      30.434  27.908  24.320  1.00  0.00    +0.000 C 
ATOM    108  H16 UNL A   1      31.273  27.678  24.943  1.00  0.00    +0.000 H 
ATOM    109  H17 UNL A   1      29.487  27.951  24.816  1.00  0.00    +0.000 H 
BRANCH   17   16
ATOM    106  H14 UNL A   1      29.669  27.116  22.512  1.00  0.00    +0.000 H 
ATOM    107  H15 UNL A   1      31.291  26.513  23.034  1.00  0.00    +0.000 H 
ATOM     16  C13 UNL A   1      30.288  26.764  23.311  1.00  0.00    +0.000 C 
BRANCH   16   15
ATOM    105  H13 UNL A   1      28.858  25.236  23.169  1.00  0.00    +0.000 H 
ATOM     15  C12 UNL A   1      29.683  25.455  23.817  1.00  0.00    +0.000 C 
ATOM    104  H12 UNL A   1      29.393  25.596  24.837  1.00  0.00    +0.000 H 
BRANCH   15   14
ATOM     14  N2  UNL A   1      30.565  24.314  23.752  1.00  0.00    +0.000 N 
ATOM    103  H11 UNL A   1      30.786  24.013  22.841  1.00  0.00    +0.000 H 
BRANCH   14   12
ATOM     12  C11 UNL A   1      31.148  23.579  24.762  1.00  0.00    +0.000 C 
ATOM     13  O1  UNL A   1      30.431  23.313  25.727  1.00  0.00    +0.000 O 
BRANCH   12   11
ATOM      3  C2  UNL A   1      34.818  23.069  24.465  1.00  0.00    +0.000 C 
ATOM      4  C3  UNL A   1      33.697  23.893  24.510  1.00  0.00    +0.000 C 
ATOM    131  H39 UNL A   1      31.352  20.421  24.158  1.00  0.00    +0.000 H 
ATOM    134  H42 UNL A   1      36.142  20.649  24.903  1.00  0.00    +0.000 H 
ATOM    133  H41 UNL A   1      35.032  18.540  24.996  1.00  0.00    +0.000 H 
ATOM    132  H40 UNL A   1      32.607  18.441  24.468  1.00  0.00    +0.000 H 
ATOM     11  C10 UNL A   1      32.520  23.071  24.660  1.00  0.00    +0.000 C 
ATOM     87  C63 UNL A   1      32.976  21.762  24.542  1.00  0.00    +0.000 C 
ATOM     88  C64 UNL A   1      32.357  20.482  24.387  1.00  0.00    +0.000 C 
ATOM     89  C65 UNL A   1      33.078  19.356  24.540  1.00  0.00    +0.000 C 
ATOM     90  C66 UNL A   1      34.502  19.404  24.801  1.00  0.00    +0.000 C 
ATOM     91  C67 UNL A   1      35.118  20.596  24.786  1.00  0.00    +0.000 C 
ATOM     92  N8  UNL A   1      34.371  21.769  24.610  1.00  0.00    +0.000 N 
BRANCH    3    2
ATOM     97  H5  UNL A   1      36.328  24.236  23.589  1.00  0.00    +0.000 H 
ATOM      2  C1  UNL A   1      36.259  23.406  24.260  1.00  0.00    +0.000 C 
ATOM     96  H4  UNL A   1      36.765  22.556  23.851  1.00  0.00    +0.000 H 
BRANCH    2    1
ATOM      1  N1  UNL A   1      36.883  23.770  25.523  1.00  0.00    +0.000 N 
ATOM     93  H1  UNL A   1      36.247  23.556  26.291  1.00  0.00    +0.000 H 
ATOM     94  H2  UNL A   1      37.093  24.768  25.523  1.00  0.00    +0.000 H 
ATOM     95  H3  UNL A   1      37.747  23.241  25.640  1.00  0.00    +0.000 H 
ENDBRANCH    2    1
ENDBRANCH    3    2
BRANCH    4    5
ATOM     98  H6  UNL A   1      33.840  25.709  26.472  1.00  0.00    +0.000 H 
ATOM     99  H7  UNL A   1      34.004  28.121  26.256  1.00  0.00    +0.000 H 
ATOM    100  H8  UNL A   1      34.055  29.147  24.058  1.00  0.00    +0.000 H 
ATOM      5  C4  UNL A   1      33.790  25.341  24.393  1.00  0.00    +0.000 C 
ATOM    102  H10 UNL A   1      33.744  25.354  22.280  1.00  0.00    +0.000 H 
ATOM      6  C5  UNL A   1      33.859  26.143  25.536  1.00  0.00    +0.000 C 
ATOM      7  C6  UNL A   1      33.954  27.532  25.411  1.00  0.00    +0.000 C 
ATOM      9  C8  UNL A   1      33.907  27.328  23.005  1.00  0.00    +0.000 C 
ATOM     10  C9  UNL A   1      33.806  25.941  23.127  1.00  0.00    +0.000 C 
ATOM    101  H9  UNL A   1      33.926  27.763  22.070  1.00  0.00    +0.000 H 
ATOM      8  C7  UNL A   1      33.981  28.123  24.147  1.00  0.00    +0.000 C 
ENDBRANCH    4    5
ENDBRANCH   12   11
ENDBRANCH   14   12
ENDBRANCH   15   14
ENDBRANCH   16   15
ENDBRANCH   17   16
ENDBRANCH   18   17
ENDBRANCH   19   18
ENDBRANCH   20   19
ENDBRANCH   21   20
ENDBRANCH   22   21
ENDBRANCH   24   22
ENDBRANCH   28   27
BRANCH   32   33
ATOM     33  C27 UNL A   1      39.383  31.943  35.381  1.00  0.00    +0.000 C 
ATOM     34  C28 UNL A   1      39.728  33.302  35.431  1.00  0.00    +0.000 C 
ATOM     35  F1  UNL A   1      40.563  33.821  34.519  1.00  0.00    +0.000 F 
ATOM     36  C29 UNL A   1      39.250  34.125  36.448  1.00  0.00    +0.000 C 
ATOM     37  F2  UNL A   1      39.635  35.407  36.506  1.00  0.00    +0.000 F 
ATOM     38  C30 UNL A   1      38.392  33.615  37.410  1.00  0.00    +0.000 C 
ATOM     39  F3  UNL A   1      37.931  34.409  38.387  1.00  0.00    +0.000 F 
ATOM     40  C31 UNL A   1      38.018  32.281  37.366  1.00  0.00    +0.000 C 
ATOM     41  F4  UNL A   1      37.179  31.790  38.289  1.00  0.00    +0.000 F 
ATOM     42  C32 UNL A   1      38.517  31.449  36.368  1.00  0.00    +0.000 C 
ATOM     43  F5  UNL A   1      38.151  30.158  36.361  1.00  0.00    +0.000 F 
ENDBRANCH   32   33
BRANCH   49   50
ATOM     50  C38 UNL A   1      45.088  27.730  34.115  1.00  0.00    +0.000 C 
ATOM     51  C39 UNL A   1      46.282  28.462  34.057  1.00  0.00    +0.000 C 
ATOM     52  F6  UNL A   1      46.367  29.554  33.283  1.00  0.00    +0.000 F 
ATOM     53  C40 UNL A   1      47.403  28.057  34.777  1.00  0.00    +0.000 C 
ATOM     54  F7  UNL A   1      48.545  28.753  34.683  1.00  0.00    +0.000 F 
ATOM     55  C41 UNL A   1      47.343  26.932  35.585  1.00  0.00    +0.000 C 
ATOM     56  F8  UNL A   1      48.420  26.551  36.287  1.00  0.00    +0.000 F 
ATOM     57  C42 UNL A   1      46.169  26.198  35.664  1.00  0.00    +0.000 C 
ATOM     58  F9  UNL A   1      46.105  25.117  36.453  1.00  0.00    +0.000 F 
ATOM     59  C43 UNL A   1      45.054  26.586  34.927  1.00  0.00    +0.000 C 
ATOM     60  F10 UNL A   1      43.933  25.856  35.017  1.00  0.00    +0.000 F 
ENDBRANCH   49   50
BRANCH   64   65
ATOM     65  C47 UNL A   1      42.518  26.249  27.809  1.00  0.00    +0.000 C 
ATOM     66  C48 UNL A   1      42.126  24.909  27.676  1.00  0.00    +0.000 C 
ATOM     67  F11 UNL A   1      41.324  24.354  28.596  1.00  0.00    +0.000 F 
ATOM     68  C49 UNL A   1      42.587  24.125  26.621  1.00  0.00    +0.000 C 
ATOM     69  F12 UNL A   1      42.228  22.837  26.540  1.00  0.00    +0.000 F 
ATOM     70  C50 UNL A   1      43.428  24.672  25.664  1.00  0.00    +0.000 C 
ATOM     71  F13 UNL A   1      43.866  23.919  24.646  1.00  0.00    +0.000 F 
ATOM     72  C51 UNL A   1      43.818  25.999  25.765  1.00  0.00    +0.000 C 
ATOM     73  F14 UNL A   1      44.619  26.535  24.835  1.00  0.00    +0.000 F 
ATOM     74  C52 UNL A   1      43.376  26.778  26.835  1.00  0.00    +0.000 C 
ATOM     75  F15 UNL A   1      43.777  28.056  26.913  1.00  0.00    +0.000 F 
ENDBRANCH   64   65
TORSDOF 18
ENDMDL
MODEL 7
REMARK VINA RESULT:     -10.8     37.438     42.933
ROOT
ATOM     28  C23 UNL A   1      14.248  53.880   5.224  1.00  0.00    +0.000 C 
ATOM     29  C24 UNL A   1      15.177  54.321   4.129  1.00  0.00    +0.000 C 
ATOM     30  N4  UNL A   1      15.622  53.651   3.096  1.00  0.00    +0.000 N 
ATOM     31  C25 UNL A   1      16.398  54.546   2.372  1.00  0.00    +0.000 C 
ATOM     32  C26 UNL A   1      17.115  54.323   1.244  1.00  0.00    +0.000 C 
ATOM     44  C33 UNL A   1      17.208  53.049   0.581  1.00  0.00    +0.000 C 
ATOM     45  C34 UNL A   1      17.944  52.710  -0.540  1.00  0.00    +0.000 C 
ATOM     46  C35 UNL A   1      17.700  51.365  -0.836  1.00  0.00    +0.000 C 
ATOM     47  C36 UNL A   1      16.842  50.855   0.127  1.00  0.00    +0.000 C 
ATOM     48  N5  UNL A   1      16.543  51.901   0.984  1.00  0.00    +0.000 N 
ATOM     49  C37 UNL A   1      16.334  49.514   0.252  1.00  0.00    +0.000 C 
ATOM     61  C44 UNL A   1      15.487  49.091   1.221  1.00  0.00    +0.000 C 
ATOM     62  N6  UNL A   1      14.951  49.806   2.284  1.00  0.00    +0.000 N 
ATOM     63  C45 UNL A   1      14.195  48.963   2.942  1.00  0.00    +0.000 C 
ATOM     64  C46 UNL A   1      13.394  49.185   4.196  1.00  0.00    +0.000 C 
ATOM     76  C53 UNL A   1      13.433  50.389   4.801  1.00  0.00    +0.000 C 
ATOM     77  C54 UNL A   1      12.700  50.753   6.010  1.00  0.00    +0.000 C 
ATOM     78  C55 UNL A   1      12.912  52.052   6.275  1.00  0.00    +0.000 C 
ATOM     79  C56 UNL A   1      13.831  52.601   5.278  1.00  0.00    +0.000 C 
ATOM     80  N7  UNL A   1      14.111  51.533   4.460  1.00  0.00    +0.000 N 
ATOM     81  C57 UNL A   1      14.135  47.619   2.346  1.00  0.00    +0.000 C 
ATOM     82  C58 UNL A   1      14.967  47.742   1.321  1.00  0.00    +0.000 C 
ATOM     83  C59 UNL A   1      16.333  55.817   3.060  1.00  0.00    +0.000 C 
ATOM     84  C60 UNL A   1      15.645  55.715   4.188  1.00  0.00    +0.000 C 
ATOM    119  H27 UNL A   1      18.569  53.342  -1.068  1.00  0.00    +0.000 H 
ATOM    120  H28 UNL A   1      18.091  50.842  -1.634  1.00  0.00    +0.000 H 
ATOM    121  H29 UNL A   1      15.947  51.838   1.765  1.00  0.00    +0.000 H 
ATOM    122  H30 UNL A   1      12.112  50.115   6.569  1.00  0.00    +0.000 H 
ATOM    123  H31 UNL A   1      12.493  52.579   7.058  1.00  0.00    +0.000 H 
ATOM    124  H32 UNL A   1      14.738  51.584   3.703  1.00  0.00    +0.000 H 
ATOM    125  H33 UNL A   1      13.591  46.796   2.647  1.00  0.00    +0.000 H 
ATOM    126  H34 UNL A   1      15.213  46.975   0.676  1.00  0.00    +0.000 H 
ATOM    127  H35 UNL A   1      16.765  56.689   2.718  1.00  0.00    +0.000 H 
ATOM    128  H36 UNL A   1      15.480  56.426   4.917  1.00  0.00    +0.000 H 
ENDROOT
BRANCH   28   27
ATOM    129  H37 UNL A   1      12.040  55.369   5.006  1.00  0.00    +0.000 H 
ATOM    130  H38 UNL A   1      11.194  57.070   6.510  1.00  0.00    +0.000 H 
ATOM     27  C22 UNL A   1      13.722  54.877   6.192  1.00  0.00    +0.000 C 
ATOM    117  H25 UNL A   1      14.324  56.254   9.199  1.00  0.00    +0.000 H 
ATOM     86  C62 UNL A   1      12.025  56.517   6.771  1.00  0.00    +0.000 C 
ATOM     85  C61 UNL A   1      12.537  55.567   5.889  1.00  0.00    +0.000 C 
ATOM     24  C19 UNL A   1      12.640  56.718   8.009  1.00  0.00    +0.000 C 
ATOM     25  C20 UNL A   1      13.842  56.066   8.307  1.00  0.00    +0.000 C 
ATOM     26  C21 UNL A   1      14.389  55.160   7.393  1.00  0.00    +0.000 C 
ATOM    118  H26 UNL A   1      15.287  54.697   7.604  1.00  0.00    +0.000 H 
BRANCH   24   22
ATOM     22  C18 UNL A   1      12.053  57.623   9.025  1.00  0.00    +0.000 C 
ATOM     23  O2  UNL A   1      12.371  58.806   9.036  1.00  0.00    +0.000 O 
BRANCH   22   21
ATOM    116  H24 UNL A   1      11.412  57.353  10.905  1.00  0.00    +0.000 H 
ATOM     21  N3  UNL A   1      11.186  57.130   9.973  1.00  0.00    +0.000 N 
BRANCH   21   20
ATOM    114  H22 UNL A   1       9.189  56.798  10.342  1.00  0.00    +0.000 H 
ATOM    115  H23 UNL A   1       9.789  56.282   8.751  1.00  0.00    +0.000 H 
ATOM     20  C17 UNL A   1       9.986  56.331   9.801  1.00  0.00    +0.000 C 
BRANCH   20   19
ATOM    113  H21 UNL A   1       9.129  54.533  10.395  1.00  0.00    +0.000 H 
ATOM     19  C16 UNL A   1      10.130  54.898  10.297  1.00  0.00    +0.000 C 
ATOM    112  H20 UNL A   1      10.687  54.924  11.210  1.00  0.00    +0.000 H 
BRANCH   19   18
ATOM     18  C15 UNL A   1      10.828  53.914   9.357  1.00  0.00    +0.000 C 
ATOM    110  H18 UNL A   1      10.140  53.118   9.159  1.00  0.00    +0.000 H 
ATOM    111  H19 UNL A   1      11.105  54.499   8.505  1.00  0.00    +0.000 H 
BRANCH   18   17
ATOM     17  C14 UNL A   1      12.135  53.284   9.843  1.00  0.00    +0.000 C 
ATOM    108  H16 UNL A   1      11.928  52.260  10.076  1.00  0.00    +0.000 H 
ATOM    109  H17 UNL A   1      12.826  53.446   9.043  1.00  0.00    +0.000 H 
BRANCH   17   16
ATOM    106  H14 UNL A   1      12.695  54.963  11.004  1.00  0.00    +0.000 H 
ATOM    107  H15 UNL A   1      12.337  53.440  11.910  1.00  0.00    +0.000 H 
ATOM     16  C13 UNL A   1      12.815  53.902  11.070  1.00  0.00    +0.000 C 
BRANCH   16   15
ATOM    105  H13 UNL A   1      14.797  54.570  11.215  1.00  0.00    +0.000 H 
ATOM     15  C12 UNL A   1      14.304  53.621  11.263  1.00  0.00    +0.000 C 
ATOM    104  H12 UNL A   1      14.617  52.944  10.495  1.00  0.00    +0.000 H 
BRANCH   15   14
ATOM     14  N2  UNL A   1      14.652  53.045  12.541  1.00  0.00    +0.000 N 
ATOM    103  H11 UNL A   1      14.838  53.699  13.252  1.00  0.00    +0.000 H 
BRANCH   14   12
ATOM     12  C11 UNL A   1      14.765  51.725  12.922  1.00  0.00    +0.000 C 
ATOM     13  O1  UNL A   1      15.461  51.501  13.912  1.00  0.00    +0.000 O 
BRANCH   12   11
ATOM      3  C2  UNL A   1      13.530  49.024  10.687  1.00  0.00    +0.000 C 
ATOM      4  C3  UNL A   1      14.466  49.995  11.031  1.00  0.00    +0.000 C 
ATOM    131  H39 UNL A   1      11.707  51.392  13.879  1.00  0.00    +0.000 H 
ATOM    134  H42 UNL A   1      11.395  47.318  11.260  1.00  0.00    +0.000 H 
ATOM    133  H41 UNL A   1       9.804  47.735  12.988  1.00  0.00    +0.000 H 
ATOM    132  H40 UNL A   1       9.907  49.894  14.211  1.00  0.00    +0.000 H 
ATOM     11  C10 UNL A   1      14.032  50.654  12.239  1.00  0.00    +0.000 C 
ATOM     87  C63 UNL A   1      12.759  50.151  12.488  1.00  0.00    +0.000 C 
ATOM     88  C64 UNL A   1      11.686  50.494  13.370  1.00  0.00    +0.000 C 
ATOM     89  C65 UNL A   1      10.650  49.651  13.539  1.00  0.00    +0.000 C 
ATOM     90  C66 UNL A   1      10.559  48.412  12.794  1.00  0.00    +0.000 C 
ATOM     91  C67 UNL A   1      11.477  48.161  11.849  1.00  0.00    +0.000 C 
ATOM     92  N8  UNL A   1      12.548  49.046  11.659  1.00  0.00    +0.000 N 
BRANCH    3    2
ATOM     97  H5  UNL A   1      13.637  48.688   8.617  1.00  0.00    +0.000 H 
ATOM      2  C1  UNL A   1      13.471  48.113   9.504  1.00  0.00    +0.000 C 
ATOM     96  H4  UNL A   1      12.509  47.645   9.468  1.00  0.00    +0.000 H 
BRANCH    2    1
ATOM      1  N1  UNL A   1      14.498  47.087   9.597  1.00  0.00    +0.000 N 
ATOM     93  H1  UNL A   1      15.178  47.218   8.849  1.00  0.00    +0.000 H 
ATOM     94  H2  UNL A   1      14.068  46.167   9.508  1.00  0.00    +0.000 H 
ATOM     95  H3  UNL A   1      14.967  47.157  10.500  1.00  0.00    +0.000 H 
ENDBRANCH    2    1
ENDBRANCH    3    2
BRANCH    4    5
ATOM     98  H6  UNL A   1      17.000  49.301  11.547  1.00  0.00    +0.000 H 
ATOM     99  H7  UNL A   1      18.966  49.731  10.190  1.00  0.00    +0.000 H 
ATOM    100  H8  UNL A   1      18.757  50.921   8.086  1.00  0.00    +0.000 H 
ATOM      5  C4  UNL A   1      15.653  50.252  10.228  1.00  0.00    +0.000 C 
ATOM    102  H10 UNL A   1      14.618  51.289   8.704  1.00  0.00    +0.000 H 
ATOM      6  C5  UNL A   1      16.908  49.810  10.655  1.00  0.00    +0.000 C 
ATOM      7  C6  UNL A   1      18.040  50.057   9.872  1.00  0.00    +0.000 C 
ATOM      9  C8  UNL A   1      16.672  51.191   8.236  1.00  0.00    +0.000 C 
ATOM     10  C9  UNL A   1      15.541  50.951   9.018  1.00  0.00    +0.000 C 
ATOM    101  H9  UNL A   1      16.583  51.700   7.343  1.00  0.00    +0.000 H 
ATOM      8  C7  UNL A   1      17.921  50.745   8.663  1.00  0.00    +0.000 C 
ENDBRANCH    4    5
ENDBRANCH   12   11
ENDBRANCH   14   12
ENDBRANCH   15   14
ENDBRANCH   16   15
ENDBRANCH   17   16
ENDBRANCH   18   17
ENDBRANCH   19   18
ENDBRANCH   20   19
ENDBRANCH   21   20
ENDBRANCH   22   21
ENDBRANCH   24   22
ENDBRANCH   28   27
BRANCH   32   33
ATOM     33  C27 UNL A   1      17.853  55.487   0.653  1.00  0.00    +0.000 C 
ATOM     34  C28 UNL A   1      17.312  56.245  -0.396  1.00  0.00    +0.000 C 
ATOM     35  F1  UNL A   1      16.124  55.917  -0.923  1.00  0.00    +0.000 F 
ATOM     36  C29 UNL A   1      18.012  57.320  -0.938  1.00  0.00    +0.000 C 
ATOM     37  F2  UNL A   1      17.499  57.997  -1.974  1.00  0.00    +0.000 F 
ATOM     38  C30 UNL A   1      19.247  57.680  -0.420  1.00  0.00    +0.000 C 
ATOM     39  F3  UNL A   1      19.918  58.716  -0.940  1.00  0.00    +0.000 F 
ATOM     40  C31 UNL A   1      19.790  56.959   0.633  1.00  0.00    +0.000 C 
ATOM     41  F4  UNL A   1      20.979  57.313   1.143  1.00  0.00    +0.000 F 
ATOM     42  C32 UNL A   1      19.106  55.866   1.158  1.00  0.00    +0.000 C 
ATOM     43  F5  UNL A   1      19.666  55.178   2.166  1.00  0.00    +0.000 F 
ENDBRANCH   32   33
BRANCH   49   50
ATOM     50  C38 UNL A   1      16.799  48.500  -0.751  1.00  0.00    +0.000 C 
ATOM     51  C39 UNL A   1      18.003  47.801  -0.586  1.00  0.00    +0.000 C 
ATOM     52  F6  UNL A   1      18.809  48.080   0.449  1.00  0.00    +0.000 F 
ATOM     53  C40 UNL A   1      18.395  46.830  -1.504  1.00  0.00    +0.000 C 
ATOM     54  F7  UNL A   1      19.565  46.195  -1.347  1.00  0.00    +0.000 F 
ATOM     55  C41 UNL A   1      17.580  46.523  -2.583  1.00  0.00    +0.000 C 
ATOM     56  F8  UNL A   1      17.954  45.578  -3.459  1.00  0.00    +0.000 F 
ATOM     57  C42 UNL A   1      16.381  47.196  -2.759  1.00  0.00    +0.000 C 
ATOM     58  F9  UNL A   1      15.587  46.892  -3.796  1.00  0.00    +0.000 F 
ATOM     59  C43 UNL A   1      15.997  48.184  -1.858  1.00  0.00    +0.000 C 
ATOM     60  F10 UNL A   1      14.835  48.823  -2.055  1.00  0.00    +0.000 F 
ENDBRANCH   49   50
BRANCH   64   65
ATOM     65  C47 UNL A   1      12.589  48.086   4.788  1.00  0.00    +0.000 C 
ATOM     66  C48 UNL A   1      11.316  47.782   4.286  1.00  0.00    +0.000 C 
ATOM     67  F11 UNL A   1      10.804  48.505   3.279  1.00  0.00    +0.000 F 
ATOM     68  C49 UNL A   1      10.549  46.760   4.840  1.00  0.00    +0.000 C 
ATOM     69  F12 UNL A   1       9.320  46.515   4.367  1.00  0.00    +0.000 F 
ATOM     70  C50 UNL A   1      11.050  46.006   5.891  1.00  0.00    +0.000 C 
ATOM     71  F13 UNL A   1      10.314  45.019   6.421  1.00  0.00    +0.000 F 
ATOM     72  C51 UNL A   1      12.313  46.279   6.395  1.00  0.00    +0.000 C 
ATOM     73  F14 UNL A   1      12.806  45.545   7.401  1.00  0.00    +0.000 F 
ATOM     74  C52 UNL A   1      13.071  47.318   5.857  1.00  0.00    +0.000 C 
ATOM     75  F15 UNL A   1      14.285  47.567   6.370  1.00  0.00    +0.000 F 
ENDBRANCH   64   65
TORSDOF 18
ENDMDL
MODEL 8
REMARK VINA RESULT:     -10.6      3.984      9.448
ROOT
ATOM     28  C23 UNL A   1      41.392  26.017  27.618  1.00  0.00    +0.000 C 
ATOM     29  C24 UNL A   1      40.719  27.113  28.393  1.00  0.00    +0.000 C 
ATOM     30  N4  UNL A   1      41.162  28.306  28.700  1.00  0.00    +0.000 N 
ATOM     31  C25 UNL A   1      40.121  28.933  29.372  1.00  0.00    +0.000 C 
ATOM     32  C26 UNL A   1      40.099  30.166  29.935  1.00  0.00    +0.000 C 
ATOM     44  C33 UNL A   1      41.215  31.074  29.942  1.00  0.00    +0.000 C 
ATOM     45  C34 UNL A   1      41.307  32.325  30.526  1.00  0.00    +0.000 C 
ATOM     46  C35 UNL A   1      42.575  32.846  30.248  1.00  0.00    +0.000 C 
ATOM     47  C36 UNL A   1      43.288  31.902  29.526  1.00  0.00    +0.000 C 
ATOM     48  N5  UNL A   1      42.438  30.823  29.339  1.00  0.00    +0.000 N 
ATOM     49  C37 UNL A   1      44.641  31.979  29.042  1.00  0.00    +0.000 C 
ATOM     61  C44 UNL A   1      45.269  31.012  28.330  1.00  0.00    +0.000 C 
ATOM     62  N6  UNL A   1      44.791  29.770  27.937  1.00  0.00    +0.000 N 
ATOM     63  C45 UNL A   1      45.768  29.200  27.276  1.00  0.00    +0.000 C 
ATOM     64  C46 UNL A   1      45.818  27.834  26.647  1.00  0.00    +0.000 C 
ATOM     76  C53 UNL A   1      44.755  27.013  26.762  1.00  0.00    +0.000 C 
ATOM     77  C54 UNL A   1      44.655  25.673  26.194  1.00  0.00    +0.000 C 
ATOM     78  C55 UNL A   1      43.428  25.185  26.435  1.00  0.00    +0.000 C 
ATOM     79  C56 UNL A   1      42.668  26.164  27.214  1.00  0.00    +0.000 C 
ATOM     80  N7  UNL A   1      43.548  27.206  27.386  1.00  0.00    +0.000 N 
ATOM     81  C57 UNL A   1      46.970  30.036  27.142  1.00  0.00    +0.000 C 
ATOM     82  C58 UNL A   1      46.625  31.115  27.832  1.00  0.00    +0.000 C 
ATOM     83  C59 UNL A   1      39.011  28.004  29.395  1.00  0.00    +0.000 C 
ATOM     84  C60 UNL A   1      39.351  26.841  28.861  1.00  0.00    +0.000 C 
ATOM    119  H27 UNL A   1      40.567  32.793  31.074  1.00  0.00    +0.000 H 
ATOM    120  H28 UNL A   1      42.921  33.776  30.532  1.00  0.00    +0.000 H 
ATOM    121  H29 UNL A   1      42.670  30.000  28.851  1.00  0.00    +0.000 H 
ATOM    122  H30 UNL A   1      45.406  25.179  25.686  1.00  0.00    +0.000 H 
ATOM    123  H31 UNL A   1      43.076  24.266  26.122  1.00  0.00    +0.000 H 
ATOM    124  H32 UNL A   1      43.331  28.012  27.908  1.00  0.00    +0.000 H 
ATOM    125  H33 UNL A   1      47.851  29.837  26.644  1.00  0.00    +0.000 H 
ATOM    126  H34 UNL A   1      47.244  31.925  27.993  1.00  0.00    +0.000 H 
ATOM    127  H35 UNL A   1      38.077  28.220  29.777  1.00  0.00    +0.000 H 
ATOM    128  H36 UNL A   1      38.802  25.970  28.792  1.00  0.00    +0.000 H 
ENDROOT
BRANCH   28   27
ATOM    129  H37 UNL A   1      39.296  25.885  25.966  1.00  0.00    +0.000 H 
ATOM    130  H38 UNL A   1      37.949  23.962  25.364  1.00  0.00    +0.000 H 
ATOM     27  C22 UNL A   1      40.619  24.812  27.220  1.00  0.00    +0.000 C 
ATOM    117  H25 UNL A   1      40.468  21.480  27.642  1.00  0.00    +0.000 H 
ATOM     86  C62 UNL A   1      38.785  23.842  25.956  1.00  0.00    +0.000 C 
ATOM     85  C61 UNL A   1      39.537  24.952  26.337  1.00  0.00    +0.000 C 
ATOM     24  C19 UNL A   1      39.167  22.566  26.379  1.00  0.00    +0.000 C 
ATOM     25  C20 UNL A   1      40.219  22.417  27.289  1.00  0.00    +0.000 C 
ATOM     26  C21 UNL A   1      40.932  23.539  27.721  1.00  0.00    +0.000 C 
ATOM    118  H26 UNL A   1      41.693  23.430  28.409  1.00  0.00    +0.000 H 
BRANCH   24   22
ATOM     22  C18 UNL A   1      38.473  21.351  25.891  1.00  0.00    +0.000 C 
ATOM     23  O2  UNL A   1      39.131  20.374  25.553  1.00  0.00    +0.000 O 
BRANCH   22   21
ATOM    116  H24 UNL A   1      36.631  22.026  26.299  1.00  0.00    +0.000 H 
ATOM     21  N3  UNL A   1      37.101  21.334  25.781  1.00  0.00    +0.000 N 
BRANCH   21   20
ATOM    114  H22 UNL A   1      36.280  20.745  23.989  1.00  0.00    +0.000 H 
ATOM    115  H23 UNL A   1      36.617  19.452  25.160  1.00  0.00    +0.000 H 
ATOM     20  C17 UNL A   1      36.247  20.445  25.016  1.00  0.00    +0.000 C 
BRANCH   20   19
ATOM    113  H21 UNL A   1      34.635  21.422  25.892  1.00  0.00    +0.000 H 
ATOM     19  C16 UNL A   1      34.794  20.451  25.472  1.00  0.00    +0.000 C 
ATOM    112  H20 UNL A   1      34.665  19.641  26.160  1.00  0.00    +0.000 H 
BRANCH   19   18
ATOM     18  C15 UNL A   1      33.732  20.306  24.381  1.00  0.00    +0.000 C 
ATOM    110  H18 UNL A   1      34.057  20.882  23.539  1.00  0.00    +0.000 H 
ATOM    111  H19 UNL A   1      33.656  19.253  24.211  1.00  0.00    +0.000 H 
BRANCH   18   17
ATOM     17  C14 UNL A   1      32.309  20.754  24.723  1.00  0.00    +0.000 C 
ATOM    108  H16 UNL A   1      31.646  19.969  24.421  1.00  0.00    +0.000 H 
ATOM    109  H17 UNL A   1      32.335  20.958  25.772  1.00  0.00    +0.000 H 
BRANCH   17   16
ATOM    106  H14 UNL A   1      32.634  22.547  23.647  1.00  0.00    +0.000 H 
ATOM    107  H15 UNL A   1      31.034  21.742  23.406  1.00  0.00    +0.000 H 
ATOM     16  C13 UNL A   1      31.796  22.052  24.091  1.00  0.00    +0.000 C 
BRANCH   16   15
ATOM    105  H13 UNL A   1      31.884  23.525  25.581  1.00  0.00    +0.000 H 
ATOM     15  C12 UNL A   1      31.107  23.057  25.013  1.00  0.00    +0.000 C 
ATOM    104  H12 UNL A   1      30.404  22.524  25.619  1.00  0.00    +0.000 H 
BRANCH   15   14
ATOM     14  N2  UNL A   1      30.402  24.119  24.334  1.00  0.00    +0.000 N 
ATOM    103  H11 UNL A   1      29.962  23.853  23.495  1.00  0.00    +0.000 H 
BRANCH   14   12
ATOM     12  C11 UNL A   1      30.247  25.446  24.674  1.00  0.00    +0.000 C 
ATOM     13  O1  UNL A   1      29.627  25.674  25.713  1.00  0.00    +0.000 O 
BRANCH   12   11
ATOM      3  C2  UNL A   1      32.462  27.749  22.775  1.00  0.00    +0.000 C 
ATOM      4  C3  UNL A   1      32.254  26.603  23.536  1.00  0.00    +0.000 C 
ATOM    131  H39 UNL A   1      28.402  28.069  24.367  1.00  0.00    +0.000 H 
ATOM    134  H42 UNL A   1      31.584  29.858  21.169  1.00  0.00    +0.000 H 
ATOM    133  H41 UNL A   1      29.370  30.743  21.253  1.00  0.00    +0.000 H 
ATOM    132  H40 UNL A   1      27.813  29.904  22.996  1.00  0.00    +0.000 H 
ATOM     11  C10 UNL A   1      30.856  26.525  23.889  1.00  0.00    +0.000 C 
ATOM     87  C63 UNL A   1      30.305  27.723  23.450  1.00  0.00    +0.000 C 
ATOM     88  C64 UNL A   1      29.057  28.398  23.640  1.00  0.00    +0.000 C 
ATOM     89  C65 UNL A   1      28.734  29.457  22.876  1.00  0.00    +0.000 C 
ATOM     90  C66 UNL A   1      29.656  29.982  21.889  1.00  0.00    +0.000 C 
ATOM     91  C67 UNL A   1      30.889  29.457  21.818  1.00  0.00    +0.000 C 
ATOM     92  N8  UNL A   1      31.233  28.364  22.625  1.00  0.00    +0.000 N 
BRANCH    3    2
ATOM     97  H5  UNL A   1      33.473  29.002  21.428  1.00  0.00    +0.000 H 
ATOM      2  C1  UNL A   1      33.723  28.324  22.217  1.00  0.00    +0.000 C 
ATOM     96  H4  UNL A   1      34.337  27.531  21.844  1.00  0.00    +0.000 H 
BRANCH    2    1
ATOM      1  N1  UNL A   1      34.453  29.049  23.245  1.00  0.00    +0.000 N 
ATOM     93  H1  UNL A   1      33.867  29.798  23.614  1.00  0.00    +0.000 H 
ATOM     94  H2  UNL A   1      35.301  29.447  22.843  1.00  0.00    +0.000 H 
ATOM     95  H3  UNL A   1      34.703  28.410  23.999  1.00  0.00    +0.000 H 
ENDBRANCH    2    1
ENDBRANCH    3    2
BRANCH    4    5
ATOM     98  H6  UNL A   1      33.564  26.418  25.863  1.00  0.00    +0.000 H 
ATOM     99  H7  UNL A   1      35.362  24.893  26.440  1.00  0.00    +0.000 H 
ATOM    100  H8  UNL A   1      36.169  23.288  24.810  1.00  0.00    +0.000 H 
ATOM      5  C4  UNL A   1      33.336  25.697  23.891  1.00  0.00    +0.000 C 
ATOM    102  H10 UNL A   1      33.406  24.749  22.003  1.00  0.00    +0.000 H 
ATOM      6  C5  UNL A   1      33.907  25.738  25.167  1.00  0.00    +0.000 C 
ATOM      7  C6  UNL A   1      34.942  24.860  25.499  1.00  0.00    +0.000 C 
ATOM      9  C8  UNL A   1      34.846  23.896  23.286  1.00  0.00    +0.000 C 
ATOM     10  C9  UNL A   1      33.817  24.776  22.950  1.00  0.00    +0.000 C 
ATOM    101  H9  UNL A   1      35.190  23.215  22.591  1.00  0.00    +0.000 H 
ATOM      8  C7  UNL A   1      35.409  23.938  24.560  1.00  0.00    +0.000 C 
ENDBRANCH    4    5
ENDBRANCH   12   11
ENDBRANCH   14   12
ENDBRANCH   15   14
ENDBRANCH   16   15
ENDBRANCH   17   16
ENDBRANCH   18   17
ENDBRANCH   19   18
ENDBRANCH   20   19
ENDBRANCH   21   20
ENDBRANCH   22   21
ENDBRANCH   24   22
ENDBRANCH   28   27
BRANCH   32   33
ATOM     33  C27 UNL A   1      38.821  30.605  30.586  1.00  0.00    +0.000 C 
ATOM     34  C28 UNL A   1      38.630  30.505  31.972  1.00  0.00    +0.000 C 
ATOM     35  F1  UNL A   1      39.586  29.975  32.749  1.00  0.00    +0.000 F 
ATOM     36  C29 UNL A   1      37.435  30.912  32.562  1.00  0.00    +0.000 C 
ATOM     37  F2  UNL A   1      37.256  30.759  33.881  1.00  0.00    +0.000 F 
ATOM     38  C30 UNL A   1      36.426  31.457  31.785  1.00  0.00    +0.000 C 
ATOM     39  F3  UNL A   1      35.278  31.851  32.353  1.00  0.00    +0.000 F 
ATOM     40  C31 UNL A   1      36.601  31.587  30.415  1.00  0.00    +0.000 C 
ATOM     41  F4  UNL A   1      35.631  32.126  29.663  1.00  0.00    +0.000 F 
ATOM     42  C32 UNL A   1      37.783  31.155  29.819  1.00  0.00    +0.000 C 
ATOM     43  F5  UNL A   1      37.917  31.279  28.489  1.00  0.00    +0.000 F 
ENDBRANCH   32   33
BRANCH   49   50
ATOM     50  C38 UNL A   1      45.425  33.214  29.373  1.00  0.00    +0.000 C 
ATOM     51  C39 UNL A   1      46.229  33.290  30.519  1.00  0.00    +0.000 C 
ATOM     52  F6  UNL A   1      46.259  32.271  31.391  1.00  0.00    +0.000 F 
ATOM     53  C40 UNL A   1      46.988  34.427  30.785  1.00  0.00    +0.000 C 
ATOM     54  F7  UNL A   1      47.725  34.492  31.902  1.00  0.00    +0.000 F 
ATOM     55  C41 UNL A   1      46.975  35.495  29.900  1.00  0.00    +0.000 C 
ATOM     56  F8  UNL A   1      47.715  36.584  30.152  1.00  0.00    +0.000 F 
ATOM     57  C42 UNL A   1      46.193  35.437  28.756  1.00  0.00    +0.000 C 
ATOM     58  F9  UNL A   1      46.189  36.464  27.894  1.00  0.00    +0.000 F 
ATOM     59  C43 UNL A   1      45.416  34.312  28.499  1.00  0.00    +0.000 C 
ATOM     60  F10 UNL A   1      44.665  34.285  27.388  1.00  0.00    +0.000 F 
ENDBRANCH   49   50
BRANCH   64   65
ATOM     65  C47 UNL A   1      47.033  27.373  25.929  1.00  0.00    +0.000 C 
ATOM     66  C48 UNL A   1      48.062  26.712  26.614  1.00  0.00    +0.000 C 
ATOM     67  F11 UNL A   1      47.965  26.516  27.937  1.00  0.00    +0.000 F 
ATOM     68  C49 UNL A   1      49.210  26.285  25.951  1.00  0.00    +0.000 C 
ATOM     69  F12 UNL A   1      50.195  25.690  26.637  1.00  0.00    +0.000 F 
ATOM     70  C50 UNL A   1      49.341  26.487  24.585  1.00  0.00    +0.000 C 
ATOM     71  F13 UNL A   1      50.443  26.071  23.947  1.00  0.00    +0.000 F 
ATOM     72  C51 UNL A   1      48.330  27.126  23.883  1.00  0.00    +0.000 C 
ATOM     73  F14 UNL A   1      48.446  27.312  22.561  1.00  0.00    +0.000 F 
ATOM     74  C52 UNL A   1      47.191  27.576  24.550  1.00  0.00    +0.000 C 
ATOM     75  F15 UNL A   1      46.234  28.200  23.848  1.00  0.00    +0.000 F 
ENDBRANCH   64   65
TORSDOF 18
ENDMDL
MODEL 9
REMARK VINA RESULT:     -10.6     25.683     33.716
ROOT
ATOM     28  C23 UNL A   1      22.038  16.074   8.813  1.00  0.00    +0.000 C 
ATOM     29  C24 UNL A   1      20.781  16.738   8.328  1.00  0.00    +0.000 C 
ATOM     30  N4  UNL A   1      19.771  16.226   7.670  1.00  0.00    +0.000 N 
ATOM     31  C25 UNL A   1      18.853  17.258   7.527  1.00  0.00    +0.000 C 
ATOM     32  C26 UNL A   1      17.664  17.246   6.878  1.00  0.00    +0.000 C 
ATOM     44  C33 UNL A   1      17.132  16.106   6.180  1.00  0.00    +0.000 C 
ATOM     45  C34 UNL A   1      15.958  16.008   5.454  1.00  0.00    +0.000 C 
ATOM     46  C35 UNL A   1      15.844  14.696   4.980  1.00  0.00    +0.000 C 
ATOM     47  C36 UNL A   1      16.968  13.988   5.377  1.00  0.00    +0.000 C 
ATOM     48  N5  UNL A   1      17.745  14.863   6.119  1.00  0.00    +0.000 N 
ATOM     49  C37 UNL A   1      17.305  12.617   5.101  1.00  0.00    +0.000 C 
ATOM     61  C44 UNL A   1      18.425  11.988   5.535  1.00  0.00    +0.000 C 
ATOM     62  N6  UNL A   1      19.472  12.497   6.291  1.00  0.00    +0.000 N 
ATOM     63  C45 UNL A   1      20.317  11.509   6.449  1.00  0.00    +0.000 C 
ATOM     64  C46 UNL A   1      21.643  11.498   7.160  1.00  0.00    +0.000 C 
ATOM     76  C53 UNL A   1      22.106  12.636   7.713  1.00  0.00    +0.000 C 
ATOM     77  C54 UNL A   1      23.362  12.772   8.444  1.00  0.00    +0.000 C 
ATOM     78  C55 UNL A   1      23.457  14.022   8.923  1.00  0.00    +0.000 C 
ATOM     79  C56 UNL A   1      22.286  14.789   8.497  1.00  0.00    +0.000 C 
ATOM     80  N7  UNL A   1      21.553  13.892   7.757  1.00  0.00    +0.000 N 
ATOM     81  C57 UNL A   1      19.880  10.244   5.840  1.00  0.00    +0.000 C 
ATOM     82  C58 UNL A   1      18.739  10.600   5.267  1.00  0.00    +0.000 C 
ATOM     83  C59 UNL A   1      19.407  18.414   8.198  1.00  0.00    +0.000 C 
ATOM     84  C60 UNL A   1      20.626  18.164   8.653  1.00  0.00    +0.000 C 
ATOM    119  H27 UNL A   1      15.283  16.772   5.289  1.00  0.00    +0.000 H 
ATOM    120  H28 UNL A   1      15.057  14.320   4.429  1.00  0.00    +0.000 H 
ATOM    121  H29 UNL A   1      18.605  14.636   6.540  1.00  0.00    +0.000 H 
ATOM    122  H30 UNL A   1      24.065  12.026   8.573  1.00  0.00    +0.000 H 
ATOM    123  H31 UNL A   1      24.232  14.385   9.501  1.00  0.00    +0.000 H 
ATOM    124  H32 UNL A   1      20.713  14.128   7.303  1.00  0.00    +0.000 H 
ATOM    125  H33 UNL A   1      20.341   9.321   5.853  1.00  0.00    +0.000 H 
ATOM    126  H34 UNL A   1      18.149   9.970   4.701  1.00  0.00    +0.000 H 
ATOM    127  H35 UNL A   1      18.917  19.315   8.309  1.00  0.00    +0.000 H 
ATOM    128  H36 UNL A   1      21.293  18.803   9.114  1.00  0.00    +0.000 H 
ENDROOT
BRANCH   28   27
ATOM    129  H37 UNL A   1      24.134  17.586   8.133  1.00  0.00    +0.000 H 
ATOM    130  H38 UNL A   1      25.720  18.727   9.568  1.00  0.00    +0.000 H 
ATOM     27  C22 UNL A   1      22.962  16.811   9.714  1.00  0.00    +0.000 C 
ATOM    117  H25 UNL A   1      23.547  17.497  12.953  1.00  0.00    +0.000 H 
ATOM     86  C62 UNL A   1      24.906  18.242   9.979  1.00  0.00    +0.000 C 
ATOM     85  C61 UNL A   1      24.017  17.552   9.158  1.00  0.00    +0.000 C 
ATOM     24  C19 UNL A   1      24.695  18.278  11.359  1.00  0.00    +0.000 C 
ATOM     25  C20 UNL A   1      23.671  17.513  11.929  1.00  0.00    +0.000 C 
ATOM     26  C21 UNL A   1      22.817  16.769  11.109  1.00  0.00    +0.000 C 
ATOM    118  H26 UNL A   1      22.077  16.187  11.532  1.00  0.00    +0.000 H 
BRANCH   24   22
ATOM     22  C18 UNL A   1      25.542  19.106  12.249  1.00  0.00    +0.000 C 
ATOM     23  O2  UNL A   1      26.008  18.613  13.269  1.00  0.00    +0.000 O 
BRANCH   22   21
ATOM    116  H24 UNL A   1      24.969  21.001  11.935  1.00  0.00    +0.000 H 
ATOM     21  N3  UNL A   1      25.771  20.430  11.952  1.00  0.00    +0.000 N 
BRANCH   21   20
ATOM    114  H22 UNL A   1      26.798  22.023  11.153  1.00  0.00    +0.000 H 
ATOM    115  H23 UNL A   1      27.514  21.273  12.596  1.00  0.00    +0.000 H 
ATOM     20  C17 UNL A   1      27.021  21.108  11.661  1.00  0.00    +0.000 C 
BRANCH   20   19
ATOM    113  H21 UNL A   1      27.733  19.270  10.999  1.00  0.00    +0.000 H 
ATOM     19  C16 UNL A   1      27.970  20.293  10.792  1.00  0.00    +0.000 C 
ATOM    112  H20 UNL A   1      28.970  20.579  11.045  1.00  0.00    +0.000 H 
BRANCH   19   18
ATOM     18  C15 UNL A   1      27.813  20.444   9.278  1.00  0.00    +0.000 C 
ATOM    110  H18 UNL A   1      26.818  20.790   9.092  1.00  0.00    +0.000 H 
ATOM    111  H19 UNL A   1      28.592  21.117   8.988  1.00  0.00    +0.000 H 
BRANCH   18   17
ATOM     17  C14 UNL A   1      28.033  19.195   8.422  1.00  0.00    +0.000 C 
ATOM    108  H16 UNL A   1      28.756  18.586   8.924  1.00  0.00    +0.000 H 
ATOM    109  H17 UNL A   1      27.059  18.764   8.318  1.00  0.00    +0.000 H 
BRANCH   17   16
ATOM    106  H14 UNL A   1      29.502  19.814   7.030  1.00  0.00    +0.000 H 
ATOM    107  H15 UNL A   1      28.466  18.417   6.539  1.00  0.00    +0.000 H 
ATOM     16  C13 UNL A   1      28.521  19.390   6.982  1.00  0.00    +0.000 C 
BRANCH   16   15
ATOM    105  H13 UNL A   1      28.306  20.539   5.241  1.00  0.00    +0.000 H 
ATOM     15  C12 UNL A   1      27.680  20.283   6.071  1.00  0.00    +0.000 C 
ATOM    104  H12 UNL A   1      27.364  21.133   6.639  1.00  0.00    +0.000 H 
BRANCH   15   14
ATOM     14  N2  UNL A   1      26.507  19.650   5.517  1.00  0.00    +0.000 N 
ATOM    103  H11 UNL A   1      26.561  19.447   4.555  1.00  0.00    +0.000 H 
BRANCH   14   12
ATOM     12  C11 UNL A   1      25.322  19.285   6.119  1.00  0.00    +0.000 C 
ATOM     13  O1  UNL A   1      24.859  20.078   6.938  1.00  0.00    +0.000 O 
BRANCH   12   11
ATOM      3  C2  UNL A   1      24.193  15.817   5.401  1.00  0.00    +0.000 C 
ATOM      4  C3  UNL A   1      25.162  16.727   5.812  1.00  0.00    +0.000 C 
ATOM    131  H39 UNL A   1      22.622  19.781   4.432  1.00  0.00    +0.000 H 
ATOM    134  H42 UNL A   1      21.557  15.066   4.866  1.00  0.00    +0.000 H 
ATOM    133  H41 UNL A   1      19.837  16.617   4.292  1.00  0.00    +0.000 H 
ATOM    132  H40 UNL A   1      20.446  18.998   3.938  1.00  0.00    +0.000 H 
ATOM     11  C10 UNL A   1      24.608  18.058   5.747  1.00  0.00    +0.000 C 
ATOM     87  C63 UNL A   1      23.364  17.903   5.145  1.00  0.00    +0.000 C 
ATOM     88  C64 UNL A   1      22.384  18.789   4.596  1.00  0.00    +0.000 C 
ATOM     89  C65 UNL A   1      21.154  18.337   4.292  1.00  0.00    +0.000 C 
ATOM     90  C66 UNL A   1      20.805  16.940   4.451  1.00  0.00    +0.000 C 
ATOM     91  C67 UNL A   1      21.765  16.075   4.811  1.00  0.00    +0.000 C 
ATOM     92  N8  UNL A   1      23.052  16.542   5.112  1.00  0.00    +0.000 N 
BRANCH    3    2
ATOM     97  H5  UNL A   1      23.499  13.877   5.808  1.00  0.00    +0.000 H 
ATOM      2  C1  UNL A   1      24.270  14.335   5.225  1.00  0.00    +0.000 C 
ATOM     96  H4  UNL A   1      25.231  13.992   5.547  1.00  0.00    +0.000 H 
BRANCH    2    1
ATOM      1  N1  UNL A   1      24.079  13.976   3.828  1.00  0.00    +0.000 N 
ATOM     93  H1  UNL A   1      23.609  13.073   3.771  1.00  0.00    +0.000 H 
ATOM     94  H2  UNL A   1      24.986  13.917   3.365  1.00  0.00    +0.000 H 
ATOM     95  H3  UNL A   1      23.509  14.686   3.370  1.00  0.00    +0.000 H 
ENDBRANCH    2    1
ENDBRANCH    3    2
BRANCH    4    5
ATOM     98  H6  UNL A   1      27.366  16.596   4.298  1.00  0.00    +0.000 H 
ATOM     99  H7  UNL A   1      29.596  15.915   4.973  1.00  0.00    +0.000 H 
ATOM    100  H8  UNL A   1      30.024  15.246   7.265  1.00  0.00    +0.000 H 
ATOM      5  C4  UNL A   1      26.502  16.315   6.204  1.00  0.00    +0.000 C 
ATOM    102  H10 UNL A   1      25.984  15.905   8.212  1.00  0.00    +0.000 H 
ATOM      6  C5  UNL A   1      27.544  16.310   5.273  1.00  0.00    +0.000 C 
ATOM      7  C6  UNL A   1      28.828  15.918   5.662  1.00  0.00    +0.000 C 
ATOM      9  C8  UNL A   1      28.037  15.529   7.911  1.00  0.00    +0.000 C 
ATOM     10  C9  UNL A   1      26.753  15.914   7.524  1.00  0.00    +0.000 C 
ATOM    101  H9  UNL A   1      28.218  15.242   8.886  1.00  0.00    +0.000 H 
ATOM      8  C7  UNL A   1      29.074  15.531   6.980  1.00  0.00    +0.000 C 
ENDBRANCH    4    5
ENDBRANCH   12   11
ENDBRANCH   14   12
ENDBRANCH   15   14
ENDBRANCH   16   15
ENDBRANCH   17   16
ENDBRANCH   18   17
ENDBRANCH   19   18
ENDBRANCH   20   19
ENDBRANCH   21   20
ENDBRANCH   22   21
ENDBRANCH   24   22
ENDBRANCH   28   27
BRANCH   32   33
ATOM     33  C27 UNL A   1      16.854  18.509   6.898  1.00  0.00    +0.000 C 
ATOM     34  C28 UNL A   1      15.909  18.761   7.903  1.00  0.00    +0.000 C 
ATOM     35  F1  UNL A   1      15.682  17.848   8.860  1.00  0.00    +0.000 F 
ATOM     36  C29 UNL A   1      15.161  19.935   7.906  1.00  0.00    +0.000 C 
ATOM     37  F2  UNL A   1      14.227  20.130   8.847  1.00  0.00    +0.000 F 
ATOM     38  C30 UNL A   1      15.367  20.894   6.926  1.00  0.00    +0.000 C 
ATOM     39  F3  UNL A   1      14.649  22.025   6.931  1.00  0.00    +0.000 F 
ATOM     40  C31 UNL A   1      16.313  20.677   5.935  1.00  0.00    +0.000 C 
ATOM     41  F4  UNL A   1      16.523  21.608   4.994  1.00  0.00    +0.000 F 
ATOM     42  C32 UNL A   1      17.043  19.491   5.914  1.00  0.00    +0.000 C 
ATOM     43  F5  UNL A   1      17.939  19.303   4.933  1.00  0.00    +0.000 F 
ENDBRANCH   32   33
BRANCH   49   50
ATOM     50  C38 UNL A   1      16.358  11.829   4.246  1.00  0.00    +0.000 C 
ATOM     51  C39 UNL A   1      15.376  11.000   4.807  1.00  0.00    +0.000 C 
ATOM     52  F6  UNL A   1      15.309  10.838   6.137  1.00  0.00    +0.000 F 
ATOM     53  C40 UNL A   1      14.474  10.314   3.998  1.00  0.00    +0.000 C 
ATOM     54  F7  UNL A   1      13.564   9.501   4.551  1.00  0.00    +0.000 F 
ATOM     55  C41 UNL A   1      14.522  10.464   2.620  1.00  0.00    +0.000 C 
ATOM     56  F8  UNL A   1      13.645   9.811   1.843  1.00  0.00    +0.000 F 
ATOM     57  C42 UNL A   1      15.479  11.286   2.045  1.00  0.00    +0.000 C 
ATOM     58  F9  UNL A   1      15.519  11.441   0.714  1.00  0.00    +0.000 F 
ATOM     59  C43 UNL A   1      16.397  11.955   2.849  1.00  0.00    +0.000 C 
ATOM     60  F10 UNL A   1      17.316  12.739   2.267  1.00  0.00    +0.000 F 
ENDBRANCH   49   50
BRANCH   64   65
ATOM     65  C47 UNL A   1      22.456  10.257   7.231  1.00  0.00    +0.000 C 
ATOM     66  C48 UNL A   1      22.336   9.384   8.322  1.00  0.00    +0.000 C 
ATOM     67  F11 UNL A   1      21.500   9.682   9.327  1.00  0.00    +0.000 F 
ATOM     68  C49 UNL A   1      23.101   8.223   8.402  1.00  0.00    +0.000 C 
ATOM     69  F12 UNL A   1      22.995   7.427   9.474  1.00  0.00    +0.000 F 
ATOM     70  C50 UNL A   1      23.983   7.899   7.382  1.00  0.00    +0.000 C 
ATOM     71  F13 UNL A   1      24.715   6.779   7.457  1.00  0.00    +0.000 F 
ATOM     72  C51 UNL A   1      24.109   8.740   6.286  1.00  0.00    +0.000 C 
ATOM     73  F14 UNL A   1      24.950   8.424   5.292  1.00  0.00    +0.000 F 
ATOM     74  C52 UNL A   1      23.361   9.915   6.217  1.00  0.00    +0.000 C 
ATOM     75  F15 UNL A   1      23.510  10.714   5.150  1.00  0.00    +0.000 F 
ENDBRANCH   64   65
TORSDOF 18
ENDMDL
MODEL 10
REMARK VINA RESULT:     -10.6     38.120     43.293
ROOT
ATOM     28  C23 UNL A   1      12.930  50.242   3.044  1.00  0.00    +0.000 C 
ATOM     29  C24 UNL A   1      13.881  49.767   1.984  1.00  0.00    +0.000 C 
ATOM     30  N4  UNL A   1      14.840  50.418   1.374  1.00  0.00    +0.000 N 
ATOM     31  C25 UNL A   1      15.447  49.496   0.532  1.00  0.00    +0.000 C 
ATOM     32  C26 UNL A   1      16.461  49.692  -0.345  1.00  0.00    +0.000 C 
ATOM     44  C33 UNL A   1      17.104  50.959  -0.571  1.00  0.00    +0.000 C 
ATOM     45  C34 UNL A   1      18.108  51.269  -1.471  1.00  0.00    +0.000 C 
ATOM     46  C35 UNL A   1      18.435  52.621  -1.314  1.00  0.00    +0.000 C 
ATOM     47  C36 UNL A   1      17.604  53.162  -0.345  1.00  0.00    +0.000 C 
ATOM     48  N5  UNL A   1      16.799  52.130   0.107  1.00  0.00    +0.000 N 
ATOM     49  C37 UNL A   1      17.552  54.519   0.133  1.00  0.00    +0.000 C 
ATOM     61  C44 UNL A   1      16.714  54.972   1.096  1.00  0.00    +0.000 C 
ATOM     62  N6  UNL A   1      15.739  54.279   1.800  1.00  0.00    +0.000 N 
ATOM     63  C45 UNL A   1      15.195  55.149   2.615  1.00  0.00    +0.000 C 
ATOM     64  C46 UNL A   1      14.067  54.957   3.593  1.00  0.00    +0.000 C 
ATOM     76  C53 UNL A   1      13.463  53.756   3.678  1.00  0.00    +0.000 C 
ATOM     77  C54 UNL A   1      12.372  53.420   4.587  1.00  0.00    +0.000 C 
ATOM     78  C55 UNL A   1      12.079  52.116   4.457  1.00  0.00    +0.000 C 
ATOM     79  C56 UNL A   1      12.936  51.534   3.424  1.00  0.00    +0.000 C 
ATOM     80  N7  UNL A   1      13.705  52.589   2.996  1.00  0.00    +0.000 N 
ATOM     81  C57 UNL A   1      15.792  56.491   2.545  1.00  0.00    +0.000 C 
ATOM     82  C58 UNL A   1      16.689  56.337   1.580  1.00  0.00    +0.000 C 
ATOM     83  C59 UNL A   1      14.775  48.230   0.736  1.00  0.00    +0.000 C 
ATOM     84  C60 UNL A   1      13.757  48.359   1.574  1.00  0.00    +0.000 C 
ATOM    119  H27 UNL A   1      18.541  50.616  -2.143  1.00  0.00    +0.000 H 
ATOM    120  H28 UNL A   1      19.169  53.128  -1.831  1.00  0.00    +0.000 H 
ATOM    121  H29 UNL A   1      16.111  52.215   0.806  1.00  0.00    +0.000 H 
ATOM    122  H30 UNL A   1      11.901  54.078   5.228  1.00  0.00    +0.000 H 
ATOM    123  H31 UNL A   1      11.364  51.606   5.000  1.00  0.00    +0.000 H 
ATOM    124  H32 UNL A   1      14.365  52.514   2.270  1.00  0.00    +0.000 H 
ATOM    125  H33 UNL A   1      15.572  57.332   3.101  1.00  0.00    +0.000 H 
ATOM    126  H34 UNL A   1      17.292  57.093   1.220  1.00  0.00    +0.000 H 
ATOM    127  H35 UNL A   1      15.052  47.344   0.287  1.00  0.00    +0.000 H 
ATOM    128  H36 UNL A   1      13.058  47.657   1.863  1.00  0.00    +0.000 H 
ENDROOT
BRANCH   28   27
ATOM    129  H37 UNL A   1      13.404  48.930   5.323  1.00  0.00    +0.000 H 
ATOM    130  H38 UNL A   1      12.039  47.264   6.435  1.00  0.00    +0.000 H 
ATOM     27  C22 UNL A   1      12.047  49.266   3.735  1.00  0.00    +0.000 C 
ATOM    117  H25 UNL A   1       9.038  47.781   3.533  1.00  0.00    +0.000 H 
ATOM     86  C62 UNL A   1      11.683  47.747   5.595  1.00  0.00    +0.000 C 
ATOM     85  C61 UNL A   1      12.483  48.675   4.931  1.00  0.00    +0.000 C 
ATOM     24  C19 UNL A   1      10.398  47.472   5.121  1.00  0.00    +0.000 C 
ATOM     25  C20 UNL A   1       9.966  48.025   3.910  1.00  0.00    +0.000 C 
ATOM     26  C21 UNL A   1      10.796  48.907   3.212  1.00  0.00    +0.000 C 
ATOM    118  H26 UNL A   1      10.486  49.296   2.307  1.00  0.00    +0.000 H 
BRANCH   24   22
ATOM     22  C18 UNL A   1       9.470  46.592   5.871  1.00  0.00    +0.000 C 
ATOM     23  O2  UNL A   1       8.847  45.724   5.272  1.00  0.00    +0.000 O 
BRANCH   22   21
ATOM    116  H24 UNL A   1       8.769  47.577   7.469  1.00  0.00    +0.000 H 
ATOM     21  N3  UNL A   1       9.282  46.774   7.221  1.00  0.00    +0.000 N 
BRANCH   21   20
ATOM    114  H22 UNL A   1       9.535  46.488   9.243  1.00  0.00    +0.000 H 
ATOM    115  H23 UNL A   1       9.188  45.034   8.282  1.00  0.00    +0.000 H 
ATOM     20  C17 UNL A   1       9.727  45.956   8.334  1.00  0.00    +0.000 C 
BRANCH   20   19
ATOM    113  H21 UNL A   1      11.655  46.371   7.675  1.00  0.00    +0.000 H 
ATOM     19  C16 UNL A   1      11.210  45.611   8.284  1.00  0.00    +0.000 C 
ATOM    112  H20 UNL A   1      11.300  44.618   7.895  1.00  0.00    +0.000 H 
BRANCH   19   18
ATOM     18  C15 UNL A   1      11.971  45.660   9.609  1.00  0.00    +0.000 C 
ATOM    110  H18 UNL A   1      11.304  45.318  10.374  1.00  0.00    +0.000 H 
ATOM    111  H19 UNL A   1      12.835  45.050   9.452  1.00  0.00    +0.000 H 
BRANCH   18   17
ATOM     17  C14 UNL A   1      12.522  47.017  10.052  1.00  0.00    +0.000 C 
ATOM    108  H16 UNL A   1      13.320  46.828  10.741  1.00  0.00    +0.000 H 
ATOM    109  H17 UNL A   1      12.803  47.504   9.142  1.00  0.00    +0.000 H 
BRANCH   17   16
ATOM    106  H14 UNL A   1      10.759  47.421  11.152  1.00  0.00    +0.000 H 
ATOM    107  H15 UNL A   1      12.158  48.529  11.437  1.00  0.00    +0.000 H 
ATOM     16  C13 UNL A   1      11.557  47.996  10.730  1.00  0.00    +0.000 C 
BRANCH   16   15
ATOM    105  H13 UNL A   1      10.877  49.961  10.460  1.00  0.00    +0.000 H 
ATOM     15  C12 UNL A   1      10.927  49.079   9.855  1.00  0.00    +0.000 C 
ATOM    104  H12 UNL A   1       9.968  48.731   9.535  1.00  0.00    +0.000 H 
BRANCH   15   14
ATOM     14  N2  UNL A   1      11.693  49.433   8.683  1.00  0.00    +0.000 N 
ATOM    103  H11 UNL A   1      11.572  48.831   7.913  1.00  0.00    +0.000 H 
BRANCH   14   12
ATOM     12  C11 UNL A   1      12.565  50.478   8.469  1.00  0.00    +0.000 C 
ATOM     13  O1  UNL A   1      12.176  51.368   7.712  1.00  0.00    +0.000 O 
BRANCH   12   11
ATOM      3  C2  UNL A   1      16.107  50.339   9.587  1.00  0.00    +0.000 C 
ATOM      4  C3  UNL A   1      15.103  50.054   8.667  1.00  0.00    +0.000 C 
ATOM    131  H39 UNL A   1      12.331  51.282  11.581  1.00  0.00    +0.000 H 
ATOM    134  H42 UNL A   1      17.159  51.740  11.762  1.00  0.00    +0.000 H 
ATOM    133  H41 UNL A   1      15.813  52.756  13.449  1.00  0.00    +0.000 H 
ATOM    132  H40 UNL A   1      13.358  52.382  13.406  1.00  0.00    +0.000 H 
ATOM     11  C10 UNL A   1      13.852  50.570   9.168  1.00  0.00    +0.000 C 
ATOM     87  C63 UNL A   1      14.133  51.014  10.456  1.00  0.00    +0.000 C 
ATOM     88  C64 UNL A   1      13.352  51.439  11.577  1.00  0.00    +0.000 C 
ATOM     89  C65 UNL A   1      13.941  52.042  12.625  1.00  0.00    +0.000 C 
ATOM     90  C66 UNL A   1      15.378  52.222  12.680  1.00  0.00    +0.000 C 
ATOM     91  C67 UNL A   1      16.131  51.682  11.710  1.00  0.00    +0.000 C 
ATOM     92  N8  UNL A   1      15.519  51.039  10.625  1.00  0.00    +0.000 N 
BRANCH    3    2
ATOM     97  H5  UNL A   1      17.661  48.983   9.196  1.00  0.00    +0.000 H 
ATOM      2  C1  UNL A   1      17.556  49.974   9.583  1.00  0.00    +0.000 C 
ATOM     96  H4  UNL A   1      17.936  50.025  10.582  1.00  0.00    +0.000 H 
BRANCH    2    1
ATOM      1  N1  UNL A   1      18.311  50.889   8.740  1.00  0.00    +0.000 N 
ATOM     93  H1  UNL A   1      17.908  51.823   8.806  1.00  0.00    +0.000 H 
ATOM     94  H2  UNL A   1      18.273  50.570   7.772  1.00  0.00    +0.000 H 
ATOM     95  H3  UNL A   1      19.282  50.915   9.051  1.00  0.00    +0.000 H 
ENDBRANCH    2    1
ENDBRANCH    3    2
BRANCH    4    5
ATOM     98  H6  UNL A   1      15.856  51.029   6.291  1.00  0.00    +0.000 H 
ATOM     99  H7  UNL A   1      16.291  49.795   4.246  1.00  0.00    +0.000 H 
ATOM    100  H8  UNL A   1      16.055  47.381   4.207  1.00  0.00    +0.000 H 
ATOM      5  C4  UNL A   1      15.361  49.325   7.434  1.00  0.00    +0.000 C 
ATOM    102  H10 UNL A   1      14.913  47.427   8.250  1.00  0.00    +0.000 H 
ATOM      6  C5  UNL A   1      15.752  50.003   6.276  1.00  0.00    +0.000 C 
ATOM      7  C6  UNL A   1      16.003  49.292   5.100  1.00  0.00    +0.000 C 
ATOM      9  C8  UNL A   1      15.470  47.223   6.226  1.00  0.00    +0.000 C 
ATOM     10  C9  UNL A   1      15.213  47.931   7.401  1.00  0.00    +0.000 C 
ATOM    101  H9  UNL A   1      15.367  46.196   6.210  1.00  0.00    +0.000 H 
ATOM      8  C7  UNL A   1      15.864  47.903   5.076  1.00  0.00    +0.000 C 
ENDBRANCH    4    5
ENDBRANCH   12   11
ENDBRANCH   14   12
ENDBRANCH   15   14
ENDBRANCH   16   15
ENDBRANCH   17   16
ENDBRANCH   18   17
ENDBRANCH   19   18
ENDBRANCH   20   19
ENDBRANCH   21   20
ENDBRANCH   22   21
ENDBRANCH   24   22
ENDBRANCH   28   27
BRANCH   32   33
ATOM     33  C27 UNL A   1      16.941  48.502  -1.122  1.00  0.00    +0.000 C 
ATOM     34  C28 UNL A   1      16.320  48.103  -2.314  1.00  0.00    +0.000 C 
ATOM     35  F1  UNL A   1      15.246  48.765  -2.770  1.00  0.00    +0.000 F 
ATOM     36  C29 UNL A   1      16.773  46.992  -3.022  1.00  0.00    +0.000 C 
ATOM     37  F2  UNL A   1      16.131  46.599  -4.130  1.00  0.00    +0.000 F 
ATOM     38  C30 UNL A   1      17.875  46.283  -2.572  1.00  0.00    +0.000 C 
ATOM     39  F3  UNL A   1      18.313  45.216  -3.255  1.00  0.00    +0.000 F 
ATOM     40  C31 UNL A   1      18.521  46.673  -1.408  1.00  0.00    +0.000 C 
ATOM     41  F4  UNL A   1      19.594  45.996  -0.978  1.00  0.00    +0.000 F 
ATOM     42  C32 UNL A   1      18.052  47.766  -0.683  1.00  0.00    +0.000 C 
ATOM     43  F5  UNL A   1      18.687  48.110   0.448  1.00  0.00    +0.000 F 
ENDBRANCH   32   33
BRANCH   49   50
ATOM     50  C38 UNL A   1      18.478  55.512  -0.502  1.00  0.00    +0.000 C 
ATOM     51  C39 UNL A   1      18.180  56.115  -1.732  1.00  0.00    +0.000 C 
ATOM     52  F6  UNL A   1      17.078  55.757  -2.409  1.00  0.00    +0.000 F 
ATOM     53  C40 UNL A   1      19.029  57.071  -2.283  1.00  0.00    +0.000 C 
ATOM     54  F7  UNL A   1      18.742  57.612  -3.476  1.00  0.00    +0.000 F 
ATOM     55  C41 UNL A   1      20.174  57.459  -1.605  1.00  0.00    +0.000 C 
ATOM     56  F8  UNL A   1      20.984  58.389  -2.131  1.00  0.00    +0.000 F 
ATOM     57  C42 UNL A   1      20.484  56.882  -0.382  1.00  0.00    +0.000 C 
ATOM     58  F9  UNL A   1      21.585  57.264   0.280  1.00  0.00    +0.000 F 
ATOM     59  C43 UNL A   1      19.650  55.909   0.160  1.00  0.00    +0.000 C 
ATOM     60  F10 UNL A   1      19.976  55.363   1.341  1.00  0.00    +0.000 F 
ENDBRANCH   49   50
BRANCH   64   65
ATOM     65  C47 UNL A   1      13.596  56.083   4.438  1.00  0.00    +0.000 C 
ATOM     66  C48 UNL A   1      12.620  56.972   3.968  1.00  0.00    +0.000 C 
ATOM     67  F11 UNL A   1      12.122  56.825   2.732  1.00  0.00    +0.000 F 
ATOM     68  C49 UNL A   1      12.179  58.037   4.750  1.00  0.00    +0.000 C 
ATOM     69  F12 UNL A   1      11.273  58.894   4.262  1.00  0.00    +0.000 F 
ATOM     70  C50 UNL A   1      12.688  58.219   6.028  1.00  0.00    +0.000 C 
ATOM     71  F13 UNL A   1      12.260  59.241   6.782  1.00  0.00    +0.000 F 
ATOM     72  C51 UNL A   1      13.645  57.345   6.520  1.00  0.00    +0.000 C 
ATOM     73  F14 UNL A   1      14.129  57.510   7.758  1.00  0.00    +0.000 F 
ATOM     74  C52 UNL A   1      14.104  56.293   5.728  1.00  0.00    +0.000 C 
ATOM     75  F15 UNL A   1      15.037  55.468   6.226  1.00  0.00    +0.000 F 
ENDBRANCH   64   65
TORSDOF 18
ENDMDL
