MODEL 1
REMARK VINA RESULT:     -10.0      0.000      0.000
ROOT
ATOM    136  H33 UNL A   1      18.809  50.714  -2.585  1.00  0.00    +0.000 H 
ATOM    137  H34 UNL A   1      19.335  53.236  -2.184  1.00  0.00    +0.000 H 
ATOM    138  H35 UNL A   1      16.303  52.110   0.402  1.00  0.00    +0.000 H 
ATOM    139  H36 UNL A   1      11.990  53.671   4.830  1.00  0.00    +0.000 H 
ATOM    140  H37 UNL A   1      11.622  51.170   4.584  1.00  0.00    +0.000 H 
ATOM    141  H38 UNL A   1      14.646  52.268   1.953  1.00  0.00    +0.000 H 
ATOM    142  H39 UNL A   1      15.492  57.147   2.806  1.00  0.00    +0.000 H 
ATOM    143  H40 UNL A   1      17.245  57.033   0.945  1.00  0.00    +0.000 H 
ATOM    144  H41 UNL A   1      15.494  47.197  -0.235  1.00  0.00    +0.000 H 
ATOM    145  H42 UNL A   1      13.551  47.347   1.427  1.00  0.00    +0.000 H 
ATOM     45  C32 UNL A   1      13.232  49.935   2.589  1.00  0.00    +0.000 C 
ATOM     46  C33 UNL A   1      14.215  49.513   1.535  1.00  0.00    +0.000 C 
ATOM     47  N9  UNL A   1      15.123  50.231   0.921  1.00  0.00    +0.000 N 
ATOM     48  C34 UNL A   1      15.778  49.361   0.059  1.00  0.00    +0.000 C 
ATOM     49  C35 UNL A   1      16.780  49.633  -0.811  1.00  0.00    +0.000 C 
ATOM     61  C42 UNL A   1      17.358  50.940  -1.004  1.00  0.00    +0.000 C 
ATOM     62  C43 UNL A   1      18.349  51.324  -1.892  1.00  0.00    +0.000 C 
ATOM     63  C44 UNL A   1      18.620  52.682  -1.688  1.00  0.00    +0.000 C 
ATOM     64  C45 UNL A   1      17.765  53.155  -0.706  1.00  0.00    +0.000 C 
ATOM     65  N10 UNL A   1      16.999  52.076  -0.293  1.00  0.00    +0.000 N 
ATOM     66  C46 UNL A   1      17.658  54.492  -0.180  1.00  0.00    +0.000 C 
ATOM     78  C53 UNL A   1      16.772  54.889   0.767  1.00  0.00    +0.000 C 
ATOM     79  N11 UNL A   1      15.812  54.139   1.429  1.00  0.00    +0.000 N 
ATOM     80  C54 UNL A   1      15.227  54.963   2.264  1.00  0.00    +0.000 C 
ATOM     81  C55 UNL A   1      14.107  54.695   3.226  1.00  0.00    +0.000 C 
ATOM     93  C62 UNL A   1      13.596  53.453   3.307  1.00  0.00    +0.000 C 
ATOM     94  C63 UNL A   1      12.513  53.046   4.195  1.00  0.00    +0.000 C 
ATOM     95  C64 UNL A   1      12.306  51.730   4.052  1.00  0.00    +0.000 C 
ATOM     96  C65 UNL A   1      13.206  51.211   3.019  1.00  0.00    +0.000 C 
ATOM     97  N12 UNL A   1      13.940  52.304   2.639  1.00  0.00    +0.000 N 
ATOM     98  C66 UNL A   1      15.760  56.330   2.235  1.00  0.00    +0.000 C 
ATOM     99  C67 UNL A   1      16.674  56.240   1.280  1.00  0.00    +0.000 C 
ATOM    100  C68 UNL A   1      15.182  48.054   0.248  1.00  0.00    +0.000 C 
ATOM    101  C69 UNL A   1      14.184  48.102   1.120  1.00  0.00    +0.000 C 
ENDROOT
BRANCH   45   44
ATOM    102  C70 UNL A   1      12.606  48.123   4.222  1.00  0.00    +0.000 C 
ATOM    103  C71 UNL A   1      11.661  47.246   4.761  1.00  0.00    +0.000 C 
ATOM    134  H31 UNL A   1       8.989  48.219   2.985  1.00  0.00    +0.000 H 
ATOM     41  C28 UNL A   1      10.351  47.246   4.272  1.00  0.00    +0.000 C 
ATOM     42  C29 UNL A   1       9.976  48.154   3.279  1.00  0.00    +0.000 C 
ATOM     43  C30 UNL A   1      10.934  48.970   2.687  1.00  0.00    +0.000 C 
ATOM    135  H32 UNL A   1      10.673  49.576   1.894  1.00  0.00    +0.000 H 
ATOM     44  C31 UNL A   1      12.256  48.974   3.164  1.00  0.00    +0.000 C 
ATOM    146  H43 UNL A   1      13.565  48.143   4.603  1.00  0.00    +0.000 H 
ATOM    147  H44 UNL A   1      11.929  46.600   5.521  1.00  0.00    +0.000 H 
BRANCH   41    2
ATOM      1  O1  UNL A   1       8.679  45.614   4.077  1.00  0.00    +0.000 O 
ATOM      2  C1  UNL A   1       9.375  46.286   4.833  1.00  0.00    +0.000 C 
BRANCH    2    3
ATOM      3  N1  UNL A   1       9.232  46.168   6.194  1.00  0.00    +0.000 N 
ATOM    104  H1  UNL A   1       9.832  45.519   6.628  1.00  0.00    +0.000 H 
BRANCH    3    4
ATOM    105  H2  UNL A   1       8.418  46.452   8.066  1.00  0.00    +0.000 H 
ATOM    106  H3  UNL A   1       7.332  46.737   6.693  1.00  0.00    +0.000 H 
ATOM      4  C2  UNL A   1       8.320  46.866   7.083  1.00  0.00    +0.000 C 
BRANCH    4    5
ATOM    107  H4  UNL A   1       7.836  48.800   7.785  1.00  0.00    +0.000 H 
ATOM    108  H5  UNL A   1       8.565  48.717   6.149  1.00  0.00    +0.000 H 
ATOM      5  C3  UNL A   1       8.587  48.363   7.159  1.00  0.00    +0.000 C 
BRANCH    5    6
ATOM    110  H7  UNL A   1       9.763  49.182   8.678  1.00  0.00    +0.000 H 
ATOM    109  H6  UNL A   1      10.568  47.886   7.730  1.00  0.00    +0.000 H 
ATOM      6  C4  UNL A   1       9.953  48.762   7.712  1.00  0.00    +0.000 C 
BRANCH    6    7
ATOM    111  H8  UNL A   1      10.188  50.771   7.079  1.00  0.00    +0.000 H 
ATOM      7  C5  UNL A   1      10.703  49.845   6.930  1.00  0.00    +0.000 C 
ATOM    112  H9  UNL A   1      10.717  49.506   5.915  1.00  0.00    +0.000 H 
BRANCH    7    8
ATOM    113  H10 UNL A   1      12.770  49.839   6.451  1.00  0.00    +0.000 H 
ATOM    114  H11 UNL A   1      12.354  49.415   8.145  1.00  0.00    +0.000 H 
ATOM      8  C6  UNL A   1      12.172  50.060   7.310  1.00  0.00    +0.000 C 
BRANCH    8    9
ATOM      9  C7  UNL A   1      12.535  51.465   7.785  1.00  0.00    +0.000 C 
ATOM    115  H12 UNL A   1      11.639  51.971   8.078  1.00  0.00    +0.000 H 
ATOM    116  H13 UNL A   1      13.023  51.966   6.976  1.00  0.00    +0.000 H 
BRANCH    9   10
ATOM     10  N2  UNL A   1      13.451  51.452   8.912  1.00  0.00    +0.000 N 
ATOM    117  H14 UNL A   1      13.166  50.916   9.687  1.00  0.00    +0.000 H 
BRANCH   10   11
ATOM     11  C8  UNL A   1      14.661  52.087   9.041  1.00  0.00    +0.000 C 
ATOM     12  O2  UNL A   1      14.816  53.219   8.589  1.00  0.00    +0.000 O 
BRANCH   11   13
ATOM     13  C9  UNL A   1      15.778  51.436   9.755  1.00  0.00    +0.000 C 
ATOM     14  C10 UNL A   1      15.754  51.506  11.156  1.00  0.00    +0.000 C 
ATOM     15  C11 UNL A   1      16.771  50.914  11.900  1.00  0.00    +0.000 C 
ATOM     16  C12 UNL A   1      17.805  50.250  11.249  1.00  0.00    +0.000 C 
ATOM     17  C13 UNL A   1      17.838  50.195   9.852  1.00  0.00    +0.000 C 
ATOM     18  C14 UNL A   1      16.844  50.811   9.075  1.00  0.00    +0.000 C 
ATOM    118  H15 UNL A   1      14.982  51.996  11.634  1.00  0.00    +0.000 H 
ATOM    119  H16 UNL A   1      16.757  50.969  12.931  1.00  0.00    +0.000 H 
ATOM    120  H17 UNL A   1      18.552  49.796  11.799  1.00  0.00    +0.000 H 
ATOM    121  H18 UNL A   1      18.609  49.693   9.383  1.00  0.00    +0.000 H 
BRANCH   18   19
ATOM    122  H19 UNL A   1      17.205  51.696   7.270  1.00  0.00    +0.000 H 
ATOM     19  N3  UNL A   1      16.917  50.842   7.666  1.00  0.00    +0.000 N 
BRANCH   19   20
ATOM     40  N8  UNL A   1      15.876  48.832   7.225  1.00  0.00    +0.000 N 
ATOM     20  C15 UNL A   1      16.635  49.818   6.764  1.00  0.00    +0.000 C 
ATOM     21  N4  UNL A   1      17.140  49.858   5.542  1.00  0.00    +0.000 N 
ATOM     22  C16 UNL A   1      16.825  48.805   4.806  1.00  0.00    +0.000 C 
ATOM     23 Cl1  UNL A   1      17.448  48.790   3.215  1.00  0.00    +0.000 Cl
ATOM     24  N5  UNL A   1      16.068  47.778   5.146  1.00  0.00    +0.000 N 
ATOM     25  C17 UNL A   1      15.592  47.847   6.378  1.00  0.00    +0.000 C 
BRANCH   25   26
ATOM     26  N6  UNL A   1      14.675  46.901   6.850  1.00  0.00    +0.000 N 
ATOM    123  H20 UNL A   1      14.492  46.122   6.277  1.00  0.00    +0.000 H 
BRANCH   26   27
ATOM    132  H29 UNL A   1      14.340  48.132  11.207  1.00  0.00    +0.000 H 
ATOM    133  H30 UNL A   1      15.508  48.028   9.092  1.00  0.00    +0.000 H 
ATOM     38  C26 UNL A   1      13.912  47.631  10.411  1.00  0.00    +0.000 C 
ATOM     39  C27 UNL A   1      14.576  47.594   9.181  1.00  0.00    +0.000 C 
ATOM    124  H21 UNL A   1      12.317  45.871   7.429  1.00  0.00    +0.000 H 
ATOM    125  H22 UNL A   1      11.210  45.848   9.584  1.00  0.00    +0.000 H 
ATOM     27  C18 UNL A   1      13.993  46.976   8.074  1.00  0.00    +0.000 C 
ATOM     28  C19 UNL A   1      12.757  46.342   8.234  1.00  0.00    +0.000 C 
ATOM     29  C20 UNL A   1      12.111  46.340   9.476  1.00  0.00    +0.000 C 
ATOM     30  C21 UNL A   1      12.676  46.999  10.575  1.00  0.00    +0.000 C 
BRANCH   30   31
ATOM     33  C23 UNL A   1      10.688  48.189  13.581  1.00  0.00    +0.000 C 
ATOM    129  H26 UNL A   1      11.537  48.334  14.217  1.00  0.00    +0.000 H 
ATOM     35  C24 UNL A   1      10.967  45.890  13.814  1.00  0.00    +0.000 C 
ATOM     36  C25 UNL A   1      11.848  45.795  12.556  1.00  0.00    +0.000 C 
ATOM     37  O4  UNL A   1      12.438  44.742  12.306  1.00  0.00    +0.000 O 
ATOM     34  O3  UNL A   1      10.045  46.963  13.914  1.00  0.00    +0.000 O 
ATOM    130  H27 UNL A   1      10.403  44.982  13.874  1.00  0.00    +0.000 H 
ATOM    131  H28 UNL A   1      11.661  46.066  14.609  1.00  0.00    +0.000 H 
ATOM    127  H24 UNL A   1      11.706  49.026  11.936  1.00  0.00    +0.000 H 
ATOM    128  H25 UNL A   1      10.003  49.000  13.715  1.00  0.00    +0.000 H 
ATOM    126  H23 UNL A   1      10.275  48.073  11.503  1.00  0.00    +0.000 H 
ATOM     31  N7  UNL A   1      12.013  46.991  11.839  1.00  0.00    +0.000 N 
ATOM     32  C22 UNL A   1      11.141  48.138  12.127  1.00  0.00    +0.000 C 
ENDBRANCH   30   31
ENDBRANCH   26   27
ENDBRANCH   25   26
ENDBRANCH   19   20
ENDBRANCH   18   19
ENDBRANCH   11   13
ENDBRANCH   10   11
ENDBRANCH    9   10
ENDBRANCH    8    9
ENDBRANCH    7    8
ENDBRANCH    6    7
ENDBRANCH    5    6
ENDBRANCH    4    5
ENDBRANCH    3    4
ENDBRANCH    2    3
ENDBRANCH   41    2
ENDBRANCH   45   44
BRANCH   49   50
ATOM     50  C36 UNL A   1      17.332  48.495  -1.621  1.00  0.00    +0.000 C 
ATOM     51  C37 UNL A   1      18.307  47.629  -1.104  1.00  0.00    +0.000 C 
ATOM     52  F1  UNL A   1      18.821  47.842   0.116  1.00  0.00    +0.000 F 
ATOM     53  C38 UNL A   1      18.779  46.553  -1.854  1.00  0.00    +0.000 C 
ATOM     54  F2  UNL A   1      19.735  45.758  -1.353  1.00  0.00    +0.000 F 
ATOM     55  C39 UNL A   1      18.264  46.304  -3.117  1.00  0.00    +0.000 C 
ATOM     56  F3  UNL A   1      18.710  45.262  -3.831  1.00  0.00    +0.000 F 
ATOM     57  C40 UNL A   1      17.290  47.140  -3.642  1.00  0.00    +0.000 C 
ATOM     58  F4  UNL A   1      16.782  46.894  -4.858  1.00  0.00    +0.000 F 
ATOM     59  C41 UNL A   1      16.835  48.231  -2.906  1.00  0.00    +0.000 C 
ATOM     60  F5  UNL A   1      15.895  49.023  -3.443  1.00  0.00    +0.000 F 
ENDBRANCH   49   50
BRANCH   66   67
ATOM     67  C47 UNL A   1      18.577  55.541  -0.731  1.00  0.00    +0.000 C 
ATOM     68  C48 UNL A   1      18.346  56.138  -1.978  1.00  0.00    +0.000 C 
ATOM     69  F6  UNL A   1      17.303  55.749  -2.729  1.00  0.00    +0.000 F 
ATOM     70  C49 UNL A   1      19.211  57.106  -2.479  1.00  0.00    +0.000 C 
ATOM     71  F7  UNL A   1      18.998  57.627  -3.696  1.00  0.00    +0.000 F 
ATOM     72  C50 UNL A   1      20.304  57.518  -1.729  1.00  0.00    +0.000 C 
ATOM     73  F8  UNL A   1      21.135  58.451  -2.214  1.00  0.00    +0.000 F 
ATOM     74  C51 UNL A   1      20.540  56.955  -0.485  1.00  0.00    +0.000 C 
ATOM     75  F9  UNL A   1      21.590  57.358   0.244  1.00  0.00    +0.000 F 
ATOM     76  C52 UNL A   1      19.692  55.968   0.008  1.00  0.00    +0.000 C 
ATOM     77  F10 UNL A   1      19.955  55.428   1.207  1.00  0.00    +0.000 F 
ENDBRANCH   66   67
BRANCH   81   82
ATOM     82  C56 UNL A   1      13.556  55.772   4.087  1.00  0.00    +0.000 C 
ATOM     83  C57 UNL A   1      14.030  55.968   5.390  1.00  0.00    +0.000 C 
ATOM     84  F11 UNL A   1      14.969  55.152   5.891  1.00  0.00    +0.000 F 
ATOM     85  C58 UNL A   1      13.519  56.984   6.195  1.00  0.00    +0.000 C 
ATOM     86  F12 UNL A   1      13.963  57.127   7.452  1.00  0.00    +0.000 F 
ATOM     87  C59 UNL A   1      12.546  57.840   5.702  1.00  0.00    +0.000 C 
ATOM     88  F13 UNL A   1      12.063  58.824   6.474  1.00  0.00    +0.000 F 
ATOM     89  C60 UNL A   1      12.071  57.673   4.410  1.00  0.00    +0.000 C 
ATOM     90  F14 UNL A   1      11.143  58.509   3.923  1.00  0.00    +0.000 F 
ATOM     91  C61 UNL A   1      12.559  56.639   3.616  1.00  0.00    +0.000 C 
ATOM     92  F15 UNL A   1      12.077  56.496   2.372  1.00  0.00    +0.000 F 
ENDBRANCH   81   82
TORSDOF 20
ENDMDL
MODEL 2
REMARK VINA RESULT:      -9.3      3.458      7.821
ROOT
ATOM    136  H33 UNL A   1      12.998  46.376   2.723  1.00  0.00    +0.000 H 
ATOM    137  H34 UNL A   1      14.701  46.603   0.761  1.00  0.00    +0.000 H 
ATOM    138  H35 UNL A   1      14.555  50.213   2.785  1.00  0.00    +0.000 H 
ATOM    139  H36 UNL A   1      16.330  56.316   3.278  1.00  0.00    +0.000 H 
ATOM    140  H37 UNL A   1      14.831  56.031   5.307  1.00  0.00    +0.000 H 
ATOM    141  H38 UNL A   1      14.926  52.401   3.285  1.00  0.00    +0.000 H 
ATOM    142  H39 UNL A   1      18.192  53.025  -0.483  1.00  0.00    +0.000 H 
ATOM    143  H40 UNL A   1      17.660  50.615  -1.166  1.00  0.00    +0.000 H 
ATOM    144  H41 UNL A   1      11.452  49.652   6.691  1.00  0.00    +0.000 H 
ATOM    145  H42 UNL A   1      11.757  52.137   7.232  1.00  0.00    +0.000 H 
ATOM     45  C32 UNL A   1      13.621  53.463   5.524  1.00  0.00    +0.000 C 
ATOM     46  C33 UNL A   1      13.154  52.039   5.448  1.00  0.00    +0.000 C 
ATOM     47  N9  UNL A   1      13.487  51.107   4.588  1.00  0.00    +0.000 N 
ATOM     48  C34 UNL A   1      12.793  49.968   4.972  1.00  0.00    +0.000 C 
ATOM     49  C35 UNL A   1      12.783  48.748   4.382  1.00  0.00    +0.000 C 
ATOM     61  C42 UNL A   1      13.527  48.413   3.193  1.00  0.00    +0.000 C 
ATOM     62  C43 UNL A   1      13.550  47.217   2.497  1.00  0.00    +0.000 C 
ATOM     63  C44 UNL A   1      14.452  47.344   1.434  1.00  0.00    +0.000 C 
ATOM     64  C45 UNL A   1      14.955  48.635   1.440  1.00  0.00    +0.000 C 
ATOM     65  N10 UNL A   1      14.381  49.280   2.526  1.00  0.00    +0.000 N 
ATOM     66  C46 UNL A   1      15.892  49.236   0.525  1.00  0.00    +0.000 C 
ATOM     78  C53 UNL A   1      16.319  50.522   0.579  1.00  0.00    +0.000 C 
ATOM     79  N11 UNL A   1      15.980  51.514   1.485  1.00  0.00    +0.000 N 
ATOM     80  C54 UNL A   1      16.669  52.572   1.134  1.00  0.00    +0.000 C 
ATOM     81  C55 UNL A   1      16.688  53.937   1.756  1.00  0.00    +0.000 C 
ATOM     93  C62 UNL A   1      15.926  54.173   2.839  1.00  0.00    +0.000 C 
ATOM     94  C63 UNL A   1      15.845  55.445   3.549  1.00  0.00    +0.000 C 
ATOM     95  C64 UNL A   1      15.039  55.299   4.610  1.00  0.00    +0.000 C 
ATOM     96  C65 UNL A   1      14.502  53.938   4.622  1.00  0.00    +0.000 C 
ATOM     97  N12 UNL A   1      15.090  53.339   3.538  1.00  0.00    +0.000 N 
ATOM     98  C66 UNL A   1      17.538  52.366  -0.032  1.00  0.00    +0.000 C 
ATOM     99  C67 UNL A   1      17.258  51.111  -0.354  1.00  0.00    +0.000 C 
ATOM    100  C68 UNL A   1      12.037  50.315   6.158  1.00  0.00    +0.000 C 
ATOM    101  C69 UNL A   1      12.194  51.595   6.470  1.00  0.00    +0.000 C 
ENDROOT
BRANCH   45   44
ATOM    102  C70 UNL A   1      11.897  55.066   6.418  1.00  0.00    +0.000 C 
ATOM    103  C71 UNL A   1      11.431  55.911   7.429  1.00  0.00    +0.000 C 
ATOM    134  H31 UNL A   1      13.816  55.335   9.715  1.00  0.00    +0.000 H 
ATOM     41  C28 UNL A   1      12.161  56.048   8.615  1.00  0.00    +0.000 C 
ATOM     42  C29 UNL A   1      13.329  55.306   8.806  1.00  0.00    +0.000 C 
ATOM     43  C30 UNL A   1      13.833  54.528   7.770  1.00  0.00    +0.000 C 
ATOM    135  H32 UNL A   1      14.741  54.051   7.882  1.00  0.00    +0.000 H 
ATOM     44  C31 UNL A   1      13.114  54.387   6.571  1.00  0.00    +0.000 C 
ATOM    146  H43 UNL A   1      11.343  54.943   5.556  1.00  0.00    +0.000 H 
ATOM    147  H44 UNL A   1      10.549  56.433   7.303  1.00  0.00    +0.000 H 
BRANCH   41    2
ATOM      1  O1  UNL A   1      11.598  58.178   9.419  1.00  0.00    +0.000 O 
ATOM      2  C1  UNL A   1      11.668  56.975   9.658  1.00  0.00    +0.000 C 
BRANCH    2    3
ATOM      3  N1  UNL A   1      11.317  56.492  10.894  1.00  0.00    +0.000 N 
ATOM    104  H1  UNL A   1      11.932  56.721  11.629  1.00  0.00    +0.000 H 
BRANCH    3    4
ATOM    105  H2  UNL A   1       9.387  55.854  10.556  1.00  0.00    +0.000 H 
ATOM    106  H3  UNL A   1       9.873  55.997  12.256  1.00  0.00    +0.000 H 
ATOM      4  C2  UNL A   1      10.165  55.692  11.273  1.00  0.00    +0.000 C 
BRANCH    4    5
ATOM    107  H4  UNL A   1      10.429  53.817  10.333  1.00  0.00    +0.000 H 
ATOM    108  H5  UNL A   1       9.732  53.777  11.984  1.00  0.00    +0.000 H 
ATOM      5  C3  UNL A   1      10.467  54.200  11.331  1.00  0.00    +0.000 C 
BRANCH    5    6
ATOM    110  H7  UNL A   1      12.389  54.733  11.954  1.00  0.00    +0.000 H 
ATOM    109  H6  UNL A   1      11.647  53.393  12.892  1.00  0.00    +0.000 H 
ATOM      6  C4  UNL A   1      11.822  53.825  11.929  1.00  0.00    +0.000 C 
BRANCH    6    7
ATOM    111  H8  UNL A   1      12.561  53.094  10.082  1.00  0.00    +0.000 H 
ATOM      7  C5  UNL A   1      12.662  52.835  11.116  1.00  0.00    +0.000 C 
ATOM    112  H9  UNL A   1      12.284  51.866  11.367  1.00  0.00    +0.000 H 
BRANCH    7    8
ATOM    113  H10 UNL A   1      14.282  52.220  12.341  1.00  0.00    +0.000 H 
ATOM    114  H11 UNL A   1      14.470  53.809  11.527  1.00  0.00    +0.000 H 
ATOM      8  C6  UNL A   1      14.158  52.788  11.442  1.00  0.00    +0.000 C 
BRANCH    8    9
ATOM      9  C7  UNL A   1      15.053  52.171  10.371  1.00  0.00    +0.000 C 
ATOM    115  H12 UNL A   1      15.373  52.944   9.704  1.00  0.00    +0.000 H 
ATOM    116  H13 UNL A   1      14.482  51.423   9.862  1.00  0.00    +0.000 H 
BRANCH    9   10
ATOM     10  N2  UNL A   1      16.227  51.524  10.930  1.00  0.00    +0.000 N 
ATOM    117  H14 UNL A   1      16.504  51.839  11.820  1.00  0.00    +0.000 H 
BRANCH   10   11
ATOM     11  C8  UNL A   1      17.001  50.532  10.382  1.00  0.00    +0.000 C 
ATOM     12  O2  UNL A   1      17.927  50.044  11.026  1.00  0.00    +0.000 O 
BRANCH   11   13
ATOM     13  C9  UNL A   1      16.709  50.012   9.030  1.00  0.00    +0.000 C 
ATOM     14  C10 UNL A   1      17.163  50.783   7.950  1.00  0.00    +0.000 C 
ATOM     15  C11 UNL A   1      16.928  50.358   6.644  1.00  0.00    +0.000 C 
ATOM     16  C12 UNL A   1      16.249  49.166   6.419  1.00  0.00    +0.000 C 
ATOM     17  C13 UNL A   1      15.780  48.406   7.497  1.00  0.00    +0.000 C 
ATOM     18  C14 UNL A   1      15.974  48.827   8.822  1.00  0.00    +0.000 C 
ATOM    118  H15 UNL A   1      17.671  51.664   8.122  1.00  0.00    +0.000 H 
ATOM    119  H16 UNL A   1      17.258  50.927   5.849  1.00  0.00    +0.000 H 
ATOM    120  H17 UNL A   1      16.088  48.841   5.452  1.00  0.00    +0.000 H 
ATOM    121  H18 UNL A   1      15.283  47.521   7.313  1.00  0.00    +0.000 H 
BRANCH   18   19
ATOM    122  H19 UNL A   1      16.023  47.466  10.344  1.00  0.00    +0.000 H 
ATOM     19  N3  UNL A   1      15.426  48.118   9.912  1.00  0.00    +0.000 N 
BRANCH   19   20
ATOM     40  N8  UNL A   1      13.182  47.599   9.792  1.00  0.00    +0.000 N 
ATOM     20  C15 UNL A   1      14.147  48.224  10.456  1.00  0.00    +0.000 C 
ATOM     21  N4  UNL A   1      13.952  48.937  11.553  1.00  0.00    +0.000 N 
ATOM     22  C16 UNL A   1      12.687  48.985  11.934  1.00  0.00    +0.000 C 
ATOM     23 Cl1  UNL A   1      12.365  49.894  13.344  1.00  0.00    +0.000 Cl
ATOM     24  N5  UNL A   1      11.650  48.394  11.372  1.00  0.00    +0.000 N 
ATOM     25  C17 UNL A   1      11.954  47.685  10.298  1.00  0.00    +0.000 C 
BRANCH   25   26
ATOM     26  N6  UNL A   1      10.991  46.898   9.656  1.00  0.00    +0.000 N 
ATOM    123  H20 UNL A   1      11.166  45.931   9.590  1.00  0.00    +0.000 H 
BRANCH   26   27
ATOM    132  H29 UNL A   1       6.572  46.538   8.680  1.00  0.00    +0.000 H 
ATOM    133  H30 UNL A   1       8.623  45.722   9.667  1.00  0.00    +0.000 H 
ATOM     38  C26 UNL A   1       7.442  47.086   8.577  1.00  0.00    +0.000 C 
ATOM     39  C27 UNL A   1       8.621  46.626   9.171  1.00  0.00    +0.000 C 
ATOM    124  H21 UNL A   1      10.648  49.131   8.294  1.00  0.00    +0.000 H 
ATOM    125  H22 UNL A   1       8.630  49.880   7.182  1.00  0.00    +0.000 H 
ATOM     27  C18 UNL A   1       9.796  47.376   9.097  1.00  0.00    +0.000 C 
ATOM     28  C19 UNL A   1       9.785  48.569   8.368  1.00  0.00    +0.000 C 
ATOM     29  C20 UNL A   1       8.616  49.009   7.736  1.00  0.00    +0.000 C 
ATOM     30  C21 UNL A   1       7.426  48.278   7.847  1.00  0.00    +0.000 C 
BRANCH   30   31
ATOM     33  C23 UNL A   1       4.447  48.376   5.500  1.00  0.00    +0.000 C 
ATOM    129  H26 UNL A   1       4.887  49.056   4.800  1.00  0.00    +0.000 H 
ATOM     35  C24 UNL A   1       4.198  50.145   6.991  1.00  0.00    +0.000 C 
ATOM     36  C25 UNL A   1       5.553  49.864   7.664  1.00  0.00    +0.000 C 
ATOM     37  O4  UNL A   1       6.010  50.676   8.472  1.00  0.00    +0.000 O 
ATOM     34  O3  UNL A   1       3.534  49.076   6.338  1.00  0.00    +0.000 O 
ATOM    130  H27 UNL A   1       3.538  50.511   7.749  1.00  0.00    +0.000 H 
ATOM    131  H28 UNL A   1       4.434  50.829   6.202  1.00  0.00    +0.000 H 
ATOM    127  H24 UNL A   1       6.259  47.318   5.699  1.00  0.00    +0.000 H 
ATOM    128  H25 UNL A   1       3.926  47.608   4.965  1.00  0.00    +0.000 H 
ATOM    126  H23 UNL A   1       5.089  47.016   6.996  1.00  0.00    +0.000 H 
ATOM     31  N7  UNL A   1       6.239  48.731   7.198  1.00  0.00    +0.000 N 
ATOM     32  C22 UNL A   1       5.537  47.750   6.360  1.00  0.00    +0.000 C 
ENDBRANCH   30   31
ENDBRANCH   26   27
ENDBRANCH   25   26
ENDBRANCH   19   20
ENDBRANCH   18   19
ENDBRANCH   11   13
ENDBRANCH   10   11
ENDBRANCH    9   10
ENDBRANCH    8    9
ENDBRANCH    7    8
ENDBRANCH    6    7
ENDBRANCH    5    6
ENDBRANCH    4    5
ENDBRANCH    3    4
ENDBRANCH    2    3
ENDBRANCH   41    2
ENDBRANCH   45   44
BRANCH   49   50
ATOM     50  C36 UNL A   1      11.953  47.670   5.017  1.00  0.00    +0.000 C 
ATOM     51  C37 UNL A   1      10.582  47.543   4.747  1.00  0.00    +0.000 C 
ATOM     52  F1  UNL A   1       9.963  48.432   3.956  1.00  0.00    +0.000 F 
ATOM     53  C38 UNL A   1       9.834  46.511   5.312  1.00  0.00    +0.000 C 
ATOM     54  F2  UNL A   1       8.518  46.428   5.065  1.00  0.00    +0.000 F 
ATOM     55  C39 UNL A   1      10.445  45.573   6.130  1.00  0.00    +0.000 C 
ATOM     56  F3  UNL A   1       9.727  44.575   6.661  1.00  0.00    +0.000 F 
ATOM     57  C40 UNL A   1      11.801  45.673   6.399  1.00  0.00    +0.000 C 
ATOM     58  F4  UNL A   1      12.398  44.760   7.179  1.00  0.00    +0.000 F 
ATOM     59  C41 UNL A   1      12.547  46.717   5.857  1.00  0.00    +0.000 C 
ATOM     60  F5  UNL A   1      13.856  46.789   6.141  1.00  0.00    +0.000 F 
ENDBRANCH   49   50
BRANCH   66   67
ATOM     67  C47 UNL A   1      16.429  48.389  -0.590  1.00  0.00    +0.000 C 
ATOM     68  C48 UNL A   1      15.665  48.111  -1.733  1.00  0.00    +0.000 C 
ATOM     69  F6  UNL A   1      14.408  48.573  -1.833  1.00  0.00    +0.000 F 
ATOM     70  C49 UNL A   1      16.174  47.318  -2.757  1.00  0.00    +0.000 C 
ATOM     71  F7  UNL A   1      15.408  47.024  -3.817  1.00  0.00    +0.000 F 
ATOM     72  C50 UNL A   1      17.464  46.817  -2.674  1.00  0.00    +0.000 C 
ATOM     73  F8  UNL A   1      17.953  46.055  -3.662  1.00  0.00    +0.000 F 
ATOM     74  C51 UNL A   1      18.244  47.096  -1.562  1.00  0.00    +0.000 C 
ATOM     75  F9  UNL A   1      19.495  46.620  -1.484  1.00  0.00    +0.000 F 
ATOM     76  C52 UNL A   1      17.729  47.866  -0.524  1.00  0.00    +0.000 C 
ATOM     77  F10 UNL A   1      18.500  48.106   0.548  1.00  0.00    +0.000 F 
ENDBRANCH   66   67
BRANCH   81   82
ATOM     82  C56 UNL A   1      17.528  55.027   1.199  1.00  0.00    +0.000 C 
ATOM     83  C57 UNL A   1      17.109  55.762   0.082  1.00  0.00    +0.000 C 
ATOM     84  F11 UNL A   1      15.951  55.459  -0.522  1.00  0.00    +0.000 F 
ATOM     85  C58 UNL A   1      17.893  56.791  -0.436  1.00  0.00    +0.000 C 
ATOM     86  F12 UNL A   1      17.487  57.455  -1.527  1.00  0.00    +0.000 F 
ATOM     87  C59 UNL A   1      19.096  57.122   0.170  1.00  0.00    +0.000 C 
ATOM     88  F13 UNL A   1      19.844  58.119  -0.323  1.00  0.00    +0.000 F 
ATOM     89  C60 UNL A   1      19.525  56.416   1.283  1.00  0.00    +0.000 C 
ATOM     90  F14 UNL A   1      20.678  56.745   1.882  1.00  0.00    +0.000 F 
ATOM     91  C61 UNL A   1      18.757  55.369   1.784  1.00  0.00    +0.000 C 
ATOM     92  F15 UNL A   1      19.198  54.699   2.858  1.00  0.00    +0.000 F 
ENDBRANCH   81   82
TORSDOF 20
ENDMDL
MODEL 3
REMARK VINA RESULT:      -9.2     28.824     34.089
ROOT
ATOM    136  H33 UNL A   1      19.279  14.422   7.951  1.00  0.00    +0.000 H 
ATOM    137  H34 UNL A   1      17.147  14.776   9.410  1.00  0.00    +0.000 H 
ATOM    138  H35 UNL A   1      17.442  17.933   6.747  1.00  0.00    +0.000 H 
ATOM    139  H36 UNL A   1      15.292  23.539   4.607  1.00  0.00    +0.000 H 
ATOM    140  H37 UNL A   1      17.248  23.090   3.051  1.00  0.00    +0.000 H 
ATOM    141  H38 UNL A   1      17.004  19.919   5.728  1.00  0.00    +0.000 H 
ATOM    142  H39 UNL A   1      12.898  20.781   8.493  1.00  0.00    +0.000 H 
ATOM    143  H40 UNL A   1      13.467  18.636   9.767  1.00  0.00    +0.000 H 
ATOM    144  H41 UNL A   1      21.418  17.085   3.803  1.00  0.00    +0.000 H 
ATOM    145  H42 UNL A   1      21.028  19.361   2.696  1.00  0.00    +0.000 H 
ATOM     45  C32 UNL A   1      18.701  20.715   3.646  1.00  0.00    +0.000 C 
ATOM     46  C33 UNL A   1      19.263  19.406   4.120  1.00  0.00    +0.000 C 
ATOM     47  N9  UNL A   1      18.821  18.614   5.066  1.00  0.00    +0.000 N 
ATOM     48  C34 UNL A   1      19.687  17.528   5.089  1.00  0.00    +0.000 C 
ATOM     49  C35 UNL A   1      19.666  16.452   5.912  1.00  0.00    +0.000 C 
ATOM     61  C42 UNL A   1      18.696  16.246   6.959  1.00  0.00    +0.000 C 
ATOM     62  C43 UNL A   1      18.616  15.208   7.871  1.00  0.00    +0.000 C 
ATOM     63  C44 UNL A   1      17.480  15.406   8.665  1.00  0.00    +0.000 C 
ATOM     64  C45 UNL A   1      16.879  16.593   8.278  1.00  0.00    +0.000 C 
ATOM     65  N10 UNL A   1      17.633  17.097   7.229  1.00  0.00    +0.000 N 
ATOM     66  C46 UNL A   1      15.702  17.220   8.824  1.00  0.00    +0.000 C 
ATOM     78  C53 UNL A   1      15.186  18.404   8.410  1.00  0.00    +0.000 C 
ATOM     79  N11 UNL A   1      15.639  19.247   7.407  1.00  0.00    +0.000 N 
ATOM     80  C54 UNL A   1      14.794  20.247   7.371  1.00  0.00    +0.000 C 
ATOM     81  C55 UNL A   1      14.799  21.458   6.485  1.00  0.00    +0.000 C 
ATOM     93  C62 UNL A   1      15.772  21.591   5.565  1.00  0.00    +0.000 C 
ATOM     94  C63 UNL A   1      15.903  22.708   4.636  1.00  0.00    +0.000 C 
ATOM     95  C64 UNL A   1      16.947  22.479   3.827  1.00  0.00    +0.000 C 
ATOM     96  C65 UNL A   1      17.593  21.224   4.218  1.00  0.00    +0.000 C 
ATOM     97  N12 UNL A   1      16.822  20.763   5.253  1.00  0.00    +0.000 N 
ATOM     98  C66 UNL A   1      13.696  20.145   8.342  1.00  0.00    +0.000 C 
ATOM     99  C67 UNL A   1      14.004  19.022   8.974  1.00  0.00    +0.000 C 
ATOM    100  C68 UNL A   1      20.666  17.749   4.046  1.00  0.00    +0.000 C 
ATOM    101  C69 UNL A   1      20.473  18.916   3.444  1.00  0.00    +0.000 C 
ENDROOT
BRANCH   45   44
ATOM    102  C70 UNL A   1      20.248  22.533   2.844  1.00  0.00    +0.000 C 
ATOM    103  C71 UNL A   1      20.869  23.229   1.804  1.00  0.00    +0.000 C 
ATOM    134  H31 UNL A   1      19.712  21.430  -0.778  1.00  0.00    +0.000 H 
ATOM     41  C28 UNL A   1      20.632  22.857   0.476  1.00  0.00    +0.000 C 
ATOM     42  C29 UNL A   1      19.812  21.762   0.194  1.00  0.00    +0.000 C 
ATOM     43  C30 UNL A   1      19.132  21.121   1.223  1.00  0.00    +0.000 C 
ATOM    135  H32 UNL A   1      18.459  20.370   1.004  1.00  0.00    +0.000 H 
ATOM     44  C31 UNL A   1      19.356  21.489   2.561  1.00  0.00    +0.000 C 
ATOM    146  H43 UNL A   1      20.446  22.789   3.824  1.00  0.00    +0.000 H 
ATOM    147  H44 UNL A   1      21.504  24.016   2.014  1.00  0.00    +0.000 H 
BRANCH   41    2
ATOM      1  O1  UNL A   1      21.600  24.797  -0.416  1.00  0.00    +0.000 O 
ATOM      2  C1  UNL A   1      21.272  23.630  -0.611  1.00  0.00    +0.000 C 
BRANCH    2    3
ATOM      3  N1  UNL A   1      21.472  23.050  -1.839  1.00  0.00    +0.000 N 
ATOM    104  H1  UNL A   1      20.925  23.413  -2.573  1.00  0.00    +0.000 H 
BRANCH    3    4
ATOM    105  H2  UNL A   1      22.291  21.192  -1.486  1.00  0.00    +0.000 H 
ATOM    106  H3  UNL A   1      23.366  22.387  -2.237  1.00  0.00    +0.000 H 
ATOM      4  C2  UNL A   1      22.378  21.976  -2.210  1.00  0.00    +0.000 C 
BRANCH    4    5
ATOM    107  H4  UNL A   1      22.353  22.135  -4.317  1.00  0.00    +0.000 H 
ATOM    108  H5  UNL A   1      21.047  21.146  -3.588  1.00  0.00    +0.000 H 
ATOM      5  C3  UNL A   1      22.088  21.398  -3.588  1.00  0.00    +0.000 C 
BRANCH    5    6
ATOM    110  H7  UNL A   1      22.124  19.497  -4.455  1.00  0.00    +0.000 H 
ATOM    109  H6  UNL A   1      23.693  20.369  -4.508  1.00  0.00    +0.000 H 
ATOM      6  C4  UNL A   1      22.830  20.108  -3.932  1.00  0.00    +0.000 C 
BRANCH    6    7
ATOM    111  H8  UNL A   1      22.827  18.310  -2.809  1.00  0.00    +0.000 H 
ATOM      7  C5  UNL A   1      23.300  19.268  -2.740  1.00  0.00    +0.000 C 
ATOM    112  H9  UNL A   1      23.033  19.831  -1.870  1.00  0.00    +0.000 H 
BRANCH    7    8
ATOM    113  H10 UNL A   1      25.305  19.831  -3.147  1.00  0.00    +0.000 H 
ATOM    114  H11 UNL A   1      24.988  18.066  -3.050  1.00  0.00    +0.000 H 
ATOM      8  C6  UNL A   1      24.811  19.035  -2.629  1.00  0.00    +0.000 C 
BRANCH    8    9
ATOM      9  C7  UNL A   1      25.372  18.979  -1.211  1.00  0.00    +0.000 C 
ATOM    115  H12 UNL A   1      25.516  19.980  -0.859  1.00  0.00    +0.000 H 
ATOM    116  H13 UNL A   1      26.294  18.438  -1.246  1.00  0.00    +0.000 H 
BRANCH    9   10
ATOM     10  N2  UNL A   1      24.489  18.286  -0.290  1.00  0.00    +0.000 N 
ATOM    117  H14 UNL A   1      23.697  17.863  -0.694  1.00  0.00    +0.000 H 
BRANCH   10   11
ATOM     11  C8  UNL A   1      24.612  18.141   1.070  1.00  0.00    +0.000 C 
ATOM     12  O2  UNL A   1      24.646  17.020   1.571  1.00  0.00    +0.000 O 
BRANCH   11   13
ATOM     13  C9  UNL A   1      24.742  19.326   1.942  1.00  0.00    +0.000 C 
ATOM     14  C10 UNL A   1      23.630  20.177   2.015  1.00  0.00    +0.000 C 
ATOM     15  C11 UNL A   1      23.674  21.315   2.817  1.00  0.00    +0.000 C 
ATOM     16  C12 UNL A   1      24.823  21.597   3.549  1.00  0.00    +0.000 C 
ATOM     17  C13 UNL A   1      25.939  20.757   3.463  1.00  0.00    +0.000 C 
ATOM     18  C14 UNL A   1      25.933  19.622   2.636  1.00  0.00    +0.000 C 
ATOM    118  H15 UNL A   1      22.778  19.961   1.474  1.00  0.00    +0.000 H 
ATOM    119  H16 UNL A   1      22.858  21.944   2.868  1.00  0.00    +0.000 H 
ATOM    120  H17 UNL A   1      24.853  22.431   4.158  1.00  0.00    +0.000 H 
ATOM    121  H18 UNL A   1      26.781  20.977   4.017  1.00  0.00    +0.000 H 
BRANCH   18   19
ATOM    122  H19 UNL A   1      27.473  18.813   1.566  1.00  0.00    +0.000 H 
ATOM     19  N3  UNL A   1      27.083  18.821   2.470  1.00  0.00    +0.000 N 
BRANCH   19   20
ATOM     40  N8  UNL A   1      27.039  17.751   4.512  1.00  0.00    +0.000 N 
ATOM     20  C15 UNL A   1      27.738  18.042   3.421  1.00  0.00    +0.000 C 
ATOM     21  N4  UNL A   1      28.989  17.664   3.218  1.00  0.00    +0.000 N 
ATOM     22  C16 UNL A   1      29.499  16.965   4.218  1.00  0.00    +0.000 C 
ATOM     23 Cl1  UNL A   1      31.115  16.446   4.021  1.00  0.00    +0.000 Cl
ATOM     24  N5  UNL A   1      28.901  16.598   5.336  1.00  0.00    +0.000 N 
ATOM     25  C17 UNL A   1      27.646  17.004   5.431  1.00  0.00    +0.000 C 
BRANCH   25   26
ATOM     26  N6  UNL A   1      26.835  16.597   6.496  1.00  0.00    +0.000 N 
ATOM    123  H20 UNL A   1      26.471  15.682   6.464  1.00  0.00    +0.000 H 
BRANCH   26   27
ATOM    132  H29 UNL A   1      23.970  19.209   8.857  1.00  0.00    +0.000 H 
ATOM    133  H30 UNL A   1      24.540  17.826   6.957  1.00  0.00    +0.000 H 
ATOM     38  C26 UNL A   1      24.919  18.809   8.782  1.00  0.00    +0.000 C 
ATOM     39  C27 UNL A   1      25.240  17.988   7.698  1.00  0.00    +0.000 C 
ATOM    124  H21 UNL A   1      28.386  17.243   8.529  1.00  0.00    +0.000 H 
ATOM    125  H22 UNL A   1      27.865  18.744  10.358  1.00  0.00    +0.000 H 
ATOM     27  C18 UNL A   1      26.496  17.387   7.605  1.00  0.00    +0.000 C 
ATOM     28  C19 UNL A   1      27.449  17.670   8.589  1.00  0.00    +0.000 C 
ATOM     29  C20 UNL A   1      27.144  18.527   9.652  1.00  0.00    +0.000 C 
ATOM     30  C21 UNL A   1      25.869  19.094   9.769  1.00  0.00    +0.000 C 
BRANCH   30   31
ATOM     33  C23 UNL A   1      26.212  21.881  12.321  1.00  0.00    +0.000 C 
ATOM    129  H26 UNL A   1      26.496  21.245  13.134  1.00  0.00    +0.000 H 
ATOM     35  C24 UNL A   1      24.042  21.059  12.498  1.00  0.00    +0.000 C 
ATOM     36  C25 UNL A   1      24.299  19.952  11.459  1.00  0.00    +0.000 C 
ATOM     37  O4  UNL A   1      23.456  19.068  11.294  1.00  0.00    +0.000 O 
ATOM     34  O3  UNL A   1      24.838  22.231  12.445  1.00  0.00    +0.000 O 
ATOM    130  H27 UNL A   1      23.022  21.363  12.389  1.00  0.00    +0.000 H 
ATOM    131  H28 UNL A   1      24.301  20.608  13.432  1.00  0.00    +0.000 H 
ATOM    127  H24 UNL A   1      27.441  20.815  10.981  1.00  0.00    +0.000 H 
ATOM    128  H25 UNL A   1      26.811  22.768  12.342  1.00  0.00    +0.000 H 
ATOM    126  H23 UNL A   1      26.214  21.828  10.200  1.00  0.00    +0.000 H 
ATOM     31  N7  UNL A   1      25.566  19.969  10.855  1.00  0.00    +0.000 N 
ATOM     32  C22 UNL A   1      26.425  21.152  11.001  1.00  0.00    +0.000 C 
ENDBRANCH   30   31
ENDBRANCH   26   27
ENDBRANCH   25   26
ENDBRANCH   19   20
ENDBRANCH   18   19
ENDBRANCH   11   13
ENDBRANCH   10   11
ENDBRANCH    9   10
ENDBRANCH    8    9
ENDBRANCH    7    8
ENDBRANCH    6    7
ENDBRANCH    5    6
ENDBRANCH    4    5
ENDBRANCH    3    4
ENDBRANCH    2    3
ENDBRANCH   41    2
ENDBRANCH   45   44
BRANCH   49   50
ATOM     50  C36 UNL A   1      20.716  15.398   5.712  1.00  0.00    +0.000 C 
ATOM     51  C37 UNL A   1      20.534  14.338   4.812  1.00  0.00    +0.000 C 
ATOM     52  F1  UNL A   1      19.375  14.206   4.150  1.00  0.00    +0.000 F 
ATOM     53  C38 UNL A   1      21.536  13.391   4.607  1.00  0.00    +0.000 C 
ATOM     54  F2  UNL A   1      21.326  12.368   3.767  1.00  0.00    +0.000 F 
ATOM     55  C39 UNL A   1      22.747  13.503   5.273  1.00  0.00    +0.000 C 
ATOM     56  F3  UNL A   1      23.714  12.598   5.066  1.00  0.00    +0.000 F 
ATOM     57  C40 UNL A   1      22.953  14.550   6.158  1.00  0.00    +0.000 C 
ATOM     58  F4  UNL A   1      24.128  14.668   6.793  1.00  0.00    +0.000 F 
ATOM     59  C41 UNL A   1      21.946  15.483   6.384  1.00  0.00    +0.000 C 
ATOM     60  F5  UNL A   1      22.174  16.483   7.249  1.00  0.00    +0.000 F 
ENDBRANCH   49   50
BRANCH   66   67
ATOM     67  C47 UNL A   1      14.996  16.529   9.952  1.00  0.00    +0.000 C 
ATOM     68  C48 UNL A   1      15.201  16.907  11.287  1.00  0.00    +0.000 C 
ATOM     69  F6  UNL A   1      16.075  17.881  11.585  1.00  0.00    +0.000 F 
ATOM     70  C49 UNL A   1      14.543  16.253  12.324  1.00  0.00    +0.000 C 
ATOM     71  F7  UNL A   1      14.793  16.597  13.596  1.00  0.00    +0.000 F 
ATOM     72  C50 UNL A   1      13.644  15.234  12.046  1.00  0.00    +0.000 C 
ATOM     73  F8  UNL A   1      13.011  14.607  13.046  1.00  0.00    +0.000 F 
ATOM     74  C51 UNL A   1      13.410  14.858  10.732  1.00  0.00    +0.000 C 
ATOM     75  F9  UNL A   1      12.535  13.880  10.461  1.00  0.00    +0.000 F 
ATOM     76  C52 UNL A   1      14.087  15.492   9.694  1.00  0.00    +0.000 C 
ATOM     77  F10 UNL A   1      13.854  15.096   8.433  1.00  0.00    +0.000 F 
ENDBRANCH   66   67
BRANCH   81   82
ATOM     82  C56 UNL A   1      13.757  22.508   6.606  1.00  0.00    +0.000 C 
ATOM     83  C57 UNL A   1      13.789  23.440   7.652  1.00  0.00    +0.000 C 
ATOM     84  F11 UNL A   1      14.751  23.367   8.584  1.00  0.00    +0.000 F 
ATOM     85  C58 UNL A   1      12.816  24.430   7.762  1.00  0.00    +0.000 C 
ATOM     86  F12 UNL A   1      12.848  25.287   8.793  1.00  0.00    +0.000 F 
ATOM     87  C59 UNL A   1      11.809  24.526   6.812  1.00  0.00    +0.000 C 
ATOM     88  F13 UNL A   1      10.880  25.487   6.913  1.00  0.00    +0.000 F 
ATOM     89  C60 UNL A   1      11.765  23.622   5.762  1.00  0.00    +0.000 C 
ATOM     90  F14 UNL A   1      10.804  23.722   4.833  1.00  0.00    +0.000 F 
ATOM     91  C61 UNL A   1      12.720  22.614   5.668  1.00  0.00    +0.000 C 
ATOM     92  F15 UNL A   1      12.649  21.749   4.645  1.00  0.00    +0.000 F 
ENDBRANCH   81   82
TORSDOF 20
ENDMDL
MODEL 4
REMARK VINA RESULT:      -9.2      4.514      9.153
ROOT
ATOM    136  H33 UNL A   1      14.272  47.417   3.533  1.00  0.00    +0.000 H 
ATOM    137  H34 UNL A   1      15.521  47.201   1.254  1.00  0.00    +0.000 H 
ATOM    138  H35 UNL A   1      15.548  51.185   2.381  1.00  0.00    +0.000 H 
ATOM    139  H36 UNL A   1      16.972  57.259   1.073  1.00  0.00    +0.000 H 
ATOM    140  H37 UNL A   1      15.941  57.440   3.386  1.00  0.00    +0.000 H 
ATOM    141  H38 UNL A   1      15.866  53.435   2.276  1.00  0.00    +0.000 H 
ATOM    142  H39 UNL A   1      18.245  53.201  -2.144  1.00  0.00    +0.000 H 
ATOM    143  H40 UNL A   1      17.749  50.689  -2.127  1.00  0.00    +0.000 H 
ATOM    144  H41 UNL A   1      13.351  51.517   6.883  1.00  0.00    +0.000 H 
ATOM    145  H42 UNL A   1      13.592  54.064   6.762  1.00  0.00    +0.000 H 
ATOM     45  C32 UNL A   1      14.975  54.978   4.438  1.00  0.00    +0.000 C 
ATOM     46  C33 UNL A   1      14.600  53.568   4.792  1.00  0.00    +0.000 C 
ATOM     47  N9  UNL A   1      14.812  52.464   4.117  1.00  0.00    +0.000 N 
ATOM     48  C34 UNL A   1      14.289  51.437   4.891  1.00  0.00    +0.000 C 
ATOM     49  C35 UNL A   1      14.241  50.113   4.612  1.00  0.00    +0.000 C 
ATOM     61  C42 UNL A   1      14.747  49.517   3.400  1.00  0.00    +0.000 C 
ATOM     62  C43 UNL A   1      14.709  48.190   3.008  1.00  0.00    +0.000 C 
ATOM     63  C44 UNL A   1      15.365  48.076   1.777  1.00  0.00    +0.000 C 
ATOM     64  C45 UNL A   1      15.771  49.340   1.379  1.00  0.00    +0.000 C 
ATOM     65  N10 UNL A   1      15.388  50.215   2.386  1.00  0.00    +0.000 N 
ATOM     66  C46 UNL A   1      16.459  49.722   0.173  1.00  0.00    +0.000 C 
ATOM     78  C53 UNL A   1      16.800  50.991  -0.162  1.00  0.00    +0.000 C 
ATOM     79  N11 UNL A   1      16.588  52.164   0.544  1.00  0.00    +0.000 N 
ATOM     80  C54 UNL A   1      17.119  53.119  -0.179  1.00  0.00    +0.000 C 
ATOM     81  C55 UNL A   1      17.172  54.594   0.095  1.00  0.00    +0.000 C 
ATOM     93  C62 UNL A   1      16.632  55.068   1.233  1.00  0.00    +0.000 C 
ATOM     94  C63 UNL A   1      16.613  56.470   1.633  1.00  0.00    +0.000 C 
ATOM     95  C64 UNL A   1      16.052  56.567   2.846  1.00  0.00    +0.000 C 
ATOM     96  C65 UNL A   1      15.620  55.239   3.285  1.00  0.00    +0.000 C 
ATOM     97  N12 UNL A   1      16.014  54.409   2.267  1.00  0.00    +0.000 N 
ATOM     98  C66 UNL A   1      17.743  52.657  -1.424  1.00  0.00    +0.000 C 
ATOM     99  C67 UNL A   1      17.488  51.357  -1.384  1.00  0.00    +0.000 C 
ATOM    100  C68 UNL A   1      13.769  52.044   6.099  1.00  0.00    +0.000 C 
ATOM    101  C69 UNL A   1      13.900  53.364   6.070  1.00  0.00    +0.000 C 
ENDROOT
BRANCH   45   44
ATOM    102  C70 UNL A   1      13.368  56.722   5.284  1.00  0.00    +0.000 C 
ATOM    103  C71 UNL A   1      13.062  57.775   6.151  1.00  0.00    +0.000 C 
ATOM    134  H31 UNL A   1      15.888  57.789   7.955  1.00  0.00    +0.000 H 
ATOM     41  C28 UNL A   1      14.005  58.198   7.094  1.00  0.00    +0.000 C 
ATOM     42  C29 UNL A   1      15.232  57.539   7.200  1.00  0.00    +0.000 C 
ATOM     43  C30 UNL A   1      15.566  56.545   6.286  1.00  0.00    +0.000 C 
ATOM    135  H32 UNL A   1      16.507  56.121   6.311  1.00  0.00    +0.000 H 
ATOM     44  C31 UNL A   1      14.632  56.115   5.329  1.00  0.00    +0.000 C 
ATOM    146  H43 UNL A   1      12.662  56.390   4.609  1.00  0.00    +0.000 H 
ATOM    147  H44 UNL A   1      12.142  58.239   6.097  1.00  0.00    +0.000 H 
BRANCH   41    2
ATOM      1  O1  UNL A   1      14.565  60.095   8.353  1.00  0.00    +0.000 O 
ATOM      2  C1  UNL A   1      13.674  59.337   7.978  1.00  0.00    +0.000 C 
BRANCH    2    3
ATOM      3  N1  UNL A   1      12.381  59.528   8.397  1.00  0.00    +0.000 N 
ATOM    104  H1  UNL A   1      11.715  59.641   7.681  1.00  0.00    +0.000 H 
BRANCH    3    4
ATOM    105  H2  UNL A   1      11.070  60.312   9.781  1.00  0.00    +0.000 H 
ATOM    106  H3  UNL A   1      12.667  59.847  10.397  1.00  0.00    +0.000 H 
ATOM      4  C2  UNL A   1      11.855  59.586   9.751  1.00  0.00    +0.000 C 
BRANCH    4    5
ATOM    107  H4  UNL A   1      10.457  58.454  10.861  1.00  0.00    +0.000 H 
ATOM    108  H5  UNL A   1      12.108  57.766  10.742  1.00  0.00    +0.000 H 
ATOM      5  C3  UNL A   1      11.301  58.252  10.235  1.00  0.00    +0.000 C 
BRANCH    5    6
ATOM    110  H7  UNL A   1       9.785  57.268   9.187  1.00  0.00    +0.000 H 
ATOM    109  H6  UNL A   1      11.242  57.647   8.208  1.00  0.00    +0.000 H 
ATOM      6  C4  UNL A   1      10.854  57.288   9.138  1.00  0.00    +0.000 C 
BRANCH    6    7
ATOM    111  H8  UNL A   1      10.794  55.249   8.563  1.00  0.00    +0.000 H 
ATOM      7  C5  UNL A   1      11.303  55.832   9.302  1.00  0.00    +0.000 C 
ATOM    112  H9  UNL A   1      11.064  55.572  10.311  1.00  0.00    +0.000 H 
BRANCH    7    8
ATOM    113  H10 UNL A   1      13.313  56.505   9.216  1.00  0.00    +0.000 H 
ATOM    114  H11 UNL A   1      12.921  55.069   8.213  1.00  0.00    +0.000 H 
ATOM      8  C6  UNL A   1      12.805  55.566   9.154  1.00  0.00    +0.000 C 
BRANCH    8    9
ATOM      9  C7  UNL A   1      13.419  54.632  10.194  1.00  0.00    +0.000 C 
ATOM    115  H12 UNL A   1      12.630  54.111  10.695  1.00  0.00    +0.000 H 
ATOM    116  H13 UNL A   1      13.989  55.230  10.872  1.00  0.00    +0.000 H 
BRANCH    9   10
ATOM     10  N2  UNL A   1      14.318  53.656   9.604  1.00  0.00    +0.000 N 
ATOM    117  H14 UNL A   1      15.037  54.023   9.041  1.00  0.00    +0.000 H 
BRANCH   10   11
ATOM     11  C8  UNL A   1      14.298  52.289   9.726  1.00  0.00    +0.000 C 
ATOM     12  O2  UNL A   1      13.262  51.664   9.517  1.00  0.00    +0.000 O 
BRANCH   11   13
ATOM     13  C9  UNL A   1      15.530  51.549  10.074  1.00  0.00    +0.000 C 
ATOM     14  C10 UNL A   1      16.163  50.859   9.030  1.00  0.00    +0.000 C 
ATOM     15  C11 UNL A   1      17.329  50.140   9.278  1.00  0.00    +0.000 C 
ATOM     16  C12 UNL A   1      17.865  50.115  10.561  1.00  0.00    +0.000 C 
ATOM     17  C13 UNL A   1      17.223  50.789  11.606  1.00  0.00    +0.000 C 
ATOM     18  C14 UNL A   1      16.028  51.495  11.392  1.00  0.00    +0.000 C 
ATOM    118  H15 UNL A   1      15.765  50.884   8.079  1.00  0.00    +0.000 H 
ATOM    119  H16 UNL A   1      17.794  49.627   8.512  1.00  0.00    +0.000 H 
ATOM    120  H17 UNL A   1      18.738  49.596  10.744  1.00  0.00    +0.000 H 
ATOM    121  H18 UNL A   1      17.636  50.767  12.552  1.00  0.00    +0.000 H 
BRANCH   18   19
ATOM    122  H19 UNL A   1      15.745  52.896  12.850  1.00  0.00    +0.000 H 
ATOM     19  N3  UNL A   1      15.324  52.100  12.455  1.00  0.00    +0.000 N 
BRANCH   19   20
ATOM     40  N8  UNL A   1      13.173  52.656  13.074  1.00  0.00    +0.000 N 
ATOM     20  C15 UNL A   1      14.107  51.714  13.014  1.00  0.00    +0.000 C 
ATOM     21  N4  UNL A   1      13.950  50.483  13.471  1.00  0.00    +0.000 N 
ATOM     22  C16 UNL A   1      12.763  50.267  14.010  1.00  0.00    +0.000 C 
ATOM     23 Cl1  UNL A   1      12.494  48.694  14.623  1.00  0.00    +0.000 Cl
ATOM     24  N5  UNL A   1      11.753  51.111  14.109  1.00  0.00    +0.000 N 
ATOM     25  C17 UNL A   1      12.003  52.306  13.601  1.00  0.00    +0.000 C 
BRANCH   25   26
ATOM     26  N6  UNL A   1      10.998  53.277  13.515  1.00  0.00    +0.000 N 
ATOM    123  H20 UNL A   1      10.200  53.058  12.982  1.00  0.00    +0.000 H 
BRANCH   26   27
ATOM    132  H29 UNL A   1      10.601  56.034  17.099  1.00  0.00    +0.000 H 
ATOM    133  H30 UNL A   1      10.556  53.852  16.057  1.00  0.00    +0.000 H 
ATOM     38  C26 UNL A   1      10.763  55.950  16.083  1.00  0.00    +0.000 C 
ATOM     39  C27 UNL A   1      10.763  54.686  15.486  1.00  0.00    +0.000 C 
ATOM    124  H21 UNL A   1      11.450  55.600  12.349  1.00  0.00    +0.000 H 
ATOM    125  H22 UNL A   1      11.353  57.798  13.362  1.00  0.00    +0.000 H 
ATOM     27  C18 UNL A   1      11.038  54.540  14.125  1.00  0.00    +0.000 C 
ATOM     28  C19 UNL A   1      11.256  55.689  13.358  1.00  0.00    +0.000 C 
ATOM     29  C20 UNL A   1      11.213  56.958  13.946  1.00  0.00    +0.000 C 
ATOM     30  C21 UNL A   1      10.981  57.101  15.320  1.00  0.00    +0.000 C 
BRANCH   30   31
ATOM     33  C23 UNL A   1      12.109  60.292  17.036  1.00  0.00    +0.000 C 
ATOM    129  H26 UNL A   1      11.750  60.022  18.007  1.00  0.00    +0.000 H 
ATOM     35  C24 UNL A   1       9.904  60.622  16.365  1.00  0.00    +0.000 C 
ATOM     36  C25 UNL A   1       9.770  59.179  15.846  1.00  0.00    +0.000 C 
ATOM     37  O4  UNL A   1       8.662  58.755  15.512  1.00  0.00    +0.000 O 
ATOM     34  O3  UNL A   1      11.197  61.200  16.425  1.00  0.00    +0.000 O 
ATOM    130  H27 UNL A   1       9.309  61.243  15.730  1.00  0.00    +0.000 H 
ATOM    131  H28 UNL A   1       9.596  60.562  17.388  1.00  0.00    +0.000 H 
ATOM    127  H24 UNL A   1      12.839  58.344  16.700  1.00  0.00    +0.000 H 
ATOM    128  H25 UNL A   1      13.068  60.758  17.131  1.00  0.00    +0.000 H 
ATOM    126  H23 UNL A   1      12.664  59.324  15.232  1.00  0.00    +0.000 H 
ATOM     31  N7  UNL A   1      10.935  58.399  15.912  1.00  0.00    +0.000 N 
ATOM     32  C22 UNL A   1      12.230  59.046  16.169  1.00  0.00    +0.000 C 
ENDBRANCH   30   31
ENDBRANCH   26   27
ENDBRANCH   25   26
ENDBRANCH   19   20
ENDBRANCH   18   19
ENDBRANCH   11   13
ENDBRANCH   10   11
ENDBRANCH    9   10
ENDBRANCH    8    9
ENDBRANCH    7    8
ENDBRANCH    6    7
ENDBRANCH    5    6
ENDBRANCH    4    5
ENDBRANCH    3    4
ENDBRANCH    2    3
ENDBRANCH   41    2
ENDBRANCH   45   44
BRANCH   49   50
ATOM     50  C36 UNL A   1      13.632  49.202   5.639  1.00  0.00    +0.000 C 
ATOM     51  C37 UNL A   1      12.253  48.945   5.668  1.00  0.00    +0.000 C 
ATOM     52  F1  UNL A   1      11.431  49.565   4.809  1.00  0.00    +0.000 F 
ATOM     53  C38 UNL A   1      11.708  48.065   6.602  1.00  0.00    +0.000 C 
ATOM     54  F2  UNL A   1      10.384  47.859   6.632  1.00  0.00    +0.000 F 
ATOM     55  C39 UNL A   1      12.532  47.405   7.501  1.00  0.00    +0.000 C 
ATOM     56  F3  UNL A   1      12.008  46.550   8.390  1.00  0.00    +0.000 F 
ATOM     57  C40 UNL A   1      13.898  47.635   7.481  1.00  0.00    +0.000 C 
ATOM     58  F4  UNL A   1      14.699  46.988   8.341  1.00  0.00    +0.000 F 
ATOM     59  C41 UNL A   1      14.443  48.532   6.567  1.00  0.00    +0.000 C 
ATOM     60  F5  UNL A   1      15.769  48.737   6.575  1.00  0.00    +0.000 F 
ENDBRANCH   49   50
BRANCH   66   67
ATOM     67  C47 UNL A   1      16.813  48.643  -0.807  1.00  0.00    +0.000 C 
ATOM     68  C48 UNL A   1      15.963  48.313  -1.873  1.00  0.00    +0.000 C 
ATOM     69  F6  UNL A   1      14.785  48.940  -2.015  1.00  0.00    +0.000 F 
ATOM     70  C49 UNL A   1      16.303  47.306  -2.771  1.00  0.00    +0.000 C 
ATOM     71  F7  UNL A   1      15.452  46.973  -3.753  1.00  0.00    +0.000 F 
ATOM     72  C50 UNL A   1      17.508  46.633  -2.641  1.00  0.00    +0.000 C 
ATOM     73  F8  UNL A   1      17.833  45.664  -3.508  1.00  0.00    +0.000 F 
ATOM     74  C51 UNL A   1      18.372  46.957  -1.606  1.00  0.00    +0.000 C 
ATOM     75  F9  UNL A   1      19.542  46.314  -1.484  1.00  0.00    +0.000 F 
ATOM     76  C52 UNL A   1      18.025  47.945  -0.690  1.00  0.00    +0.000 C 
ATOM     77  F10 UNL A   1      18.872  48.226   0.311  1.00  0.00    +0.000 F 
ENDBRANCH   66   67
BRANCH   81   82
ATOM     82  C56 UNL A   1      17.806  55.534  -0.863  1.00  0.00    +0.000 C 
ATOM     83  C57 UNL A   1      17.062  56.126  -1.892  1.00  0.00    +0.000 C 
ATOM     84  F11 UNL A   1      15.766  55.815  -2.046  1.00  0.00    +0.000 F 
ATOM     85  C58 UNL A   1      17.654  57.015  -2.787  1.00  0.00    +0.000 C 
ATOM     86  F12 UNL A   1      16.930  57.539  -3.785  1.00  0.00    +0.000 F 
ATOM     87  C59 UNL A   1      18.993  57.351  -2.650  1.00  0.00    +0.000 C 
ATOM     88  F13 UNL A   1      19.559  58.215  -3.505  1.00  0.00    +0.000 F 
ATOM     89  C60 UNL A   1      19.745  56.787  -1.632  1.00  0.00    +0.000 C 
ATOM     90  F14 UNL A   1      21.035  57.122  -1.486  1.00  0.00    +0.000 F 
ATOM     91  C61 UNL A   1      19.162  55.876  -0.756  1.00  0.00    +0.000 C 
ATOM     92  F15 UNL A   1      19.915  55.341   0.217  1.00  0.00    +0.000 F 
ENDBRANCH   81   82
TORSDOF 20
ENDMDL
MODEL 5
REMARK VINA RESULT:      -9.1      2.378      4.632
ROOT
ATOM    136  H33 UNL A   1      18.342  50.767  -2.441  1.00  0.00    +0.000 H 
ATOM    137  H34 UNL A   1      18.846  53.292  -2.031  1.00  0.00    +0.000 H 
ATOM    138  H35 UNL A   1      16.103  52.034   0.804  1.00  0.00    +0.000 H 
ATOM    139  H36 UNL A   1      12.199  53.387   5.659  1.00  0.00    +0.000 H 
ATOM    140  H37 UNL A   1      11.866  50.884   5.389  1.00  0.00    +0.000 H 
ATOM    141  H38 UNL A   1      14.598  52.115   2.509  1.00  0.00    +0.000 H 
ATOM    142  H39 UNL A   1      15.411  56.994   3.397  1.00  0.00    +0.000 H 
ATOM    143  H40 UNL A   1      16.980  56.965   1.375  1.00  0.00    +0.000 H 
ATOM    144  H41 UNL A   1      15.349  47.117   0.127  1.00  0.00    +0.000 H 
ATOM    145  H42 UNL A   1      13.571  47.182   1.969  1.00  0.00    +0.000 H 
ATOM     45  C32 UNL A   1      13.305  49.734   3.219  1.00  0.00    +0.000 C 
ATOM     46  C33 UNL A   1      14.193  49.361   2.067  1.00  0.00    +0.000 C 
ATOM     47  N9  UNL A   1      15.021  50.114   1.386  1.00  0.00    +0.000 N 
ATOM     48  C34 UNL A   1      15.610  49.280   0.446  1.00  0.00    +0.000 C 
ATOM     49  C35 UNL A   1      16.517  49.597  -0.510  1.00  0.00    +0.000 C 
ATOM     61  C42 UNL A   1      17.045  50.921  -0.725  1.00  0.00    +0.000 C 
ATOM     62  C43 UNL A   1      17.937  51.350  -1.693  1.00  0.00    +0.000 C 
ATOM     63  C44 UNL A   1      18.195  52.709  -1.482  1.00  0.00    +0.000 C 
ATOM     64  C45 UNL A   1      17.428  53.139  -0.412  1.00  0.00    +0.000 C 
ATOM     65  N10 UNL A   1      16.729  52.032   0.046  1.00  0.00    +0.000 N 
ATOM     66  C46 UNL A   1      17.340  54.461   0.154  1.00  0.00    +0.000 C 
ATOM     78  C53 UNL A   1      16.540  54.814   1.190  1.00  0.00    +0.000 C 
ATOM     79  N11 UNL A   1      15.666  54.027   1.923  1.00  0.00    +0.000 N 
ATOM     80  C54 UNL A   1      15.145  54.816   2.829  1.00  0.00    +0.000 C 
ATOM     81  C55 UNL A   1      14.129  54.500   3.887  1.00  0.00    +0.000 C 
ATOM     93  C62 UNL A   1      13.656  53.244   3.985  1.00  0.00    +0.000 C 
ATOM     94  C63 UNL A   1      12.672  52.790   4.962  1.00  0.00    +0.000 C 
ATOM     95  C64 UNL A   1      12.483  51.472   4.807  1.00  0.00    +0.000 C 
ATOM     96  C65 UNL A   1      13.291  50.999   3.681  1.00  0.00    +0.000 C 
ATOM     97  N12 UNL A   1      13.961  52.119   3.260  1.00  0.00    +0.000 N 
ATOM     98  C66 UNL A   1      15.641  56.197   2.783  1.00  0.00    +0.000 C 
ATOM     99  C67 UNL A   1      16.461  56.151   1.743  1.00  0.00    +0.000 C 
ATOM    100  C68 UNL A   1      15.065  47.955   0.658  1.00  0.00    +0.000 C 
ATOM    101  C69 UNL A   1      14.154  47.959   1.622  1.00  0.00    +0.000 C 
ENDROOT
BRANCH   45   44
ATOM    102  C70 UNL A   1      12.876  47.885   4.873  1.00  0.00    +0.000 C 
ATOM    103  C71 UNL A   1      12.007  46.972   5.478  1.00  0.00    +0.000 C 
ATOM    134  H31 UNL A   1       9.165  47.882   3.948  1.00  0.00    +0.000 H 
ATOM     41  C28 UNL A   1      10.660  46.937   5.102  1.00  0.00    +0.000 C 
ATOM     42  C29 UNL A   1      10.175  47.844   4.156  1.00  0.00    +0.000 C 
ATOM     43  C30 UNL A   1      11.054  48.696   3.498  1.00  0.00    +0.000 C 
ATOM    135  H32 UNL A   1      10.709  49.304   2.739  1.00  0.00    +0.000 H 
ATOM     44  C31 UNL A   1      12.411  48.737   3.861  1.00  0.00    +0.000 C 
ATOM    146  H43 UNL A   1      13.863  47.930   5.171  1.00  0.00    +0.000 H 
ATOM    147  H44 UNL A   1      12.357  46.326   6.203  1.00  0.00    +0.000 H 
BRANCH   41    2
ATOM      1  O1  UNL A   1       8.681  45.684   5.211  1.00  0.00    +0.000 O 
ATOM      2  C1  UNL A   1       9.765  45.940   5.729  1.00  0.00    +0.000 C 
BRANCH    2    3
ATOM      3  N1  UNL A   1      10.135  45.326   6.900  1.00  0.00    +0.000 N 
ATOM    104  H1  UNL A   1      10.431  44.391   6.813  1.00  0.00    +0.000 H 
BRANCH    3    4
ATOM    105  H2  UNL A   1      11.062  46.406   8.391  1.00  0.00    +0.000 H 
ATOM    106  H3  UNL A   1      10.073  45.034   8.924  1.00  0.00    +0.000 H 
ATOM      4  C2  UNL A   1      10.152  45.862   8.251  1.00  0.00    +0.000 C 
BRANCH    4    5
ATOM    107  H4  UNL A   1       8.401  46.360   9.326  1.00  0.00    +0.000 H 
ATOM    108  H5  UNL A   1       8.450  46.892   7.615  1.00  0.00    +0.000 H 
ATOM      5  C3  UNL A   1       8.982  46.794   8.539  1.00  0.00    +0.000 C 
BRANCH    5    6
ATOM    110  H7  UNL A   1       8.579  48.536   9.618  1.00  0.00    +0.000 H 
ATOM    109  H6  UNL A   1      10.326  48.176   9.411  1.00  0.00    +0.000 H 
ATOM      6  C4  UNL A   1       9.357  48.213   8.958  1.00  0.00    +0.000 C 
BRANCH    6    7
ATOM    111  H8  UNL A   1       8.785  50.076   8.125  1.00  0.00    +0.000 H 
ATOM      7  C5  UNL A   1       9.406  49.254   7.835  1.00  0.00    +0.000 C 
ATOM    112  H9  UNL A   1       9.076  48.740   6.956  1.00  0.00    +0.000 H 
BRANCH    7    8
ATOM    113  H10 UNL A   1      10.724  50.283   6.529  1.00  0.00    +0.000 H 
ATOM    114  H11 UNL A   1      11.457  48.976   7.518  1.00  0.00    +0.000 H 
ATOM      8  C6  UNL A   1      10.790  49.813   7.488  1.00  0.00    +0.000 C 
BRANCH    8    9
ATOM      9  C7  UNL A   1      11.359  50.832   8.471  1.00  0.00    +0.000 C 
ATOM    115  H12 UNL A   1      12.427  50.780   8.439  1.00  0.00    +0.000 H 
ATOM    116  H13 UNL A   1      10.982  50.593   9.443  1.00  0.00    +0.000 H 
BRANCH    9   10
ATOM     10  N2  UNL A   1      10.951  52.192   8.162  1.00  0.00    +0.000 N 
ATOM    117  H14 UNL A   1      11.425  52.620   7.413  1.00  0.00    +0.000 H 
BRANCH   10   11
ATOM     11  C8  UNL A   1       9.992  52.958   8.775  1.00  0.00    +0.000 C 
ATOM     12  O2  UNL A   1       8.807  52.645   8.697  1.00  0.00    +0.000 O 
BRANCH   11   13
ATOM     13  C9  UNL A   1      10.374  54.147   9.567  1.00  0.00    +0.000 C 
ATOM     14  C10 UNL A   1      10.361  55.378   8.897  1.00  0.00    +0.000 C 
ATOM     15  C11 UNL A   1      10.707  56.544   9.575  1.00  0.00    +0.000 C 
ATOM     16  C12 UNL A   1      11.058  56.481  10.919  1.00  0.00    +0.000 C 
ATOM     17  C13 UNL A   1      11.088  55.250  11.583  1.00  0.00    +0.000 C 
ATOM     18  C14 UNL A   1      10.776  54.055  10.915  1.00  0.00    +0.000 C 
ATOM    118  H15 UNL A   1      10.095  55.421   7.901  1.00  0.00    +0.000 H 
ATOM    119  H16 UNL A   1      10.702  57.450   9.082  1.00  0.00    +0.000 H 
ATOM    120  H17 UNL A   1      11.298  57.346  11.429  1.00  0.00    +0.000 H 
ATOM    121  H18 UNL A   1      11.344  55.220  12.583  1.00  0.00    +0.000 H 
BRANCH   18   19
ATOM    122  H19 UNL A   1      10.048  52.328  11.727  1.00  0.00    +0.000 H 
ATOM     19  N3  UNL A   1      10.893  52.799  11.549  1.00  0.00    +0.000 N 
BRANCH   19   20
ATOM     40  N8  UNL A   1      13.117  52.314  11.180  1.00  0.00    +0.000 N 
ATOM     20  C15 UNL A   1      12.052  52.141  11.954  1.00  0.00    +0.000 C 
ATOM     21  N4  UNL A   1      12.036  51.378  13.034  1.00  0.00    +0.000 N 
ATOM     22  C16 UNL A   1      13.192  50.784  13.278  1.00  0.00    +0.000 C 
ATOM     23 Cl1  UNL A   1      13.240  49.779  14.660  1.00  0.00    +0.000 Cl
ATOM     24  N5  UNL A   1      14.317  50.893  12.598  1.00  0.00    +0.000 N 
ATOM     25  C17 UNL A   1      14.235  51.697  11.551  1.00  0.00    +0.000 C 
BRANCH   25   26
ATOM     26  N6  UNL A   1      15.370  52.017  10.797  1.00  0.00    +0.000 N 
ATOM    123  H20 UNL A   1      16.016  52.645  11.195  1.00  0.00    +0.000 H 
BRANCH   26   27
ATOM    132  H29 UNL A   1      17.956  49.712   7.864  1.00  0.00    +0.000 H 
ATOM    133  H30 UNL A   1      17.447  50.550  10.075  1.00  0.00    +0.000 H 
ATOM     38  C26 UNL A   1      17.122  50.304   8.007  1.00  0.00    +0.000 C 
ATOM     39  C27 UNL A   1      16.813  50.766   9.289  1.00  0.00    +0.000 C 
ATOM    124  H21 UNL A   1      13.998  52.414   8.580  1.00  0.00    +0.000 H 
ATOM    125  H22 UNL A   1      14.582  51.697   6.340  1.00  0.00    +0.000 H 
ATOM     27  C18 UNL A   1      15.660  51.517   9.519  1.00  0.00    +0.000 C 
ATOM     28  C19 UNL A   1      14.848  51.850   8.429  1.00  0.00    +0.000 C 
ATOM     29  C20 UNL A   1      15.179  51.425   7.137  1.00  0.00    +0.000 C 
ATOM     30  C21 UNL A   1      16.313  50.633   6.914  1.00  0.00    +0.000 C 
BRANCH   30   31
ATOM     33  C23 UNL A   1      17.483  50.743   3.307  1.00  0.00    +0.000 C 
ATOM    129  H26 UNL A   1      16.502  50.743   2.878  1.00  0.00    +0.000 H 
ATOM     35  C24 UNL A   1      17.190  48.501   3.860  1.00  0.00    +0.000 C 
ATOM     36  C25 UNL A   1      16.646  48.843   5.259  1.00  0.00    +0.000 C 
ATOM     37  O4  UNL A   1      16.151  47.951   5.951  1.00  0.00    +0.000 O 
ATOM     34  O3  UNL A   1      18.042  49.436   3.221  1.00  0.00    +0.000 O 
ATOM    130  H27 UNL A   1      17.734  47.585   3.947  1.00  0.00    +0.000 H 
ATOM    131  H28 UNL A   1      16.319  48.474   3.239  1.00  0.00    +0.000 H 
ATOM    127  H24 UNL A   1      16.889  52.096   4.810  1.00  0.00    +0.000 H 
ATOM    128  H25 UNL A   1      18.102  51.433   2.771  1.00  0.00    +0.000 H 
ATOM    126  H23 UNL A   1      18.397  51.230   5.158  1.00  0.00    +0.000 H 
ATOM     31  N7  UNL A   1      16.645  50.206   5.594  1.00  0.00    +0.000 N 
ATOM     32  C22 UNL A   1      17.403  51.158   4.770  1.00  0.00    +0.000 C 
ENDBRANCH   30   31
ENDBRANCH   26   27
ENDBRANCH   25   26
ENDBRANCH   19   20
ENDBRANCH   18   19
ENDBRANCH   11   13
ENDBRANCH   10   11
ENDBRANCH    9   10
ENDBRANCH    8    9
ENDBRANCH    7    8
ENDBRANCH    6    7
ENDBRANCH    5    6
ENDBRANCH    4    5
ENDBRANCH    3    4
ENDBRANCH    2    3
ENDBRANCH   41    2
ENDBRANCH   45   44
BRANCH   49   50
ATOM     50  C36 UNL A   1      17.015  48.491  -1.396  1.00  0.00    +0.000 C 
ATOM     51  C37 UNL A   1      18.120  47.704  -1.040  1.00  0.00    +0.000 C 
ATOM     52  F1  UNL A   1      18.804  47.968   0.083  1.00  0.00    +0.000 F 
ATOM     53  C38 UNL A   1      18.544  46.655  -1.854  1.00  0.00    +0.000 C 
ATOM     54  F2  UNL A   1      19.622  45.936  -1.510  1.00  0.00    +0.000 F 
ATOM     55  C39 UNL A   1      17.855  46.354  -3.019  1.00  0.00    +0.000 C 
ATOM     56  F3  UNL A   1      18.256  45.337  -3.794  1.00  0.00    +0.000 F 
ATOM     57  C40 UNL A   1      16.753  47.111  -3.383  1.00  0.00    +0.000 C 
ATOM     58  F4  UNL A   1      16.077  46.815  -4.502  1.00  0.00    +0.000 F 
ATOM     59  C41 UNL A   1      16.342  48.176  -2.586  1.00  0.00    +0.000 C 
ATOM     60  F5  UNL A   1      15.273  48.893  -2.967  1.00  0.00    +0.000 F 
ENDBRANCH   49   50
BRANCH   66   67
ATOM     67  C47 UNL A   1      18.179  55.545  -0.456  1.00  0.00    +0.000 C 
ATOM     68  C48 UNL A   1      17.763  56.237  -1.603  1.00  0.00    +0.000 C 
ATOM     69  F6  UNL A   1      16.608  55.911  -2.205  1.00  0.00    +0.000 F 
ATOM     70  C49 UNL A   1      18.554  57.236  -2.160  1.00  0.00    +0.000 C 
ATOM     71  F7  UNL A   1      18.161  57.850  -3.286  1.00  0.00    +0.000 F 
ATOM     72  C50 UNL A   1      19.758  57.584  -1.566  1.00  0.00    +0.000 C 
ATOM     73  F8  UNL A   1      20.518  58.547  -2.105  1.00  0.00    +0.000 F 
ATOM     74  C51 UNL A   1      20.179  56.927  -0.420  1.00  0.00    +0.000 C 
ATOM     75  F9  UNL A   1      21.338  57.268   0.161  1.00  0.00    +0.000 F 
ATOM     76  C52 UNL A   1      19.403  55.909   0.126  1.00  0.00    +0.000 C 
ATOM     77  F10 UNL A   1      19.843  55.278   1.224  1.00  0.00    +0.000 F 
ENDBRANCH   66   67
BRANCH   81   82
ATOM     82  C56 UNL A   1      13.637  55.543   4.822  1.00  0.00    +0.000 C 
ATOM     83  C57 UNL A   1      12.657  56.463   4.426  1.00  0.00    +0.000 C 
ATOM     84  F11 UNL A   1      12.177  56.432   3.174  1.00  0.00    +0.000 F 
ATOM     85  C58 UNL A   1      12.190  57.437   5.305  1.00  0.00    +0.000 C 
ATOM     86  F12 UNL A   1      11.278  58.328   4.890  1.00  0.00    +0.000 F 
ATOM     87  C59 UNL A   1      12.672  57.491   6.604  1.00  0.00    +0.000 C 
ATOM     88  F13 UNL A   1      12.213  58.422   7.453  1.00  0.00    +0.000 F 
ATOM     89  C60 UNL A   1      13.633  56.584   7.021  1.00  0.00    +0.000 C 
ATOM     90  F14 UNL A   1      14.089  56.621   8.281  1.00  0.00    +0.000 F 
ATOM     91  C61 UNL A   1      14.123  55.629   6.135  1.00  0.00    +0.000 C 
ATOM     92  F15 UNL A   1      15.057  54.767   6.563  1.00  0.00    +0.000 F 
ENDBRANCH   81   82
TORSDOF 20
ENDMDL
MODEL 6
REMARK VINA RESULT:      -9.1     33.130     37.964
ROOT
ATOM    136  H33 UNL A   1      50.035  57.273  16.454  1.00  0.00    +0.000 H 
ATOM    137  H34 UNL A   1      52.050  56.982  18.083  1.00  0.00    +0.000 H 
ATOM    138  H35 UNL A   1      49.641  53.628  18.380  1.00  0.00    +0.000 H 
ATOM    139  H36 UNL A   1      48.292  48.057  21.170  1.00  0.00    +0.000 H 
ATOM    140  H37 UNL A   1      46.446  48.246  19.438  1.00  0.00    +0.000 H 
ATOM    141  H38 UNL A   1      48.822  51.643  19.131  1.00  0.00    +0.000 H 
ATOM    142  H39 UNL A   1      52.607  50.955  22.364  1.00  0.00    +0.000 H 
ATOM    143  H40 UNL A   1      53.455  53.264  21.657  1.00  0.00    +0.000 H 
ATOM    144  H41 UNL A   1      45.913  54.122  15.055  1.00  0.00    +0.000 H 
ATOM    145  H42 UNL A   1      44.896  51.944  15.940  1.00  0.00    +0.000 H 
ATOM     45  C32 UNL A   1      46.478  50.670  17.945  1.00  0.00    +0.000 C 
ATOM     46  C33 UNL A   1      46.735  51.984  17.266  1.00  0.00    +0.000 C 
ATOM     47  N9  UNL A   1      47.723  52.826  17.448  1.00  0.00    +0.000 N 
ATOM     48  C34 UNL A   1      47.503  53.869  16.558  1.00  0.00    +0.000 C 
ATOM     49  C35 UNL A   1      48.235  54.996  16.384  1.00  0.00    +0.000 C 
ATOM     61  C42 UNL A   1      49.422  55.320  17.135  1.00  0.00    +0.000 C 
ATOM     62  C43 UNL A   1      50.209  56.456  17.060  1.00  0.00    +0.000 C 
ATOM     63  C44 UNL A   1      51.282  56.308  17.946  1.00  0.00    +0.000 C 
ATOM     64  C45 UNL A   1      51.138  55.099  18.608  1.00  0.00    +0.000 C 
ATOM     65  N10 UNL A   1      49.994  54.502  18.100  1.00  0.00    +0.000 N 
ATOM     66  C46 UNL A   1      51.982  54.530  19.628  1.00  0.00    +0.000 C 
ATOM     78  C53 UNL A   1      51.759  53.348  20.254  1.00  0.00    +0.000 C 
ATOM     79  N11 UNL A   1      50.724  52.445  20.067  1.00  0.00    +0.000 N 
ATOM     80  C54 UNL A   1      50.963  51.450  20.884  1.00  0.00    +0.000 C 
ATOM     81  C55 UNL A   1      50.164  50.200  21.111  1.00  0.00    +0.000 C 
ATOM     93  C62 UNL A   1      49.042  50.002  20.396  1.00  0.00    +0.000 C 
ATOM     94  C63 UNL A   1      48.171  48.837  20.506  1.00  0.00    +0.000 C 
ATOM     95  C64 UNL A   1      47.186  48.947  19.603  1.00  0.00    +0.000 C 
ATOM     96  C65 UNL A   1      47.326  50.217  18.889  1.00  0.00    +0.000 C 
ATOM     97  N12 UNL A   1      48.460  50.773  19.421  1.00  0.00    +0.000 N 
ATOM     98  C66 UNL A   1      52.189  51.603  21.677  1.00  0.00    +0.000 C 
ATOM     99  C67 UNL A   1      52.616  52.793  21.282  1.00  0.00    +0.000 C 
ATOM    100  C68 UNL A   1      46.302  53.544  15.817  1.00  0.00    +0.000 C 
ATOM    101  C69 UNL A   1      45.766  52.408  16.245  1.00  0.00    +0.000 C 
ENDROOT
BRANCH   45   44
ATOM    102  C70 UNL A   1      45.365  48.758  16.744  1.00  0.00    +0.000 C 
ATOM    103  C71 UNL A   1      44.230  47.989  16.471  1.00  0.00    +0.000 C 
ATOM    134  H31 UNL A   1      42.086  49.478  18.576  1.00  0.00    +0.000 H 
ATOM     41  C28 UNL A   1      43.018  48.285  17.104  1.00  0.00    +0.000 C 
ATOM     42  C29 UNL A   1      42.954  49.319  18.040  1.00  0.00    +0.000 C 
ATOM     43  C30 UNL A   1      44.061  50.134  18.251  1.00  0.00    +0.000 C 
ATOM    135  H32 UNL A   1      43.986  50.950  18.878  1.00  0.00    +0.000 H 
ATOM     44  C31 UNL A   1      45.283  49.852  17.617  1.00  0.00    +0.000 C 
ATOM    146  H43 UNL A   1      46.266  48.521  16.299  1.00  0.00    +0.000 H 
ATOM    147  H44 UNL A   1      44.286  47.202  15.805  1.00  0.00    +0.000 H 
BRANCH   41    2
ATOM      1  O1  UNL A   1      41.058  47.860  15.890  1.00  0.00    +0.000 O 
ATOM      2  C1  UNL A   1      41.821  47.481  16.774  1.00  0.00    +0.000 C 
BRANCH    2    3
ATOM      3  N1  UNL A   1      41.553  46.331  17.475  1.00  0.00    +0.000 N 
ATOM    104  H1  UNL A   1      41.086  46.456  18.332  1.00  0.00    +0.000 H 
BRANCH    3    4
ATOM    105  H2  UNL A   1      42.232  44.929  16.125  1.00  0.00    +0.000 H 
ATOM    106  H3  UNL A   1      40.959  44.388  17.236  1.00  0.00    +0.000 H 
ATOM      4  C2  UNL A   1      41.861  44.954  17.128  1.00  0.00    +0.000 C 
BRANCH    4    5
ATOM    107  H4  UNL A   1      43.528  43.694  17.449  1.00  0.00    +0.000 H 
ATOM    108  H5  UNL A   1      42.352  43.800  18.798  1.00  0.00    +0.000 H 
ATOM      5  C3  UNL A   1      42.902  44.325  18.045  1.00  0.00    +0.000 C 
BRANCH    5    6
ATOM    110  H7  UNL A   1      43.944  46.134  18.127  1.00  0.00    +0.000 H 
ATOM    109  H6  UNL A   1      43.313  45.566  19.710  1.00  0.00    +0.000 H 
ATOM      6  C4  UNL A   1      43.801  45.309  18.793  1.00  0.00    +0.000 C 
BRANCH    6    7
ATOM    111  H8  UNL A   1      45.614  45.457  19.880  1.00  0.00    +0.000 H 
ATOM      7  C5  UNL A   1      45.206  44.805  19.136  1.00  0.00    +0.000 C 
ATOM    112  H9  UNL A   1      45.743  44.802  18.210  1.00  0.00    +0.000 H 
BRANCH    7    8
ATOM    113  H10 UNL A   1      46.075  42.869  19.126  1.00  0.00    +0.000 H 
ATOM    114  H11 UNL A   1      44.328  42.945  19.531  1.00  0.00    +0.000 H 
ATOM      8  C6  UNL A   1      45.301  43.371  19.668  1.00  0.00    +0.000 C 
BRANCH    8    9
ATOM      9  C7  UNL A   1      45.606  43.234  21.157  1.00  0.00    +0.000 C 
ATOM    115  H12 UNL A   1      46.650  43.413  21.311  1.00  0.00    +0.000 H 
ATOM    116  H13 UNL A   1      45.328  42.246  21.457  1.00  0.00    +0.000 H 
BRANCH    9   10
ATOM     10  N2  UNL A   1      44.850  44.171  21.969  1.00  0.00    +0.000 N 
ATOM    117  H14 UNL A   1      43.880  44.007  22.017  1.00  0.00    +0.000 H 
BRANCH   10   11
ATOM     11  C8  UNL A   1      45.307  45.253  22.678  1.00  0.00    +0.000 C 
ATOM     12  O2  UNL A   1      45.148  46.390  22.241  1.00  0.00    +0.000 O 
BRANCH   11   13
ATOM     13  C9  UNL A   1      45.960  45.068  23.991  1.00  0.00    +0.000 C 
ATOM     14  C10 UNL A   1      45.127  44.711  25.061  1.00  0.00    +0.000 C 
ATOM     15  C11 UNL A   1      45.668  44.517  26.330  1.00  0.00    +0.000 C 
ATOM     16  C12 UNL A   1      47.036  44.674  26.528  1.00  0.00    +0.000 C 
ATOM     17  C13 UNL A   1      47.863  45.048  25.463  1.00  0.00    +0.000 C 
ATOM     18  C14 UNL A   1      47.340  45.282  24.182  1.00  0.00    +0.000 C 
ATOM    118  H15 UNL A   1      44.114  44.591  24.909  1.00  0.00    +0.000 H 
ATOM    119  H16 UNL A   1      45.055  44.258  27.119  1.00  0.00    +0.000 H 
ATOM    120  H17 UNL A   1      47.442  44.514  27.463  1.00  0.00    +0.000 H 
ATOM    121  H18 UNL A   1      48.877  45.154  25.624  1.00  0.00    +0.000 H 
BRANCH   18   19
ATOM    122  H19 UNL A   1      48.204  46.727  23.026  1.00  0.00    +0.000 H 
ATOM     19  N3  UNL A   1      48.150  45.749  23.125  1.00  0.00    +0.000 N 
BRANCH   19   20
ATOM     40  N8  UNL A   1      48.448  45.038  20.951  1.00  0.00    +0.000 N 
ATOM     20  C15 UNL A   1      48.885  45.004  22.204  1.00  0.00    +0.000 C 
ATOM     21  N4  UNL A   1      49.929  44.299  22.607  1.00  0.00    +0.000 N 
ATOM     22  C16 UNL A   1      50.507  43.610  21.638  1.00  0.00    +0.000 C 
ATOM     23 Cl1  UNL A   1      51.862  42.674  22.092  1.00  0.00    +0.000 Cl
ATOM     24  N5  UNL A   1      50.178  43.579  20.360  1.00  0.00    +0.000 N 
ATOM     25  C17 UNL A   1      49.138  44.337  20.056  1.00  0.00    +0.000 C 
BRANCH   25   26
ATOM     26  N6  UNL A   1      48.737  44.511  18.726  1.00  0.00    +0.000 N 
ATOM    123  H20 UNL A   1      48.343  43.735  18.267  1.00  0.00    +0.000 H 
BRANCH   26   27
ATOM    132  H29 UNL A   1      47.559  47.290  15.336  1.00  0.00    +0.000 H 
ATOM    133  H30 UNL A   1      47.335  45.246  16.609  1.00  0.00    +0.000 H 
ATOM     38  C26 UNL A   1      48.194  47.110  16.130  1.00  0.00    +0.000 C 
ATOM     39  C27 UNL A   1      48.047  45.941  16.882  1.00  0.00    +0.000 C 
ATOM    124  H21 UNL A   1      50.466  46.463  19.123  1.00  0.00    +0.000 H 
ATOM    125  H22 UNL A   1      50.787  48.443  17.763  1.00  0.00    +0.000 H 
ATOM     27  C18 UNL A   1      48.854  45.703  17.995  1.00  0.00    +0.000 C 
ATOM     28  C19 UNL A   1      49.854  46.630  18.310  1.00  0.00    +0.000 C 
ATOM     29  C20 UNL A   1      50.031  47.779  17.532  1.00  0.00    +0.000 C 
ATOM     30  C21 UNL A   1      49.191  48.040  16.441  1.00  0.00    +0.000 C 
BRANCH   30   31
ATOM     33  C23 UNL A   1      48.777  50.581  13.654  1.00  0.00    +0.000 C 
ATOM    129  H26 UNL A   1      49.644  50.277  13.104  1.00  0.00    +0.000 H 
ATOM     35  C24 UNL A   1      50.181  51.538  15.245  1.00  0.00    +0.000 C 
ATOM     36  C25 UNL A   1      50.199  50.260  16.103  1.00  0.00    +0.000 C 
ATOM     37  O4  UNL A   1      50.986  50.175  17.048  1.00  0.00    +0.000 O 
ATOM     34  O3  UNL A   1      49.070  51.763  14.393  1.00  0.00    +0.000 O 
ATOM    130  H27 UNL A   1      50.239  52.369  15.916  1.00  0.00    +0.000 H 
ATOM    131  H28 UNL A   1      51.005  51.416  14.575  1.00  0.00    +0.000 H 
ATOM    127  H24 UNL A   1      48.252  48.579  14.048  1.00  0.00    +0.000 H 
ATOM    128  H25 UNL A   1      47.976  50.776  12.971  1.00  0.00    +0.000 H 
ATOM    126  H23 UNL A   1      47.457  49.764  15.100  1.00  0.00    +0.000 H 
ATOM     31  N7  UNL A   1      49.380  49.214  15.651  1.00  0.00    +0.000 N 
ATOM     32  C22 UNL A   1      48.368  49.476  14.619  1.00  0.00    +0.000 C 
ENDBRANCH   30   31
ENDBRANCH   26   27
ENDBRANCH   25   26
ENDBRANCH   19   20
ENDBRANCH   18   19
ENDBRANCH   11   13
ENDBRANCH   10   11
ENDBRANCH    9   10
ENDBRANCH    8    9
ENDBRANCH    7    8
ENDBRANCH    6    7
ENDBRANCH    5    6
ENDBRANCH    4    5
ENDBRANCH    3    4
ENDBRANCH    2    3
ENDBRANCH   41    2
ENDBRANCH   45   44
BRANCH   49   50
ATOM     50  C36 UNL A   1      47.786  55.966  15.329  1.00  0.00    +0.000 C 
ATOM     51  C37 UNL A   1      47.036  57.107  15.650  1.00  0.00    +0.000 C 
ATOM     52  F1  UNL A   1      46.643  57.324  16.914  1.00  0.00    +0.000 F 
ATOM     53  C38 UNL A   1      46.663  58.019  14.665  1.00  0.00    +0.000 C 
ATOM     54  F2  UNL A   1      45.918  59.086  14.989  1.00  0.00    +0.000 F 
ATOM     55  C39 UNL A   1      47.056  57.825  13.349  1.00  0.00    +0.000 C 
ATOM     56  F3  UNL A   1      46.707  58.710  12.405  1.00  0.00    +0.000 F 
ATOM     57  C40 UNL A   1      47.809  56.711  13.012  1.00  0.00    +0.000 C 
ATOM     58  F4  UNL A   1      48.202  56.528  11.744  1.00  0.00    +0.000 F 
ATOM     59  C41 UNL A   1      48.162  55.784  13.989  1.00  0.00    +0.000 C 
ATOM     60  F5  UNL A   1      48.887  54.714  13.631  1.00  0.00    +0.000 F 
ENDBRANCH   49   50
BRANCH   66   67
ATOM     67  C47 UNL A   1      53.193  55.306  20.053  1.00  0.00    +0.000 C 
ATOM     68  C48 UNL A   1      53.136  56.240  21.098  1.00  0.00    +0.000 C 
ATOM     69  F6  UNL A   1      51.972  56.487  21.719  1.00  0.00    +0.000 F 
ATOM     70  C49 UNL A   1      54.267  56.956  21.478  1.00  0.00    +0.000 C 
ATOM     71  F7  UNL A   1      54.177  57.881  22.445  1.00  0.00    +0.000 F 
ATOM     72  C50 UNL A   1      55.480  56.730  20.845  1.00  0.00    +0.000 C 
ATOM     73  F8  UNL A   1      56.567  57.421  21.213  1.00  0.00    +0.000 F 
ATOM     74  C51 UNL A   1      55.563  55.797  19.823  1.00  0.00    +0.000 C 
ATOM     75  F9  UNL A   1      56.737  55.570  19.217  1.00  0.00    +0.000 F 
ATOM     76  C52 UNL A   1      54.429  55.097  19.422  1.00  0.00    +0.000 C 
ATOM     77  F10 UNL A   1      54.535  54.213  18.420  1.00  0.00    +0.000 F 
ENDBRANCH   66   67
BRANCH   81   82
ATOM     82  C56 UNL A   1      50.588  49.184  22.107  1.00  0.00    +0.000 C 
ATOM     83  C57 UNL A   1      51.472  48.155  21.756  1.00  0.00    +0.000 C 
ATOM     84  F11 UNL A   1      51.918  48.056  20.495  1.00  0.00    +0.000 F 
ATOM     85  C58 UNL A   1      51.877  47.206  22.692  1.00  0.00    +0.000 C 
ATOM     86  F12 UNL A   1      52.695  46.210  22.323  1.00  0.00    +0.000 F 
ATOM     87  C59 UNL A   1      51.428  47.285  24.003  1.00  0.00    +0.000 C 
ATOM     88  F13 UNL A   1      51.828  46.378  24.905  1.00  0.00    +0.000 F 
ATOM     89  C60 UNL A   1      50.563  48.302  24.375  1.00  0.00    +0.000 C 
ATOM     90  F14 UNL A   1      50.141  48.392  25.644  1.00  0.00    +0.000 F 
ATOM     91  C61 UNL A   1      50.134  49.233  23.433  1.00  0.00    +0.000 C 
ATOM     92  F15 UNL A   1      49.292  50.202  23.819  1.00  0.00    +0.000 F 
ENDBRANCH   81   82
TORSDOF 20
ENDMDL
MODEL 7
REMARK VINA RESULT:      -9.0      3.447      7.992
ROOT
ATOM    136  H33 UNL A   1      13.444  46.468   2.655  1.00  0.00    +0.000 H 
ATOM    137  H34 UNL A   1      15.099  46.648   0.649  1.00  0.00    +0.000 H 
ATOM    138  H35 UNL A   1      14.907  50.340   2.513  1.00  0.00    +0.000 H 
ATOM    139  H36 UNL A   1      16.539  56.499   2.695  1.00  0.00    +0.000 H 
ATOM    140  H37 UNL A   1      15.090  56.271   4.767  1.00  0.00    +0.000 H 
ATOM    141  H38 UNL A   1      15.234  52.557   2.907  1.00  0.00    +0.000 H 
ATOM    142  H39 UNL A   1      18.403  53.088  -0.956  1.00  0.00    +0.000 H 
ATOM    143  H40 UNL A   1      17.917  50.639  -1.520  1.00  0.00    +0.000 H 
ATOM    144  H41 UNL A   1      11.901  49.882   6.507  1.00  0.00    +0.000 H 
ATOM    145  H42 UNL A   1      12.155  52.395   6.930  1.00  0.00    +0.000 H 
ATOM     45  C32 UNL A   1      13.949  53.687   5.125  1.00  0.00    +0.000 C 
ATOM     46  C33 UNL A   1      13.517  52.250   5.122  1.00  0.00    +0.000 C 
ATOM     47  N9  UNL A   1      13.855  51.289   4.298  1.00  0.00    +0.000 N 
ATOM     48  C34 UNL A   1      13.197  50.152   4.747  1.00  0.00    +0.000 C 
ATOM     49  C35 UNL A   1      13.205  48.907   4.212  1.00  0.00    +0.000 C 
ATOM     61  C42 UNL A   1      13.931  48.537   3.023  1.00  0.00    +0.000 C 
ATOM     62  C43 UNL A   1      13.970  47.311   2.380  1.00  0.00    +0.000 C 
ATOM     63  C44 UNL A   1      14.846  47.412   1.293  1.00  0.00    +0.000 C 
ATOM     64  C45 UNL A   1      15.317  48.714   1.231  1.00  0.00    +0.000 C 
ATOM     65  N10 UNL A   1      14.750  49.393   2.299  1.00  0.00    +0.000 N 
ATOM     66  C46 UNL A   1      16.220  49.295   0.269  1.00  0.00    +0.000 C 
ATOM     78  C53 UNL A   1      16.615  50.592   0.256  1.00  0.00    +0.000 C 
ATOM     79  N11 UNL A   1      16.271  51.616   1.125  1.00  0.00    +0.000 N 
ATOM     80  C54 UNL A   1      16.927  52.672   0.712  1.00  0.00    +0.000 C 
ATOM     81  C55 UNL A   1      16.925  54.064   1.273  1.00  0.00    +0.000 C 
ATOM     93  C62 UNL A   1      16.180  54.331   2.361  1.00  0.00    +0.000 C 
ATOM     94  C63 UNL A   1      16.082  55.631   3.015  1.00  0.00    +0.000 C 
ATOM     95  C64 UNL A   1      15.303  55.514   4.099  1.00  0.00    +0.000 C 
ATOM     96  C65 UNL A   1      14.799  54.141   4.183  1.00  0.00    +0.000 C 
ATOM     97  N12 UNL A   1      15.379  53.509   3.114  1.00  0.00    +0.000 N 
ATOM     98  C66 UNL A   1      17.775  52.435  -0.462  1.00  0.00    +0.000 C 
ATOM     99  C67 UNL A   1      17.520  51.160  -0.722  1.00  0.00    +0.000 C 
ATOM    100  C68 UNL A   1      12.458  50.534   5.933  1.00  0.00    +0.000 C 
ATOM    101  C69 UNL A   1      12.589  51.830   6.184  1.00  0.00    +0.000 C 
ENDROOT
BRANCH   45   44
ATOM    102  C70 UNL A   1      14.174  54.935   7.300  1.00  0.00    +0.000 C 
ATOM    103  C71 UNL A   1      13.686  55.860   8.227  1.00  0.00    +0.000 C 
ATOM    134  H31 UNL A   1      10.958  56.867   6.556  1.00  0.00    +0.000 H 
ATOM     41  C28 UNL A   1      12.482  56.528   7.978  1.00  0.00    +0.000 C 
ATOM     42  C29 UNL A   1      11.794  56.306   6.783  1.00  0.00    +0.000 C 
ATOM     43  C30 UNL A   1      12.239  55.329   5.898  1.00  0.00    +0.000 C 
ATOM    135  H32 UNL A   1      11.682  55.106   5.059  1.00  0.00    +0.000 H 
ATOM     44  C31 UNL A   1      13.442  54.645   6.140  1.00  0.00    +0.000 C 
ATOM    146  H43 UNL A   1      15.076  54.464   7.470  1.00  0.00    +0.000 H 
ATOM    147  H44 UNL A   1      14.212  56.051   9.095  1.00  0.00    +0.000 H 
BRANCH   41    2
ATOM      1  O1  UNL A   1      12.415  58.618   9.038  1.00  0.00    +0.000 O 
ATOM      2  C1  UNL A   1      11.965  57.477   8.989  1.00  0.00    +0.000 C 
BRANCH    2    3
ATOM      3  N1  UNL A   1      11.007  57.071   9.884  1.00  0.00    +0.000 N 
ATOM    104  H1  UNL A   1      10.322  57.743  10.106  1.00  0.00    +0.000 H 
BRANCH    3    4
ATOM    105  H2  UNL A   1      10.346  55.943  11.478  1.00  0.00    +0.000 H 
ATOM    106  H3  UNL A   1      11.841  55.390  10.698  1.00  0.00    +0.000 H 
ATOM      4  C2  UNL A   1      10.859  55.788  10.551  1.00  0.00    +0.000 C 
BRANCH    4    5
ATOM    107  H4  UNL A   1       9.719  55.268   8.849  1.00  0.00    +0.000 H 
ATOM    108  H5  UNL A   1       9.297  54.415  10.368  1.00  0.00    +0.000 H 
ATOM      5  C3  UNL A   1      10.076  54.773   9.728  1.00  0.00    +0.000 C 
BRANCH    5    6
ATOM    110  H7  UNL A   1      10.190  52.711   9.414  1.00  0.00    +0.000 H 
ATOM    109  H6  UNL A   1      11.177  53.693   8.279  1.00  0.00    +0.000 H 
ATOM      6  C4  UNL A   1      10.859  53.537   9.289  1.00  0.00    +0.000 C 
BRANCH    6    7
ATOM    111  H8  UNL A   1      11.767  52.939  11.107  1.00  0.00    +0.000 H 
ATOM      7  C5  UNL A   1      12.098  53.197  10.123  1.00  0.00    +0.000 C 
ATOM    112  H9  UNL A   1      12.719  54.067  10.080  1.00  0.00    +0.000 H 
BRANCH    7    8
ATOM    113  H10 UNL A   1      12.824  51.976   8.547  1.00  0.00    +0.000 H 
ATOM    114  H11 UNL A   1      12.653  51.178  10.146  1.00  0.00    +0.000 H 
ATOM      8  C6  UNL A   1      12.968  52.046   9.605  1.00  0.00    +0.000 C 
BRANCH    8    9
ATOM      9  C7  UNL A   1      14.466  52.177   9.867  1.00  0.00    +0.000 C 
ATOM    115  H12 UNL A   1      14.717  53.216   9.911  1.00  0.00    +0.000 H 
ATOM    116  H13 UNL A   1      14.980  51.681   9.071  1.00  0.00    +0.000 H 
BRANCH    9   10
ATOM     10  N2  UNL A   1      14.870  51.549  11.113  1.00  0.00    +0.000 N 
ATOM    117  H14 UNL A   1      15.037  50.580  11.067  1.00  0.00    +0.000 H 
BRANCH   10   11
ATOM     11  C8  UNL A   1      15.051  52.126  12.344  1.00  0.00    +0.000 C 
ATOM     12  O2  UNL A   1      16.183  52.282  12.794  1.00  0.00    +0.000 O 
BRANCH   11   13
ATOM     13  C9  UNL A   1      13.891  52.602  13.128  1.00  0.00    +0.000 C 
ATOM     14  C10 UNL A   1      13.596  53.970  13.044  1.00  0.00    +0.000 C 
ATOM     15  C11 UNL A   1      12.517  54.495  13.752  1.00  0.00    +0.000 C 
ATOM     16  C12 UNL A   1      11.733  53.654  14.535  1.00  0.00    +0.000 C 
ATOM     17  C13 UNL A   1      12.038  52.292  14.632  1.00  0.00    +0.000 C 
ATOM     18  C14 UNL A   1      13.139  51.743  13.955  1.00  0.00    +0.000 C 
ATOM    118  H15 UNL A   1      14.179  54.589  12.459  1.00  0.00    +0.000 H 
ATOM    119  H16 UNL A   1      12.302  55.502  13.695  1.00  0.00    +0.000 H 
ATOM    120  H17 UNL A   1      10.922  54.037  15.047  1.00  0.00    +0.000 H 
ATOM    121  H18 UNL A   1      11.442  51.680  15.211  1.00  0.00    +0.000 H 
BRANCH   18   19
ATOM    122  H19 UNL A   1      14.378  50.235  14.557  1.00  0.00    +0.000 H 
ATOM     19  N3  UNL A   1      13.511  50.392  14.119  1.00  0.00    +0.000 N 
BRANCH   19   20
ATOM     40  N8  UNL A   1      12.740  49.014  12.438  1.00  0.00    +0.000 N 
ATOM     20  C15 UNL A   1      12.806  49.250  13.743  1.00  0.00    +0.000 C 
ATOM     21  N4  UNL A   1      12.231  48.494  14.663  1.00  0.00    +0.000 N 
ATOM     22  C16 UNL A   1      11.564  47.468  14.164  1.00  0.00    +0.000 C 
ATOM     23 Cl1  UNL A   1      10.794  46.451  15.300  1.00  0.00    +0.000 Cl
ATOM     24  N5  UNL A   1      11.444  47.122  12.895  1.00  0.00    +0.000 N 
ATOM     25  C17 UNL A   1      12.076  47.927  12.058  1.00  0.00    +0.000 C 
BRANCH   25   26
ATOM     26  N6  UNL A   1      12.150  47.631  10.692  1.00  0.00    +0.000 N 
ATOM    123  H20 UNL A   1      13.027  47.364  10.333  1.00  0.00    +0.000 H 
BRANCH   26   27
ATOM    132  H29 UNL A   1       9.703  49.678   7.462  1.00  0.00    +0.000 H 
ATOM    133  H30 UNL A   1      11.572  49.573   8.994  1.00  0.00    +0.000 H 
ATOM     38  C26 UNL A   1       9.798  48.870   8.099  1.00  0.00    +0.000 C 
ATOM     39  C27 UNL A   1      10.892  48.798   8.965  1.00  0.00    +0.000 C 
ATOM    124  H21 UNL A   1      10.223  45.854  10.392  1.00  0.00    +0.000 H 
ATOM    125  H22 UNL A   1       8.274  46.025   8.964  1.00  0.00    +0.000 H 
ATOM     27  C18 UNL A   1      11.075  47.688   9.792  1.00  0.00    +0.000 C 
ATOM     28  C19 UNL A   1      10.109  46.676   9.780  1.00  0.00    +0.000 C 
ATOM     29  C20 UNL A   1       8.990  46.769   8.945  1.00  0.00    +0.000 C 
ATOM     30  C21 UNL A   1       8.830  47.861   8.083  1.00  0.00    +0.000 C 
BRANCH   30   31
ATOM     33  C23 UNL A   1       5.297  47.384   6.782  1.00  0.00    +0.000 C 
ATOM    129  H26 UNL A   1       5.547  46.615   6.080  1.00  0.00    +0.000 H 
ATOM     35  C24 UNL A   1       6.335  48.929   5.384  1.00  0.00    +0.000 C 
ATOM     36  C25 UNL A   1       7.685  48.789   6.112  1.00  0.00    +0.000 C 
ATOM     37  O4  UNL A   1       8.692  49.312   5.628  1.00  0.00    +0.000 O 
ATOM     34  O3  UNL A   1       5.149  48.624   6.098  1.00  0.00    +0.000 O 
ATOM    130  H27 UNL A   1       6.256  49.945   5.058  1.00  0.00    +0.000 H 
ATOM    131  H28 UNL A   1       6.375  48.189   4.613  1.00  0.00    +0.000 H 
ATOM    127  H24 UNL A   1       6.563  46.543   8.242  1.00  0.00    +0.000 H 
ATOM    128  H25 UNL A   1       4.379  47.132   7.269  1.00  0.00    +0.000 H 
ATOM    126  H23 UNL A   1       6.105  48.227   8.553  1.00  0.00    +0.000 H 
ATOM     31  N7  UNL A   1       7.684  47.949   7.236  1.00  0.00    +0.000 N 
ATOM     32  C22 UNL A   1       6.407  47.512   7.817  1.00  0.00    +0.000 C 
ENDBRANCH   30   31
ENDBRANCH   26   27
ENDBRANCH   25   26
ENDBRANCH   19   20
ENDBRANCH   18   19
ENDBRANCH   11   13
ENDBRANCH   10   11
ENDBRANCH    9   10
ENDBRANCH    8    9
ENDBRANCH    7    8
ENDBRANCH    6    7
ENDBRANCH    5    6
ENDBRANCH    4    5
ENDBRANCH    3    4
ENDBRANCH    2    3
ENDBRANCH   41    2
ENDBRANCH   45   44
BRANCH   49   50
ATOM     50  C36 UNL A   1      12.415  47.839   4.912  1.00  0.00    +0.000 C 
ATOM     51  C37 UNL A   1      11.176  47.400   4.422  1.00  0.00    +0.000 C 
ATOM     52  F1  UNL A   1      10.634  47.979   3.340  1.00  0.00    +0.000 F 
ATOM     53  C38 UNL A   1      10.475  46.379   5.060  1.00  0.00    +0.000 C 
ATOM     54  F2  UNL A   1       9.277  45.998   4.593  1.00  0.00    +0.000 F 
ATOM     55  C39 UNL A   1      11.010  45.758   6.178  1.00  0.00    +0.000 C 
ATOM     56  F3  UNL A   1      10.340  44.768   6.783  1.00  0.00    +0.000 F 
ATOM     57  C40 UNL A   1      12.239  46.167   6.672  1.00  0.00    +0.000 C 
ATOM     58  F4  UNL A   1      12.766  45.560   7.745  1.00  0.00    +0.000 F 
ATOM     59  C41 UNL A   1      12.931  47.204   6.052  1.00  0.00    +0.000 C 
ATOM     60  F5  UNL A   1      14.116  47.581   6.556  1.00  0.00    +0.000 F 
ENDBRANCH   49   50
BRANCH   66   67
ATOM     67  C47 UNL A   1      16.753  48.411  -0.819  1.00  0.00    +0.000 C 
ATOM     68  C48 UNL A   1      18.021  47.819  -0.727  1.00  0.00    +0.000 C 
ATOM     69  F6  UNL A   1      18.806  48.067   0.334  1.00  0.00    +0.000 F 
ATOM     70  C49 UNL A   1      18.506  47.006  -1.747  1.00  0.00    +0.000 C 
ATOM     71  F7  UNL A   1      19.741  46.492  -1.661  1.00  0.00    +0.000 F 
ATOM     72  C50 UNL A   1      17.721  46.744  -2.860  1.00  0.00    +0.000 C 
ATOM     73  F8  UNL A   1      18.190  45.961  -3.841  1.00  0.00    +0.000 F 
ATOM     74  C51 UNL A   1      16.457  47.303  -2.962  1.00  0.00    +0.000 C 
ATOM     75  F9  UNL A   1      15.694  47.044  -4.034  1.00  0.00    +0.000 F 
ATOM     76  C52 UNL A   1      15.979  48.138  -1.957  1.00  0.00    +0.000 C 
ATOM     77  F10 UNL A   1      14.759  48.679  -2.090  1.00  0.00    +0.000 F 
ENDBRANCH   66   67
BRANCH   81   82
ATOM     82  C56 UNL A   1      17.726  55.148   0.649  1.00  0.00    +0.000 C 
ATOM     83  C57 UNL A   1      17.256  55.836  -0.477  1.00  0.00    +0.000 C 
ATOM     84  F11 UNL A   1      16.083  55.492  -1.031  1.00  0.00    +0.000 F 
ATOM     85  C58 UNL A   1      18.003  56.858  -1.058  1.00  0.00    +0.000 C 
ATOM     86  F12 UNL A   1      17.548  57.476  -2.157  1.00  0.00    +0.000 F 
ATOM     87  C59 UNL A   1      19.220  57.231  -0.505  1.00  0.00    +0.000 C 
ATOM     88  F13 UNL A   1      19.932  58.223  -1.058  1.00  0.00    +0.000 F 
ATOM     89  C60 UNL A   1      19.698  56.573   0.617  1.00  0.00    +0.000 C 
ATOM     90  F14 UNL A   1      20.865  56.942   1.164  1.00  0.00    +0.000 F 
ATOM     91  C61 UNL A   1      18.966  55.531   1.180  1.00  0.00    +0.000 C 
ATOM     92  F15 UNL A   1      19.456  54.907   2.261  1.00  0.00    +0.000 F 
ENDBRANCH   81   82
TORSDOF 20
ENDMDL
MODEL 8
REMARK VINA RESULT:      -9.0      2.045      4.775
ROOT
ATOM    136  H33 UNL A   1      18.487  50.661  -2.419  1.00  0.00    +0.000 H 
ATOM    137  H34 UNL A   1      19.120  53.176  -2.149  1.00  0.00    +0.000 H 
ATOM    138  H35 UNL A   1      16.050  52.315   0.493  1.00  0.00    +0.000 H 
ATOM    139  H36 UNL A   1      11.818  54.284   4.834  1.00  0.00    +0.000 H 
ATOM    140  H37 UNL A   1      11.343  51.793   4.719  1.00  0.00    +0.000 H 
ATOM    141  H38 UNL A   1      14.404  52.624   2.033  1.00  0.00    +0.000 H 
ATOM    142  H39 UNL A   1      15.459  57.500   2.634  1.00  0.00    +0.000 H 
ATOM    143  H40 UNL A   1      17.201  57.215   0.780  1.00  0.00    +0.000 H 
ATOM    144  H41 UNL A   1      15.032  47.415   0.110  1.00  0.00    +0.000 H 
ATOM    145  H42 UNL A   1      13.101  47.733   1.762  1.00  0.00    +0.000 H 
ATOM     45  C32 UNL A   1      12.894  50.388   2.789  1.00  0.00    +0.000 C 
ATOM     46  C33 UNL A   1      13.856  49.872   1.759  1.00  0.00    +0.000 C 
ATOM     47  N9  UNL A   1      14.792  50.518   1.108  1.00  0.00    +0.000 N 
ATOM     48  C34 UNL A   1      15.408  49.577   0.293  1.00  0.00    +0.000 C 
ATOM     49  C35 UNL A   1      16.418  49.761  -0.591  1.00  0.00    +0.000 C 
ATOM     61  C42 UNL A   1      17.051  51.030  -0.852  1.00  0.00    +0.000 C 
ATOM     62  C43 UNL A   1      18.055  51.325  -1.758  1.00  0.00    +0.000 C 
ATOM     63  C44 UNL A   1      18.384  52.679  -1.624  1.00  0.00    +0.000 C 
ATOM     64  C45 UNL A   1      17.552  53.239  -0.668  1.00  0.00    +0.000 C 
ATOM     65  N10 UNL A   1      16.741  52.216  -0.200  1.00  0.00    +0.000 N 
ATOM     66  C46 UNL A   1      17.503  54.605  -0.212  1.00  0.00    +0.000 C 
ATOM     78  C53 UNL A   1      16.637  55.087   0.713  1.00  0.00    +0.000 C 
ATOM     79  N11 UNL A   1      15.648  54.414   1.414  1.00  0.00    +0.000 N 
ATOM     80  C54 UNL A   1      15.100  55.303   2.205  1.00  0.00    +0.000 C 
ATOM     81  C55 UNL A   1      13.972  55.134   3.180  1.00  0.00    +0.000 C 
ATOM     93  C62 UNL A   1      13.409  53.921   3.324  1.00  0.00    +0.000 C 
ATOM     94  C63 UNL A   1      12.312  53.607   4.233  1.00  0.00    +0.000 C 
ATOM     95  C64 UNL A   1      12.049  52.294   4.158  1.00  0.00    +0.000 C 
ATOM     96  C65 UNL A   1      12.923  51.685   3.153  1.00  0.00    +0.000 C 
ATOM     97  N12 UNL A   1      13.703  52.725   2.717  1.00  0.00    +0.000 N 
ATOM     98  C66 UNL A   1      15.691  56.644   2.105  1.00  0.00    +0.000 C 
ATOM     99  C67 UNL A   1      16.598  56.466   1.155  1.00  0.00    +0.000 C 
ATOM    100  C68 UNL A   1      14.757  48.309   0.548  1.00  0.00    +0.000 C 
ATOM    101  C69 UNL A   1      13.764  48.444   1.417  1.00  0.00    +0.000 C 
ENDROOT
BRANCH   45   44
ATOM    102  C70 UNL A   1      10.600  49.354   2.861  1.00  0.00    +0.000 C 
ATOM    103  C71 UNL A   1       9.673  48.493   3.454  1.00  0.00    +0.000 C 
ATOM    134  H31 UNL A   1      11.632  47.204   5.851  1.00  0.00    +0.000 H 
ATOM     41  C28 UNL A   1      10.035  47.745   4.579  1.00  0.00    +0.000 C 
ATOM     42  C29 UNL A   1      11.337  47.824   5.081  1.00  0.00    +0.000 C 
ATOM     43  C30 UNL A   1      12.234  48.739   4.539  1.00  0.00    +0.000 C 
ATOM    135  H32 UNL A   1      13.166  48.858   4.967  1.00  0.00    +0.000 H 
ATOM     44  C31 UNL A   1      11.880  49.501   3.413  1.00  0.00    +0.000 C 
ATOM    146  H43 UNL A   1      10.341  49.883   2.013  1.00  0.00    +0.000 H 
ATOM    147  H44 UNL A   1       8.721  48.407   3.062  1.00  0.00    +0.000 H 
BRANCH   41    2
ATOM      1  O1  UNL A   1       9.109  45.649   5.075  1.00  0.00    +0.000 O 
ATOM      2  C1  UNL A   1       9.028  46.867   5.213  1.00  0.00    +0.000 C 
BRANCH    2    3
ATOM      3  N1  UNL A   1       7.992  47.415   5.929  1.00  0.00    +0.000 N 
ATOM    104  H1  UNL A   1       7.365  47.969   5.411  1.00  0.00    +0.000 H 
BRANCH    3    4
ATOM    105  H2  UNL A   1       7.944  46.302   7.663  1.00  0.00    +0.000 H 
ATOM    106  H3  UNL A   1       6.649  47.498   7.469  1.00  0.00    +0.000 H 
ATOM      4  C2  UNL A   1       7.691  47.292   7.345  1.00  0.00    +0.000 C 
BRANCH    4    5
ATOM    107  H4  UNL A   1       7.866  48.492   9.077  1.00  0.00    +0.000 H 
ATOM    108  H5  UNL A   1       8.621  49.146   7.588  1.00  0.00    +0.000 H 
ATOM      5  C3  UNL A   1       8.455  48.289   8.207  1.00  0.00    +0.000 C 
BRANCH    5    6
ATOM    110  H7  UNL A   1      10.524  48.195   7.933  1.00  0.00    +0.000 H 
ATOM    109  H6  UNL A   1      10.002  48.232   9.651  1.00  0.00    +0.000 H 
ATOM      6  C4  UNL A   1       9.838  47.834   8.671  1.00  0.00    +0.000 C 
BRANCH    6    7
ATOM    111  H8  UNL A   1       9.260  45.851   8.201  1.00  0.00    +0.000 H 
ATOM      7  C5  UNL A   1      10.058  46.320   8.737  1.00  0.00    +0.000 C 
ATOM    112  H9  UNL A   1      10.090  46.081   9.779  1.00  0.00    +0.000 H 
BRANCH    7    8
ATOM    113  H10 UNL A   1      11.324  45.880   7.092  1.00  0.00    +0.000 H 
ATOM    114  H11 UNL A   1      11.480  44.798   8.516  1.00  0.00    +0.000 H 
ATOM      8  C6  UNL A   1      11.379  45.802   8.158  1.00  0.00    +0.000 C 
BRANCH    8    9
ATOM      9  C7  UNL A   1      12.638  46.533   8.617  1.00  0.00    +0.000 C 
ATOM    115  H12 UNL A   1      13.118  45.947   9.373  1.00  0.00    +0.000 H 
ATOM    116  H13 UNL A   1      12.340  47.490   8.991  1.00  0.00    +0.000 H 
BRANCH    9   10
ATOM     10  N2  UNL A   1      13.578  46.756   7.533  1.00  0.00    +0.000 N 
ATOM    117  H14 UNL A   1      13.279  46.467   6.642  1.00  0.00    +0.000 H 
BRANCH   10   11
ATOM     11  C8  UNL A   1      14.830  47.318   7.587  1.00  0.00    +0.000 C 
ATOM     12  O2  UNL A   1      15.606  47.013   8.490  1.00  0.00    +0.000 O 
BRANCH   11   13
ATOM     13  C9  UNL A   1      15.273  48.264   6.542  1.00  0.00    +0.000 C 
ATOM     14  C10 UNL A   1      16.018  47.725   5.483  1.00  0.00    +0.000 C 
ATOM     15  C11 UNL A   1      16.471  48.553   4.458  1.00  0.00    +0.000 C 
ATOM     16  C12 UNL A   1      16.175  49.911   4.488  1.00  0.00    +0.000 C 
ATOM     17  C13 UNL A   1      15.447  50.452   5.554  1.00  0.00    +0.000 C 
ATOM     18  C14 UNL A   1      15.007  49.646   6.617  1.00  0.00    +0.000 C 
ATOM    118  H15 UNL A   1      16.231  46.716   5.463  1.00  0.00    +0.000 H 
ATOM    119  H16 UNL A   1      17.023  48.158   3.681  1.00  0.00    +0.000 H 
ATOM    120  H17 UNL A   1      16.495  50.524   3.722  1.00  0.00    +0.000 H 
ATOM    121  H18 UNL A   1      15.230  51.461   5.559  1.00  0.00    +0.000 H 
BRANCH   18   19
ATOM    122  H19 UNL A   1      13.371  50.225   7.695  1.00  0.00    +0.000 H 
ATOM     19  N3  UNL A   1      14.354  50.195   7.741  1.00  0.00    +0.000 N 
BRANCH   19   20
ATOM     40  N8  UNL A   1      14.330  51.769   9.427  1.00  0.00    +0.000 N 
ATOM     20  C15 UNL A   1      14.922  50.699   8.910  1.00  0.00    +0.000 C 
ATOM     21  N4  UNL A   1      16.002  50.129   9.418  1.00  0.00    +0.000 N 
ATOM     22  C16 UNL A   1      16.457  50.733  10.503  1.00  0.00    +0.000 C 
ATOM     23 Cl1  UNL A   1      17.854  50.049  11.210  1.00  0.00    +0.000 Cl
ATOM     24  N5  UNL A   1      15.947  51.784  11.118  1.00  0.00    +0.000 N 
ATOM     25  C17 UNL A   1      14.855  52.263  10.545  1.00  0.00    +0.000 C 
BRANCH   25   26
ATOM     26  N6  UNL A   1      14.123  53.297  11.140  1.00  0.00    +0.000 N 
ATOM    123  H20 UNL A   1      14.267  53.459  12.100  1.00  0.00    +0.000 H 
BRANCH   26   27
ATOM    132  H29 UNL A   1       9.899  54.680  10.218  1.00  0.00    +0.000 H 
ATOM    133  H30 UNL A   1      11.490  53.279  11.380  1.00  0.00    +0.000 H 
ATOM     38  C26 UNL A   1      10.907  54.768  10.008  1.00  0.00    +0.000 C 
ATOM     39  C27 UNL A   1      11.828  53.977  10.700  1.00  0.00    +0.000 C 
ATOM    124  H21 UNL A   1      14.639  55.138   9.322  1.00  0.00    +0.000 H 
ATOM    125  H22 UNL A   1      13.039  56.440   8.053  1.00  0.00    +0.000 H 
ATOM     27  C18 UNL A   1      13.198  54.119  10.478  1.00  0.00    +0.000 C 
ATOM     28  C19 UNL A   1      13.630  55.028   9.506  1.00  0.00    +0.000 C 
ATOM     29  C20 UNL A   1      12.706  55.790   8.782  1.00  0.00    +0.000 C 
ATOM     30  C21 UNL A   1      11.333  55.679   9.037  1.00  0.00    +0.000 C 
BRANCH   30   31
ATOM     33  C23 UNL A   1       9.168  58.603   7.958  1.00  0.00    +0.000 C 
ATOM    129  H26 UNL A   1       8.260  58.222   8.378  1.00  0.00    +0.000 H 
ATOM     35  C24 UNL A   1       9.016  56.989   6.287  1.00  0.00    +0.000 C 
ATOM     36  C25 UNL A   1       9.876  55.986   7.077  1.00  0.00    +0.000 C 
ATOM     37  O4  UNL A   1       9.971  54.823   6.679  1.00  0.00    +0.000 O 
ATOM     34  O3  UNL A   1       9.178  58.372   6.553  1.00  0.00    +0.000 O 
ATOM    130  H27 UNL A   1       9.228  56.839   5.250  1.00  0.00    +0.000 H 
ATOM    131  H28 UNL A   1       8.014  56.778   6.598  1.00  0.00    +0.000 H 
ATOM    127  H24 UNL A   1      10.271  58.002   9.650  1.00  0.00    +0.000 H 
ATOM    128  H25 UNL A   1       9.231  59.654   8.149  1.00  0.00    +0.000 H 
ATOM    126  H23 UNL A   1      11.257  58.345   8.218  1.00  0.00    +0.000 H 
ATOM     31  N7  UNL A   1      10.397  56.458   8.292  1.00  0.00    +0.000 N 
ATOM     32  C22 UNL A   1      10.360  57.896   8.589  1.00  0.00    +0.000 C 
ENDBRANCH   30   31
ENDBRANCH   26   27
ENDBRANCH   25   26
ENDBRANCH   19   20
ENDBRANCH   18   19
ENDBRANCH   11   13
ENDBRANCH   10   11
ENDBRANCH    9   10
ENDBRANCH    8    9
ENDBRANCH    7    8
ENDBRANCH    6    7
ENDBRANCH    5    6
ENDBRANCH    4    5
ENDBRANCH    3    4
ENDBRANCH    2    3
ENDBRANCH   41    2
ENDBRANCH   45   44
BRANCH   49   50
ATOM     50  C36 UNL A   1      16.919  48.561  -1.341  1.00  0.00    +0.000 C 
ATOM     51  C37 UNL A   1      16.380  48.191  -2.583  1.00  0.00    +0.000 C 
ATOM     52  F1  UNL A   1      15.349  48.874  -3.103  1.00  0.00    +0.000 F 
ATOM     53  C38 UNL A   1      16.885  47.099  -3.286  1.00  0.00    +0.000 C 
ATOM     54  F2  UNL A   1      16.333  46.744  -4.455  1.00  0.00    +0.000 F 
ATOM     55  C39 UNL A   1      17.953  46.375  -2.778  1.00  0.00    +0.000 C 
ATOM     56  F3  UNL A   1      18.445  45.333  -3.461  1.00  0.00    +0.000 F 
ATOM     57  C40 UNL A   1      18.509  46.731  -1.559  1.00  0.00    +0.000 C 
ATOM     58  F4  UNL A   1      19.550  46.042  -1.071  1.00  0.00    +0.000 F 
ATOM     59  C41 UNL A   1      17.991  47.806  -0.842  1.00  0.00    +0.000 C 
ATOM     60  F5  UNL A   1      18.548  48.123   0.337  1.00  0.00    +0.000 F 
ENDBRANCH   49   50
BRANCH   66   67
ATOM     67  C47 UNL A   1      18.465  55.584  -0.816  1.00  0.00    +0.000 C 
ATOM     68  C48 UNL A   1      19.648  55.951  -0.159  1.00  0.00    +0.000 C 
ATOM     69  F6  UNL A   1      19.925  55.454   1.057  1.00  0.00    +0.000 F 
ATOM     70  C49 UNL A   1      20.529  56.865  -0.729  1.00  0.00    +0.000 C 
ATOM     71  F7  UNL A   1      21.628  57.239  -0.060  1.00  0.00    +0.000 F 
ATOM     72  C50 UNL A   1      20.260  57.403  -1.979  1.00  0.00    +0.000 C 
ATOM     73  F8  UNL A   1      21.111  58.283  -2.526  1.00  0.00    +0.000 F 
ATOM     74  C51 UNL A   1      19.107  57.039  -2.656  1.00  0.00    +0.000 C 
ATOM     75  F9  UNL A   1      18.851  57.552  -3.867  1.00  0.00    +0.000 F 
ATOM     76  C52 UNL A   1      18.210  56.146  -2.077  1.00  0.00    +0.000 C 
ATOM     77  F10 UNL A   1      17.093  55.824  -2.747  1.00  0.00    +0.000 F 
ENDBRANCH   66   67
BRANCH   81   82
ATOM     82  C56 UNL A   1      13.469  56.276   3.983  1.00  0.00    +0.000 C 
ATOM     83  C57 UNL A   1      14.063  56.616   5.206  1.00  0.00    +0.000 C 
ATOM     84  F11 UNL A   1      15.078  55.880   5.684  1.00  0.00    +0.000 F 
ATOM     85  C58 UNL A   1      13.597  57.693   5.957  1.00  0.00    +0.000 C 
ATOM     86  F12 UNL A   1      14.159  57.974   7.141  1.00  0.00    +0.000 F 
ATOM     87  C59 UNL A   1      12.548  58.468   5.485  1.00  0.00    +0.000 C 
ATOM     88  F13 UNL A   1      12.108  59.511   6.203  1.00  0.00    +0.000 F 
ATOM     89  C60 UNL A   1      11.953  58.158   4.272  1.00  0.00    +0.000 C 
ATOM     90  F14 UNL A   1      10.950  58.914   3.804  1.00  0.00    +0.000 F 
ATOM     91  C61 UNL A   1      12.398  57.064   3.535  1.00  0.00    +0.000 C 
ATOM     92  F15 UNL A   1      11.800  56.783   2.368  1.00  0.00    +0.000 F 
ENDBRANCH   81   82
TORSDOF 20
ENDMDL
MODEL 9
REMARK VINA RESULT:      -9.0      2.167      3.576
ROOT
ATOM    136  H33 UNL A   1      18.525  50.680  -2.166  1.00  0.00    +0.000 H 
ATOM    137  H34 UNL A   1      19.115  53.195  -1.811  1.00  0.00    +0.000 H 
ATOM    138  H35 UNL A   1      16.145  52.161   0.883  1.00  0.00    +0.000 H 
ATOM    139  H36 UNL A   1      12.008  53.860   5.425  1.00  0.00    +0.000 H 
ATOM    140  H37 UNL A   1      11.580  51.365   5.221  1.00  0.00    +0.000 H 
ATOM    141  H38 UNL A   1      14.541  52.371   2.483  1.00  0.00    +0.000 H 
ATOM    142  H39 UNL A   1      15.515  57.240   3.253  1.00  0.00    +0.000 H 
ATOM    143  H40 UNL A   1      17.205  57.068   1.338  1.00  0.00    +0.000 H 
ATOM    144  H41 UNL A   1      15.215  47.259   0.328  1.00  0.00    +0.000 H 
ATOM    145  H42 UNL A   1      13.329  47.468   2.049  1.00  0.00    +0.000 H 
ATOM     45  C32 UNL A   1      13.101  50.075   3.190  1.00  0.00    +0.000 C 
ATOM     46  C33 UNL A   1      14.041  49.621   2.111  1.00  0.00    +0.000 C 
ATOM     47  N9  UNL A   1      14.943  50.313   1.460  1.00  0.00    +0.000 N 
ATOM     48  C34 UNL A   1      15.553  49.420   0.589  1.00  0.00    +0.000 C 
ATOM     49  C35 UNL A   1      16.532  49.661  -0.317  1.00  0.00    +0.000 C 
ATOM     61  C42 UNL A   1      17.131  50.953  -0.543  1.00  0.00    +0.000 C 
ATOM     62  C43 UNL A   1      18.100  51.307  -1.466  1.00  0.00    +0.000 C 
ATOM     63  C44 UNL A   1      18.405  52.661  -1.286  1.00  0.00    +0.000 C 
ATOM     64  C45 UNL A   1      17.592  53.163  -0.283  1.00  0.00    +0.000 C 
ATOM     65  N10 UNL A   1      16.817  52.104   0.167  1.00  0.00    +0.000 N 
ATOM     66  C46 UNL A   1      17.529  54.508   0.230  1.00  0.00    +0.000 C 
ATOM     78  C53 UNL A   1      16.682  54.933   1.200  1.00  0.00    +0.000 C 
ATOM     79  N11 UNL A   1      15.729  54.211   1.901  1.00  0.00    +0.000 N 
ATOM     80  C54 UNL A   1      15.188  55.056   2.744  1.00  0.00    +0.000 C 
ATOM     81  C55 UNL A   1      14.094  54.822   3.744  1.00  0.00    +0.000 C 
ATOM     93  C62 UNL A   1      13.560  53.592   3.855  1.00  0.00    +0.000 C 
ATOM     94  C63 UNL A   1      12.497  53.218   4.782  1.00  0.00    +0.000 C 
ATOM     95  C64 UNL A   1      12.259  51.905   4.661  1.00  0.00    +0.000 C 
ATOM     96  C65 UNL A   1      13.114  51.356   3.607  1.00  0.00    +0.000 C 
ATOM     97  N12 UNL A   1      13.859  52.429   3.191  1.00  0.00    +0.000 N 
ATOM     98  C66 UNL A   1      15.747  56.412   2.683  1.00  0.00    +0.000 C 
ATOM     99  C67 UNL A   1      16.628  56.292   1.700  1.00  0.00    +0.000 C 
ATOM    100  C68 UNL A   1      14.936  48.128   0.811  1.00  0.00    +0.000 C 
ATOM    101  C69 UNL A   1      13.967  48.207   1.713  1.00  0.00    +0.000 C 
ENDROOT
BRANCH   45   44
ATOM    102  C70 UNL A   1      10.850  48.948   3.255  1.00  0.00    +0.000 C 
ATOM    103  C71 UNL A   1       9.959  48.045   3.841  1.00  0.00    +0.000 C 
ATOM    134  H31 UNL A   1      11.974  46.811   6.220  1.00  0.00    +0.000 H 
ATOM     41  C28 UNL A   1      10.354  47.301   4.958  1.00  0.00    +0.000 C 
ATOM     42  C29 UNL A   1      11.652  47.427   5.457  1.00  0.00    +0.000 C 
ATOM     43  C30 UNL A   1      12.511  48.382   4.924  1.00  0.00    +0.000 C 
ATOM    135  H32 UNL A   1      13.438  48.534   5.351  1.00  0.00    +0.000 H 
ATOM     44  C31 UNL A   1      12.124  49.141   3.807  1.00  0.00    +0.000 C 
ATOM    146  H43 UNL A   1      10.568  49.475   2.413  1.00  0.00    +0.000 H 
ATOM    147  H44 UNL A   1       9.011  47.925   3.450  1.00  0.00    +0.000 H 
BRANCH   41    2
ATOM      1  O1  UNL A   1       9.523  45.164   5.447  1.00  0.00    +0.000 O 
ATOM      2  C1  UNL A   1       9.383  46.376   5.584  1.00  0.00    +0.000 C 
BRANCH    2    3
ATOM      3  N1  UNL A   1       8.318  46.875   6.292  1.00  0.00    +0.000 N 
ATOM    104  H1  UNL A   1       7.611  47.298   5.753  1.00  0.00    +0.000 H 
BRANCH    3    4
ATOM    105  H2  UNL A   1       8.468  45.952   8.129  1.00  0.00    +0.000 H 
ATOM    106  H3  UNL A   1       7.032  46.963   7.880  1.00  0.00    +0.000 H 
ATOM      4  C2  UNL A   1       8.086  46.867   7.727  1.00  0.00    +0.000 C 
BRANCH    4    5
ATOM    107  H4  UNL A   1       8.147  48.293   9.286  1.00  0.00    +0.000 H 
ATOM    108  H5  UNL A   1       8.851  48.810   7.720  1.00  0.00    +0.000 H 
ATOM      5  C3  UNL A   1       8.757  48.030   8.447  1.00  0.00    +0.000 C 
BRANCH    5    6
ATOM    110  H7  UNL A   1      10.826  48.052   8.163  1.00  0.00    +0.000 H 
ATOM    109  H6  UNL A   1      10.304  48.319   9.861  1.00  0.00    +0.000 H 
ATOM      6  C4  UNL A   1      10.171  47.761   8.958  1.00  0.00    +0.000 C 
BRANCH    6    7
ATOM    111  H8  UNL A   1       9.778  45.687   8.767  1.00  0.00    +0.000 H 
ATOM      7  C5  UNL A   1      10.508  46.297   9.258  1.00  0.00    +0.000 C 
ATOM    112  H9  UNL A   1      10.506  46.216  10.324  1.00  0.00    +0.000 H 
BRANCH    7    8
ATOM    113  H10 UNL A   1      11.895  45.761   7.744  1.00  0.00    +0.000 H 
ATOM    114  H11 UNL A   1      12.044  44.873   9.297  1.00  0.00    +0.000 H 
ATOM      8  C6  UNL A   1      11.894  45.816   8.812  1.00  0.00    +0.000 C 
BRANCH    8    9
ATOM      9  C7  UNL A   1      13.069  46.692   9.238  1.00  0.00    +0.000 C 
ATOM    115  H12 UNL A   1      13.612  46.187  10.009  1.00  0.00    +0.000 H 
ATOM    116  H13 UNL A   1      12.672  47.624   9.583  1.00  0.00    +0.000 H 
BRANCH    9   10
ATOM     10  N2  UNL A   1      13.976  46.979   8.141  1.00  0.00    +0.000 N 
ATOM    117  H14 UNL A   1      13.698  46.643   7.258  1.00  0.00    +0.000 H 
BRANCH   10   11
ATOM     11  C8  UNL A   1      15.170  47.655   8.170  1.00  0.00    +0.000 C 
ATOM     12  O2  UNL A   1      16.009  47.391   9.027  1.00  0.00    +0.000 O 
BRANCH   11   13
ATOM     13  C9  UNL A   1      15.476  48.682   7.152  1.00  0.00    +0.000 C 
ATOM     14  C10 UNL A   1      16.229  48.263   6.046  1.00  0.00    +0.000 C 
ATOM     15  C11 UNL A   1      16.557  49.172   5.043  1.00  0.00    +0.000 C 
ATOM     16  C12 UNL A   1      16.128  50.491   5.141  1.00  0.00    +0.000 C 
ATOM     17  C13 UNL A   1      15.392  50.913   6.253  1.00  0.00    +0.000 C 
ATOM     18  C14 UNL A   1      15.075  50.026   7.295  1.00  0.00    +0.000 C 
ATOM    118  H15 UNL A   1      16.541  47.282   5.975  1.00  0.00    +0.000 H 
ATOM    119  H16 UNL A   1      17.115  48.866   4.230  1.00  0.00    +0.000 H 
ATOM    120  H17 UNL A   1      16.356  51.163   4.390  1.00  0.00    +0.000 H 
ATOM    121  H18 UNL A   1      15.075  51.894   6.308  1.00  0.00    +0.000 H 
BRANCH   18   19
ATOM    122  H19 UNL A   1      13.431  50.449   8.430  1.00  0.00    +0.000 H 
ATOM     19  N3  UNL A   1      14.415  50.462   8.463  1.00  0.00    +0.000 N 
BRANCH   19   20
ATOM     40  N8  UNL A   1      14.245  51.766  10.358  1.00  0.00    +0.000 N 
ATOM     20  C15 UNL A   1      14.976  50.906   9.659  1.00  0.00    +0.000 C 
ATOM     21  N4  UNL A   1      16.179  50.490  10.019  1.00  0.00    +0.000 N 
ATOM     22  C16 UNL A   1      16.605  51.021  11.152  1.00  0.00    +0.000 C 
ATOM     23 Cl1  UNL A   1      18.155  50.528  11.674  1.00  0.00    +0.000 Cl
ATOM     24  N5  UNL A   1      15.965  51.865  11.940  1.00  0.00    +0.000 N 
ATOM     25  C17 UNL A   1      14.762  52.199  11.504  1.00  0.00    +0.000 C 
BRANCH   25   26
ATOM     26  N6  UNL A   1      13.907  52.988  12.282  1.00  0.00    +0.000 N 
ATOM    123  H20 UNL A   1      13.854  53.947  12.067  1.00  0.00    +0.000 H 
BRANCH   26   27
ATOM    132  H29 UNL A   1      13.111  50.229  15.799  1.00  0.00    +0.000 H 
ATOM    133  H30 UNL A   1      14.483  51.047  13.982  1.00  0.00    +0.000 H 
ATOM     38  C26 UNL A   1      12.753  50.979  15.185  1.00  0.00    +0.000 C 
ATOM     39  C27 UNL A   1      13.557  51.469  14.152  1.00  0.00    +0.000 C 
ATOM    124  H21 UNL A   1      11.494  53.809  12.962  1.00  0.00    +0.000 H 
ATOM    125  H22 UNL A   1      10.061  52.895  14.688  1.00  0.00    +0.000 H 
ATOM     27  C18 UNL A   1      13.120  52.521  13.346  1.00  0.00    +0.000 C 
ATOM     28  C19 UNL A   1      11.837  53.038  13.555  1.00  0.00    +0.000 C 
ATOM     29  C20 UNL A   1      11.014  52.518  14.561  1.00  0.00    +0.000 C 
ATOM     30  C21 UNL A   1      11.470  51.492  15.398  1.00  0.00    +0.000 C 
BRANCH   30   31
ATOM     33  C23 UNL A   1      10.164  50.571  18.840  1.00  0.00    +0.000 C 
ATOM    129  H26 UNL A   1      10.464  49.545  18.795  1.00  0.00    +0.000 H 
ATOM     35  C24 UNL A   1       8.469  50.092  17.317  1.00  0.00    +0.000 C 
ATOM     36  C25 UNL A   1       9.349  50.467  16.110  1.00  0.00    +0.000 C 
ATOM     37  O4  UNL A   1       8.952  50.217  14.970  1.00  0.00    +0.000 O 
ATOM     34  O3  UNL A   1       8.768  50.673  18.575  1.00  0.00    +0.000 O 
ATOM    130  H27 UNL A   1       7.465  50.366  17.073  1.00  0.00    +0.000 H 
ATOM    131  H28 UNL A   1       8.651  49.048  17.460  1.00  0.00    +0.000 H 
ATOM    127  H24 UNL A   1      11.973  51.199  17.959  1.00  0.00    +0.000 H 
ATOM    128  H25 UNL A   1      10.373  50.958  19.816  1.00  0.00    +0.000 H 
ATOM    126  H23 UNL A   1      10.677  52.408  17.910  1.00  0.00    +0.000 H 
ATOM     31  N7  UNL A   1      10.624  50.966  16.420  1.00  0.00    +0.000 N 
ATOM     32  C22 UNL A   1      10.930  51.375  17.797  1.00  0.00    +0.000 C 
ENDBRANCH   30   31
ENDBRANCH   26   27
ENDBRANCH   25   26
ENDBRANCH   19   20
ENDBRANCH   18   19
ENDBRANCH   11   13
ENDBRANCH   10   11
ENDBRANCH    9   10
ENDBRANCH    8    9
ENDBRANCH    7    8
ENDBRANCH    6    7
ENDBRANCH    5    6
ENDBRANCH    4    5
ENDBRANCH    3    4
ENDBRANCH    2    3
ENDBRANCH   41    2
ENDBRANCH   45   44
BRANCH   49   50
ATOM     50  C36 UNL A   1      17.034  48.504  -1.130  1.00  0.00    +0.000 C 
ATOM     51  C37 UNL A   1      18.131  47.734  -0.716  1.00  0.00    +0.000 C 
ATOM     52  F1  UNL A   1      18.804  48.061   0.398  1.00  0.00    +0.000 F 
ATOM     53  C38 UNL A   1      18.559  46.637  -1.461  1.00  0.00    +0.000 C 
ATOM     54  F2  UNL A   1      19.630  45.935  -1.063  1.00  0.00    +0.000 F 
ATOM     55  C39 UNL A   1      17.882  46.271  -2.614  1.00  0.00    +0.000 C 
ATOM     56  F3  UNL A   1      18.287  45.208  -3.323  1.00  0.00    +0.000 F 
ATOM     57  C40 UNL A   1      16.787  47.010  -3.035  1.00  0.00    +0.000 C 
ATOM     58  F4  UNL A   1      16.123  46.650  -4.143  1.00  0.00    +0.000 F 
ATOM     59  C41 UNL A   1      16.373  48.121  -2.307  1.00  0.00    +0.000 C 
ATOM     60  F5  UNL A   1      15.312  48.819  -2.742  1.00  0.00    +0.000 F 
ENDBRANCH   49   50
BRANCH   66   67
ATOM     67  C47 UNL A   1      18.452  55.531  -0.361  1.00  0.00    +0.000 C 
ATOM     68  C48 UNL A   1      18.172  56.150  -1.588  1.00  0.00    +0.000 C 
ATOM     69  F6  UNL A   1      17.076  55.805  -2.283  1.00  0.00    +0.000 F 
ATOM     70  C49 UNL A   1      19.041  57.094  -2.127  1.00  0.00    +0.000 C 
ATOM     71  F7  UNL A   1      18.778  57.636  -3.325  1.00  0.00    +0.000 F 
ATOM     72  C50 UNL A   1      20.187  57.459  -1.437  1.00  0.00    +0.000 C 
ATOM     73  F8  UNL A   1      21.022  58.369  -1.958  1.00  0.00    +0.000 F 
ATOM     74  C51 UNL A   1      20.473  56.875  -0.213  1.00  0.00    +0.000 C 
ATOM     75  F9  UNL A   1      21.576  57.234   0.459  1.00  0.00    +0.000 F 
ATOM     76  C52 UNL A   1      19.620  55.911   0.317  1.00  0.00    +0.000 C 
ATOM     77  F10 UNL A   1      19.931  55.349   1.495  1.00  0.00    +0.000 F 
ENDBRANCH   66   67
BRANCH   81   82
ATOM     82  C56 UNL A   1      13.592  55.920   4.609  1.00  0.00    +0.000 C 
ATOM     83  C57 UNL A   1      14.172  56.177   5.858  1.00  0.00    +0.000 C 
ATOM     84  F11 UNL A   1      15.171  55.401   6.305  1.00  0.00    +0.000 F 
ATOM     85  C58 UNL A   1      13.708  57.212   6.667  1.00  0.00    +0.000 C 
ATOM     86  F12 UNL A   1      14.255  57.414   7.873  1.00  0.00    +0.000 F 
ATOM     87  C59 UNL A   1      12.674  58.027   6.229  1.00  0.00    +0.000 C 
ATOM     88  F13 UNL A   1      12.236  59.030   7.003  1.00  0.00    +0.000 F 
ATOM     89  C60 UNL A   1      12.094  57.799   4.991  1.00  0.00    +0.000 C 
ATOM     90  F14 UNL A   1      11.107  58.595   4.556  1.00  0.00    +0.000 F 
ATOM     91  C61 UNL A   1      12.537  56.746   4.195  1.00  0.00    +0.000 C 
ATOM     92  F15 UNL A   1      11.953  56.544   3.005  1.00  0.00    +0.000 F 
ENDBRANCH   81   82
TORSDOF 20
ENDMDL
MODEL 10
REMARK VINA RESULT:      -9.0      3.175      7.977
ROOT
ATOM    136  H33 UNL A   1      18.839  53.223  -1.340  1.00  0.00    +0.000 H 
ATOM    137  H34 UNL A   1      18.329  50.715  -1.838  1.00  0.00    +0.000 H 
ATOM    138  H35 UNL A   1      16.019  51.898   1.388  1.00  0.00    +0.000 H 
ATOM    139  H36 UNL A   1      11.900  50.441   6.031  1.00  0.00    +0.000 H 
ATOM    140  H37 UNL A   1      12.242  52.932   6.384  1.00  0.00    +0.000 H 
ATOM    141  H38 UNL A   1      14.598  51.776   3.161  1.00  0.00    +0.000 H 
ATOM    142  H39 UNL A   1      13.549  46.925   2.376  1.00  0.00    +0.000 H 
ATOM    143  H40 UNL A   1      15.270  46.996   0.483  1.00  0.00    +0.000 H 
ATOM    144  H41 UNL A   1      16.851  56.789   2.154  1.00  0.00    +0.000 H 
ATOM    145  H42 UNL A   1      15.342  56.676   4.221  1.00  0.00    +0.000 H 
ATOM     45  C32 UNL A   1      14.139  54.120   4.625  1.00  0.00    +0.000 C 
ATOM     46  C33 UNL A   1      15.123  54.516   3.563  1.00  0.00    +0.000 C 
ATOM     47  N9  UNL A   1      15.646  53.786   2.609  1.00  0.00    +0.000 N 
ATOM     48  C34 UNL A   1      16.476  54.635   1.890  1.00  0.00    +0.000 C 
ATOM     49  C35 UNL A   1      17.259  54.343   0.823  1.00  0.00    +0.000 C 
ATOM     61  C42 UNL A   1      17.370  53.034   0.229  1.00  0.00    +0.000 C 
ATOM     62  C43 UNL A   1      18.167  52.630  -0.829  1.00  0.00    +0.000 C 
ATOM     63  C44 UNL A   1      17.905  51.279  -1.085  1.00  0.00    +0.000 C 
ATOM     64  C45 UNL A   1      16.980  50.829  -0.157  1.00  0.00    +0.000 C 
ATOM     65  N10 UNL A   1      16.658  51.916   0.641  1.00  0.00    +0.000 N 
ATOM     66  C46 UNL A   1      16.429  49.506  -0.011  1.00  0.00    +0.000 C 
ATOM     78  C53 UNL A   1      15.543  49.132   0.945  1.00  0.00    +0.000 C 
ATOM     79  N11 UNL A   1      14.978  49.895   1.955  1.00  0.00    +0.000 N 
ATOM     80  C54 UNL A   1      14.170  49.093   2.602  1.00  0.00    +0.000 C 
ATOM     81  C55 UNL A   1      13.305  49.382   3.794  1.00  0.00    +0.000 C 
ATOM     93  C62 UNL A   1      13.299  50.623   4.312  1.00  0.00    +0.000 C 
ATOM     94  C63 UNL A   1      12.509  51.050   5.462  1.00  0.00    +0.000 C 
ATOM     95  C64 UNL A   1      12.704  52.361   5.659  1.00  0.00    +0.000 C 
ATOM     96  C65 UNL A   1      13.677  52.855   4.682  1.00  0.00    +0.000 C 
ATOM     97  N12 UNL A   1      13.968  51.755   3.918  1.00  0.00    +0.000 N 
ATOM     98  C66 UNL A   1      14.120  47.727   2.066  1.00  0.00    +0.000 C 
ATOM     99  C67 UNL A   1      15.003  47.794   1.080  1.00  0.00    +0.000 C 
ATOM    100  C68 UNL A   1      16.371  55.944   2.501  1.00  0.00    +0.000 C 
ATOM    101  C69 UNL A   1      15.578  55.915   3.565  1.00  0.00    +0.000 C 
ENDROOT
BRANCH   45   44
ATOM    102  C70 UNL A   1      12.519  55.869   5.436  1.00  0.00    +0.000 C 
ATOM    103  C71 UNL A   1      12.084  56.758   6.423  1.00  0.00    +0.000 C 
ATOM    134  H31 UNL A   1      14.313  56.003   8.811  1.00  0.00    +0.000 H 
ATOM     41  C28 UNL A   1      12.771  56.843   7.638  1.00  0.00    +0.000 C 
ATOM     42  C29 UNL A   1      13.864  56.008   7.882  1.00  0.00    +0.000 C 
ATOM     43  C30 UNL A   1      14.345  55.182   6.872  1.00  0.00    +0.000 C 
ATOM    135  H32 UNL A   1      15.204  54.631   7.025  1.00  0.00    +0.000 H 
ATOM     44  C31 UNL A   1      13.668  55.092   5.644  1.00  0.00    +0.000 C 
ATOM    146  H43 UNL A   1      11.994  55.785   4.552  1.00  0.00    +0.000 H 
ATOM    147  H44 UNL A   1      11.254  57.350   6.256  1.00  0.00    +0.000 H 
BRANCH   41    2
ATOM      1  O1  UNL A   1      12.796  58.945   8.676  1.00  0.00    +0.000 O 
ATOM      2  C1  UNL A   1      12.314  57.816   8.655  1.00  0.00    +0.000 C 
BRANCH    2    3
ATOM      3  N1  UNL A   1      11.376  57.446   9.586  1.00  0.00    +0.000 N 
ATOM    104  H1  UNL A   1      11.718  57.300  10.498  1.00  0.00    +0.000 H 
BRANCH    3    4
ATOM    105  H2  UNL A   1       9.690  57.459   8.401  1.00  0.00    +0.000 H 
ATOM    106  H3  UNL A   1       9.447  57.886  10.105  1.00  0.00    +0.000 H 
ATOM      4  C2  UNL A   1       9.947  57.239   9.416  1.00  0.00    +0.000 C 
BRANCH    4    5
ATOM    107  H4  UNL A   1       8.498  55.700   9.394  1.00  0.00    +0.000 H 
ATOM    108  H5  UNL A   1       9.628  55.697  10.786  1.00  0.00    +0.000 H 
ATOM      5  C3  UNL A   1       9.508  55.815   9.729  1.00  0.00    +0.000 C 
BRANCH    5    6
ATOM    110  H7  UNL A   1      10.585  55.062   8.105  1.00  0.00    +0.000 H 
ATOM    109  H6  UNL A   1      11.199  54.542   9.711  1.00  0.00    +0.000 H 
ATOM      6  C4  UNL A   1      10.346  54.710   9.087  1.00  0.00    +0.000 C 
BRANCH    6    7
ATOM    111  H8  UNL A   1      10.212  52.801   8.179  1.00  0.00    +0.000 H 
ATOM      7  C5  UNL A   1       9.640  53.366   8.885  1.00  0.00    +0.000 C 
ATOM    112  H9  UNL A   1       8.651  53.609   8.559  1.00  0.00    +0.000 H 
BRANCH    7    8
ATOM    113  H10 UNL A   1       8.560  52.818  10.628  1.00  0.00    +0.000 H 
ATOM    114  H11 UNL A   1      10.345  52.642  10.720  1.00  0.00    +0.000 H 
ATOM      8  C6  UNL A   1       9.457  52.502  10.138  1.00  0.00    +0.000 C 
BRANCH    8    9
ATOM      9  C7  UNL A   1       9.354  50.998   9.897  1.00  0.00    +0.000 C 
ATOM    115  H12 UNL A   1       8.550  50.814   9.215  1.00  0.00    +0.000 H 
ATOM    116  H13 UNL A   1       9.184  50.528  10.842  1.00  0.00    +0.000 H 
BRANCH    9   10
ATOM     10  N2  UNL A   1      10.573  50.438   9.340  1.00  0.00    +0.000 N 
ATOM    117  H14 UNL A   1      11.401  50.929   9.545  1.00  0.00    +0.000 H 
BRANCH   10   11
ATOM     11  C8  UNL A   1      10.724  49.315   8.565  1.00  0.00    +0.000 C 
ATOM     12  O2  UNL A   1      10.241  49.273   7.436  1.00  0.00    +0.000 O 
BRANCH   11   13
ATOM     13  C9  UNL A   1      11.499  48.159   9.062  1.00  0.00    +0.000 C 
ATOM     14  C10 UNL A   1      10.770  47.135   9.683  1.00  0.00    +0.000 C 
ATOM     15  C11 UNL A   1      11.430  46.011  10.176  1.00  0.00    +0.000 C 
ATOM     16  C12 UNL A   1      12.810  45.909  10.043  1.00  0.00    +0.000 C 
ATOM     17  C13 UNL A   1      13.539  46.939   9.439  1.00  0.00    +0.000 C 
ATOM     18  C14 UNL A   1      12.904  48.098   8.963  1.00  0.00    +0.000 C 
ATOM    118  H15 UNL A   1       9.746  47.213   9.775  1.00  0.00    +0.000 H 
ATOM    119  H16 UNL A   1      10.895  45.259  10.637  1.00  0.00    +0.000 H 
ATOM    120  H17 UNL A   1      13.300  45.070  10.393  1.00  0.00    +0.000 H 
ATOM    121  H18 UNL A   1      14.562  46.846   9.343  1.00  0.00    +0.000 H 
BRANCH   18   19
ATOM    122  H19 UNL A   1      13.433  49.430   7.508  1.00  0.00    +0.000 H 
ATOM     19  N3  UNL A   1      13.639  49.182   8.438  1.00  0.00    +0.000 N 
BRANCH   19   20
ATOM     40  N8  UNL A   1      14.176  50.840   9.949  1.00  0.00    +0.000 N 
ATOM     20  C15 UNL A   1      14.617  49.949   9.068  1.00  0.00    +0.000 C 
ATOM     21  N4  UNL A   1      15.891  49.783   8.754  1.00  0.00    +0.000 N 
ATOM     22  C16 UNL A   1      16.705  50.603   9.397  1.00  0.00    +0.000 C 
ATOM     23 Cl1  UNL A   1      18.367  50.444   9.035  1.00  0.00    +0.000 Cl
ATOM     24  N5  UNL A   1      16.389  51.510  10.303  1.00  0.00    +0.000 N 
ATOM     25  C17 UNL A   1      15.095  51.579  10.565  1.00  0.00    +0.000 C 
BRANCH   25   26
ATOM     26  N6  UNL A   1      14.609  52.402  11.587  1.00  0.00    +0.000 N 
ATOM    123  H20 UNL A   1      14.812  53.363  11.530  1.00  0.00    +0.000 H 
BRANCH   26   27
ATOM    132  H29 UNL A   1      10.842  52.325  14.119  1.00  0.00    +0.000 H 
ATOM    133  H30 UNL A   1      12.124  53.059  12.205  1.00  0.00    +0.000 H 
ATOM     38  C26 UNL A   1      11.821  52.015  14.011  1.00  0.00    +0.000 C 
ATOM     39  C27 UNL A   1      12.553  52.419  12.890  1.00  0.00    +0.000 C 
ATOM    124  H21 UNL A   1      15.408  50.811  13.534  1.00  0.00    +0.000 H 
ATOM    125  H22 UNL A   1      14.175  50.191  15.526  1.00  0.00    +0.000 H 
ATOM     27  C18 UNL A   1      13.858  51.965  12.689  1.00  0.00    +0.000 C 
ATOM     28  C19 UNL A   1      14.440  51.146  13.662  1.00  0.00    +0.000 C 
ATOM     29  C20 UNL A   1      13.724  50.777  14.806  1.00  0.00    +0.000 C 
ATOM     30  C21 UNL A   1      12.399  51.196  14.985  1.00  0.00    +0.000 C 
BRANCH   30   31
ATOM     33  C23 UNL A   1      10.776  51.398  18.409  1.00  0.00    +0.000 C 
ATOM    129  H26 UNL A   1      11.554  50.873  18.925  1.00  0.00    +0.000 H 
ATOM     35  C24 UNL A   1      10.112  49.380  17.458  1.00  0.00    +0.000 C 
ATOM     36  C25 UNL A   1      10.995  49.592  16.215  1.00  0.00    +0.000 C 
ATOM     37  O4  UNL A   1      11.146  48.667  15.413  1.00  0.00    +0.000 O 
ATOM     34  O3  UNL A   1       9.678  50.520  18.180  1.00  0.00    +0.000 O 
ATOM    130  H27 UNL A   1       9.236  48.856  17.138  1.00  0.00    +0.000 H 
ATOM    131  H28 UNL A   1      10.747  48.860  18.145  1.00  0.00    +0.000 H 
ATOM    127  H24 UNL A   1      12.181  52.477  17.268  1.00  0.00    +0.000 H 
ATOM    128  H25 UNL A   1      10.453  52.226  19.005  1.00  0.00    +0.000 H 
ATOM    126  H23 UNL A   1      10.536  52.492  16.607  1.00  0.00    +0.000 H 
ATOM     31  N7  UNL A   1      11.676  50.817  16.156  1.00  0.00    +0.000 N 
ATOM     32  C22 UNL A   1      11.299  51.904  17.071  1.00  0.00    +0.000 C 
ENDBRANCH   30   31
ENDBRANCH   26   27
ENDBRANCH   25   26
ENDBRANCH   19   20
ENDBRANCH   18   19
ENDBRANCH   11   13
ENDBRANCH   10   11
ENDBRANCH    9   10
ENDBRANCH    8    9
ENDBRANCH    7    8
ENDBRANCH    6    7
ENDBRANCH    5    6
ENDBRANCH    4    5
ENDBRANCH    3    4
ENDBRANCH    2    3
ENDBRANCH   41    2
ENDBRANCH   45   44
BRANCH   49   50
ATOM     50  C36 UNL A   1      18.054  55.461   0.212  1.00  0.00    +0.000 C 
ATOM     51  C37 UNL A   1      17.592  56.164  -0.911  1.00  0.00    +0.000 C 
ATOM     52  F1  UNL A   1      16.446  55.806  -1.508  1.00  0.00    +0.000 F 
ATOM     53  C38 UNL A   1      18.322  57.227  -1.441  1.00  0.00    +0.000 C 
ATOM     54  F2  UNL A   1      17.877  57.864  -2.533  1.00  0.00    +0.000 F 
ATOM     55  C39 UNL A   1      19.508  57.624  -0.843  1.00  0.00    +0.000 C 
ATOM     56  F3  UNL A   1      20.203  58.653  -1.347  1.00  0.00    +0.000 F 
ATOM     57  C40 UNL A   1      19.977  56.951   0.274  1.00  0.00    +0.000 C 
ATOM     58  F4  UNL A   1      21.117  57.342   0.862  1.00  0.00    +0.000 F 
ATOM     59  C41 UNL A   1      19.263  55.873   0.792  1.00  0.00    +0.000 C 
ATOM     60  F5  UNL A   1      19.744  55.239   1.872  1.00  0.00    +0.000 F 
ENDBRANCH   49   50
BRANCH   66   67
ATOM     67  C47 UNL A   1      16.877  48.447  -0.973  1.00  0.00    +0.000 C 
ATOM     68  C48 UNL A   1      18.041  47.697  -0.749  1.00  0.00    +0.000 C 
ATOM     69  F6  UNL A   1      18.806  47.945   0.326  1.00  0.00    +0.000 F 
ATOM     70  C49 UNL A   1      18.448  46.721  -1.653  1.00  0.00    +0.000 C 
ATOM     71  F7  UNL A   1      19.591  46.052  -1.445  1.00  0.00    +0.000 F 
ATOM     72  C50 UNL A   1      17.683  46.453  -2.779  1.00  0.00    +0.000 C 
ATOM     73  F8  UNL A   1      18.077  45.512  -3.648  1.00  0.00    +0.000 F 
ATOM     74  C51 UNL A   1      16.518  47.168  -3.010  1.00  0.00    +0.000 C 
ATOM     75  F9  UNL A   1      15.774  46.904  -4.093  1.00  0.00    +0.000 F 
ATOM     76  C52 UNL A   1      16.122  48.163  -2.122  1.00  0.00    +0.000 C 
ATOM     77  F10 UNL A   1      15.000  48.851  -2.379  1.00  0.00    +0.000 F 
ENDBRANCH   66   67
BRANCH   81   82
ATOM     82  C56 UNL A   1      12.462  48.326   4.409  1.00  0.00    +0.000 C 
ATOM     83  C57 UNL A   1      11.111  48.189   4.062  1.00  0.00    +0.000 C 
ATOM     84  F11 UNL A   1      10.553  49.044   3.192  1.00  0.00    +0.000 F 
ATOM     85  C58 UNL A   1      10.320  47.194   4.633  1.00  0.00    +0.000 C 
ATOM     86  F12 UNL A   1       9.022  47.107   4.313  1.00  0.00    +0.000 F 
ATOM     87  C59 UNL A   1      10.873  46.299   5.538  1.00  0.00    +0.000 C 
ATOM     88  F13 UNL A   1      10.114  45.335   6.077  1.00  0.00    +0.000 F 
ATOM     89  C60 UNL A   1      12.210  46.408   5.885  1.00  0.00    +0.000 C 
ATOM     90  F14 UNL A   1      12.753  45.535   6.745  1.00  0.00    +0.000 F 
ATOM     91  C61 UNL A   1      12.994  47.421   5.338  1.00  0.00    +0.000 C 
ATOM     92  F15 UNL A   1      14.283  47.507   5.697  1.00  0.00    +0.000 F 
ENDBRANCH   81   82
TORSDOF 20
ENDMDL
