MODEL 1
REMARK VINA RESULT:      -9.5      0.000      0.000
ROOT
ATOM    129  H38 UNL A   1      38.793  26.909  27.621  1.00  0.00    +0.000 H 
ATOM    130  H39 UNL A   1      42.413  27.561  29.557  1.00  0.00    +0.000 H 
ATOM    131  H40 UNL A   1      45.390  23.727  28.273  1.00  0.00    +0.000 H 
ATOM    132  H41 UNL A   1      47.153  24.749  29.821  1.00  0.00    +0.000 H 
ATOM    133  H42 UNL A   1      41.141  32.584  31.653  1.00  0.00    +0.000 H 
ATOM    134  H43 UNL A   1      39.203  31.354  30.519  1.00  0.00    +0.000 H 
ATOM     33  C26 UNL A   1      39.961  28.884  29.313  1.00  0.00    +0.000 C 
ATOM     34  C27 UNL A   1      40.807  29.791  30.162  1.00  0.00    +0.000 C 
ATOM     35  N3  UNL A   1      42.054  29.651  30.535  1.00  0.00    +0.000 N 
ATOM     36  C28 UNL A   1      42.363  30.796  31.260  1.00  0.00    +0.000 C 
ATOM     37  C29 UNL A   1      43.518  31.104  31.897  1.00  0.00    +0.000 C 
ATOM     49  C36 UNL A   1      44.669  30.241  31.946  1.00  0.00    +0.000 C 
ATOM     50  C37 UNL A   1      45.854  30.421  32.637  1.00  0.00    +0.000 C 
ATOM     51  C38 UNL A   1      46.697  29.344  32.348  1.00  0.00    +0.000 C 
ATOM     52  C39 UNL A   1      46.020  28.470  31.514  1.00  0.00    +0.000 C 
ATOM     53  N4  UNL A   1      44.777  29.032  31.273  1.00  0.00    +0.000 N 
ATOM     54  C40 UNL A   1      46.475  27.215  30.972  1.00  0.00    +0.000 C 
ATOM     66  C47 UNL A   1      45.744  26.403  30.170  1.00  0.00    +0.000 C 
ATOM     67  N5  UNL A   1      44.444  26.568  29.712  1.00  0.00    +0.000 N 
ATOM     68  C48 UNL A   1      44.191  25.524  28.960  1.00  0.00    +0.000 C 
ATOM     69  C49 UNL A   1      42.925  25.159  28.234  1.00  0.00    +0.000 C 
ATOM     81  C56 UNL A   1      41.858  25.973  28.329  1.00  0.00    +0.000 C 
ATOM     82  C57 UNL A   1      40.565  25.757  27.687  1.00  0.00    +0.000 C 
ATOM     83  C58 UNL A   1      39.759  26.792  27.965  1.00  0.00    +0.000 C 
ATOM     84  C59 UNL A   1      40.468  27.732  28.836  1.00  0.00    +0.000 C 
ATOM     85  N6  UNL A   1      41.704  27.159  29.004  1.00  0.00    +0.000 N 
ATOM     86  C60 UNL A   1      45.320  24.591  28.832  1.00  0.00    +0.000 C 
ATOM     87  C61 UNL A   1      46.224  25.152  29.622  1.00  0.00    +0.000 C 
ATOM     88  C62 UNL A   1      41.187  31.638  31.244  1.00  0.00    +0.000 C 
ATOM     89  C63 UNL A   1      40.177  31.034  30.634  1.00  0.00    +0.000 C 
ATOM    125  H34 UNL A   1      46.076  31.215  33.258  1.00  0.00    +0.000 H 
ATOM    126  H35 UNL A   1      47.660  29.221  32.698  1.00  0.00    +0.000 H 
ATOM    127  H36 UNL A   1      44.076  28.634  30.710  1.00  0.00    +0.000 H 
ATOM    128  H37 UNL A   1      40.312  24.938  27.111  1.00  0.00    +0.000 H 
ENDROOT
BRANCH   33   32
ATOM    123  H32 UNL A   1      36.818  30.628  26.409  1.00  0.00    +0.000 H 
ATOM    136  H45 UNL A   1      35.464  29.299  30.165  1.00  0.00    +0.000 H 
ATOM    135  H44 UNL A   1      37.740  28.765  30.802  1.00  0.00    +0.000 H 
ATOM     90  C64 UNL A   1      37.542  29.136  29.859  1.00  0.00    +0.000 C 
ATOM     91  C65 UNL A   1      36.240  29.481  29.509  1.00  0.00    +0.000 C 
ATOM    124  H33 UNL A   1      39.063  29.894  26.965  1.00  0.00    +0.000 H 
ATOM     29  C22 UNL A   1      35.984  30.075  28.270  1.00  0.00    +0.000 C 
ATOM     30  C23 UNL A   1      37.014  30.220  27.336  1.00  0.00    +0.000 C 
ATOM     31  C24 UNL A   1      38.307  29.812  27.662  1.00  0.00    +0.000 C 
ATOM     32  C25 UNL A   1      38.586  29.288  28.935  1.00  0.00    +0.000 C 
BRANCH   29   27
ATOM     27  C21 UNL A   1      34.618  30.500  27.898  1.00  0.00    +0.000 C 
ATOM     28  O4  UNL A   1      34.144  31.528  28.373  1.00  0.00    +0.000 O 
BRANCH   27   26
ATOM     26  N2  UNL A   1      33.888  29.760  27.005  1.00  0.00    +0.000 N 
ATOM    122  H31 UNL A   1      33.526  30.252  26.233  1.00  0.00    +0.000 H 
BRANCH   26   25
ATOM     25  C20 UNL A   1      33.580  28.339  27.053  1.00  0.00    +0.000 C 
ATOM    121  H30 UNL A   1      34.187  27.894  27.813  1.00  0.00    +0.000 H 
ATOM    120  H29 UNL A   1      33.782  27.909  26.095  1.00  0.00    +0.000 H 
BRANCH   25   24
ATOM    118  H27 UNL A   1      32.086  27.587  28.357  1.00  0.00    +0.000 H 
ATOM    119  H28 UNL A   1      31.638  29.040  27.417  1.00  0.00    +0.000 H 
ATOM     24  C19 UNL A   1      32.116  28.083  27.410  1.00  0.00    +0.000 C 
BRANCH   24   23
ATOM    116  H25 UNL A   1      31.690  26.218  26.487  1.00  0.00    +0.000 H 
ATOM    117  H26 UNL A   1      30.307  27.351  26.640  1.00  0.00    +0.000 H 
ATOM     23  C18 UNL A   1      31.343  27.226  26.398  1.00  0.00    +0.000 C 
BRANCH   23   22
ATOM    114  H23 UNL A   1      31.519  28.714  24.886  1.00  0.00    +0.000 H 
ATOM    115  H24 UNL A   1      32.382  27.191  24.563  1.00  0.00    +0.000 H 
ATOM     22  C17 UNL A   1      31.485  27.645  24.930  1.00  0.00    +0.000 C 
BRANCH   22   21
ATOM    113  H22 UNL A   1      29.506  27.795  24.233  1.00  0.00    +0.000 H 
ATOM     21  C16 UNL A   1      30.347  27.163  24.039  1.00  0.00    +0.000 C 
ATOM    112  H21 UNL A   1      30.145  26.138  24.272  1.00  0.00    +0.000 H 
BRANCH   21   20
ATOM     20  C15 UNL A   1      30.654  27.267  22.548  1.00  0.00    +0.000 C 
ATOM    110  H19 UNL A   1      30.097  26.522  22.021  1.00  0.00    +0.000 H 
ATOM    111  H20 UNL A   1      30.380  28.244  22.207  1.00  0.00    +0.000 H 
BRANCH   20   19
ATOM     19  N1  UNL A   1      32.065  27.068  22.304  1.00  0.00    +0.000 N 
ATOM    109  H18 UNL A   1      32.649  27.832  22.511  1.00  0.00    +0.000 H 
BRANCH   19   17
ATOM     17  C14 UNL A   1      32.685  25.955  21.826  1.00  0.00    +0.000 C 
ATOM     18  O3  UNL A   1      32.613  25.703  20.623  1.00  0.00    +0.000 O 
BRANCH   17   16
ATOM    107  H16 UNL A   1      34.484  25.197  22.634  1.00  0.00    +0.000 H 
ATOM    108  H17 UNL A   1      33.119  25.295  23.767  1.00  0.00    +0.000 H 
ATOM     16  C13 UNL A   1      33.433  25.045  22.775  1.00  0.00    +0.000 C 
BRANCH   16   15
ATOM    105  H14 UNL A   1      33.015  23.410  21.509  1.00  0.00    +0.000 H 
ATOM    106  H15 UNL A   1      33.945  23.054  23.024  1.00  0.00    +0.000 H 
ATOM     15  C12 UNL A   1      33.126  23.564  22.563  1.00  0.00    +0.000 C 
BRANCH   15   14
ATOM     14  C11 UNL A   1      31.876  22.977  23.244  1.00  0.00    +0.000 C 
ATOM    103  H12 UNL A   1      31.064  23.032  22.551  1.00  0.00    +0.000 H 
ATOM    104  H13 UNL A   1      32.136  21.977  23.525  1.00  0.00    +0.000 H 
BRANCH   14   13
ATOM    101  H10 UNL A   1      32.136  24.473  24.719  1.00  0.00    +0.000 H 
ATOM     13  C10 UNL A   1      31.442  23.679  24.537  1.00  0.00    +0.000 C 
ATOM    102  H11 UNL A   1      30.433  23.982  24.355  1.00  0.00    +0.000 H 
BRANCH   13   12
ATOM    100  H9  UNL A   1      31.392  21.836  25.431  1.00  0.00    +0.000 H 
ATOM     99  H8  UNL A   1      30.496  23.163  26.343  1.00  0.00    +0.000 H 
ATOM     12  C9  UNL A   1      31.368  22.834  25.816  1.00  0.00    +0.000 C 
BRANCH   12   11
ATOM     11  S1  UNL A   1      32.731  22.811  27.040  1.00  0.00    +0.000 S 
BRANCH   11   10
ATOM     97  H6  UNL A   1      36.623  24.709  24.897  1.00  0.00    +0.000 H 
ATOM     98  H7  UNL A   1      34.680  24.703  26.344  1.00  0.00    +0.000 H 
ATOM      5  C3  UNL A   1      34.665  21.480  25.473  1.00  0.00    +0.000 C 
ATOM      6  C4  UNL A   1      35.791  21.484  24.635  1.00  0.00    +0.000 C 
ATOM      7  C5  UNL A   1      36.498  22.664  24.412  1.00  0.00    +0.000 C 
ATOM      8  C6  UNL A   1      36.092  23.835  25.041  1.00  0.00    +0.000 C 
ATOM      9  C7  UNL A   1      34.963  23.831  25.870  1.00  0.00    +0.000 C 
ATOM     10  C8  UNL A   1      34.206  22.662  26.071  1.00  0.00    +0.000 C 
ATOM     95  H4  UNL A   1      36.098  20.610  24.182  1.00  0.00    +0.000 H 
ATOM     96  H5  UNL A   1      37.316  22.668  23.784  1.00  0.00    +0.000 H 
BRANCH    5    4
ATOM      4  O2  UNL A   1      33.963  20.231  25.433  1.00  0.00    +0.000 O 
BRANCH    4    2
ATOM      2  C2  UNL A   1      33.442  19.402  24.430  1.00  0.00    +0.000 C 
ATOM      3  O1  UNL A   1      32.467  19.604  23.724  1.00  0.00    +0.000 O 
BRANCH    2    1
ATOM      1  C1  UNL A   1      34.295  18.168  24.370  1.00  0.00    +0.000 C 
ATOM     92  H1  UNL A   1      33.736  17.329  24.727  1.00  0.00    +0.000 H 
ATOM     93  H2  UNL A   1      35.163  18.304  24.982  1.00  0.00    +0.000 H 
ATOM     94  H3  UNL A   1      34.596  17.992  23.359  1.00  0.00    +0.000 H 
ENDBRANCH    2    1
ENDBRANCH    4    2
ENDBRANCH    5    4
ENDBRANCH   11   10
ENDBRANCH   12   11
ENDBRANCH   13   12
ENDBRANCH   14   13
ENDBRANCH   15   14
ENDBRANCH   16   15
ENDBRANCH   17   16
ENDBRANCH   19   17
ENDBRANCH   20   19
ENDBRANCH   21   20
ENDBRANCH   22   21
ENDBRANCH   23   22
ENDBRANCH   24   23
ENDBRANCH   25   24
ENDBRANCH   26   25
ENDBRANCH   27   26
ENDBRANCH   29   27
ENDBRANCH   33   32
BRANCH   37   38
ATOM     38  C30 UNL A   1      43.599  32.428  32.596  1.00  0.00    +0.000 C 
ATOM     39  C31 UNL A   1      44.056  33.582  31.941  1.00  0.00    +0.000 C 
ATOM     40  F1  UNL A   1      44.494  33.510  30.675  1.00  0.00    +0.000 F 
ATOM     41  C32 UNL A   1      44.095  34.810  32.597  1.00  0.00    +0.000 C 
ATOM     42  F2  UNL A   1      44.574  35.889  31.963  1.00  0.00    +0.000 F 
ATOM     43  C33 UNL A   1      43.649  34.915  33.905  1.00  0.00    +0.000 C 
ATOM     44  F3  UNL A   1      43.676  36.101  34.531  1.00  0.00    +0.000 F 
ATOM     45  C34 UNL A   1      43.177  33.792  34.566  1.00  0.00    +0.000 C 
ATOM     46  F4  UNL A   1      42.734  33.894  35.827  1.00  0.00    +0.000 F 
ATOM     47  C35 UNL A   1      43.163  32.557  33.924  1.00  0.00    +0.000 C 
ATOM     48  F5  UNL A   1      42.711  31.487  34.594  1.00  0.00    +0.000 F 
ENDBRANCH   37   38
BRANCH   54   55
ATOM     65  F10 UNL A   1      48.795  27.947  29.507  1.00  0.00    +0.000 F 
ATOM     55  C41 UNL A   1      47.854  26.755  31.339  1.00  0.00    +0.000 C 
ATOM     56  C42 UNL A   1      48.079  25.904  32.431  1.00  0.00    +0.000 C 
ATOM     57  F6  UNL A   1      47.056  25.522  33.211  1.00  0.00    +0.000 F 
ATOM     58  C43 UNL A   1      49.364  25.474  32.749  1.00  0.00    +0.000 C 
ATOM     59  F7  UNL A   1      49.563  24.699  33.823  1.00  0.00    +0.000 F 
ATOM     60  C44 UNL A   1      50.441  25.858  31.964  1.00  0.00    +0.000 C 
ATOM     61  F8  UNL A   1      51.677  25.438  32.267  1.00  0.00    +0.000 F 
ATOM     62  C45 UNL A   1      50.239  26.684  30.869  1.00  0.00    +0.000 C 
ATOM     63  F9  UNL A   1      51.277  27.046  30.101  1.00  0.00    +0.000 F 
ATOM     64  C46 UNL A   1      48.959  27.139  30.565  1.00  0.00    +0.000 C 
ENDBRANCH   54   55
BRANCH   69   70
ATOM     70  C50 UNL A   1      42.838  23.904  27.444  1.00  0.00    +0.000 C 
ATOM     71  C51 UNL A   1      42.427  22.706  28.046  1.00  0.00    +0.000 C 
ATOM     72  F11 UNL A   1      42.113  22.687  29.350  1.00  0.00    +0.000 F 
ATOM     73  C52 UNL A   1      42.382  21.516  27.323  1.00  0.00    +0.000 C 
ATOM     74  F12 UNL A   1      42.033  20.377  27.936  1.00  0.00    +0.000 F 
ATOM     75  C53 UNL A   1      42.716  21.507  25.978  1.00  0.00    +0.000 C 
ATOM     76  F13 UNL A   1      42.672  20.362  25.283  1.00  0.00    +0.000 F 
ATOM     77  C54 UNL A   1      43.104  22.684  25.355  1.00  0.00    +0.000 C 
ATOM     78  F14 UNL A   1      43.413  22.681  24.052  1.00  0.00    +0.000 F 
ATOM     79  C55 UNL A   1      43.177  23.869  26.083  1.00  0.00    +0.000 C 
ATOM     80  F15 UNL A   1      43.569  24.989  25.460  1.00  0.00    +0.000 F 
ENDBRANCH   69   70
TORSDOF 24
ENDMDL
MODEL 2
REMARK VINA RESULT:      -9.4      0.995      2.184
ROOT
ATOM    129  H38 UNL A   1      38.787  26.907  27.644  1.00  0.00    +0.000 H 
ATOM    130  H39 UNL A   1      42.382  27.611  29.607  1.00  0.00    +0.000 H 
ATOM    131  H40 UNL A   1      45.417  23.810  28.361  1.00  0.00    +0.000 H 
ATOM    132  H41 UNL A   1      47.155  24.859  29.920  1.00  0.00    +0.000 H 
ATOM    133  H42 UNL A   1      41.030  32.625  31.674  1.00  0.00    +0.000 H 
ATOM    134  H43 UNL A   1      39.117  31.367  30.529  1.00  0.00    +0.000 H 
ATOM     33  C26 UNL A   1      39.916  28.902  29.339  1.00  0.00    +0.000 C 
ATOM     34  C27 UNL A   1      40.744  29.823  30.191  1.00  0.00    +0.000 C 
ATOM     35  N3  UNL A   1      41.989  29.700  30.574  1.00  0.00    +0.000 N 
ATOM     36  C28 UNL A   1      42.278  30.851  31.298  1.00  0.00    +0.000 C 
ATOM     37  C29 UNL A   1      43.423  31.176  31.942  1.00  0.00    +0.000 C 
ATOM     49  C36 UNL A   1      44.585  30.328  32.004  1.00  0.00    +0.000 C 
ATOM     50  C37 UNL A   1      45.761  30.526  32.704  1.00  0.00    +0.000 C 
ATOM     51  C38 UNL A   1      46.620  29.458  32.426  1.00  0.00    +0.000 C 
ATOM     52  C39 UNL A   1      45.961  28.572  31.590  1.00  0.00    +0.000 C 
ATOM     53  N4  UNL A   1      44.713  29.118  31.337  1.00  0.00    +0.000 N 
ATOM     54  C40 UNL A   1      46.436  27.321  31.056  1.00  0.00    +0.000 C 
ATOM     66  C47 UNL A   1      45.722  26.497  30.251  1.00  0.00    +0.000 C 
ATOM     67  N5  UNL A   1      44.424  26.645  29.782  1.00  0.00    +0.000 N 
ATOM     68  C48 UNL A   1      44.190  25.594  29.032  1.00  0.00    +0.000 C 
ATOM     69  C49 UNL A   1      42.935  25.211  28.297  1.00  0.00    +0.000 C 
ATOM     81  C56 UNL A   1      41.857  26.012  28.380  1.00  0.00    +0.000 C 
ATOM     82  C57 UNL A   1      40.572  25.777  27.729  1.00  0.00    +0.000 C 
ATOM     83  C58 UNL A   1      39.751  26.804  27.996  1.00  0.00    +0.000 C 
ATOM     84  C59 UNL A   1      40.441  27.755  28.870  1.00  0.00    +0.000 C 
ATOM     85  N6  UNL A   1      41.683  27.199  29.050  1.00  0.00    +0.000 N 
ATOM     86  C60 UNL A   1      45.331  24.676  28.916  1.00  0.00    +0.000 C 
ATOM     87  C61 UNL A   1      46.223  25.251  29.712  1.00  0.00    +0.000 C 
ATOM     88  C62 UNL A   1      41.092  31.678  31.269  1.00  0.00    +0.000 C 
ATOM     89  C63 UNL A   1      40.094  31.060  30.653  1.00  0.00    +0.000 C 
ATOM    125  H34 UNL A   1      45.969  31.324  33.324  1.00  0.00    +0.000 H 
ATOM    126  H35 UNL A   1      47.582  29.348  32.784  1.00  0.00    +0.000 H 
ATOM    127  H36 UNL A   1      44.022  28.709  30.769  1.00  0.00    +0.000 H 
ATOM    128  H37 UNL A   1      40.334  24.953  27.154  1.00  0.00    +0.000 H 
ENDROOT
BRANCH   33   32
ATOM    123  H32 UNL A   1      35.379  29.357  30.095  1.00  0.00    +0.000 H 
ATOM    136  H45 UNL A   1      36.867  30.655  26.379  1.00  0.00    +0.000 H 
ATOM    135  H44 UNL A   1      39.086  29.899  26.998  1.00  0.00    +0.000 H 
ATOM     90  C64 UNL A   1      38.304  29.808  27.666  1.00  0.00    +0.000 C 
ATOM     91  C65 UNL A   1      37.023  30.204  27.294  1.00  0.00    +0.000 C 
ATOM    124  H33 UNL A   1      37.634  28.800  30.797  1.00  0.00    +0.000 H 
ATOM     29  C22 UNL A   1      35.947  29.990  28.160  1.00  0.00    +0.000 C 
ATOM     30  C23 UNL A   1      36.170  29.484  29.444  1.00  0.00    +0.000 C 
ATOM     31  C24 UNL A   1      37.465  29.150  29.841  1.00  0.00    +0.000 C 
ATOM     32  C25 UNL A   1      38.539  29.287  28.948  1.00  0.00    +0.000 C 
BRANCH   29   27
ATOM     27  C21 UNL A   1      34.570  30.352  27.765  1.00  0.00    +0.000 C 
ATOM     28  O4  UNL A   1      34.043  31.361  28.224  1.00  0.00    +0.000 O 
BRANCH   27   26
ATOM     26  N2  UNL A   1      33.886  29.573  26.867  1.00  0.00    +0.000 N 
ATOM    122  H31 UNL A   1      33.805  29.937  25.956  1.00  0.00    +0.000 H 
BRANCH   26   25
ATOM     25  C20 UNL A   1      33.267  28.276  27.089  1.00  0.00    +0.000 C 
ATOM    121  H30 UNL A   1      32.214  28.379  26.927  1.00  0.00    +0.000 H 
ATOM    120  H29 UNL A   1      33.475  27.960  28.091  1.00  0.00    +0.000 H 
BRANCH   25   24
ATOM    118  H27 UNL A   1      34.808  27.005  26.378  1.00  0.00    +0.000 H 
ATOM    119  H28 UNL A   1      33.144  26.371  26.220  1.00  0.00    +0.000 H 
ATOM     24  C19 UNL A   1      33.792  27.217  26.120  1.00  0.00    +0.000 C 
BRANCH   24   23
ATOM    116  H25 UNL A   1      32.870  28.205  24.481  1.00  0.00    +0.000 H 
ATOM    117  H26 UNL A   1      34.663  28.142  24.452  1.00  0.00    +0.000 H 
ATOM     23  C18 UNL A   1      33.750  27.616  24.639  1.00  0.00    +0.000 C 
BRANCH   23   22
ATOM    114  H23 UNL A   1      34.723  26.088  23.520  1.00  0.00    +0.000 H 
ATOM    115  H24 UNL A   1      33.063  25.713  24.043  1.00  0.00    +0.000 H 
ATOM     22  C17 UNL A   1      33.723  26.453  23.640  1.00  0.00    +0.000 C 
BRANCH   22   21
ATOM    113  H22 UNL A   1      33.853  26.424  21.541  1.00  0.00    +0.000 H 
ATOM     21  C16 UNL A   1      33.182  26.832  22.267  1.00  0.00    +0.000 C 
ATOM    112  H21 UNL A   1      33.123  27.900  22.210  1.00  0.00    +0.000 H 
BRANCH   21   20
ATOM     20  C15 UNL A   1      31.800  26.255  21.976  1.00  0.00    +0.000 C 
ATOM    110  H19 UNL A   1      31.754  25.952  20.951  1.00  0.00    +0.000 H 
ATOM    111  H20 UNL A   1      31.635  25.415  22.618  1.00  0.00    +0.000 H 
BRANCH   20   19
ATOM     19  N1  UNL A   1      30.774  27.241  22.227  1.00  0.00    +0.000 N 
ATOM    109  H18 UNL A   1      30.425  27.710  21.435  1.00  0.00    +0.000 H 
BRANCH   19   17
ATOM     17  C14 UNL A   1      30.229  27.602  23.421  1.00  0.00    +0.000 C 
ATOM     18  O3  UNL A   1      30.273  28.784  23.763  1.00  0.00    +0.000 O 
BRANCH   17   16
ATOM    107  H16 UNL A   1      28.585  26.833  24.503  1.00  0.00    +0.000 H 
ATOM    108  H17 UNL A   1      29.665  25.617  23.788  1.00  0.00    +0.000 H 
ATOM     16  C13 UNL A   1      29.599  26.550  24.308  1.00  0.00    +0.000 C 
BRANCH   16   15
ATOM    105  H14 UNL A   1      31.292  26.808  25.540  1.00  0.00    +0.000 H 
ATOM    106  H15 UNL A   1      29.674  26.845  26.356  1.00  0.00    +0.000 H 
ATOM     15  C12 UNL A   1      30.319  26.375  25.645  1.00  0.00    +0.000 C 
BRANCH   15   14
ATOM     14  C11 UNL A   1      30.509  24.946  26.185  1.00  0.00    +0.000 C 
ATOM    103  H12 UNL A   1      30.713  25.013  27.233  1.00  0.00    +0.000 H 
ATOM    104  H13 UNL A   1      29.605  24.420  25.954  1.00  0.00    +0.000 H 
BRANCH   14   13
ATOM    101  H10 UNL A   1      32.280  24.839  25.031  1.00  0.00    +0.000 H 
ATOM     13  C10 UNL A   1      31.642  24.143  25.533  1.00  0.00    +0.000 C 
ATOM    102  H11 UNL A   1      32.092  23.605  26.342  1.00  0.00    +0.000 H 
BRANCH   13   12
ATOM    100  H9  UNL A   1      30.382  23.480  24.059  1.00  0.00    +0.000 H 
ATOM     99  H8  UNL A   1      31.160  22.149  25.069  1.00  0.00    +0.000 H 
ATOM     12  C9  UNL A   1      31.254  23.060  24.516  1.00  0.00    +0.000 C 
BRANCH   12   11
ATOM     11  S1  UNL A   1      32.305  22.676  23.067  1.00  0.00    +0.000 S 
BRANCH   11   10
ATOM     97  H6  UNL A   1      37.104  23.211  23.224  1.00  0.00    +0.000 H 
ATOM     98  H7  UNL A   1      34.844  23.739  22.532  1.00  0.00    +0.000 H 
ATOM      5  C3  UNL A   1      34.140  21.343  24.746  1.00  0.00    +0.000 C 
ATOM      6  C4  UNL A   1      35.450  21.037  25.147  1.00  0.00    +0.000 C 
ATOM      7  C5  UNL A   1      36.533  21.706  24.583  1.00  0.00    +0.000 C 
ATOM      8  C6  UNL A   1      36.307  22.696  23.632  1.00  0.00    +0.000 C 
ATOM      9  C7  UNL A   1      35.000  22.993  23.227  1.00  0.00    +0.000 C 
ATOM     10  C8  UNL A   1      33.895  22.295  23.748  1.00  0.00    +0.000 C 
ATOM     95  H4  UNL A   1      35.612  20.313  25.864  1.00  0.00    +0.000 H 
ATOM     96  H5  UNL A   1      37.496  21.470  24.868  1.00  0.00    +0.000 H 
BRANCH    5    4
ATOM      4  O2  UNL A   1      33.178  20.430  25.291  1.00  0.00    +0.000 O 
BRANCH    4    2
ATOM      2  C2  UNL A   1      32.811  19.098  25.058  1.00  0.00    +0.000 C 
ATOM      3  O1  UNL A   1      32.669  18.206  25.881  1.00  0.00    +0.000 O 
BRANCH    2    1
ATOM      1  C1  UNL A   1      32.629  18.926  23.578  1.00  0.00    +0.000 C 
ATOM     92  H1  UNL A   1      33.504  19.270  23.068  1.00  0.00    +0.000 H 
ATOM     93  H2  UNL A   1      31.782  19.495  23.254  1.00  0.00    +0.000 H 
ATOM     94  H3  UNL A   1      32.470  17.892  23.355  1.00  0.00    +0.000 H 
ENDBRANCH    2    1
ENDBRANCH    4    2
ENDBRANCH    5    4
ENDBRANCH   11   10
ENDBRANCH   12   11
ENDBRANCH   13   12
ENDBRANCH   14   13
ENDBRANCH   15   14
ENDBRANCH   16   15
ENDBRANCH   17   16
ENDBRANCH   19   17
ENDBRANCH   20   19
ENDBRANCH   21   20
ENDBRANCH   22   21
ENDBRANCH   23   22
ENDBRANCH   24   23
ENDBRANCH   25   24
ENDBRANCH   26   25
ENDBRANCH   27   26
ENDBRANCH   29   27
ENDBRANCH   33   32
BRANCH   37   38
ATOM     38  C30 UNL A   1      43.482  32.504  32.638  1.00  0.00    +0.000 C 
ATOM     39  C31 UNL A   1      43.926  33.661  31.980  1.00  0.00    +0.000 C 
ATOM     40  F1  UNL A   1      44.371  33.591  30.717  1.00  0.00    +0.000 F 
ATOM     41  C32 UNL A   1      43.944  34.892  32.632  1.00  0.00    +0.000 C 
ATOM     42  F2  UNL A   1      44.411  35.976  31.998  1.00  0.00    +0.000 F 
ATOM     43  C33 UNL A   1      43.490  34.996  33.938  1.00  0.00    +0.000 C 
ATOM     44  F3  UNL A   1      43.498  36.183  34.560  1.00  0.00    +0.000 F 
ATOM     45  C34 UNL A   1      43.031  33.868  34.601  1.00  0.00    +0.000 C 
ATOM     46  F4  UNL A   1      42.581  33.969  35.859  1.00  0.00    +0.000 F 
ATOM     47  C35 UNL A   1      43.038  32.631  33.963  1.00  0.00    +0.000 C 
ATOM     48  F5  UNL A   1      42.598  31.557  34.635  1.00  0.00    +0.000 F 
ENDBRANCH   37   38
BRANCH   54   55
ATOM     65  F10 UNL A   1      46.963  25.585  33.241  1.00  0.00    +0.000 F 
ATOM     55  C41 UNL A   1      47.818  26.880  31.436  1.00  0.00    +0.000 C 
ATOM     56  C42 UNL A   1      48.950  27.324  30.738  1.00  0.00    +0.000 C 
ATOM     57  F6  UNL A   1      48.813  28.122  29.669  1.00  0.00    +0.000 F 
ATOM     58  C43 UNL A   1      50.227  26.917  31.114  1.00  0.00    +0.000 C 
ATOM     59  F7  UNL A   1      51.291  27.316  30.405  1.00  0.00    +0.000 F 
ATOM     60  C44 UNL A   1      50.398  26.087  32.212  1.00  0.00    +0.000 C 
ATOM     61  F8  UNL A   1      51.628  25.701  32.577  1.00  0.00    +0.000 F 
ATOM     62  C45 UNL A   1      49.294  25.650  32.928  1.00  0.00    +0.000 C 
ATOM     63  F9  UNL A   1      49.458  24.858  33.997  1.00  0.00    +0.000 F 
ATOM     64  C46 UNL A   1      48.013  26.033  32.537  1.00  0.00    +0.000 C 
ENDBRANCH   54   55
BRANCH   69   70
ATOM     70  C50 UNL A   1      42.870  23.952  27.511  1.00  0.00    +0.000 C 
ATOM     71  C51 UNL A   1      43.188  23.944  26.145  1.00  0.00    +0.000 C 
ATOM     72  F11 UNL A   1      43.551  25.083  25.536  1.00  0.00    +0.000 F 
ATOM     73  C52 UNL A   1      43.090  22.777  25.391  1.00  0.00    +0.000 C 
ATOM     74  F12 UNL A   1      43.353  22.809  24.078  1.00  0.00    +0.000 F 
ATOM     75  C53 UNL A   1      42.704  21.590  25.994  1.00  0.00    +0.000 C 
ATOM     76  F13 UNL A   1      42.611  20.468  25.267  1.00  0.00    +0.000 F 
ATOM     77  C54 UNL A   1      42.407  21.569  27.348  1.00  0.00    +0.000 C 
ATOM     78  F14 UNL A   1      42.047  20.420  27.936  1.00  0.00    +0.000 F 
ATOM     79  C55 UNL A   1      42.476  22.741  28.097  1.00  0.00    +0.000 C 
ATOM     80  F15 UNL A   1      42.169  22.695  29.401  1.00  0.00    +0.000 F 
ENDBRANCH   69   70
TORSDOF 24
ENDMDL
MODEL 3
REMARK VINA RESULT:      -9.3      2.152      2.991
ROOT
ATOM    129  H38 UNL A   1      38.531  28.027  27.586  1.00  0.00    +0.000 H 
ATOM    130  H39 UNL A   1      41.429  28.097  30.565  1.00  0.00    +0.000 H 
ATOM    131  H40 UNL A   1      44.936  24.784  29.175  1.00  0.00    +0.000 H 
ATOM    132  H41 UNL A   1      46.129  25.322  31.375  1.00  0.00    +0.000 H 
ATOM    133  H42 UNL A   1      39.244  32.318  33.507  1.00  0.00    +0.000 H 
ATOM    134  H43 UNL A   1      37.788  31.463  31.583  1.00  0.00    +0.000 H 
ATOM     33  C26 UNL A   1      39.037  29.437  30.012  1.00  0.00    +0.000 C 
ATOM     34  C27 UNL A   1      39.548  30.065  31.279  1.00  0.00    +0.000 C 
ATOM     35  N3  UNL A   1      40.654  29.824  31.935  1.00  0.00    +0.000 N 
ATOM     36  C28 UNL A   1      40.664  30.714  33.002  1.00  0.00    +0.000 C 
ATOM     37  C29 UNL A   1      41.575  30.827  33.996  1.00  0.00    +0.000 C 
ATOM     49  C36 UNL A   1      42.735  29.985  34.131  1.00  0.00    +0.000 C 
ATOM     50  C37 UNL A   1      43.671  29.960  35.149  1.00  0.00    +0.000 C 
ATOM     51  C38 UNL A   1      44.643  29.009  34.827  1.00  0.00    +0.000 C 
ATOM     52  C39 UNL A   1      44.288  28.408  33.630  1.00  0.00    +0.000 C 
ATOM     53  N4  UNL A   1      43.116  29.017  33.212  1.00  0.00    +0.000 N 
ATOM     54  C40 UNL A   1      44.971  27.359  32.917  1.00  0.00    +0.000 C 
ATOM     66  C47 UNL A   1      44.551  26.810  31.751  1.00  0.00    +0.000 C 
ATOM     67  N5  UNL A   1      43.414  27.100  31.009  1.00  0.00    +0.000 N 
ATOM     68  C48 UNL A   1      43.458  26.313  29.961  1.00  0.00    +0.000 C 
ATOM     69  C49 UNL A   1      42.468  26.171  28.837  1.00  0.00    +0.000 C 
ATOM     81  C56 UNL A   1      41.354  26.926  28.846  1.00  0.00    +0.000 C 
ATOM     82  C57 UNL A   1      40.304  26.901  27.832  1.00  0.00    +0.000 C 
ATOM     83  C58 UNL A   1      39.373  27.816  28.143  1.00  0.00    +0.000 C 
ATOM     84  C59 UNL A   1      39.744  28.468  29.401  1.00  0.00    +0.000 C 
ATOM     85  N6  UNL A   1      40.930  27.871  29.747  1.00  0.00    +0.000 N 
ATOM     86  C60 UNL A   1      44.649  25.454  29.906  1.00  0.00    +0.000 C 
ATOM     87  C61 UNL A   1      45.259  25.766  31.041  1.00  0.00    +0.000 C 
ATOM     88  C62 UNL A   1      39.474  31.527  32.885  1.00  0.00    +0.000 C 
ATOM     89  C63 UNL A   1      38.717  31.123  31.875  1.00  0.00    +0.000 C 
ATOM    125  H34 UNL A   1      43.653  30.544  36.000  1.00  0.00    +0.000 H 
ATOM    126  H35 UNL A   1      45.482  28.790  35.387  1.00  0.00    +0.000 H 
ATOM    127  H36 UNL A   1      42.627  28.797  32.387  1.00  0.00    +0.000 H 
ATOM    128  H37 UNL A   1      40.282  26.281  27.007  1.00  0.00    +0.000 H 
ENDROOT
BRANCH   33   32
ATOM    123  H32 UNL A   1      36.621  32.327  27.334  1.00  0.00    +0.000 H 
ATOM    136  H45 UNL A   1      34.516  29.207  29.216  1.00  0.00    +0.000 H 
ATOM    135  H44 UNL A   1      36.552  28.495  30.323  1.00  0.00    +0.000 H 
ATOM     90  C64 UNL A   1      36.572  29.292  29.668  1.00  0.00    +0.000 C 
ATOM     91  C65 UNL A   1      35.396  29.726  29.065  1.00  0.00    +0.000 C 
ATOM    124  H33 UNL A   1      38.696  31.485  28.270  1.00  0.00    +0.000 H 
ATOM     29  C22 UNL A   1      35.404  30.866  28.256  1.00  0.00    +0.000 C 
ATOM     30  C23 UNL A   1      36.611  31.506  27.959  1.00  0.00    +0.000 C 
ATOM     31  C24 UNL A   1      37.801  31.030  28.509  1.00  0.00    +0.000 C 
ATOM     32  C25 UNL A   1      37.788  29.934  29.387  1.00  0.00    +0.000 C 
BRANCH   29   27
ATOM     27  C21 UNL A   1      34.157  31.377  27.650  1.00  0.00    +0.000 C 
ATOM     28  O4  UNL A   1      33.789  32.526  27.877  1.00  0.00    +0.000 O 
BRANCH   27   26
ATOM     26  N2  UNL A   1      33.421  30.577  26.814  1.00  0.00    +0.000 N 
ATOM    122  H31 UNL A   1      33.746  30.508  25.888  1.00  0.00    +0.000 H 
BRANCH   26   25
ATOM     25  C20 UNL A   1      32.220  29.816  27.124  1.00  0.00    +0.000 C 
ATOM    121  H30 UNL A   1      31.509  29.990  26.344  1.00  0.00    +0.000 H 
ATOM    120  H29 UNL A   1      31.842  30.138  28.072  1.00  0.00    +0.000 H 
BRANCH   25   24
ATOM    118  H27 UNL A   1      32.619  28.042  28.213  1.00  0.00    +0.000 H 
ATOM    119  H28 UNL A   1      31.659  27.837  26.719  1.00  0.00    +0.000 H 
ATOM     24  C19 UNL A   1      32.495  28.314  27.186  1.00  0.00    +0.000 C 
BRANCH   24   23
ATOM    116  H25 UNL A   1      34.411  28.679  26.346  1.00  0.00    +0.000 H 
ATOM    117  H26 UNL A   1      34.131  27.020  26.968  1.00  0.00    +0.000 H 
ATOM     23  C18 UNL A   1      33.739  27.850  26.417  1.00  0.00    +0.000 C 
BRANCH   23   22
ATOM    114  H23 UNL A   1      33.999  26.397  24.883  1.00  0.00    +0.000 H 
ATOM    115  H24 UNL A   1      32.424  27.225  24.891  1.00  0.00    +0.000 H 
ATOM     22  C17 UNL A   1      33.484  27.328  24.998  1.00  0.00    +0.000 C 
BRANCH   22   21
ATOM    113  H22 UNL A   1      34.491  27.688  23.187  1.00  0.00    +0.000 H 
ATOM     21  C16 UNL A   1      33.952  28.276  23.900  1.00  0.00    +0.000 C 
ATOM    112  H21 UNL A   1      34.562  29.035  24.345  1.00  0.00    +0.000 H 
BRANCH   21   20
ATOM     20  C15 UNL A   1      32.808  28.953  23.151  1.00  0.00    +0.000 C 
ATOM    110  H19 UNL A   1      32.942  30.013  23.188  1.00  0.00    +0.000 H 
ATOM    111  H20 UNL A   1      32.813  28.615  22.135  1.00  0.00    +0.000 H 
BRANCH   20   19
ATOM     19  N1  UNL A   1      31.536  28.612  23.748  1.00  0.00    +0.000 N 
ATOM    109  H18 UNL A   1      31.540  28.488  24.725  1.00  0.00    +0.000 H 
BRANCH   19   17
ATOM     17  C14 UNL A   1      30.337  28.443  23.130  1.00  0.00    +0.000 C 
ATOM     18  O3  UNL A   1      29.990  29.253  22.269  1.00  0.00    +0.000 O 
BRANCH   17   16
ATOM    107  H16 UNL A   1      28.658  27.651  24.138  1.00  0.00    +0.000 H 
ATOM    108  H17 UNL A   1      29.080  26.848  22.610  1.00  0.00    +0.000 H 
ATOM     16  C13 UNL A   1      29.448  27.281  23.517  1.00  0.00    +0.000 C 
BRANCH   16   15
ATOM    105  H14 UNL A   1      31.029  26.636  24.756  1.00  0.00    +0.000 H 
ATOM    106  H15 UNL A   1      29.447  25.766  24.929  1.00  0.00    +0.000 H 
ATOM     15  C12 UNL A   1      30.187  26.180  24.277  1.00  0.00    +0.000 C 
BRANCH   15   14
ATOM     14  C11 UNL A   1      30.712  24.974  23.478  1.00  0.00    +0.000 C 
ATOM    103  H12 UNL A   1      31.193  24.308  24.163  1.00  0.00    +0.000 H 
ATOM    104  H13 UNL A   1      29.860  24.549  22.990  1.00  0.00    +0.000 H 
BRANCH   14   13
ATOM    101  H10 UNL A   1      31.149  25.522  21.481  1.00  0.00    +0.000 H 
ATOM     13  C10 UNL A   1      31.713  25.309  22.364  1.00  0.00    +0.000 C 
ATOM    102  H11 UNL A   1      32.286  26.125  22.752  1.00  0.00    +0.000 H 
BRANCH   13   12
ATOM    100  H9  UNL A   1      33.673  24.785  22.081  1.00  0.00    +0.000 H 
ATOM     99  H8  UNL A   1      32.466  23.858  21.042  1.00  0.00    +0.000 H 
ATOM     12  C9  UNL A   1      32.754  24.243  21.998  1.00  0.00    +0.000 C 
BRANCH   12   11
ATOM     11  S1  UNL A   1      33.064  22.788  23.066  1.00  0.00    +0.000 S 
BRANCH   11   10
ATOM     97  H6  UNL A   1      37.868  22.899  23.574  1.00  0.00    +0.000 H 
ATOM     98  H7  UNL A   1      35.778  22.566  22.395  1.00  0.00    +0.000 H 
ATOM      5  C3  UNL A   1      34.550  23.754  25.262  1.00  0.00    +0.000 C 
ATOM      6  C4  UNL A   1      35.761  23.946  25.946  1.00  0.00    +0.000 C 
ATOM      7  C5  UNL A   1      36.971  23.622  25.337  1.00  0.00    +0.000 C 
ATOM      8  C6  UNL A   1      36.973  23.123  24.039  1.00  0.00    +0.000 C 
ATOM      9  C7  UNL A   1      35.763  22.922  23.363  1.00  0.00    +0.000 C 
ATOM     10  C8  UNL A   1      34.527  23.199  23.976  1.00  0.00    +0.000 C 
ATOM     95  H4  UNL A   1      35.756  24.332  26.902  1.00  0.00    +0.000 H 
ATOM     96  H5  UNL A   1      37.860  23.750  25.845  1.00  0.00    +0.000 H 
BRANCH    5    4
ATOM      4  O2  UNL A   1      33.410  23.964  26.108  1.00  0.00    +0.000 O 
BRANCH    4    2
ATOM      2  C2  UNL A   1      32.456  23.148  26.729  1.00  0.00    +0.000 C 
ATOM      3  O1  UNL A   1      31.270  23.042  26.455  1.00  0.00    +0.000 O 
BRANCH    2    1
ATOM      1  C1  UNL A   1      33.142  22.408  27.841  1.00  0.00    +0.000 C 
ATOM     92  H1  UNL A   1      32.408  21.960  28.478  1.00  0.00    +0.000 H 
ATOM     93  H2  UNL A   1      33.738  23.091  28.410  1.00  0.00    +0.000 H 
ATOM     94  H3  UNL A   1      33.769  21.646  27.428  1.00  0.00    +0.000 H 
ENDBRANCH    2    1
ENDBRANCH    4    2
ENDBRANCH    5    4
ENDBRANCH   11   10
ENDBRANCH   12   11
ENDBRANCH   13   12
ENDBRANCH   14   13
ENDBRANCH   15   14
ENDBRANCH   16   15
ENDBRANCH   17   16
ENDBRANCH   19   17
ENDBRANCH   20   19
ENDBRANCH   21   20
ENDBRANCH   22   21
ENDBRANCH   23   22
ENDBRANCH   24   23
ENDBRANCH   25   24
ENDBRANCH   26   25
ENDBRANCH   27   26
ENDBRANCH   29   27
ENDBRANCH   33   32
BRANCH   37   38
ATOM     38  C30 UNL A   1      41.359  31.898  35.025  1.00  0.00    +0.000 C 
ATOM     39  C31 UNL A   1      42.003  33.142  34.941  1.00  0.00    +0.000 C 
ATOM     40  F1  UNL A   1      42.885  33.380  33.959  1.00  0.00    +0.000 F 
ATOM     41  C32 UNL A   1      41.767  34.135  35.888  1.00  0.00    +0.000 C 
ATOM     42  F2  UNL A   1      42.425  35.301  35.811  1.00  0.00    +0.000 F 
ATOM     43  C33 UNL A   1      40.860  33.919  36.914  1.00  0.00    +0.000 C 
ATOM     44  F3  UNL A   1      40.625  34.881  37.817  1.00  0.00    +0.000 F 
ATOM     45  C34 UNL A   1      40.199  32.703  37.006  1.00  0.00    +0.000 C 
ATOM     46  F4  UNL A   1      39.314  32.496  37.991  1.00  0.00    +0.000 F 
ATOM     47  C35 UNL A   1      40.455  31.697  36.078  1.00  0.00    +0.000 C 
ATOM     48  F5  UNL A   1      39.808  30.528  36.201  1.00  0.00    +0.000 F 
ENDBRANCH   37   38
BRANCH   54   55
ATOM     65  F10 UNL A   1      47.547  28.403  32.332  1.00  0.00    +0.000 F 
ATOM     55  C41 UNL A   1      46.232  26.812  33.517  1.00  0.00    +0.000 C 
ATOM     56  C42 UNL A   1      46.213  25.722  34.399  1.00  0.00    +0.000 C 
ATOM     57  F6  UNL A   1      45.046  25.172  34.767  1.00  0.00    +0.000 F 
ATOM     58  C43 UNL A   1      47.394  25.217  34.935  1.00  0.00    +0.000 C 
ATOM     59  F7  UNL A   1      47.350  24.204  35.811  1.00  0.00    +0.000 F 
ATOM     60  C44 UNL A   1      48.615  25.769  34.576  1.00  0.00    +0.000 C 
ATOM     61  F8  UNL A   1      49.751  25.278  35.088  1.00  0.00    +0.000 F 
ATOM     62  C45 UNL A   1      48.657  26.837  33.692  1.00  0.00    +0.000 C 
ATOM     63  F9  UNL A   1      49.837  27.364  33.334  1.00  0.00    +0.000 F 
ATOM     64  C46 UNL A   1      47.476  27.363  33.175  1.00  0.00    +0.000 C 
ENDBRANCH   54   55
BRANCH   69   70
ATOM     70  C50 UNL A   1      42.698  25.193  27.742  1.00  0.00    +0.000 C 
ATOM     71  C51 UNL A   1      43.462  25.541  26.619  1.00  0.00    +0.000 C 
ATOM     72  F11 UNL A   1      43.989  26.771  26.525  1.00  0.00    +0.000 F 
ATOM     73  C52 UNL A   1      43.648  24.644  25.570  1.00  0.00    +0.000 C 
ATOM     74  F12 UNL A   1      44.341  25.021  24.487  1.00  0.00    +0.000 F 
ATOM     75  C53 UNL A   1      43.101  23.372  25.637  1.00  0.00    +0.000 C 
ATOM     76  F13 UNL A   1      43.281  22.510  24.627  1.00  0.00    +0.000 F 
ATOM     77  C54 UNL A   1      42.361  22.997  26.748  1.00  0.00    +0.000 C 
ATOM     78  F14 UNL A   1      41.844  21.763  26.822  1.00  0.00    +0.000 F 
ATOM     79  C55 UNL A   1      42.150  23.902  27.785  1.00  0.00    +0.000 C 
ATOM     80  F15 UNL A   1      41.418  23.518  28.841  1.00  0.00    +0.000 F 
ENDBRANCH   69   70
TORSDOF 24
ENDMDL
MODEL 4
REMARK VINA RESULT:      -9.2     19.396     24.008
ROOT
ATOM    129  H38 UNL A   1      50.805  21.071  12.403  1.00  0.00    +0.000 H 
ATOM    130  H39 UNL A   1      54.621  20.426  13.921  1.00  0.00    +0.000 H 
ATOM    131  H40 UNL A   1      54.628  22.378  18.547  1.00  0.00    +0.000 H 
ATOM    132  H41 UNL A   1      57.099  21.727  18.677  1.00  0.00    +0.000 H 
ATOM    133  H42 UNL A   1      56.520  17.368   9.645  1.00  0.00    +0.000 H 
ATOM    134  H43 UNL A   1      54.217  18.427   9.289  1.00  0.00    +0.000 H 
ATOM     33  C26 UNL A   1      53.229  19.819  11.573  1.00  0.00    +0.000 C 
ATOM     34  C27 UNL A   1      54.584  19.195  11.391  1.00  0.00    +0.000 C 
ATOM     35  N3  UNL A   1      55.595  19.156  12.221  1.00  0.00    +0.000 N 
ATOM     36  C28 UNL A   1      56.581  18.413  11.582  1.00  0.00    +0.000 C 
ATOM     37  C29 UNL A   1      57.833  18.130  12.011  1.00  0.00    +0.000 C 
ATOM     49  C36 UNL A   1      58.386  18.593  13.256  1.00  0.00    +0.000 C 
ATOM     50  C37 UNL A   1      59.672  18.436  13.742  1.00  0.00    +0.000 C 
ATOM     51  C38 UNL A   1      59.733  19.015  15.013  1.00  0.00    +0.000 C 
ATOM     52  C39 UNL A   1      58.499  19.573  15.300  1.00  0.00    +0.000 C 
ATOM     53  N4  UNL A   1      57.680  19.307  14.215  1.00  0.00    +0.000 N 
ATOM     54  C40 UNL A   1      58.093  20.293  16.480  1.00  0.00    +0.000 C 
ATOM     66  C47 UNL A   1      56.863  20.826  16.682  1.00  0.00    +0.000 C 
ATOM     67  N5  UNL A   1      55.759  20.819  15.840  1.00  0.00    +0.000 N 
ATOM     68  C48 UNL A   1      54.809  21.450  16.487  1.00  0.00    +0.000 C 
ATOM     69  C49 UNL A   1      53.408  21.771  16.043  1.00  0.00    +0.000 C 
ATOM     81  C56 UNL A   1      53.007  21.391  14.816  1.00  0.00    +0.000 C 
ATOM     82  C57 UNL A   1      51.686  21.630  14.243  1.00  0.00    +0.000 C 
ATOM     83  C58 UNL A   1      51.629  21.072  13.024  1.00  0.00    +0.000 C 
ATOM     84  C59 UNL A   1      52.926  20.466  12.714  1.00  0.00    +0.000 C 
ATOM     85  N6  UNL A   1      53.682  20.711  13.833  1.00  0.00    +0.000 N 
ATOM     86  C60 UNL A   1      55.197  21.901  17.831  1.00  0.00    +0.000 C 
ATOM     87  C61 UNL A   1      56.469  21.533  17.882  1.00  0.00    +0.000 C 
ATOM     88  C62 UNL A   1      56.034  17.988  10.312  1.00  0.00    +0.000 C 
ATOM     89  C63 UNL A   1      54.827  18.499  10.117  1.00  0.00    +0.000 C 
ATOM    125  H34 UNL A   1      60.451  17.971  13.250  1.00  0.00    +0.000 H 
ATOM    126  H35 UNL A   1      60.559  19.024  15.632  1.00  0.00    +0.000 H 
ATOM    127  H36 UNL A   1      56.739  19.581  14.135  1.00  0.00    +0.000 H 
ATOM    128  H37 UNL A   1      50.917  22.144  14.703  1.00  0.00    +0.000 H 
ENDROOT
BRANCH   33   32
ATOM    123  H32 UNL A   1      50.031  17.424   9.249  1.00  0.00    +0.000 H 
ATOM    136  H45 UNL A   1      50.654  21.430   8.123  1.00  0.00    +0.000 H 
ATOM    135  H44 UNL A   1      52.433  21.618   9.759  1.00  0.00    +0.000 H 
ATOM     90  C64 UNL A   1      51.905  20.736   9.670  1.00  0.00    +0.000 C 
ATOM     91  C65 UNL A   1      50.912  20.616   8.702  1.00  0.00    +0.000 C 
ATOM    124  H33 UNL A   1      51.660  17.677  11.030  1.00  0.00    +0.000 H 
ATOM     29  C22 UNL A   1      50.266  19.391   8.513  1.00  0.00    +0.000 C 
ATOM     30  C23 UNL A   1      50.533  18.318   9.368  1.00  0.00    +0.000 C 
ATOM     31  C24 UNL A   1      51.480  18.460  10.382  1.00  0.00    +0.000 C 
ATOM     32  C25 UNL A   1      52.191  19.662  10.526  1.00  0.00    +0.000 C 
BRANCH   29   27
ATOM     27  C21 UNL A   1      49.247  19.224   7.455  1.00  0.00    +0.000 C 
ATOM     28  O4  UNL A   1      48.169  19.805   7.542  1.00  0.00    +0.000 O 
BRANCH   27   26
ATOM     26  N2  UNL A   1      49.514  18.437   6.364  1.00  0.00    +0.000 N 
ATOM    122  H31 UNL A   1      50.243  18.746   5.779  1.00  0.00    +0.000 H 
BRANCH   26   25
ATOM     25  C20 UNL A   1      48.855  17.205   5.960  1.00  0.00    +0.000 C 
ATOM    121  H30 UNL A   1      48.093  17.453   5.251  1.00  0.00    +0.000 H 
ATOM    120  H29 UNL A   1      48.439  16.736   6.827  1.00  0.00    +0.000 H 
BRANCH   25   24
ATOM    118  H27 UNL A   1      50.358  16.763   4.531  1.00  0.00    +0.000 H 
ATOM    119  H28 UNL A   1      50.455  15.855   6.067  1.00  0.00    +0.000 H 
ATOM     24  C19 UNL A   1      49.824  16.231   5.290  1.00  0.00    +0.000 C 
BRANCH   24   23
ATOM    116  H25 UNL A   1      49.866  14.584   3.949  1.00  0.00    +0.000 H 
ATOM    117  H26 UNL A   1      48.906  14.352   5.447  1.00  0.00    +0.000 H 
ATOM     23  C18 UNL A   1      49.167  15.006   4.641  1.00  0.00    +0.000 C 
BRANCH   23   22
ATOM    114  H23 UNL A   1      47.761  16.337   3.754  1.00  0.00    +0.000 H 
ATOM    115  H24 UNL A   1      47.931  14.758   2.950  1.00  0.00    +0.000 H 
ATOM     22  C17 UNL A   1      47.862  15.279   3.882  1.00  0.00    +0.000 C 
BRANCH   22   21
ATOM    113  H22 UNL A   1      46.915  14.470   5.576  1.00  0.00    +0.000 H 
ATOM     21  C16 UNL A   1      46.617  14.760   4.591  1.00  0.00    +0.000 C 
ATOM    112  H21 UNL A   1      46.225  13.939   4.027  1.00  0.00    +0.000 H 
BRANCH   21   20
ATOM     20  C15 UNL A   1      45.520  15.810   4.743  1.00  0.00    +0.000 C 
ATOM    110  H19 UNL A   1      44.569  15.322   4.782  1.00  0.00    +0.000 H 
ATOM    111  H20 UNL A   1      45.692  16.359   5.646  1.00  0.00    +0.000 H 
BRANCH   20   19
ATOM     19  N1  UNL A   1      45.538  16.729   3.628  1.00  0.00    +0.000 N 
ATOM    109  H18 UNL A   1      45.692  16.328   2.742  1.00  0.00    +0.000 H 
BRANCH   19   17
ATOM     17  C14 UNL A   1      45.367  18.078   3.649  1.00  0.00    +0.000 C 
ATOM     18  O3  UNL A   1      46.040  18.752   4.429  1.00  0.00    +0.000 O 
BRANCH   17   16
ATOM    107  H16 UNL A   1      44.028  17.993   2.017  1.00  0.00    +0.000 H 
ATOM    108  H17 UNL A   1      43.543  19.067   3.347  1.00  0.00    +0.000 H 
ATOM     16  C13 UNL A   1      44.349  18.722   2.733  1.00  0.00    +0.000 C 
BRANCH   16   15
ATOM    105  H14 UNL A   1      45.594  20.421   2.625  1.00  0.00    +0.000 H 
ATOM    106  H15 UNL A   1      45.297  19.526   1.077  1.00  0.00    +0.000 H 
ATOM     15  C12 UNL A   1      44.893  19.934   1.979  1.00  0.00    +0.000 C 
BRANCH   15   14
ATOM     14  C11 UNL A   1      43.892  21.002   1.502  1.00  0.00    +0.000 C 
ATOM    103  H12 UNL A   1      43.985  21.852   2.144  1.00  0.00    +0.000 H 
ATOM    104  H13 UNL A   1      44.141  21.204   0.481  1.00  0.00    +0.000 H 
BRANCH   14   13
ATOM    101  H10 UNL A   1      42.355  19.659   2.058  1.00  0.00    +0.000 H 
ATOM     13  C10 UNL A   1      42.421  20.569   1.501  1.00  0.00    +0.000 C 
ATOM    102  H11 UNL A   1      41.893  21.403   1.915  1.00  0.00    +0.000 H 
BRANCH   13   12
ATOM    100  H9  UNL A   1      42.459  19.688  -0.349  1.00  0.00    +0.000 H 
ATOM     99  H8  UNL A   1      41.552  21.290  -0.273  1.00  0.00    +0.000 H 
ATOM     12  C9  UNL A   1      41.752  20.324   0.141  1.00  0.00    +0.000 C 
BRANCH   12   11
ATOM     11  S1  UNL A   1      40.198  19.366  -0.012  1.00  0.00    +0.000 S 
BRANCH   11   10
ATOM     97  H6  UNL A   1      38.773  18.522   4.526  1.00  0.00    +0.000 H 
ATOM     98  H7  UNL A   1      40.111  18.195   2.534  1.00  0.00    +0.000 H 
ATOM      5  C3  UNL A   1      38.368  20.859   1.533  1.00  0.00    +0.000 C 
ATOM      6  C4  UNL A   1      37.593  21.049   2.688  1.00  0.00    +0.000 C 
ATOM      7  C5  UNL A   1      37.729  20.189   3.775  1.00  0.00    +0.000 C 
ATOM      8  C6  UNL A   1      38.653  19.151   3.717  1.00  0.00    +0.000 C 
ATOM      9  C7  UNL A   1      39.418  18.959   2.560  1.00  0.00    +0.000 C 
ATOM     10  C8  UNL A   1      39.263  19.786   1.433  1.00  0.00    +0.000 C 
ATOM     95  H4  UNL A   1      36.920  21.829   2.733  1.00  0.00    +0.000 H 
ATOM     96  H5  UNL A   1      37.148  20.320   4.617  1.00  0.00    +0.000 H 
BRANCH    5    4
ATOM      4  O2  UNL A   1      37.961  21.717   0.458  1.00  0.00    +0.000 O 
BRANCH    4    2
ATOM      2  C2  UNL A   1      37.049  21.636  -0.603  1.00  0.00    +0.000 C 
ATOM      3  O1  UNL A   1      35.926  21.156  -0.588  1.00  0.00    +0.000 O 
BRANCH    2    1
ATOM      1  C1  UNL A   1      37.701  22.241  -1.812  1.00  0.00    +0.000 C 
ATOM     92  H1  UNL A   1      38.712  21.898  -1.882  1.00  0.00    +0.000 H 
ATOM     93  H2  UNL A   1      37.691  23.308  -1.726  1.00  0.00    +0.000 H 
ATOM     94  H3  UNL A   1      37.163  21.949  -2.690  1.00  0.00    +0.000 H 
ENDBRANCH    2    1
ENDBRANCH    4    2
ENDBRANCH    5    4
ENDBRANCH   11   10
ENDBRANCH   12   11
ENDBRANCH   13   12
ENDBRANCH   14   13
ENDBRANCH   15   14
ENDBRANCH   16   15
ENDBRANCH   17   16
ENDBRANCH   19   17
ENDBRANCH   20   19
ENDBRANCH   21   20
ENDBRANCH   22   21
ENDBRANCH   23   22
ENDBRANCH   24   23
ENDBRANCH   25   24
ENDBRANCH   26   25
ENDBRANCH   27   26
ENDBRANCH   29   27
ENDBRANCH   33   32
BRANCH   37   38
ATOM     38  C30 UNL A   1      58.699  17.280  11.128  1.00  0.00    +0.000 C 
ATOM     39  C31 UNL A   1      58.740  15.884  11.259  1.00  0.00    +0.000 C 
ATOM     40  F1  UNL A   1      58.042  15.276  12.229  1.00  0.00    +0.000 F 
ATOM     41  C32 UNL A   1      59.525  15.108  10.410  1.00  0.00    +0.000 C 
ATOM     42  F2  UNL A   1      59.580  13.779  10.580  1.00  0.00    +0.000 F 
ATOM     43  C33 UNL A   1      60.258  15.707   9.396  1.00  0.00    +0.000 C 
ATOM     44  F3  UNL A   1      61.004  14.957   8.573  1.00  0.00    +0.000 F 
ATOM     45  C34 UNL A   1      60.219  17.084   9.239  1.00  0.00    +0.000 C 
ATOM     46  F4  UNL A   1      60.918  17.664   8.253  1.00  0.00    +0.000 F 
ATOM     47  C35 UNL A   1      59.458  17.865  10.103  1.00  0.00    +0.000 C 
ATOM     48  F5  UNL A   1      59.450  19.196   9.931  1.00  0.00    +0.000 F 
ENDBRANCH   37   38
BRANCH   54   55
ATOM     65  F10 UNL A   1      59.603  22.682  16.766  1.00  0.00    +0.000 F 
ATOM     55  C41 UNL A   1      59.113  20.492  17.561  1.00  0.00    +0.000 C 
ATOM     56  C42 UNL A   1      59.401  19.486  18.495  1.00  0.00    +0.000 C 
ATOM     57  F6  UNL A   1      58.723  18.329  18.470  1.00  0.00    +0.000 F 
ATOM     58  C43 UNL A   1      60.362  19.682  19.482  1.00  0.00    +0.000 C 
ATOM     59  F7  UNL A   1      60.589  18.725  20.392  1.00  0.00    +0.000 F 
ATOM     60  C44 UNL A   1      61.074  20.871  19.535  1.00  0.00    +0.000 C 
ATOM     61  F8  UNL A   1      62.003  21.055  20.482  1.00  0.00    +0.000 F 
ATOM     62  C45 UNL A   1      60.818  21.872  18.611  1.00  0.00    +0.000 C 
ATOM     63  F9  UNL A   1      61.514  23.017  18.653  1.00  0.00    +0.000 F 
ATOM     64  C46 UNL A   1      59.838  21.691  17.639  1.00  0.00    +0.000 C 
ENDBRANCH   54   55
BRANCH   69   70
ATOM     70  C50 UNL A   1      52.484  22.523  16.931  1.00  0.00    +0.000 C 
ATOM     71  C51 UNL A   1      51.742  21.859  17.918  1.00  0.00    +0.000 C 
ATOM     72  F11 UNL A   1      51.862  20.531  18.064  1.00  0.00    +0.000 F 
ATOM     73  C52 UNL A   1      50.843  22.549  18.728  1.00  0.00    +0.000 C 
ATOM     74  F12 UNL A   1      50.112  21.882  19.631  1.00  0.00    +0.000 F 
ATOM     75  C53 UNL A   1      50.691  23.920  18.587  1.00  0.00    +0.000 C 
ATOM     76  F13 UNL A   1      49.826  24.583  19.367  1.00  0.00    +0.000 F 
ATOM     77  C54 UNL A   1      51.431  24.601  17.632  1.00  0.00    +0.000 C 
ATOM     78  F14 UNL A   1      51.296  25.928  17.504  1.00  0.00    +0.000 F 
ATOM     79  C55 UNL A   1      52.309  23.908  16.803  1.00  0.00    +0.000 C 
ATOM     80  F15 UNL A   1      53.000  24.590  15.879  1.00  0.00    +0.000 F 
ENDBRANCH   69   70
TORSDOF 24
ENDMDL
MODEL 5
REMARK VINA RESULT:      -9.2      1.234      2.487
ROOT
ATOM    129  H38 UNL A   1      38.827  26.849  27.728  1.00  0.00    +0.000 H 
ATOM    130  H39 UNL A   1      42.523  27.554  29.494  1.00  0.00    +0.000 H 
ATOM    131  H40 UNL A   1      45.452  23.691  28.185  1.00  0.00    +0.000 H 
ATOM    132  H41 UNL A   1      47.276  24.754  29.632  1.00  0.00    +0.000 H 
ATOM    133  H42 UNL A   1      41.329  32.628  31.512  1.00  0.00    +0.000 H 
ATOM    134  H43 UNL A   1      39.348  31.367  30.492  1.00  0.00    +0.000 H 
ATOM     33  C26 UNL A   1      40.060  28.867  29.319  1.00  0.00    +0.000 C 
ATOM     34  C27 UNL A   1      40.939  29.797  30.108  1.00  0.00    +0.000 C 
ATOM     35  N3  UNL A   1      42.201  29.668  30.432  1.00  0.00    +0.000 N 
ATOM     36  C28 UNL A   1      42.537  30.831  31.115  1.00  0.00    +0.000 C 
ATOM     37  C29 UNL A   1      43.717  31.157  31.694  1.00  0.00    +0.000 C 
ATOM     49  C36 UNL A   1      44.871  30.297  31.717  1.00  0.00    +0.000 C 
ATOM     50  C37 UNL A   1      46.083  30.496  32.353  1.00  0.00    +0.000 C 
ATOM     51  C38 UNL A   1      46.916  29.412  32.057  1.00  0.00    +0.000 C 
ATOM     52  C39 UNL A   1      46.206  28.516  31.275  1.00  0.00    +0.000 C 
ATOM     53  N4  UNL A   1      44.953  29.071  31.072  1.00  0.00    +0.000 N 
ATOM     54  C40 UNL A   1      46.641  27.248  30.747  1.00  0.00    +0.000 C 
ATOM     66  C47 UNL A   1      45.879  26.415  29.996  1.00  0.00    +0.000 C 
ATOM     67  N5  UNL A   1      44.561  26.567  29.589  1.00  0.00    +0.000 N 
ATOM     68  C48 UNL A   1      44.279  25.504  28.876  1.00  0.00    +0.000 C 
ATOM     69  C49 UNL A   1      42.984  25.119  28.213  1.00  0.00    +0.000 C 
ATOM     81  C56 UNL A   1      41.920  25.935  28.331  1.00  0.00    +0.000 C 
ATOM     82  C57 UNL A   1      40.602  25.700  27.750  1.00  0.00    +0.000 C 
ATOM     83  C58 UNL A   1      39.806  26.742  28.035  1.00  0.00    +0.000 C 
ATOM     84  C59 UNL A   1      40.550  27.704  28.851  1.00  0.00    +0.000 C 
ATOM     85  N6  UNL A   1      41.793  27.137  28.982  1.00  0.00    +0.000 N 
ATOM     86  C60 UNL A   1      45.403  24.569  28.725  1.00  0.00    +0.000 C 
ATOM     87  C61 UNL A   1      46.339  25.151  29.462  1.00  0.00    +0.000 C 
ATOM     88  C62 UNL A   1      41.360  31.671  31.125  1.00  0.00    +0.000 C 
ATOM     89  C63 UNL A   1      40.326  31.052  30.574  1.00  0.00    +0.000 C 
ATOM    125  H34 UNL A   1      46.330  31.305  32.944  1.00  0.00    +0.000 H 
ATOM    126  H35 UNL A   1      47.893  29.300  32.370  1.00  0.00    +0.000 H 
ATOM    127  H36 UNL A   1      44.230  28.658  30.548  1.00  0.00    +0.000 H 
ATOM    128  H37 UNL A   1      40.327  24.867  27.206  1.00  0.00    +0.000 H 
ENDROOT
BRANCH   33   32
ATOM    123  H32 UNL A   1      36.805  30.584  26.524  1.00  0.00    +0.000 H 
ATOM    136  H45 UNL A   1      35.592  29.249  30.325  1.00  0.00    +0.000 H 
ATOM    135  H44 UNL A   1      37.893  28.733  30.884  1.00  0.00    +0.000 H 
ATOM     90  C64 UNL A   1      37.659  29.101  29.948  1.00  0.00    +0.000 C 
ATOM     91  C65 UNL A   1      36.344  29.435  29.643  1.00  0.00    +0.000 C 
ATOM    124  H33 UNL A   1      39.074  29.868  27.002  1.00  0.00    +0.000 H 
ATOM     29  C22 UNL A   1      36.040  30.026  28.413  1.00  0.00    +0.000 C 
ATOM     30  C23 UNL A   1      37.036  30.178  27.444  1.00  0.00    +0.000 C 
ATOM     31  C24 UNL A   1      38.343  29.780  27.726  1.00  0.00    +0.000 C 
ATOM     32  C25 UNL A   1      38.670  29.260  28.988  1.00  0.00    +0.000 C 
BRANCH   29   27
ATOM     27  C21 UNL A   1      34.659  30.440  28.089  1.00  0.00    +0.000 C 
ATOM     28  O4  UNL A   1      34.301  31.598  28.287  1.00  0.00    +0.000 O 
BRANCH   27   26
ATOM     26  N2  UNL A   1      33.782  29.538  27.544  1.00  0.00    +0.000 N 
ATOM    122  H31 UNL A   1      33.373  28.902  28.174  1.00  0.00    +0.000 H 
BRANCH   26   25
ATOM     25  C20 UNL A   1      33.378  29.403  26.153  1.00  0.00    +0.000 C 
ATOM    121  H30 UNL A   1      33.765  30.241  25.613  1.00  0.00    +0.000 H 
ATOM    120  H29 UNL A   1      32.309  29.372  26.105  1.00  0.00    +0.000 H 
BRANCH   25   24
ATOM    118  H27 UNL A   1      34.969  28.050  25.786  1.00  0.00    +0.000 H 
ATOM    119  H28 UNL A   1      33.338  27.324  25.883  1.00  0.00    +0.000 H 
ATOM     24  C19 UNL A   1      33.937  28.131  25.516  1.00  0.00    +0.000 C 
BRANCH   24   23
ATOM    116  H25 UNL A   1      33.048  28.730  23.682  1.00  0.00    +0.000 H 
ATOM    117  H26 UNL A   1      34.804  28.366  23.621  1.00  0.00    +0.000 H 
ATOM     23  C18 UNL A   1      33.840  28.077  23.986  1.00  0.00    +0.000 C 
BRANCH   23   22
ATOM    114  H23 UNL A   1      34.498  26.188  23.256  1.00  0.00    +0.000 H 
ATOM    115  H24 UNL A   1      32.916  26.182  24.073  1.00  0.00    +0.000 H 
ATOM     22  C17 UNL A   1      33.562  26.692  23.389  1.00  0.00    +0.000 C 
BRANCH   22   21
ATOM    113  H22 UNL A   1      33.319  26.013  21.413  1.00  0.00    +0.000 H 
ATOM     21  C16 UNL A   1      32.844  26.732  22.045  1.00  0.00    +0.000 C 
ATOM    112  H21 UNL A   1      32.916  27.726  21.653  1.00  0.00    +0.000 H 
BRANCH   21   20
ATOM     20  C15 UNL A   1      31.369  26.352  22.131  1.00  0.00    +0.000 C 
ATOM    110  H19 UNL A   1      30.876  26.649  21.229  1.00  0.00    +0.000 H 
ATOM    111  H20 UNL A   1      31.294  25.292  22.262  1.00  0.00    +0.000 H 
BRANCH   20   19
ATOM     19  N1  UNL A   1      30.739  27.006  23.255  1.00  0.00    +0.000 N 
ATOM    109  H18 UNL A   1      31.046  27.922  23.447  1.00  0.00    +0.000 H 
BRANCH   19   17
ATOM     17  C14 UNL A   1      29.775  26.516  24.080  1.00  0.00    +0.000 C 
ATOM     18  O3  UNL A   1      28.603  26.531  23.702  1.00  0.00    +0.000 O 
BRANCH   17   16
ATOM    107  H16 UNL A   1      30.616  26.766  26.002  1.00  0.00    +0.000 H 
ATOM    108  H17 UNL A   1      29.254  25.629  25.906  1.00  0.00    +0.000 H 
ATOM     16  C13 UNL A   1      30.154  25.979  25.443  1.00  0.00    +0.000 C 
BRANCH   16   15
ATOM    105  H14 UNL A   1      30.530  23.912  25.252  1.00  0.00    +0.000 H 
ATOM    106  H15 UNL A   1      31.782  25.037  24.578  1.00  0.00    +0.000 H 
ATOM     15  C12 UNL A   1      31.119  24.796  25.382  1.00  0.00    +0.000 C 
BRANCH   15   14
ATOM     14  C11 UNL A   1      32.048  24.555  26.585  1.00  0.00    +0.000 C 
ATOM    103  H12 UNL A   1      33.059  24.622  26.242  1.00  0.00    +0.000 H 
ATOM    104  H13 UNL A   1      31.790  25.297  27.312  1.00  0.00    +0.000 H 
BRANCH   14   13
ATOM    101  H10 UNL A   1      31.409  23.387  28.230  1.00  0.00    +0.000 H 
ATOM     13  C10 UNL A   1      31.876  23.201  27.286  1.00  0.00    +0.000 C 
ATOM    102  H11 UNL A   1      31.307  22.611  26.599  1.00  0.00    +0.000 H 
BRANCH   13   12
ATOM    100  H9  UNL A   1      32.845  21.772  28.390  1.00  0.00    +0.000 H 
ATOM     99  H8  UNL A   1      33.938  23.075  27.681  1.00  0.00    +0.000 H 
ATOM     12  C9  UNL A   1      33.140  22.373  27.555  1.00  0.00    +0.000 C 
BRANCH   12   11
ATOM     11  S1  UNL A   1      33.743  21.117  26.367  1.00  0.00    +0.000 S 
BRANCH   11   10
ATOM     97  H6  UNL A   1      31.434  21.493  22.140  1.00  0.00    +0.000 H 
ATOM     98  H7  UNL A   1      31.776  20.717  24.408  1.00  0.00    +0.000 H 
ATOM      5  C3  UNL A   1      34.345  22.840  24.215  1.00  0.00    +0.000 C 
ATOM      6  C4  UNL A   1      34.146  23.290  22.899  1.00  0.00    +0.000 C 
ATOM      7  C5  UNL A   1      33.094  22.789  22.136  1.00  0.00    +0.000 C 
ATOM      8  C6  UNL A   1      32.228  21.854  22.692  1.00  0.00    +0.000 C 
ATOM      9  C7  UNL A   1      32.434  21.400  24.001  1.00  0.00    +0.000 C 
ATOM     10  C8  UNL A   1      33.518  21.857  24.773  1.00  0.00    +0.000 C 
ATOM     95  H4  UNL A   1      34.781  23.996  22.496  1.00  0.00    +0.000 H 
ATOM     96  H5  UNL A   1      32.958  23.110  21.165  1.00  0.00    +0.000 H 
BRANCH    5    4
ATOM      4  O2  UNL A   1      35.575  23.321  24.773  1.00  0.00    +0.000 O 
BRANCH    4    2
ATOM      2  C2  UNL A   1      36.880  22.829  24.902  1.00  0.00    +0.000 C 
ATOM      3  O1  UNL A   1      37.350  21.816  24.408  1.00  0.00    +0.000 O 
BRANCH    2    1
ATOM      1  C1  UNL A   1      37.637  23.771  25.793  1.00  0.00    +0.000 C 
ATOM     92  H1  UNL A   1      38.445  24.209  25.246  1.00  0.00    +0.000 H 
ATOM     93  H2  UNL A   1      38.026  23.233  26.633  1.00  0.00    +0.000 H 
ATOM     94  H3  UNL A   1      36.980  24.542  26.138  1.00  0.00    +0.000 H 
ENDBRANCH    2    1
ENDBRANCH    4    2
ENDBRANCH    5    4
ENDBRANCH   11   10
ENDBRANCH   12   11
ENDBRANCH   13   12
ENDBRANCH   14   13
ENDBRANCH   15   14
ENDBRANCH   16   15
ENDBRANCH   17   16
ENDBRANCH   19   17
ENDBRANCH   20   19
ENDBRANCH   21   20
ENDBRANCH   22   21
ENDBRANCH   23   22
ENDBRANCH   24   23
ENDBRANCH   25   24
ENDBRANCH   26   25
ENDBRANCH   27   26
ENDBRANCH   29   27
ENDBRANCH   33   32
BRANCH   37   38
ATOM     38  C30 UNL A   1      43.824  32.499  32.355  1.00  0.00    +0.000 C 
ATOM     39  C31 UNL A   1      43.490  32.684  33.706  1.00  0.00    +0.000 C 
ATOM     40  F1  UNL A   1      43.002  31.664  34.426  1.00  0.00    +0.000 F 
ATOM     41  C32 UNL A   1      43.626  33.931  34.312  1.00  0.00    +0.000 C 
ATOM     42  F2  UNL A   1      43.262  34.094  35.591  1.00  0.00    +0.000 F 
ATOM     43  C33 UNL A   1      44.129  35.004  33.593  1.00  0.00    +0.000 C 
ATOM     44  F3  UNL A   1      44.270  36.200  34.182  1.00  0.00    +0.000 F 
ATOM     45  C34 UNL A   1      44.481  34.839  32.262  1.00  0.00    +0.000 C 
ATOM     46  F4  UNL A   1      44.978  35.873  31.569  1.00  0.00    +0.000 F 
ATOM     47  C35 UNL A   1      44.320  33.602  31.645  1.00  0.00    +0.000 C 
ATOM     48  F5  UNL A   1      44.660  33.477  30.353  1.00  0.00    +0.000 F 
ENDBRANCH   37   38
BRANCH   54   55
ATOM     65  F10 UNL A   1      48.908  28.018  29.219  1.00  0.00    +0.000 F 
ATOM     55  C41 UNL A   1      48.035  26.799  31.068  1.00  0.00    +0.000 C 
ATOM     56  C42 UNL A   1      48.302  25.941  32.144  1.00  0.00    +0.000 C 
ATOM     57  F6  UNL A   1      47.307  25.542  32.951  1.00  0.00    +0.000 F 
ATOM     58  C43 UNL A   1      49.600  25.522  32.419  1.00  0.00    +0.000 C 
ATOM     59  F7  UNL A   1      49.839  24.738  33.479  1.00  0.00    +0.000 F 
ATOM     60  C44 UNL A   1      50.649  25.924  31.605  1.00  0.00    +0.000 C 
ATOM     61  F8  UNL A   1      51.897  25.514  31.867  1.00  0.00    +0.000 F 
ATOM     62  C45 UNL A   1      50.405  26.758  30.525  1.00  0.00    +0.000 C 
ATOM     63  F9  UNL A   1      51.416  27.137  29.730  1.00  0.00    +0.000 F 
ATOM     64  C46 UNL A   1      49.112  27.202  30.264  1.00  0.00    +0.000 C 
ENDBRANCH   54   55
BRANCH   69   70
ATOM     70  C50 UNL A   1      42.867  23.844  27.460  1.00  0.00    +0.000 C 
ATOM     71  C51 UNL A   1      43.206  23.782  26.100  1.00  0.00    +0.000 C 
ATOM     72  F11 UNL A   1      43.636  24.884  25.468  1.00  0.00    +0.000 F 
ATOM     73  C52 UNL A   1      43.060  22.602  25.376  1.00  0.00    +0.000 C 
ATOM     74  F12 UNL A   1      43.344  22.584  24.067  1.00  0.00    +0.000 F 
ATOM     75  C53 UNL A   1      42.604  21.453  26.003  1.00  0.00    +0.000 C 
ATOM     76  F13 UNL A   1      42.464  20.317  25.305  1.00  0.00    +0.000 F 
ATOM     77  C54 UNL A   1      42.284  21.484  27.352  1.00  0.00    +0.000 C 
ATOM     78  F14 UNL A   1      41.857  20.371  27.964  1.00  0.00    +0.000 F 
ATOM     79  C55 UNL A   1      42.403  22.671  28.071  1.00  0.00    +0.000 C 
ATOM     80  F15 UNL A   1      42.073  22.676  29.371  1.00  0.00    +0.000 F 
ENDBRANCH   69   70
TORSDOF 24
ENDMDL
MODEL 6
REMARK VINA RESULT:      -9.1     19.251     23.797
ROOT
ATOM    129  H38 UNL A   1      51.018  20.966  12.483  1.00  0.00    +0.000 H 
ATOM    130  H39 UNL A   1      54.824  20.454  14.073  1.00  0.00    +0.000 H 
ATOM    131  H40 UNL A   1      54.707  22.506  18.655  1.00  0.00    +0.000 H 
ATOM    132  H41 UNL A   1      57.192  21.922  18.837  1.00  0.00    +0.000 H 
ATOM    133  H42 UNL A   1      56.869  17.354   9.897  1.00  0.00    +0.000 H 
ATOM    134  H43 UNL A   1      54.546  18.345   9.481  1.00  0.00    +0.000 H 
ATOM     33  C26 UNL A   1      53.486  19.760  11.718  1.00  0.00    +0.000 C 
ATOM     34  C27 UNL A   1      54.859  19.167  11.571  1.00  0.00    +0.000 C 
ATOM     35  N3  UNL A   1      55.858  19.173  12.417  1.00  0.00    +0.000 N 
ATOM     36  C28 UNL A   1      56.872  18.442  11.810  1.00  0.00    +0.000 C 
ATOM     37  C29 UNL A   1      58.124  18.201  12.264  1.00  0.00    +0.000 C 
ATOM     49  C36 UNL A   1      58.645  18.705  13.508  1.00  0.00    +0.000 C 
ATOM     50  C37 UNL A   1      59.927  18.592  14.017  1.00  0.00    +0.000 C 
ATOM     51  C38 UNL A   1      59.953  19.200  15.275  1.00  0.00    +0.000 C 
ATOM     52  C39 UNL A   1      58.700  19.732  15.531  1.00  0.00    +0.000 C 
ATOM     53  N4  UNL A   1      57.906  19.421  14.439  1.00  0.00    +0.000 N 
ATOM     54  C40 UNL A   1      58.257  20.467  16.688  1.00  0.00    +0.000 C 
ATOM     66  C47 UNL A   1      57.011  20.972  16.860  1.00  0.00    +0.000 C 
ATOM     67  N5  UNL A   1      55.921  20.918  16.001  1.00  0.00    +0.000 N 
ATOM     68  C48 UNL A   1      54.945  21.538  16.618  1.00  0.00    +0.000 C 
ATOM     69  C49 UNL A   1      53.544  21.813  16.146  1.00  0.00    +0.000 C 
ATOM     81  C56 UNL A   1      53.172  21.396  14.921  1.00  0.00    +0.000 C 
ATOM     82  C57 UNL A   1      51.854  21.588  14.323  1.00  0.00    +0.000 C 
ATOM     83  C58 UNL A   1      51.832  21.003  13.116  1.00  0.00    +0.000 C 
ATOM     84  C59 UNL A   1      53.149  20.424  12.840  1.00  0.00    +0.000 C 
ATOM     85  N6  UNL A   1      53.880  20.712  13.964  1.00  0.00    +0.000 N 
ATOM     86  C60 UNL A   1      55.299  22.028  17.958  1.00  0.00    +0.000 C 
ATOM     87  C61 UNL A   1      56.580  21.695  18.037  1.00  0.00    +0.000 C 
ATOM     88  C62 UNL A   1      56.357  17.975  10.542  1.00  0.00    +0.000 C 
ATOM     89  C63 UNL A   1      55.140  18.451  10.317  1.00  0.00    +0.000 C 
ATOM    125  H34 UNL A   1      60.725  18.137  13.547  1.00  0.00    +0.000 H 
ATOM    126  H35 UNL A   1      60.768  19.245  15.907  1.00  0.00    +0.000 H 
ATOM    127  H36 UNL A   1      56.959  19.669  14.339  1.00  0.00    +0.000 H 
ATOM    128  H37 UNL A   1      51.066  22.092  14.759  1.00  0.00    +0.000 H 
ENDROOT
BRANCH   33   32
ATOM    123  H32 UNL A   1      50.304  17.272   9.473  1.00  0.00    +0.000 H 
ATOM    136  H45 UNL A   1      51.015  21.191   8.116  1.00  0.00    +0.000 H 
ATOM    135  H44 UNL A   1      52.759  21.455   9.778  1.00  0.00    +0.000 H 
ATOM     90  C64 UNL A   1      52.220  20.576   9.731  1.00  0.00    +0.000 C 
ATOM     91  C65 UNL A   1      51.247  20.411   8.750  1.00  0.00    +0.000 C 
ATOM    124  H33 UNL A   1      51.896  17.611  11.272  1.00  0.00    +0.000 H 
ATOM     29  C22 UNL A   1      50.585  19.186   8.622  1.00  0.00    +0.000 C 
ATOM     30  C23 UNL A   1      50.817  18.164   9.548  1.00  0.00    +0.000 C 
ATOM     31  C24 UNL A   1      51.743  18.355  10.573  1.00  0.00    +0.000 C 
ATOM     32  C25 UNL A   1      52.469  19.554  10.659  1.00  0.00    +0.000 C 
BRANCH   29   27
ATOM     27  C21 UNL A   1      49.589  18.968   7.553  1.00  0.00    +0.000 C 
ATOM     28  O4  UNL A   1      48.551  19.624   7.537  1.00  0.00    +0.000 O 
BRANCH   27   26
ATOM     26  N2  UNL A   1      49.831  18.049   6.564  1.00  0.00    +0.000 N 
ATOM    122  H31 UNL A   1      50.544  18.282   5.927  1.00  0.00    +0.000 H 
BRANCH   26   25
ATOM     25  C20 UNL A   1      49.169  16.774   6.339  1.00  0.00    +0.000 C 
ATOM    121  H30 UNL A   1      48.451  16.632   7.118  1.00  0.00    +0.000 H 
ATOM    120  H29 UNL A   1      49.905  15.997   6.344  1.00  0.00    +0.000 H 
BRANCH   25   24
ATOM    118  H27 UNL A   1      49.093  17.104   4.246  1.00  0.00    +0.000 H 
ATOM    119  H28 UNL A   1      48.126  15.728   4.851  1.00  0.00    +0.000 H 
ATOM     24  C19 UNL A   1      48.429  16.743   5.002  1.00  0.00    +0.000 C 
BRANCH   24   23
ATOM    116  H25 UNL A   1      46.402  17.020   4.429  1.00  0.00    +0.000 H 
ATOM    117  H26 UNL A   1      46.894  17.795   5.970  1.00  0.00    +0.000 H 
ATOM     23  C18 UNL A   1      47.146  17.584   4.952  1.00  0.00    +0.000 C 
BRANCH   23   22
ATOM    114  H23 UNL A   1      48.268  19.314   4.421  1.00  0.00    +0.000 H 
ATOM    115  H24 UNL A   1      47.058  18.790   3.224  1.00  0.00    +0.000 H 
ATOM     22  C17 UNL A   1      47.275  18.946   4.260  1.00  0.00    +0.000 C 
BRANCH   22   21
ATOM    113  H22 UNL A   1      46.864  20.799   5.167  1.00  0.00    +0.000 H 
ATOM     21  C16 UNL A   1      46.288  19.991   4.768  1.00  0.00    +0.000 C 
ATOM    112  H21 UNL A   1      45.663  19.534   5.509  1.00  0.00    +0.000 H 
BRANCH   21   20
ATOM     20  C15 UNL A   1      45.396  20.570   3.674  1.00  0.00    +0.000 C 
ATOM    110  H19 UNL A   1      45.134  21.575   3.929  1.00  0.00    +0.000 H 
ATOM    111  H20 UNL A   1      45.931  20.551   2.747  1.00  0.00    +0.000 H 
BRANCH   20   19
ATOM     19  N1  UNL A   1      44.191  19.785   3.532  1.00  0.00    +0.000 N 
ATOM    109  H18 UNL A   1      43.483  19.961   4.193  1.00  0.00    +0.000 H 
BRANCH   19   17
ATOM     17  C14 UNL A   1      43.912  18.835   2.599  1.00  0.00    +0.000 C 
ATOM     18  O3  UNL A   1      44.444  17.729   2.697  1.00  0.00    +0.000 O 
BRANCH   17   16
ATOM    107  H16 UNL A   1      43.518  19.082   0.538  1.00  0.00    +0.000 H 
ATOM    108  H17 UNL A   1      42.166  18.455   1.504  1.00  0.00    +0.000 H 
ATOM     16  C13 UNL A   1      42.973  19.156   1.457  1.00  0.00    +0.000 C 
BRANCH   16   15
ATOM    105  H14 UNL A   1      41.692  20.554   2.381  1.00  0.00    +0.000 H 
ATOM    106  H15 UNL A   1      43.207  21.206   1.629  1.00  0.00    +0.000 H 
ATOM     15  C12 UNL A   1      42.364  20.554   1.547  1.00  0.00    +0.000 C 
BRANCH   15   14
ATOM     14  C11 UNL A   1      41.584  21.086   0.332  1.00  0.00    +0.000 C 
ATOM    103  H12 UNL A   1      40.762  21.667   0.694  1.00  0.00    +0.000 H 
ATOM    104  H13 UNL A   1      42.287  21.648  -0.247  1.00  0.00    +0.000 H 
BRANCH   14   13
ATOM    101  H10 UNL A   1      41.059  20.408  -1.603  1.00  0.00    +0.000 H 
ATOM     13  C10 UNL A   1      41.023  20.013  -0.610  1.00  0.00    +0.000 C 
ATOM    102  H11 UNL A   1      41.635  19.153  -0.435  1.00  0.00    +0.000 H 
BRANCH   13   12
ATOM    100  H9  UNL A   1      39.731  18.480  -0.187  1.00  0.00    +0.000 H 
ATOM     99  H8  UNL A   1      39.016  19.834  -1.212  1.00  0.00    +0.000 H 
ATOM     12  C9  UNL A   1      39.589  19.526  -0.362  1.00  0.00    +0.000 C 
BRANCH   12   11
ATOM     11  S1  UNL A   1      38.636  20.040   1.115  1.00  0.00    +0.000 S 
BRANCH   11   10
ATOM     97  H6  UNL A   1      37.013  23.272  -2.090  1.00  0.00    +0.000 H 
ATOM     98  H7  UNL A   1      38.548  21.623  -1.199  1.00  0.00    +0.000 H 
ATOM      5  C3  UNL A   1      36.137  21.352   1.094  1.00  0.00    +0.000 C 
ATOM      6  C4  UNL A   1      35.248  22.308   0.577  1.00  0.00    +0.000 C 
ATOM      7  C5  UNL A   1      35.572  23.020  -0.575  1.00  0.00    +0.000 C 
ATOM      8  C6  UNL A   1      36.775  22.763  -1.224  1.00  0.00    +0.000 C 
ATOM      9  C7  UNL A   1      37.665  21.816  -0.701  1.00  0.00    +0.000 C 
ATOM     10  C8  UNL A   1      37.379  21.121   0.488  1.00  0.00    +0.000 C 
ATOM     95  H4  UNL A   1      34.349  22.484   1.052  1.00  0.00    +0.000 H 
ATOM     96  H5  UNL A   1      34.924  23.732  -0.946  1.00  0.00    +0.000 H 
BRANCH    5    4
ATOM      4  O2  UNL A   1      35.722  20.862   2.377  1.00  0.00    +0.000 O 
BRANCH    4    2
ATOM      2  C2  UNL A   1      35.985  21.194   3.712  1.00  0.00    +0.000 C 
ATOM      3  O1  UNL A   1      36.417  22.249   4.150  1.00  0.00    +0.000 O 
BRANCH    2    1
ATOM      1  C1  UNL A   1      35.655  19.995   4.554  1.00  0.00    +0.000 C 
ATOM     92  H1  UNL A   1      34.611  19.999   4.786  1.00  0.00    +0.000 H 
ATOM     93  H2  UNL A   1      36.222  20.031   5.462  1.00  0.00    +0.000 H 
ATOM     94  H3  UNL A   1      35.900  19.104   4.016  1.00  0.00    +0.000 H 
ENDBRANCH    2    1
ENDBRANCH    4    2
ENDBRANCH    5    4
ENDBRANCH   11   10
ENDBRANCH   12   11
ENDBRANCH   13   12
ENDBRANCH   14   13
ENDBRANCH   15   14
ENDBRANCH   16   15
ENDBRANCH   17   16
ENDBRANCH   19   17
ENDBRANCH   20   19
ENDBRANCH   21   20
ENDBRANCH   22   21
ENDBRANCH   23   22
ENDBRANCH   24   23
ENDBRANCH   25   24
ENDBRANCH   26   25
ENDBRANCH   27   26
ENDBRANCH   29   27
ENDBRANCH   33   32
BRANCH   37   38
ATOM     38  C30 UNL A   1      59.026  17.355  11.415  1.00  0.00    +0.000 C 
ATOM     39  C31 UNL A   1      59.865  17.919  10.441  1.00  0.00    +0.000 C 
ATOM     40  F1  UNL A   1      59.831  19.238  10.205  1.00  0.00    +0.000 F 
ATOM     41  C32 UNL A   1      60.718  17.121   9.683  1.00  0.00    +0.000 C 
ATOM     42  F2  UNL A   1      61.480  17.677   8.730  1.00  0.00    +0.000 F 
ATOM     43  C33 UNL A   1      60.775  15.754   9.905  1.00  0.00    +0.000 C 
ATOM     44  F3  UNL A   1      61.606  14.990   9.182  1.00  0.00    +0.000 F 
ATOM     45  C34 UNL A   1      59.968  15.178  10.873  1.00  0.00    +0.000 C 
ATOM     46  F4  UNL A   1      60.030  13.858  11.097  1.00  0.00    +0.000 F 
ATOM     47  C35 UNL A   1      59.092  15.967  11.613  1.00  0.00    +0.000 C 
ATOM     48  F5  UNL A   1      58.316  15.379  12.536  1.00  0.00    +0.000 F 
ENDBRANCH   37   38
BRANCH   54   55
ATOM     65  F10 UNL A   1      59.933  22.759  16.765  1.00  0.00    +0.000 F 
ATOM     55  C41 UNL A   1      59.254  20.716  17.780  1.00  0.00    +0.000 C 
ATOM     56  C42 UNL A   1      59.436  19.806  18.832  1.00  0.00    +0.000 C 
ATOM     57  F6  UNL A   1      58.673  18.705  18.909  1.00  0.00    +0.000 F 
ATOM     58  C43 UNL A   1      60.376  20.045  19.829  1.00  0.00    +0.000 C 
ATOM     59  F7  UNL A   1      60.502  19.185  20.849  1.00  0.00    +0.000 F 
ATOM     60  C44 UNL A   1      61.174  21.178  19.776  1.00  0.00    +0.000 C 
ATOM     61  F8  UNL A   1      62.084  21.404  20.734  1.00  0.00    +0.000 F 
ATOM     62  C45 UNL A   1      61.023  22.083  18.736  1.00  0.00    +0.000 C 
ATOM     63  F9  UNL A   1      61.802  23.172  18.677  1.00  0.00    +0.000 F 
ATOM     64  C46 UNL A   1      60.064  21.861  17.752  1.00  0.00    +0.000 C 
ENDBRANCH   54   55
BRANCH   69   70
ATOM     70  C50 UNL A   1      52.586  22.560  17.002  1.00  0.00    +0.000 C 
ATOM     71  C51 UNL A   1      51.807  21.890  17.956  1.00  0.00    +0.000 C 
ATOM     72  F11 UNL A   1      51.919  20.561  18.098  1.00  0.00    +0.000 F 
ATOM     73  C52 UNL A   1      50.877  22.576  18.735  1.00  0.00    +0.000 C 
ATOM     74  F12 UNL A   1      50.111  21.903  19.604  1.00  0.00    +0.000 F 
ATOM     75  C53 UNL A   1      50.732  23.947  18.597  1.00  0.00    +0.000 C 
ATOM     76  F13 UNL A   1      49.837  24.606  19.348  1.00  0.00    +0.000 F 
ATOM     77  C54 UNL A   1      51.508  24.634  17.676  1.00  0.00    +0.000 C 
ATOM     78  F14 UNL A   1      51.379  25.962  17.552  1.00  0.00    +0.000 F 
ATOM     79  C55 UNL A   1      52.418  23.946  16.877  1.00  0.00    +0.000 C 
ATOM     80  F15 UNL A   1      53.144  24.634  15.984  1.00  0.00    +0.000 F 
ENDBRANCH   69   70
TORSDOF 24
ENDMDL
MODEL 7
REMARK VINA RESULT:      -9.1      1.361      2.111
ROOT
ATOM    129  H38 UNL A   1      38.638  27.085  27.755  1.00  0.00    +0.000 H 
ATOM    130  H39 UNL A   1      42.203  27.556  29.840  1.00  0.00    +0.000 H 
ATOM    131  H40 UNL A   1      45.100  23.665  28.543  1.00  0.00    +0.000 H 
ATOM    132  H41 UNL A   1      46.837  24.580  30.185  1.00  0.00    +0.000 H 
ATOM    133  H42 UNL A   1      41.017  32.553  32.046  1.00  0.00    +0.000 H 
ATOM    134  H43 UNL A   1      39.084  31.424  30.805  1.00  0.00    +0.000 H 
ATOM     33  C26 UNL A   1      39.806  28.967  29.550  1.00  0.00    +0.000 C 
ATOM     34  C27 UNL A   1      40.649  29.820  30.457  1.00  0.00    +0.000 C 
ATOM     35  N3  UNL A   1      41.876  29.627  30.870  1.00  0.00    +0.000 N 
ATOM     36  C28 UNL A   1      42.194  30.737  31.641  1.00  0.00    +0.000 C 
ATOM     37  C29 UNL A   1      43.334  30.987  32.328  1.00  0.00    +0.000 C 
ATOM     49  C36 UNL A   1      44.455  30.086  32.392  1.00  0.00    +0.000 C 
ATOM     50  C37 UNL A   1      45.618  30.205  33.130  1.00  0.00    +0.000 C 
ATOM     51  C38 UNL A   1      46.436  29.109  32.838  1.00  0.00    +0.000 C 
ATOM     52  C39 UNL A   1      45.762  28.284  31.953  1.00  0.00    +0.000 C 
ATOM     53  N4  UNL A   1      44.548  28.894  31.686  1.00  0.00    +0.000 N 
ATOM     54  C40 UNL A   1      46.196  27.032  31.388  1.00  0.00    +0.000 C 
ATOM     66  C47 UNL A   1      45.470  26.269  30.535  1.00  0.00    +0.000 C 
ATOM     67  N5  UNL A   1      44.193  26.492  30.036  1.00  0.00    +0.000 N 
ATOM     68  C48 UNL A   1      43.935  25.480  29.244  1.00  0.00    +0.000 C 
ATOM     69  C49 UNL A   1      42.685  25.180  28.461  1.00  0.00    +0.000 C 
ATOM     81  C56 UNL A   1      41.642  26.026  28.543  1.00  0.00    +0.000 C 
ATOM     82  C57 UNL A   1      40.368  25.872  27.849  1.00  0.00    +0.000 C 
ATOM     83  C58 UNL A   1      39.586  26.926  28.130  1.00  0.00    +0.000 C 
ATOM     84  C59 UNL A   1      40.293  27.814  29.055  1.00  0.00    +0.000 C 
ATOM     85  N6  UNL A   1      41.502  27.196  29.249  1.00  0.00    +0.000 N 
ATOM     86  C60 UNL A   1      45.036  24.514  29.126  1.00  0.00    +0.000 C 
ATOM     87  C61 UNL A   1      45.929  25.020  29.966  1.00  0.00    +0.000 C 
ATOM     88  C62 UNL A   1      41.048  31.619  31.609  1.00  0.00    +0.000 C 
ATOM     89  C63 UNL A   1      40.042  31.068  30.944  1.00  0.00    +0.000 C 
ATOM    125  H34 UNL A   1      45.843  30.972  33.784  1.00  0.00    +0.000 H 
ATOM    126  H35 UNL A   1      47.381  28.944  33.218  1.00  0.00    +0.000 H 
ATOM    127  H36 UNL A   1      43.855  28.538  31.085  1.00  0.00    +0.000 H 
ATOM    128  H37 UNL A   1      40.110  25.080  27.239  1.00  0.00    +0.000 H 
ENDROOT
BRANCH   33   32
ATOM    123  H32 UNL A   1      36.831  30.911  26.595  1.00  0.00    +0.000 H 
ATOM    136  H45 UNL A   1      35.294  29.499  30.248  1.00  0.00    +0.000 H 
ATOM    135  H44 UNL A   1      37.527  28.870  30.950  1.00  0.00    +0.000 H 
ATOM     90  C64 UNL A   1      37.376  29.279  30.014  1.00  0.00    +0.000 C 
ATOM     91  C65 UNL A   1      36.100  29.677  29.629  1.00  0.00    +0.000 C 
ATOM    124  H33 UNL A   1      39.030  30.086  27.207  1.00  0.00    +0.000 H 
ATOM     29  C22 UNL A   1      35.910  30.322  28.403  1.00  0.00    +0.000 C 
ATOM     30  C23 UNL A   1      36.979  30.465  27.514  1.00  0.00    +0.000 C 
ATOM     31  C24 UNL A   1      38.246  30.004  27.873  1.00  0.00    +0.000 C 
ATOM     32  C25 UNL A   1      38.459  29.428  29.136  1.00  0.00    +0.000 C 
BRANCH   29   27
ATOM     27  C21 UNL A   1      34.574  30.804  27.996  1.00  0.00    +0.000 C 
ATOM     28  O4  UNL A   1      33.991  31.646  28.674  1.00  0.00    +0.000 O 
BRANCH   27   26
ATOM     26  N2  UNL A   1      33.992  30.329  26.849  1.00  0.00    +0.000 N 
ATOM    122  H31 UNL A   1      33.617  31.008  26.244  1.00  0.00    +0.000 H 
BRANCH   26   25
ATOM     25  C20 UNL A   1      33.860  28.947  26.412  1.00  0.00    +0.000 C 
ATOM    121  H30 UNL A   1      33.399  28.393  27.202  1.00  0.00    +0.000 H 
ATOM    120  H29 UNL A   1      34.833  28.562  26.186  1.00  0.00    +0.000 H 
BRANCH   25   24
ATOM    118  H27 UNL A   1      32.955  29.773  24.682  1.00  0.00    +0.000 H 
ATOM    119  H28 UNL A   1      33.414  28.049  24.571  1.00  0.00    +0.000 H 
ATOM     24  C19 UNL A   1      32.979  28.822  25.170  1.00  0.00    +0.000 C 
BRANCH   24   23
ATOM    116  H25 UNL A   1      31.561  27.479  26.005  1.00  0.00    +0.000 H 
ATOM    117  H26 UNL A   1      31.076  29.206  25.963  1.00  0.00    +0.000 H 
ATOM     23  C18 UNL A   1      31.532  28.389  25.443  1.00  0.00    +0.000 C 
BRANCH   23   22
ATOM    114  H23 UNL A   1      29.903  28.897  24.170  1.00  0.00    +0.000 H 
ATOM    115  H24 UNL A   1      31.321  28.195  23.353  1.00  0.00    +0.000 H 
ATOM     22  C17 UNL A   1      30.668  28.148  24.200  1.00  0.00    +0.000 C 
BRANCH   22   21
ATOM    113  H22 UNL A   1      30.563  26.169  23.494  1.00  0.00    +0.000 H 
ATOM     21  C16 UNL A   1      30.000  26.778  24.170  1.00  0.00    +0.000 C 
ATOM    112  H21 UNL A   1      28.985  26.903  23.854  1.00  0.00    +0.000 H 
BRANCH   21   20
ATOM     20  C15 UNL A   1      30.002  26.070  25.521  1.00  0.00    +0.000 C 
ATOM    110  H19 UNL A   1      30.600  26.628  26.210  1.00  0.00    +0.000 H 
ATOM    111  H20 UNL A   1      28.994  26.002  25.876  1.00  0.00    +0.000 H 
BRANCH   20   19
ATOM     19  N1  UNL A   1      30.542  24.735  25.395  1.00  0.00    +0.000 N 
ATOM    109  H18 UNL A   1      30.516  24.344  24.492  1.00  0.00    +0.000 H 
BRANCH   19   17
ATOM     17  C14 UNL A   1      31.083  23.953  26.368  1.00  0.00    +0.000 C 
ATOM     18  O3  UNL A   1      30.336  23.257  27.058  1.00  0.00    +0.000 O 
BRANCH   17   16
ATOM    107  H16 UNL A   1      32.765  23.809  27.638  1.00  0.00    +0.000 H 
ATOM    108  H17 UNL A   1      32.995  23.181  25.992  1.00  0.00    +0.000 H 
ATOM     16  C13 UNL A   1      32.579  23.961  26.595  1.00  0.00    +0.000 C 
BRANCH   16   15
ATOM    105  H14 UNL A   1      32.470  25.948  25.893  1.00  0.00    +0.000 H 
ATOM    106  H15 UNL A   1      33.838  25.551  27.014  1.00  0.00    +0.000 H 
ATOM     15  C12 UNL A   1      33.249  25.267  26.168  1.00  0.00    +0.000 C 
BRANCH   15   14
ATOM     14  C11 UNL A   1      34.251  25.221  25.001  1.00  0.00    +0.000 C 
ATOM    103  H12 UNL A   1      35.085  25.839  25.257  1.00  0.00    +0.000 H 
ATOM    104  H13 UNL A   1      34.503  24.189  24.869  1.00  0.00    +0.000 H 
BRANCH   14   13
ATOM    101  H10 UNL A   1      33.095  26.556  23.834  1.00  0.00    +0.000 H 
ATOM     13  C10 UNL A   1      33.706  25.698  23.648  1.00  0.00    +0.000 C 
ATOM    102  H11 UNL A   1      34.577  25.873  23.052  1.00  0.00    +0.000 H 
BRANCH   13   12
ATOM    100  H9  UNL A   1      32.664  25.265  21.938  1.00  0.00    +0.000 H 
ATOM     99  H8  UNL A   1      32.050  24.417  23.455  1.00  0.00    +0.000 H 
ATOM     12  C9  UNL A   1      32.868  24.708  22.829  1.00  0.00    +0.000 C 
BRANCH   12   11
ATOM     11  S1  UNL A   1      33.581  23.159  22.161  1.00  0.00    +0.000 S 
BRANCH   11   10
ATOM     97  H6  UNL A   1      31.237  20.337  25.306  1.00  0.00    +0.000 H 
ATOM     98  H7  UNL A   1      31.468  21.753  23.354  1.00  0.00    +0.000 H 
ATOM      5  C3  UNL A   1      34.679  21.618  24.255  1.00  0.00    +0.000 C 
ATOM      6  C4  UNL A   1      34.545  20.797  25.386  1.00  0.00    +0.000 C 
ATOM      7  C5  UNL A   1      33.289  20.341  25.779  1.00  0.00    +0.000 C 
ATOM      8  C6  UNL A   1      32.169  20.688  25.032  1.00  0.00    +0.000 C 
ATOM      9  C7  UNL A   1      32.304  21.515  23.910  1.00  0.00    +0.000 C 
ATOM     10  C8  UNL A   1      33.557  22.026  23.523  1.00  0.00    +0.000 C 
ATOM     95  H4  UNL A   1      35.380  20.529  25.928  1.00  0.00    +0.000 H 
ATOM     96  H5  UNL A   1      33.190  19.750  26.619  1.00  0.00    +0.000 H 
BRANCH    5    4
ATOM      4  O2  UNL A   1      36.008  22.138  24.116  1.00  0.00    +0.000 O 
BRANCH    4    2
ATOM      2  C2  UNL A   1      37.154  22.196  24.921  1.00  0.00    +0.000 C 
ATOM      3  O1  UNL A   1      37.996  21.327  25.087  1.00  0.00    +0.000 O 
BRANCH    2    1
ATOM      1  C1  UNL A   1      37.178  23.542  25.585  1.00  0.00    +0.000 C 
ATOM     92  H1  UNL A   1      37.949  23.561  26.326  1.00  0.00    +0.000 H 
ATOM     93  H2  UNL A   1      36.232  23.726  26.051  1.00  0.00    +0.000 H 
ATOM     94  H3  UNL A   1      37.367  24.299  24.853  1.00  0.00    +0.000 H 
ENDBRANCH    2    1
ENDBRANCH    4    2
ENDBRANCH    5    4
ENDBRANCH   11   10
ENDBRANCH   12   11
ENDBRANCH   13   12
ENDBRANCH   14   13
ENDBRANCH   15   14
ENDBRANCH   16   15
ENDBRANCH   17   16
ENDBRANCH   19   17
ENDBRANCH   20   19
ENDBRANCH   21   20
ENDBRANCH   22   21
ENDBRANCH   23   22
ENDBRANCH   24   23
ENDBRANCH   25   24
ENDBRANCH   26   25
ENDBRANCH   27   26
ENDBRANCH   29   27
ENDBRANCH   33   32
BRANCH   37   38
ATOM     38  C30 UNL A   1      43.432  32.286  33.072  1.00  0.00    +0.000 C 
ATOM     39  C31 UNL A   1      43.963  33.440  32.474  1.00  0.00    +0.000 C 
ATOM     40  F1  UNL A   1      44.457  33.388  31.228  1.00  0.00    +0.000 F 
ATOM     41  C32 UNL A   1      44.018  34.646  33.169  1.00  0.00    +0.000 C 
ATOM     42  F2  UNL A   1      44.566  35.724  32.592  1.00  0.00    +0.000 F 
ATOM     43  C33 UNL A   1      43.514  34.730  34.458  1.00  0.00    +0.000 C 
ATOM     44  F3  UNL A   1      43.557  35.895  35.121  1.00  0.00    +0.000 F 
ATOM     45  C34 UNL A   1      42.970  33.607  35.062  1.00  0.00    +0.000 C 
ATOM     46  F4  UNL A   1      42.473  33.690  36.304  1.00  0.00    +0.000 F 
ATOM     47  C35 UNL A   1      42.940  32.393  34.381  1.00  0.00    +0.000 C 
ATOM     48  F5  UNL A   1      42.417  31.322  34.996  1.00  0.00    +0.000 F 
ENDBRANCH   37   38
BRANCH   54   55
ATOM     65  F10 UNL A   1      48.581  27.660  29.979  1.00  0.00    +0.000 F 
ATOM     55  C41 UNL A   1      47.546  26.515  31.790  1.00  0.00    +0.000 C 
ATOM     56  C42 UNL A   1      47.707  25.658  32.889  1.00  0.00    +0.000 C 
ATOM     57  F6  UNL A   1      46.650  25.323  33.644  1.00  0.00    +0.000 F 
ATOM     58  C43 UNL A   1      48.965  25.176  33.239  1.00  0.00    +0.000 C 
ATOM     59  F7  UNL A   1      49.104  24.396  34.319  1.00  0.00    +0.000 F 
ATOM     60  C44 UNL A   1      50.076  25.511  32.479  1.00  0.00    +0.000 C 
ATOM     61  F8  UNL A   1      51.285  25.040  32.814  1.00  0.00    +0.000 F 
ATOM     62  C45 UNL A   1      49.936  26.342  31.378  1.00  0.00    +0.000 C 
ATOM     63  F9  UNL A   1      51.007  26.657  30.636  1.00  0.00    +0.000 F 
ATOM     64  C46 UNL A   1      48.684  26.850  31.042  1.00  0.00    +0.000 C 
ENDBRANCH   54   55
BRANCH   69   70
ATOM     70  C50 UNL A   1      42.587  23.953  27.629  1.00  0.00    +0.000 C 
ATOM     71  C51 UNL A   1      42.169  22.738  28.191  1.00  0.00    +0.000 C 
ATOM     72  F11 UNL A   1      41.857  22.677  29.495  1.00  0.00    +0.000 F 
ATOM     73  C52 UNL A   1      42.113  21.574  27.429  1.00  0.00    +0.000 C 
ATOM     74  F12 UNL A   1      41.757  20.418  28.004  1.00  0.00    +0.000 F 
ATOM     75  C53 UNL A   1      42.443  21.608  26.083  1.00  0.00    +0.000 C 
ATOM     76  F13 UNL A   1      42.389  20.487  25.350  1.00  0.00    +0.000 F 
ATOM     77  C54 UNL A   1      42.838  22.803  25.500  1.00  0.00    +0.000 C 
ATOM     78  F14 UNL A   1      43.144  22.841  24.196  1.00  0.00    +0.000 F 
ATOM     79  C55 UNL A   1      42.922  23.961  26.267  1.00  0.00    +0.000 C 
ATOM     80  F15 UNL A   1      43.321  25.099  25.681  1.00  0.00    +0.000 F 
ENDBRANCH   69   70
TORSDOF 24
ENDMDL
MODEL 8
REMARK VINA RESULT:      -9.1      1.079      2.181
ROOT
ATOM    129  H38 UNL A   1      38.821  26.886  27.676  1.00  0.00    +0.000 H 
ATOM    130  H39 UNL A   1      42.526  27.565  29.433  1.00  0.00    +0.000 H 
ATOM    131  H40 UNL A   1      45.427  23.686  28.112  1.00  0.00    +0.000 H 
ATOM    132  H41 UNL A   1      47.262  24.736  29.554  1.00  0.00    +0.000 H 
ATOM    133  H42 UNL A   1      41.369  32.645  31.459  1.00  0.00    +0.000 H 
ATOM    134  H43 UNL A   1      39.377  31.398  30.444  1.00  0.00    +0.000 H 
ATOM     33  C26 UNL A   1      40.071  28.895  29.266  1.00  0.00    +0.000 C 
ATOM     34  C27 UNL A   1      40.958  29.818  30.054  1.00  0.00    +0.000 C 
ATOM     35  N3  UNL A   1      42.220  29.681  30.374  1.00  0.00    +0.000 N 
ATOM     36  C28 UNL A   1      42.565  30.841  31.057  1.00  0.00    +0.000 C 
ATOM     37  C29 UNL A   1      43.748  31.159  31.633  1.00  0.00    +0.000 C 
ATOM     49  C36 UNL A   1      44.898  30.291  31.652  1.00  0.00    +0.000 C 
ATOM     50  C37 UNL A   1      46.112  30.482  32.285  1.00  0.00    +0.000 C 
ATOM     51  C38 UNL A   1      46.937  29.394  31.985  1.00  0.00    +0.000 C 
ATOM     52  C39 UNL A   1      46.220  28.503  31.204  1.00  0.00    +0.000 C 
ATOM     53  N4  UNL A   1      44.970  29.066  31.005  1.00  0.00    +0.000 N 
ATOM     54  C40 UNL A   1      46.645  27.233  30.673  1.00  0.00    +0.000 C 
ATOM     66  C47 UNL A   1      45.876  26.406  29.924  1.00  0.00    +0.000 C 
ATOM     67  N5  UNL A   1      44.558  26.567  29.521  1.00  0.00    +0.000 N 
ATOM     68  C48 UNL A   1      44.267  25.505  28.808  1.00  0.00    +0.000 C 
ATOM     69  C49 UNL A   1      42.969  25.130  28.148  1.00  0.00    +0.000 C 
ATOM     81  C56 UNL A   1      41.910  25.952  28.270  1.00  0.00    +0.000 C 
ATOM     82  C57 UNL A   1      40.589  25.726  27.692  1.00  0.00    +0.000 C 
ATOM     83  C58 UNL A   1      39.800  26.772  27.980  1.00  0.00    +0.000 C 
ATOM     84  C59 UNL A   1      40.552  27.729  28.795  1.00  0.00    +0.000 C 
ATOM     85  N6  UNL A   1      41.791  27.154  28.922  1.00  0.00    +0.000 N 
ATOM     86  C60 UNL A   1      45.385  24.564  28.652  1.00  0.00    +0.000 C 
ATOM     87  C61 UNL A   1      46.326  25.139  29.387  1.00  0.00    +0.000 C 
ATOM     88  C62 UNL A   1      41.394  31.688  31.072  1.00  0.00    +0.000 C 
ATOM     89  C63 UNL A   1      40.354  31.076  30.522  1.00  0.00    +0.000 C 
ATOM    125  H34 UNL A   1      46.366  31.290  32.876  1.00  0.00    +0.000 H 
ATOM    126  H35 UNL A   1      47.915  29.275  32.295  1.00  0.00    +0.000 H 
ATOM    127  H36 UNL A   1      44.243  28.658  30.483  1.00  0.00    +0.000 H 
ATOM    128  H37 UNL A   1      40.307  24.895  27.148  1.00  0.00    +0.000 H 
ENDROOT
BRANCH   33   32
ATOM    123  H32 UNL A   1      36.804  30.562  26.455  1.00  0.00    +0.000 H 
ATOM    136  H45 UNL A   1      35.623  29.378  30.316  1.00  0.00    +0.000 H 
ATOM    135  H44 UNL A   1      37.924  28.848  30.863  1.00  0.00    +0.000 H 
ATOM     90  C64 UNL A   1      37.682  29.186  29.918  1.00  0.00    +0.000 C 
ATOM     91  C65 UNL A   1      36.368  29.529  29.618  1.00  0.00    +0.000 C 
ATOM    124  H33 UNL A   1      39.068  29.829  26.928  1.00  0.00    +0.000 H 
ATOM     29  C22 UNL A   1      36.056  30.081  28.372  1.00  0.00    +0.000 C 
ATOM     30  C23 UNL A   1      37.041  30.185  27.386  1.00  0.00    +0.000 C 
ATOM     31  C24 UNL A   1      38.346  29.777  27.664  1.00  0.00    +0.000 C 
ATOM     32  C25 UNL A   1      38.682  29.297  28.940  1.00  0.00    +0.000 C 
BRANCH   29   27
ATOM     27  C21 UNL A   1      34.677  30.505  28.051  1.00  0.00    +0.000 C 
ATOM     28  O4  UNL A   1      34.243  31.568  28.486  1.00  0.00    +0.000 O 
BRANCH   27   26
ATOM     26  N2  UNL A   1      33.888  29.722  27.248  1.00  0.00    +0.000 N 
ATOM    122  H31 UNL A   1      34.364  29.089  26.664  1.00  0.00    +0.000 H 
BRANCH   26   25
ATOM     25  C20 UNL A   1      32.437  29.709  27.151  1.00  0.00    +0.000 C 
ATOM    121  H30 UNL A   1      32.056  30.495  27.768  1.00  0.00    +0.000 H 
ATOM    120  H29 UNL A   1      32.077  28.754  27.475  1.00  0.00    +0.000 H 
BRANCH   25   24
ATOM    118  H27 UNL A   1      30.909  29.748  25.681  1.00  0.00    +0.000 H 
ATOM    119  H28 UNL A   1      32.194  30.976  25.498  1.00  0.00    +0.000 H 
ATOM     24  C19 UNL A   1      31.957  29.957  25.721  1.00  0.00    +0.000 C 
BRANCH   24   23
ATOM    116  H25 UNL A   1      33.566  29.601  24.381  1.00  0.00    +0.000 H 
ATOM    117  H26 UNL A   1      32.794  28.143  25.083  1.00  0.00    +0.000 H 
ATOM     23  C18 UNL A   1      32.653  29.110  24.648  1.00  0.00    +0.000 C 
BRANCH   23   22
ATOM    114  H23 UNL A   1      31.488  29.826  23.016  1.00  0.00    +0.000 H 
ATOM    115  H24 UNL A   1      32.511  28.413  22.662  1.00  0.00    +0.000 H 
ATOM     22  C17 UNL A   1      31.850  28.879  23.362  1.00  0.00    +0.000 C 
BRANCH   22   21
ATOM    113  H22 UNL A   1      30.228  27.799  22.571  1.00  0.00    +0.000 H 
ATOM     21  C16 UNL A   1      30.659  27.945  23.539  1.00  0.00    +0.000 C 
ATOM    112  H21 UNL A   1      29.972  28.399  24.224  1.00  0.00    +0.000 H 
BRANCH   21   20
ATOM     20  C15 UNL A   1      31.038  26.568  24.075  1.00  0.00    +0.000 C 
ATOM    110  H19 UNL A   1      32.003  26.623  24.533  1.00  0.00    +0.000 H 
ATOM    111  H20 UNL A   1      30.305  26.263  24.792  1.00  0.00    +0.000 H 
BRANCH   20   19
ATOM     19  N1  UNL A   1      31.074  25.598  23.004  1.00  0.00    +0.000 N 
ATOM    109  H18 UNL A   1      30.285  25.015  22.925  1.00  0.00    +0.000 H 
BRANCH   19   17
ATOM     17  C14 UNL A   1      32.061  25.391  22.091  1.00  0.00    +0.000 C 
ATOM     18  O3  UNL A   1      31.939  25.868  20.962  1.00  0.00    +0.000 O 
BRANCH   17   16
ATOM    107  H16 UNL A   1      34.130  24.982  21.971  1.00  0.00    +0.000 H 
ATOM    108  H17 UNL A   1      33.370  24.619  23.534  1.00  0.00    +0.000 H 
ATOM     16  C13 UNL A   1      33.276  24.572  22.469  1.00  0.00    +0.000 C 
BRANCH   16   15
ATOM    105  H14 UNL A   1      33.070  23.050  21.024  1.00  0.00    +0.000 H 
ATOM    106  H15 UNL A   1      34.027  22.643  22.509  1.00  0.00    +0.000 H 
ATOM     15  C12 UNL A   1      33.155  23.097  22.090  1.00  0.00    +0.000 C 
BRANCH   15   14
ATOM     14  C11 UNL A   1      31.983  22.291  22.678  1.00  0.00    +0.000 C 
ATOM    103  H12 UNL A   1      31.729  22.719  23.625  1.00  0.00    +0.000 H 
ATOM    104  H13 UNL A   1      31.195  22.345  21.955  1.00  0.00    +0.000 H 
BRANCH   14   13
ATOM    101  H10 UNL A   1      31.420  20.258  22.498  1.00  0.00    +0.000 H 
ATOM     13  C10 UNL A   1      32.256  20.797  22.893  1.00  0.00    +0.000 C 
ATOM    102  H11 UNL A   1      33.191  20.619  22.403  1.00  0.00    +0.000 H 
BRANCH   13   12
ATOM    100  H9  UNL A   1      32.304  19.260  24.247  1.00  0.00    +0.000 H 
ATOM     99  H8  UNL A   1      31.818  20.893  24.948  1.00  0.00    +0.000 H 
ATOM     12  C9  UNL A   1      32.474  20.313  24.333  1.00  0.00    +0.000 C 
BRANCH   12   11
ATOM     11  S1  UNL A   1      34.120  20.375  25.134  1.00  0.00    +0.000 S 
BRANCH   11   10
ATOM     97  H6  UNL A   1      32.574  24.776  26.394  1.00  0.00    +0.000 H 
ATOM     98  H7  UNL A   1      32.403  22.380  26.082  1.00  0.00    +0.000 H 
ATOM      5  C3  UNL A   1      35.624  22.758  25.289  1.00  0.00    +0.000 C 
ATOM      6  C4  UNL A   1      35.722  24.147  25.470  1.00  0.00    +0.000 C 
ATOM      7  C5  UNL A   1      34.608  24.887  25.859  1.00  0.00    +0.000 C 
ATOM      8  C6  UNL A   1      33.399  24.237  26.086  1.00  0.00    +0.000 C 
ATOM      9  C7  UNL A   1      33.301  22.853  25.895  1.00  0.00    +0.000 C 
ATOM     10  C8  UNL A   1      34.402  22.094  25.457  1.00  0.00    +0.000 C 
ATOM     95  H4  UNL A   1      36.624  24.622  25.316  1.00  0.00    +0.000 H 
ATOM     96  H5  UNL A   1      34.678  25.909  25.977  1.00  0.00    +0.000 H 
BRANCH    5    4
ATOM      4  O2  UNL A   1      36.812  22.200  24.711  1.00  0.00    +0.000 O 
BRANCH    4    2
ATOM      2  C2  UNL A   1      37.749  21.227  25.083  1.00  0.00    +0.000 C 
ATOM      3  O1  UNL A   1      37.743  20.038  24.804  1.00  0.00    +0.000 O 
BRANCH    2    1
ATOM      1  C1  UNL A   1      38.795  21.899  25.925  1.00  0.00    +0.000 C 
ATOM     92  H1  UNL A   1      38.335  22.644  26.539  1.00  0.00    +0.000 H 
ATOM     93  H2  UNL A   1      39.522  22.360  25.289  1.00  0.00    +0.000 H 
ATOM     94  H3  UNL A   1      39.275  21.171  26.545  1.00  0.00    +0.000 H 
ENDBRANCH    2    1
ENDBRANCH    4    2
ENDBRANCH    5    4
ENDBRANCH   11   10
ENDBRANCH   12   11
ENDBRANCH   13   12
ENDBRANCH   14   13
ENDBRANCH   15   14
ENDBRANCH   16   15
ENDBRANCH   17   16
ENDBRANCH   19   17
ENDBRANCH   20   19
ENDBRANCH   21   20
ENDBRANCH   22   21
ENDBRANCH   23   22
ENDBRANCH   24   23
ENDBRANCH   25   24
ENDBRANCH   26   25
ENDBRANCH   27   26
ENDBRANCH   29   27
ENDBRANCH   33   32
BRANCH   37   38
ATOM     38  C30 UNL A   1      43.866  32.499  32.296  1.00  0.00    +0.000 C 
ATOM     39  C31 UNL A   1      43.547  32.683  33.650  1.00  0.00    +0.000 C 
ATOM     40  F1  UNL A   1      43.064  31.663  34.373  1.00  0.00    +0.000 F 
ATOM     41  C32 UNL A   1      43.693  33.928  34.257  1.00  0.00    +0.000 C 
ATOM     42  F2  UNL A   1      43.342  34.090  35.540  1.00  0.00    +0.000 F 
ATOM     43  C33 UNL A   1      44.190  35.002  33.534  1.00  0.00    +0.000 C 
ATOM     44  F3  UNL A   1      44.340  36.197  34.123  1.00  0.00    +0.000 F 
ATOM     45  C34 UNL A   1      44.528  34.838  32.199  1.00  0.00    +0.000 C 
ATOM     46  F4  UNL A   1      45.020  35.872  31.502  1.00  0.00    +0.000 F 
ATOM     47  C35 UNL A   1      44.357  33.603  31.581  1.00  0.00    +0.000 C 
ATOM     48  F5  UNL A   1      44.683  33.480  30.286  1.00  0.00    +0.000 F 
ENDBRANCH   37   38
BRANCH   54   55
ATOM     65  F10 UNL A   1      47.263  25.563  32.887  1.00  0.00    +0.000 F 
ATOM     55  C41 UNL A   1      48.038  26.775  30.990  1.00  0.00    +0.000 C 
ATOM     56  C42 UNL A   1      49.137  27.170  30.213  1.00  0.00    +0.000 C 
ATOM     57  F6  UNL A   1      48.953  27.933  29.125  1.00  0.00    +0.000 F 
ATOM     58  C43 UNL A   1      50.424  26.748  30.530  1.00  0.00    +0.000 C 
ATOM     59  F7  UNL A   1      51.454  27.099  29.748  1.00  0.00    +0.000 F 
ATOM     60  C44 UNL A   1      50.642  25.953  31.646  1.00  0.00    +0.000 C 
ATOM     61  F8  UNL A   1      51.883  25.554  31.954  1.00  0.00    +0.000 F 
ATOM     62  C45 UNL A   1      49.572  25.567  32.439  1.00  0.00    +0.000 C 
ATOM     63  F9  UNL A   1      49.782  24.809  33.525  1.00  0.00    +0.000 F 
ATOM     64  C46 UNL A   1      48.279  25.963  32.108  1.00  0.00    +0.000 C 
ENDBRANCH   54   55
BRANCH   69   70
ATOM     70  C50 UNL A   1      42.841  23.856  27.393  1.00  0.00    +0.000 C 
ATOM     71  C51 UNL A   1      42.390  22.690  28.028  1.00  0.00    +0.000 C 
ATOM     72  F11 UNL A   1      42.073  22.719  29.331  1.00  0.00    +0.000 F 
ATOM     73  C52 UNL A   1      42.306  21.483  27.339  1.00  0.00    +0.000 C 
ATOM     74  F12 UNL A   1      41.918  20.374  27.983  1.00  0.00    +0.000 F 
ATOM     75  C53 UNL A   1      42.642  21.424  25.995  1.00  0.00    +0.000 C 
ATOM     76  F13 UNL A   1      42.561  20.261  25.334  1.00  0.00    +0.000 F 
ATOM     77  C54 UNL A   1      43.069  22.569  25.341  1.00  0.00    +0.000 C 
ATOM     78  F14 UNL A   1      43.380  22.518  24.038  1.00  0.00    +0.000 F 
ATOM     79  C55 UNL A   1      43.180  23.771  26.035  1.00  0.00    +0.000 C 
ATOM     80  F15 UNL A   1      43.610  24.859  25.381  1.00  0.00    +0.000 F 
ENDBRANCH   69   70
TORSDOF 24
ENDMDL
MODEL 9
REMARK VINA RESULT:      -9.1      1.438      3.699
ROOT
ATOM    129  H38 UNL A   1      38.688  26.912  27.639  1.00  0.00    +0.000 H 
ATOM    130  H39 UNL A   1      42.348  27.607  29.480  1.00  0.00    +0.000 H 
ATOM    131  H40 UNL A   1      45.302  23.750  28.210  1.00  0.00    +0.000 H 
ATOM    132  H41 UNL A   1      47.098  24.806  29.697  1.00  0.00    +0.000 H 
ATOM    133  H42 UNL A   1      41.116  32.672  31.499  1.00  0.00    +0.000 H 
ATOM    134  H43 UNL A   1      39.155  31.417  30.434  1.00  0.00    +0.000 H 
ATOM     33  C26 UNL A   1      39.890  28.922  29.264  1.00  0.00    +0.000 C 
ATOM     34  C27 UNL A   1      40.753  29.848  30.074  1.00  0.00    +0.000 C 
ATOM     35  N3  UNL A   1      42.008  29.718  30.422  1.00  0.00    +0.000 N 
ATOM     36  C28 UNL A   1      42.332  30.877  31.116  1.00  0.00    +0.000 C 
ATOM     37  C29 UNL A   1      43.500  31.199  31.720  1.00  0.00    +0.000 C 
ATOM     49  C36 UNL A   1      44.653  30.339  31.762  1.00  0.00    +0.000 C 
ATOM     50  C37 UNL A   1      45.853  30.535  32.422  1.00  0.00    +0.000 C 
ATOM     51  C38 UNL A   1      46.691  29.453  32.137  1.00  0.00    +0.000 C 
ATOM     52  C39 UNL A   1      45.997  28.560  31.337  1.00  0.00    +0.000 C 
ATOM     53  N4  UNL A   1      44.748  29.116  31.112  1.00  0.00    +0.000 N 
ATOM     54  C40 UNL A   1      46.441  27.295  30.811  1.00  0.00    +0.000 C 
ATOM     66  C47 UNL A   1      45.694  26.466  30.042  1.00  0.00    +0.000 C 
ATOM     67  N5  UNL A   1      44.384  26.620  29.610  1.00  0.00    +0.000 N 
ATOM     68  C48 UNL A   1      44.116  25.560  28.887  1.00  0.00    +0.000 C 
ATOM     69  C49 UNL A   1      42.835  25.179  28.197  1.00  0.00    +0.000 C 
ATOM     81  C56 UNL A   1      41.768  25.994  28.298  1.00  0.00    +0.000 C 
ATOM     82  C57 UNL A   1      40.462  25.763  27.690  1.00  0.00    +0.000 C 
ATOM     83  C58 UNL A   1      39.661  26.803  27.964  1.00  0.00    +0.000 C 
ATOM     84  C59 UNL A   1      40.388  27.761  28.799  1.00  0.00    +0.000 C 
ATOM     85  N6  UNL A   1      41.628  27.194  28.952  1.00  0.00    +0.000 N 
ATOM     86  C60 UNL A   1      45.243  24.626  28.753  1.00  0.00    +0.000 C 
ATOM     87  C61 UNL A   1      46.164  25.204  29.510  1.00  0.00    +0.000 C 
ATOM     88  C62 UNL A   1      41.155  31.717  31.108  1.00  0.00    +0.000 C 
ATOM     89  C63 UNL A   1      40.132  31.101  30.534  1.00  0.00    +0.000 C 
ATOM    125  H34 UNL A   1      46.088  31.342  33.022  1.00  0.00    +0.000 H 
ATOM    126  H35 UNL A   1      47.662  29.338  32.468  1.00  0.00    +0.000 H 
ATOM    127  H36 UNL A   1      44.035  28.706  30.573  1.00  0.00    +0.000 H 
ATOM    128  H37 UNL A   1      40.197  24.932  27.137  1.00  0.00    +0.000 H 
ENDROOT
BRANCH   33   32
ATOM    123  H32 UNL A   1      36.680  30.600  26.393  1.00  0.00    +0.000 H 
ATOM    136  H45 UNL A   1      35.413  29.355  30.207  1.00  0.00    +0.000 H 
ATOM    135  H44 UNL A   1      37.704  28.837  30.805  1.00  0.00    +0.000 H 
ATOM     90  C64 UNL A   1      37.483  29.185  29.859  1.00  0.00    +0.000 C 
ATOM     91  C65 UNL A   1      36.174  29.522  29.531  1.00  0.00    +0.000 C 
ATOM    124  H33 UNL A   1      38.938  29.879  26.914  1.00  0.00    +0.000 H 
ATOM     29  C22 UNL A   1      35.889  30.088  28.284  1.00  0.00    +0.000 C 
ATOM     30  C23 UNL A   1      36.897  30.212  27.324  1.00  0.00    +0.000 C 
ATOM     31  C24 UNL A   1      38.198  29.812  27.630  1.00  0.00    +0.000 C 
ATOM     32  C25 UNL A   1      38.506  29.317  28.908  1.00  0.00    +0.000 C 
BRANCH   29   27
ATOM     27  C21 UNL A   1      34.515  30.504  27.935  1.00  0.00    +0.000 C 
ATOM     28  O4  UNL A   1      34.093  31.599  28.295  1.00  0.00    +0.000 O 
BRANCH   27   26
ATOM     26  N2  UNL A   1      33.716  29.677  27.187  1.00  0.00    +0.000 N 
ATOM    122  H31 UNL A   1      33.287  30.088  26.402  1.00  0.00    +0.000 H 
BRANCH   26   25
ATOM     25  C20 UNL A   1      33.423  28.269  27.406  1.00  0.00    +0.000 C 
ATOM    121  H30 UNL A   1      33.691  28.029  28.413  1.00  0.00    +0.000 H 
ATOM    120  H29 UNL A   1      33.986  27.686  26.706  1.00  0.00    +0.000 H 
BRANCH   25   24
ATOM    118  H27 UNL A   1      31.497  27.868  28.195  1.00  0.00    +0.000 H 
ATOM    119  H28 UNL A   1      31.532  28.764  26.648  1.00  0.00    +0.000 H 
ATOM     24  C19 UNL A   1      31.938  27.959  27.225  1.00  0.00    +0.000 C 
BRANCH   24   23
ATOM    116  H25 UNL A   1      31.104  26.010  27.092  1.00  0.00    +0.000 H 
ATOM    117  H26 UNL A   1      31.074  26.981  25.583  1.00  0.00    +0.000 H 
ATOM     23  C18 UNL A   1      31.635  26.675  26.442  1.00  0.00    +0.000 C 
BRANCH   23   22
ATOM    114  H23 UNL A   1      32.770  25.863  24.835  1.00  0.00    +0.000 H 
ATOM    115  H24 UNL A   1      33.722  26.476  26.209  1.00  0.00    +0.000 H 
ATOM     22  C17 UNL A   1      32.858  25.925  25.900  1.00  0.00    +0.000 C 
BRANCH   22   21
ATOM    113  H22 UNL A   1      33.235  24.606  27.495  1.00  0.00    +0.000 H 
ATOM     21  C16 UNL A   1      33.010  24.513  26.453  1.00  0.00    +0.000 C 
ATOM    112  H21 UNL A   1      33.791  24.020  25.912  1.00  0.00    +0.000 H 
BRANCH   21   20
ATOM     20  C15 UNL A   1      31.741  23.674  26.341  1.00  0.00    +0.000 C 
ATOM    110  H19 UNL A   1      31.296  23.578  27.309  1.00  0.00    +0.000 H 
ATOM    111  H20 UNL A   1      31.064  24.160  25.670  1.00  0.00    +0.000 H 
BRANCH   20   19
ATOM     19  N1  UNL A   1      32.045  22.359  25.825  1.00  0.00    +0.000 N 
ATOM    109  H18 UNL A   1      31.309  21.898  25.360  1.00  0.00    +0.000 H 
BRANCH   19   17
ATOM     17  C14 UNL A   1      33.220  21.679  25.900  1.00  0.00    +0.000 C 
ATOM     18  O3  UNL A   1      33.645  21.343  27.006  1.00  0.00    +0.000 O 
BRANCH   17   16
ATOM    107  H16 UNL A   1      34.421  20.388  24.735  1.00  0.00    +0.000 H 
ATOM    108  H17 UNL A   1      33.294  21.414  23.822  1.00  0.00    +0.000 H 
ATOM     16  C13 UNL A   1      33.988  21.362  24.635  1.00  0.00    +0.000 C 
BRANCH   16   15
ATOM    105  H14 UNL A   1      35.408  22.785  25.274  1.00  0.00    +0.000 H 
ATOM    106  H15 UNL A   1      35.847  21.785  23.827  1.00  0.00    +0.000 H 
ATOM     15  C12 UNL A   1      35.106  22.361  24.339  1.00  0.00    +0.000 C 
BRANCH   15   14
ATOM     14  C11 UNL A   1      34.801  23.529  23.383  1.00  0.00    +0.000 C 
ATOM    103  H12 UNL A   1      34.596  24.395  23.975  1.00  0.00    +0.000 H 
ATOM    104  H13 UNL A   1      35.663  23.629  22.756  1.00  0.00    +0.000 H 
BRANCH   14   13
ATOM    101  H10 UNL A   1      33.973  23.441  21.438  1.00  0.00    +0.000 H 
ATOM     13  C10 UNL A   1      33.614  23.311  22.437  1.00  0.00    +0.000 C 
ATOM    102  H11 UNL A   1      33.256  22.330  22.673  1.00  0.00    +0.000 H 
BRANCH   13   12
ATOM    100  H9  UNL A   1      32.626  24.752  23.507  1.00  0.00    +0.000 H 
ATOM     99  H8  UNL A   1      31.534  23.580  22.595  1.00  0.00    +0.000 H 
ATOM     12  C9  UNL A   1      32.391  24.222  22.607  1.00  0.00    +0.000 C 
BRANCH   12   11
ATOM     11  S1  UNL A   1      32.030  25.584  21.438  1.00  0.00    +0.000 S 
BRANCH   11   10
ATOM     97  H6  UNL A   1      35.112  28.524  23.718  1.00  0.00    +0.000 H 
ATOM     98  H7  UNL A   1      34.467  26.645  22.334  1.00  0.00    +0.000 H 
ATOM      5  C3  UNL A   1      31.450  28.009  22.761  1.00  0.00    +0.000 C 
ATOM      6  C4  UNL A   1      31.825  29.098  23.564  1.00  0.00    +0.000 C 
ATOM      7  C5  UNL A   1      33.157  29.280  23.926  1.00  0.00    +0.000 C 
ATOM      8  C6  UNL A   1      34.119  28.385  23.471  1.00  0.00    +0.000 C 
ATOM      9  C7  UNL A   1      33.742  27.294  22.678  1.00  0.00    +0.000 C 
ATOM     10  C8  UNL A   1      32.396  27.064  22.340  1.00  0.00    +0.000 C 
ATOM     95  H4  UNL A   1      31.110  29.768  23.886  1.00  0.00    +0.000 H 
ATOM     96  H5  UNL A   1      33.429  30.072  24.528  1.00  0.00    +0.000 H 
BRANCH    5    4
ATOM      4  O2  UNL A   1      30.026  27.880  22.650  1.00  0.00    +0.000 O 
BRANCH    4    2
ATOM      2  C2  UNL A   1      28.944  28.761  22.522  1.00  0.00    +0.000 C 
ATOM      3  O1  UNL A   1      28.910  29.820  21.914  1.00  0.00    +0.000 O 
BRANCH    2    1
ATOM      1  C1  UNL A   1      27.793  28.186  23.295  1.00  0.00    +0.000 C 
ATOM     92  H1  UNL A   1      27.023  28.922  23.388  1.00  0.00    +0.000 H 
ATOM     93  H2  UNL A   1      28.127  27.895  24.269  1.00  0.00    +0.000 H 
ATOM     94  H3  UNL A   1      27.409  27.331  22.779  1.00  0.00    +0.000 H 
ENDBRANCH    2    1
ENDBRANCH    4    2
ENDBRANCH    5    4
ENDBRANCH   11   10
ENDBRANCH   12   11
ENDBRANCH   13   12
ENDBRANCH   14   13
ENDBRANCH   15   14
ENDBRANCH   16   15
ENDBRANCH   17   16
ENDBRANCH   19   17
ENDBRANCH   20   19
ENDBRANCH   21   20
ENDBRANCH   22   21
ENDBRANCH   23   22
ENDBRANCH   24   23
ENDBRANCH   25   24
ENDBRANCH   26   25
ENDBRANCH   27   26
ENDBRANCH   29   27
ENDBRANCH   33   32
BRANCH   37   38
ATOM     38  C30 UNL A   1      43.595  32.538  32.390  1.00  0.00    +0.000 C 
ATOM     39  C31 UNL A   1      43.247  32.714  33.738  1.00  0.00    +0.000 C 
ATOM     40  F1  UNL A   1      42.757  31.688  34.448  1.00  0.00    +0.000 F 
ATOM     41  C32 UNL A   1      43.371  33.958  34.352  1.00  0.00    +0.000 C 
ATOM     42  F2  UNL A   1      42.994  34.112  35.629  1.00  0.00    +0.000 F 
ATOM     43  C33 UNL A   1      43.875  35.039  33.644  1.00  0.00    +0.000 C 
ATOM     44  F3  UNL A   1      44.005  36.232  34.241  1.00  0.00    +0.000 F 
ATOM     45  C34 UNL A   1      44.241  34.882  32.316  1.00  0.00    +0.000 C 
ATOM     46  F4  UNL A   1      44.740  35.923  31.633  1.00  0.00    +0.000 F 
ATOM     47  C35 UNL A   1      44.092  33.648  31.690  1.00  0.00    +0.000 C 
ATOM     48  F5  UNL A   1      44.444  33.532  30.401  1.00  0.00    +0.000 F 
ENDBRANCH   37   38
BRANCH   54   55
ATOM     65  F10 UNL A   1      47.026  25.667  33.064  1.00  0.00    +0.000 F 
ATOM     55  C41 UNL A   1      47.829  26.844  31.157  1.00  0.00    +0.000 C 
ATOM     56  C42 UNL A   1      48.939  27.225  30.390  1.00  0.00    +0.000 C 
ATOM     57  F6  UNL A   1      48.772  27.968  29.285  1.00  0.00    +0.000 F 
ATOM     58  C43 UNL A   1      50.222  26.810  30.734  1.00  0.00    +0.000 C 
ATOM     59  F7  UNL A   1      51.263  27.148  29.961  1.00  0.00    +0.000 F 
ATOM     60  C44 UNL A   1      50.424  26.037  31.868  1.00  0.00    +0.000 C 
ATOM     61  F8  UNL A   1      51.660  25.644  32.201  1.00  0.00    +0.000 F 
ATOM     62  C45 UNL A   1      49.342  25.664  32.651  1.00  0.00    +0.000 C 
ATOM     63  F9  UNL A   1      49.536  24.927  33.755  1.00  0.00    +0.000 F 
ATOM     64  C46 UNL A   1      48.054  26.053  32.294  1.00  0.00    +0.000 C 
ENDBRANCH   54   55
BRANCH   69   70
ATOM     70  C50 UNL A   1      42.732  23.908  27.435  1.00  0.00    +0.000 C 
ATOM     71  C51 UNL A   1      42.312  22.728  28.065  1.00  0.00    +0.000 C 
ATOM     72  F11 UNL A   1      42.002  22.741  29.370  1.00  0.00    +0.000 F 
ATOM     73  C52 UNL A   1      42.252  21.523  27.369  1.00  0.00    +0.000 C 
ATOM     74  F12 UNL A   1      41.893  20.401  28.009  1.00  0.00    +0.000 F 
ATOM     75  C53 UNL A   1      42.580  21.480  26.023  1.00  0.00    +0.000 C 
ATOM     76  F13 UNL A   1      42.522  20.320  25.354  1.00  0.00    +0.000 F 
ATOM     77  C54 UNL A   1      42.976  22.639  25.373  1.00  0.00    +0.000 C 
ATOM     78  F14 UNL A   1      43.280  22.603  24.068  1.00  0.00    +0.000 F 
ATOM     79  C55 UNL A   1      43.064  23.839  26.074  1.00  0.00    +0.000 C 
ATOM     80  F15 UNL A   1      43.465  24.941  25.424  1.00  0.00    +0.000 F 
ENDBRANCH   69   70
TORSDOF 24
ENDMDL
MODEL 10
REMARK VINA RESULT:      -9.0      2.775      4.271
ROOT
ATOM    129  H38 UNL A   1      38.074  28.703  27.363  1.00  0.00    +0.000 H 
ATOM    130  H39 UNL A   1      40.508  28.700  30.732  1.00  0.00    +0.000 H 
ATOM    131  H40 UNL A   1      44.568  26.009  29.514  1.00  0.00    +0.000 H 
ATOM    132  H41 UNL A   1      45.373  26.380  31.915  1.00  0.00    +0.000 H 
ATOM    133  H42 UNL A   1      37.421  32.227  33.776  1.00  0.00    +0.000 H 
ATOM    134  H43 UNL A   1      36.361  31.478  31.570  1.00  0.00    +0.000 H 
ATOM     33  C26 UNL A   1      38.061  29.828  29.983  1.00  0.00    +0.000 C 
ATOM     34  C27 UNL A   1      38.311  30.336  31.375  1.00  0.00    +0.000 C 
ATOM     35  N3  UNL A   1      39.340  30.134  32.158  1.00  0.00    +0.000 N 
ATOM     36  C28 UNL A   1      39.091  30.871  33.309  1.00  0.00    +0.000 C 
ATOM     37  C29 UNL A   1      39.837  30.953  34.436  1.00  0.00    +0.000 C 
ATOM     49  C36 UNL A   1      41.067  30.234  34.646  1.00  0.00    +0.000 C 
ATOM     50  C37 UNL A   1      41.851  30.178  35.783  1.00  0.00    +0.000 C 
ATOM     51  C38 UNL A   1      42.972  29.391  35.504  1.00  0.00    +0.000 C 
ATOM     52  C39 UNL A   1      42.863  28.919  34.207  1.00  0.00    +0.000 C 
ATOM     53  N4  UNL A   1      41.690  29.444  33.690  1.00  0.00    +0.000 N 
ATOM     54  C40 UNL A   1      43.765  28.055  33.488  1.00  0.00    +0.000 C 
ATOM     66  C47 UNL A   1      43.581  27.621  32.217  1.00  0.00    +0.000 C 
ATOM     67  N5  UNL A   1      42.527  27.879  31.351  1.00  0.00    +0.000 N 
ATOM     68  C48 UNL A   1      42.813  27.247  30.238  1.00  0.00    +0.000 C 
ATOM     69  C49 UNL A   1      42.011  27.146  28.969  1.00  0.00    +0.000 C 
ATOM     81  C56 UNL A   1      40.818  27.765  28.897  1.00  0.00    +0.000 C 
ATOM     82  C57 UNL A   1      39.927  27.758  27.741  1.00  0.00    +0.000 C 
ATOM     83  C58 UNL A   1      38.853  28.515  28.012  1.00  0.00    +0.000 C 
ATOM     84  C59 UNL A   1      38.963  29.033  29.378  1.00  0.00    +0.000 C 
ATOM     85  N6  UNL A   1      40.158  28.530  29.827  1.00  0.00    +0.000 N 
ATOM     86  C60 UNL A   1      44.101  26.540  30.265  1.00  0.00    +0.000 C 
ATOM     87  C61 UNL A   1      44.507  26.765  31.507  1.00  0.00    +0.000 C 
ATOM     88  C62 UNL A   1      37.833  31.556  33.109  1.00  0.00    +0.000 C 
ATOM     89  C63 UNL A   1      37.278  31.208  31.957  1.00  0.00    +0.000 C 
ATOM    125  H34 UNL A   1      41.644  30.639  36.683  1.00  0.00    +0.000 H 
ATOM    126  H35 UNL A   1      43.749  29.196  36.155  1.00  0.00    +0.000 H 
ATOM    127  H36 UNL A   1      41.349  29.282  32.781  1.00  0.00    +0.000 H 
ATOM    128  H37 UNL A   1      40.097  27.253  26.857  1.00  0.00    +0.000 H 
ENDROOT
BRANCH   33   32
ATOM    123  H32 UNL A   1      34.000  29.088  27.904  1.00  0.00    +0.000 H 
ATOM    136  H45 UNL A   1      35.444  33.040  27.993  1.00  0.00    +0.000 H 
ATOM    135  H44 UNL A   1      37.463  32.282  29.098  1.00  0.00    +0.000 H 
ATOM     90  C64 UNL A   1      36.716  31.608  28.869  1.00  0.00    +0.000 C 
ATOM     91  C65 UNL A   1      35.576  32.037  28.198  1.00  0.00    +0.000 C 
ATOM    124  H33 UNL A   1      35.919  28.364  29.201  1.00  0.00    +0.000 H 
ATOM     29  C22 UNL A   1      34.610  31.109  27.798  1.00  0.00    +0.000 C 
ATOM     30  C23 UNL A   1      34.730  29.767  28.171  1.00  0.00    +0.000 C 
ATOM     31  C24 UNL A   1      35.842  29.349  28.903  1.00  0.00    +0.000 C 
ATOM     32  C25 UNL A   1      36.855  30.261  29.238  1.00  0.00    +0.000 C 
BRANCH   29   27
ATOM     27  C21 UNL A   1      33.417  31.533  27.036  1.00  0.00    +0.000 C 
ATOM     28  O4  UNL A   1      32.897  32.622  27.263  1.00  0.00    +0.000 O 
BRANCH   27   26
ATOM     26  N2  UNL A   1      32.904  30.722  26.056  1.00  0.00    +0.000 N 
ATOM    122  H31 UNL A   1      33.561  30.205  25.538  1.00  0.00    +0.000 H 
BRANCH   26   25
ATOM     25  C20 UNL A   1      31.510  30.529  25.686  1.00  0.00    +0.000 C 
ATOM    121  H30 UNL A   1      31.220  31.342  25.054  1.00  0.00    +0.000 H 
ATOM    120  H29 UNL A   1      30.917  30.502  26.577  1.00  0.00    +0.000 H 
BRANCH   25   24
ATOM    118  H27 UNL A   1      30.899  28.501  25.588  1.00  0.00    +0.000 H 
ATOM    119  H28 UNL A   1      30.638  29.465  24.105  1.00  0.00    +0.000 H 
ATOM     24  C19 UNL A   1      31.298  29.229  24.912  1.00  0.00    +0.000 C 
BRANCH   24   23
ATOM    116  H25 UNL A   1      33.372  29.317  24.461  1.00  0.00    +0.000 H 
ATOM    117  H26 UNL A   1      32.694  27.676  24.716  1.00  0.00    +0.000 H 
ATOM     23  C18 UNL A   1      32.564  28.641  24.273  1.00  0.00    +0.000 C 
BRANCH   23   22
ATOM    114  H23 UNL A   1      31.529  27.998  22.528  1.00  0.00    +0.000 H 
ATOM    115  H24 UNL A   1      32.663  29.348  22.288  1.00  0.00    +0.000 H 
ATOM     22  C17 UNL A   1      32.492  28.403  22.760  1.00  0.00    +0.000 C 
BRANCH   22   21
ATOM    113  H22 UNL A   1      34.193  27.202  23.060  1.00  0.00    +0.000 H 
ATOM     21  C16 UNL A   1      33.555  27.445  22.236  1.00  0.00    +0.000 C 
ATOM    112  H21 UNL A   1      34.086  27.930  21.442  1.00  0.00    +0.000 H 
BRANCH   21   20
ATOM     20  C15 UNL A   1      32.985  26.133  21.706  1.00  0.00    +0.000 C 
ATOM    110  H19 UNL A   1      32.023  26.315  21.277  1.00  0.00    +0.000 H 
ATOM    111  H20 UNL A   1      33.652  25.741  20.966  1.00  0.00    +0.000 H 
BRANCH   20   19
ATOM     19  N1  UNL A   1      32.855  25.167  22.774  1.00  0.00    +0.000 N 
ATOM    109  H18 UNL A   1      33.564  25.181  23.456  1.00  0.00    +0.000 H 
BRANCH   19   17
ATOM     17  C14 UNL A   1      31.874  24.242  22.954  1.00  0.00    +0.000 C 
ATOM     18  O3  UNL A   1      32.150  23.048  22.829  1.00  0.00    +0.000 O 
BRANCH   17   16
ATOM    107  H16 UNL A   1      30.053  25.172  22.424  1.00  0.00    +0.000 H 
ATOM    108  H17 UNL A   1      29.915  23.820  23.568  1.00  0.00    +0.000 H 
ATOM     16  C13 UNL A   1      30.468  24.692  23.286  1.00  0.00    +0.000 C 
BRANCH   16   15
ATOM    105  H14 UNL A   1      30.967  26.534  24.185  1.00  0.00    +0.000 H 
ATOM    106  H15 UNL A   1      29.360  25.819  24.623  1.00  0.00    +0.000 H 
ATOM     15  C12 UNL A   1      30.405  25.666  24.462  1.00  0.00    +0.000 C 
BRANCH   15   14
ATOM     14  C11 UNL A   1      30.938  25.192  25.826  1.00  0.00    +0.000 C 
ATOM    103  H12 UNL A   1      31.990  25.024  25.730  1.00  0.00    +0.000 H 
ATOM    104  H13 UNL A   1      30.686  25.962  26.525  1.00  0.00    +0.000 H 
BRANCH   14   13
ATOM    101  H10 UNL A   1      29.941  24.117  27.353  1.00  0.00    +0.000 H 
ATOM     13  C10 UNL A   1      30.303  23.905  26.369  1.00  0.00    +0.000 C 
ATOM    102  H11 UNL A   1      29.554  23.648  25.648  1.00  0.00    +0.000 H 
BRANCH   13   12
ATOM    100  H9  UNL A   1      30.898  22.102  25.600  1.00  0.00    +0.000 H 
ATOM     99  H8  UNL A   1      31.014  22.238  27.434  1.00  0.00    +0.000 H 
ATOM     12  C9  UNL A   1      31.192  22.658  26.466  1.00  0.00    +0.000 C 
BRANCH   12   11
ATOM     11  S1  UNL A   1      33.010  22.750  26.270  1.00  0.00    +0.000 S 
BRANCH   11   10
ATOM     97  H6  UNL A   1      31.892  18.434  24.407  1.00  0.00    +0.000 H 
ATOM     98  H7  UNL A   1      31.440  20.651  25.271  1.00  0.00    +0.000 H 
ATOM      5  C3  UNL A   1      34.776  20.780  25.287  1.00  0.00    +0.000 C 
ATOM      6  C4  UNL A   1      35.037  19.494  24.786  1.00  0.00    +0.000 C 
ATOM      7  C5  UNL A   1      33.988  18.632  24.479  1.00  0.00    +0.000 C 
ATOM      8  C6  UNL A   1      32.676  19.060  24.652  1.00  0.00    +0.000 C 
ATOM      9  C7  UNL A   1      32.418  20.339  25.161  1.00  0.00    +0.000 C 
ATOM     10  C8  UNL A   1      33.463  21.208  25.523  1.00  0.00    +0.000 C 
ATOM     95  H4  UNL A   1      36.012  19.187  24.644  1.00  0.00    +0.000 H 
ATOM     96  H5  UNL A   1      34.182  17.683  24.125  1.00  0.00    +0.000 H 
BRANCH    5    4
ATOM      4  O2  UNL A   1      35.969  21.447  25.720  1.00  0.00    +0.000 O 
BRANCH    4    2
ATOM      2  C2  UNL A   1      37.167  21.855  25.118  1.00  0.00    +0.000 C 
ATOM      3  O1  UNL A   1      38.307  21.583  25.463  1.00  0.00    +0.000 O 
BRANCH    2    1
ATOM      1  C1  UNL A   1      36.817  22.727  23.948  1.00  0.00    +0.000 C 
ATOM     92  H1  UNL A   1      37.613  22.702  23.233  1.00  0.00    +0.000 H 
ATOM     93  H2  UNL A   1      36.672  23.733  24.284  1.00  0.00    +0.000 H 
ATOM     94  H3  UNL A   1      35.917  22.370  23.494  1.00  0.00    +0.000 H 
ENDBRANCH    2    1
ENDBRANCH    4    2
ENDBRANCH    5    4
ENDBRANCH   11   10
ENDBRANCH   12   11
ENDBRANCH   13   12
ENDBRANCH   14   13
ENDBRANCH   15   14
ENDBRANCH   16   15
ENDBRANCH   17   16
ENDBRANCH   19   17
ENDBRANCH   20   19
ENDBRANCH   21   20
ENDBRANCH   22   21
ENDBRANCH   23   22
ENDBRANCH   24   23
ENDBRANCH   25   24
ENDBRANCH   26   25
ENDBRANCH   27   26
ENDBRANCH   29   27
ENDBRANCH   33   32
BRANCH   37   38
ATOM     38  C30 UNL A   1      39.348  31.847  35.536  1.00  0.00    +0.000 C 
ATOM     39  C31 UNL A   1      38.437  31.396  36.504  1.00  0.00    +0.000 C 
ATOM     40  F1  UNL A   1      37.932  30.157  36.428  1.00  0.00    +0.000 F 
ATOM     41  C32 UNL A   1      38.018  32.231  37.537  1.00  0.00    +0.000 C 
ATOM     42  F2  UNL A   1      37.117  31.792  38.426  1.00  0.00    +0.000 F 
ATOM     43  C33 UNL A   1      38.524  33.518  37.642  1.00  0.00    +0.000 C 
ATOM     44  F3  UNL A   1      38.128  34.316  38.643  1.00  0.00    +0.000 F 
ATOM     45  C34 UNL A   1      39.438  33.979  36.706  1.00  0.00    +0.000 C 
ATOM     46  F4  UNL A   1      39.937  35.218  36.813  1.00  0.00    +0.000 F 
ATOM     47  C35 UNL A   1      39.837  33.157  35.656  1.00  0.00    +0.000 C 
ATOM     48  F5  UNL A   1      40.714  33.636  34.761  1.00  0.00    +0.000 F 
ENDBRANCH   37   38
BRANCH   54   55
ATOM     65  F10 UNL A   1      43.822  25.685  35.053  1.00  0.00    +0.000 F 
ATOM     55  C41 UNL A   1      44.993  27.577  34.205  1.00  0.00    +0.000 C 
ATOM     56  C42 UNL A   1      46.196  28.295  34.162  1.00  0.00    +0.000 C 
ATOM     57  F6  UNL A   1      46.288  29.413  33.426  1.00  0.00    +0.000 F 
ATOM     58  C43 UNL A   1      47.322  27.845  34.846  1.00  0.00    +0.000 C 
ATOM     59  F7  UNL A   1      48.474  28.522  34.755  1.00  0.00    +0.000 F 
ATOM     60  C44 UNL A   1      47.256  26.689  35.610  1.00  0.00    +0.000 C 
ATOM     61  F8  UNL A   1      48.339  26.261  36.273  1.00  0.00    +0.000 F 
ATOM     62  C45 UNL A   1      46.071  25.973  35.681  1.00  0.00    +0.000 C 
ATOM     63  F9  UNL A   1      46.003  24.863  36.429  1.00  0.00    +0.000 F 
ATOM     64  C46 UNL A   1      44.951  26.405  34.975  1.00  0.00    +0.000 C 
ENDBRANCH   54   55
BRANCH   69   70
ATOM     70  C50 UNL A   1      42.511  26.352  27.817  1.00  0.00    +0.000 C 
ATOM     71  C51 UNL A   1      43.355  26.933  26.860  1.00  0.00    +0.000 C 
ATOM     72  F11 UNL A   1      43.714  28.220  26.979  1.00  0.00    +0.000 F 
ATOM     73  C52 UNL A   1      43.795  26.208  25.755  1.00  0.00    +0.000 C 
ATOM     74  F12 UNL A   1      44.561  26.803  24.830  1.00  0.00    +0.000 F 
ATOM     75  C53 UNL A   1      43.425  24.881  25.602  1.00  0.00    +0.000 C 
ATOM     76  F13 UNL A   1      43.850  24.185  24.538  1.00  0.00    +0.000 F 
ATOM     77  C54 UNL A   1      42.610  24.279  26.548  1.00  0.00    +0.000 C 
ATOM     78  F14 UNL A   1      42.263  22.992  26.409  1.00  0.00    +0.000 F 
ATOM     79  C55 UNL A   1      42.146  25.010  27.638  1.00  0.00    +0.000 C 
ATOM     80  F15 UNL A   1      41.347  24.407  28.529  1.00  0.00    +0.000 F 
ENDBRANCH   69   70
TORSDOF 24
ENDMDL
