MODEL 1
REMARK VINA RESULT:      -7.8      0.000      0.000
ROOT
ATOM    136  H38 UNL A   1      20.020  42.360  49.618  1.00  0.00    +0.000 H 
ATOM    137  H39 UNL A   1      18.432  40.292  49.583  1.00  0.00    +0.000 H 
ATOM    138  H40 UNL A   1      22.075  39.162  47.975  1.00  0.00    +0.000 H 
ATOM    139  H41 UNL A   1      25.728  34.753  45.153  1.00  0.00    +0.000 H 
ATOM    140  H42 UNL A   1      27.282  36.762  45.215  1.00  0.00    +0.000 H 
ATOM    141  H43 UNL A   1      23.643  37.917  46.863  1.00  0.00    +0.000 H 
ATOM    142  H44 UNL A   1      20.739  33.813  46.818  1.00  0.00    +0.000 H 
ATOM    143  H45 UNL A   1      18.877  35.279  47.784  1.00  0.00    +0.000 H 
ATOM    144  H46 UNL A   1      25.143  43.120  48.213  1.00  0.00    +0.000 H 
ATOM    145  H47 UNL A   1      26.860  41.817  46.830  1.00  0.00    +0.000 H 
ATOM     38  C32 UNL A   1      26.117  39.111  46.337  1.00  0.00    +0.000 C 
ATOM     39  C33 UNL A   1      25.298  40.181  47.002  1.00  0.00    +0.000 C 
ATOM     40  N3  UNL A   1      24.086  40.113  47.491  1.00  0.00    +0.000 N 
ATOM     41  C34 UNL A   1      23.826  41.365  48.033  1.00  0.00    +0.000 C 
ATOM     42  C35 UNL A   1      22.686  41.814  48.613  1.00  0.00    +0.000 C 
ATOM     54  C42 UNL A   1      21.487  41.033  48.758  1.00  0.00    +0.000 C 
ATOM     55  C43 UNL A   1      20.261  41.419  49.271  1.00  0.00    +0.000 C 
ATOM     56  C44 UNL A   1      19.404  40.312  49.240  1.00  0.00    +0.000 C 
ATOM     57  C45 UNL A   1      20.085  39.249  48.670  1.00  0.00    +0.000 C 
ATOM     58  N4  UNL A   1      21.363  39.703  48.383  1.00  0.00    +0.000 N 
ATOM     59  C46 UNL A   1      19.607  37.917  48.404  1.00  0.00    +0.000 C 
ATOM     71  C53 UNL A   1      20.338  36.926  47.838  1.00  0.00    +0.000 C 
ATOM     72  N5  UNL A   1      21.652  36.956  47.395  1.00  0.00    +0.000 N 
ATOM     73  C54 UNL A   1      21.906  35.754  46.939  1.00  0.00    +0.000 C 
ATOM     74  C55 UNL A   1      23.166  35.223  46.314  1.00  0.00    +0.000 C 
ATOM     86  C62 UNL A   1      24.213  36.050  46.136  1.00  0.00    +0.000 C 
ATOM     87  C63 UNL A   1      25.491  35.683  45.535  1.00  0.00    +0.000 C 
ATOM     88  C64 UNL A   1      26.309  36.747  45.559  1.00  0.00    +0.000 C 
ATOM     89  C65 UNL A   1      25.599  37.881  46.151  1.00  0.00    +0.000 C 
ATOM     90  N6  UNL A   1      24.359  37.378  46.455  1.00  0.00    +0.000 N 
ATOM     91  C66 UNL A   1      20.783  34.814  47.067  1.00  0.00    +0.000 C 
ATOM     92  C67 UNL A   1      19.841  35.588  47.586  1.00  0.00    +0.000 C 
ATOM     93  C68 UNL A   1      25.021  42.160  47.853  1.00  0.00    +0.000 C 
ATOM     94  C69 UNL A   1      25.938  41.496  47.165  1.00  0.00    +0.000 C 
ENDROOT
BRANCH   38   37
ATOM     34  C28 UNL A   1      30.194  39.834  45.219  1.00  0.00    +0.000 C 
ATOM     35  C29 UNL A   1      29.162  40.208  44.352  1.00  0.00    +0.000 C 
ATOM     36  C30 UNL A   1      27.831  39.995  44.720  1.00  0.00    +0.000 C 
ATOM     37  C31 UNL A   1      27.523  39.381  45.944  1.00  0.00    +0.000 C 
ATOM    134  H36 UNL A   1      29.383  40.640  43.441  1.00  0.00    +0.000 H 
ATOM    135  H37 UNL A   1      27.070  40.291  44.089  1.00  0.00    +0.000 H 
ATOM    146  H48 UNL A   1      28.351  38.563  47.711  1.00  0.00    +0.000 H 
ATOM    147  H49 UNL A   1      30.647  39.090  47.143  1.00  0.00    +0.000 H 
ATOM     95  C70 UNL A   1      28.566  39.025  46.814  1.00  0.00    +0.000 C 
ATOM     96  C71 UNL A   1      29.891  39.293  46.471  1.00  0.00    +0.000 C 
BRANCH   34   32
ATOM     33  O3  UNL A   1      32.203  41.036  45.274  1.00  0.00    +0.000 O 
ATOM     32  C27 UNL A   1      31.595  40.085  44.808  1.00  0.00    +0.000 C 
BRANCH   32   31
ATOM    133  H35 UNL A   1      32.960  38.714  44.280  1.00  0.00    +0.000 H 
ATOM     31  N2  UNL A   1      32.216  39.244  43.914  1.00  0.00    +0.000 N 
BRANCH   31   30
ATOM    131  H33 UNL A   1      31.334  39.840  42.145  1.00  0.00    +0.000 H 
ATOM    132  H34 UNL A   1      32.864  38.975  41.983  1.00  0.00    +0.000 H 
ATOM     30  C26 UNL A   1      31.931  39.028  42.505  1.00  0.00    +0.000 C 
BRANCH   30   29
ATOM    129  H31 UNL A   1      30.185  37.958  41.957  1.00  0.00    +0.000 H 
ATOM    130  H32 UNL A   1      31.738  37.183  41.529  1.00  0.00    +0.000 H 
ATOM     29  C25 UNL A   1      31.181  37.719  42.268  1.00  0.00    +0.000 C 
BRANCH   29   28
ATOM     28  C24 UNL A   1      31.088  36.800  43.492  1.00  0.00    +0.000 C 
ATOM    127  H29 UNL A   1      31.575  35.879  43.248  1.00  0.00    +0.000 H 
ATOM    128  H30 UNL A   1      31.551  37.335  44.294  1.00  0.00    +0.000 H 
BRANCH   28   27
ATOM     27  C23 UNL A   1      29.669  36.471  43.972  1.00  0.00    +0.000 C 
ATOM    125  H27 UNL A   1      29.733  36.123  44.982  1.00  0.00    +0.000 H 
ATOM    126  H28 UNL A   1      29.103  37.373  43.866  1.00  0.00    +0.000 H 
BRANCH   27   26
ATOM     26  C22 UNL A   1      28.935  35.407  43.149  1.00  0.00    +0.000 C 
ATOM    123  H25 UNL A   1      27.896  35.663  43.122  1.00  0.00    +0.000 H 
ATOM    124  H26 UNL A   1      29.385  35.403  42.179  1.00  0.00    +0.000 H 
BRANCH   26   25
ATOM     25  C21 UNL A   1      29.066  33.985  43.703  1.00  0.00    +0.000 C 
ATOM    122  H24 UNL A   1      30.009  33.591  43.389  1.00  0.00    +0.000 H 
ATOM    121  H23 UNL A   1      28.258  33.392  43.329  1.00  0.00    +0.000 H 
BRANCH   25   24
ATOM    120  H22 UNL A   1      29.629  34.622  45.575  1.00  0.00    +0.000 H 
ATOM     24  N1  UNL A   1      29.029  33.968  45.149  1.00  0.00    +0.000 N 
BRANCH   24   22
ATOM     22  C20 UNL A   1      28.315  33.213  46.029  1.00  0.00    +0.000 C 
ATOM     23  O2  UNL A   1      27.433  32.500  45.533  1.00  0.00    +0.000 O 
BRANCH   22   20
ATOM    116  H18 UNL A   1      29.604  33.218  47.667  1.00  0.00    +0.000 H 
ATOM     20  C18 UNL A   1      28.540  33.212  47.551  1.00  0.00    +0.000 C 
BRANCH   20   19
ATOM      7  C6  UNL A   1      28.936  35.601  48.437  1.00  0.00    +0.000 C 
ATOM      8  C7  UNL A   1      28.413  36.800  48.969  1.00  0.00    +0.000 C 
ATOM      9  C8  UNL A   1      27.080  36.900  49.384  1.00  0.00    +0.000 C 
ATOM    104  H6  UNL A   1      29.029  37.624  49.053  1.00  0.00    +0.000 H 
ATOM     17  C15 UNL A   1      26.245  35.800  49.216  1.00  0.00    +0.000 C 
ATOM     18  C16 UNL A   1      26.738  34.621  48.662  1.00  0.00    +0.000 C 
ATOM     19  C17 UNL A   1      28.069  34.501  48.225  1.00  0.00    +0.000 C 
ATOM    115  H17 UNL A   1      26.107  33.810  48.567  1.00  0.00    +0.000 H 
ATOM    114  H16 UNL A   1      25.256  35.857  49.505  1.00  0.00    +0.000 H 
BRANCH    7    6
ATOM     97  C72 UNL A   1      31.195  34.940  49.359  1.00  0.00    +0.000 C 
ATOM     98  C73 UNL A   1      32.591  34.908  49.220  1.00  0.00    +0.000 C 
ATOM      3  C2  UNL A   1      33.222  35.401  48.067  1.00  0.00    +0.000 C 
ATOM      4  C3  UNL A   1      32.424  35.928  47.053  1.00  0.00    +0.000 C 
ATOM      5  C4  UNL A   1      31.036  35.971  47.195  1.00  0.00    +0.000 C 
ATOM    102  H4  UNL A   1      32.862  36.291  46.192  1.00  0.00    +0.000 H 
ATOM      6  C5  UNL A   1      30.399  35.481  48.348  1.00  0.00    +0.000 C 
ATOM    103  H5  UNL A   1      30.464  36.370  46.435  1.00  0.00    +0.000 H 
ATOM    148  H50 UNL A   1      30.754  34.560  50.211  1.00  0.00    +0.000 H 
ATOM    149  H51 UNL A   1      33.166  34.514  49.982  1.00  0.00    +0.000 H 
BRANCH    3    2
ATOM      2  S1  UNL A   1      35.009  35.337  48.005  1.00  0.00    +0.000 S 
BRANCH    2    1
ATOM      1  C1  UNL A   1      35.509  36.152  49.548  1.00  0.00    +0.000 C 
ATOM     99  H1  UNL A   1      36.145  35.498  50.107  1.00  0.00    +0.000 H 
ATOM    100  H2  UNL A   1      34.640  36.385  50.126  1.00  0.00    +0.000 H 
ATOM    101  H3  UNL A   1      36.038  37.054  49.319  1.00  0.00    +0.000 H 
ENDBRANCH    2    1
ENDBRANCH    3    2
ENDBRANCH    7    6
BRANCH    9   10
ATOM    105  H7  UNL A   1      26.126  38.773  49.421  1.00  0.00    +0.000 H 
ATOM     10  C9  UNL A   1      26.585  38.115  50.129  1.00  0.00    +0.000 C 
ATOM    106  H8  UNL A   1      27.440  38.538  50.612  1.00  0.00    +0.000 H 
BRANCH   10   11
ATOM     11  C10 UNL A   1      25.565  37.826  51.240  1.00  0.00    +0.000 C 
ATOM    108  H10 UNL A   1      26.747  38.905  52.682  1.00  0.00    +0.000 H 
ATOM     12  C11 UNL A   1      25.733  38.582  52.566  1.00  0.00    +0.000 C 
ATOM    107  H9  UNL A   1      25.733  36.780  51.382  1.00  0.00    +0.000 H 
ATOM     15  C14 UNL A   1      24.163  38.227  50.834  1.00  0.00    +0.000 C 
ATOM    109  H11 UNL A   1      25.499  37.957  53.403  1.00  0.00    +0.000 H 
ATOM     13  C12 UNL A   1      24.798  39.785  52.493  1.00  0.00    +0.000 C 
ATOM     14  C13 UNL A   1      23.582  39.292  51.725  1.00  0.00    +0.000 C 
ATOM     16  O1  UNL A   1      23.555  37.720  49.898  1.00  0.00    +0.000 O 
ATOM    110  H12 UNL A   1      25.268  40.594  51.974  1.00  0.00    +0.000 H 
ATOM    111  H13 UNL A   1      24.540  40.153  53.463  1.00  0.00    +0.000 H 
ATOM    112  H14 UNL A   1      23.143  40.080  51.149  1.00  0.00    +0.000 H 
ATOM    113  H15 UNL A   1      22.796  38.935  52.357  1.00  0.00    +0.000 H 
ENDBRANCH   10   11
ENDBRANCH    9   10
ENDBRANCH   20   19
BRANCH   20   21
ATOM    117  H19 UNL A   1      29.051  31.406  48.577  1.00  0.00    +0.000 H 
ATOM     21  C19 UNL A   1      28.162  31.919  48.274  1.00  0.00    +0.000 C 
ATOM    118  H20 UNL A   1      27.597  31.295  47.614  1.00  0.00    +0.000 H 
ATOM    119  H21 UNL A   1      27.572  32.152  49.136  1.00  0.00    +0.000 H 
ENDBRANCH   20   21
ENDBRANCH   22   20
ENDBRANCH   24   22
ENDBRANCH   25   24
ENDBRANCH   26   25
ENDBRANCH   27   26
ENDBRANCH   28   27
ENDBRANCH   29   28
ENDBRANCH   30   29
ENDBRANCH   31   30
ENDBRANCH   32   31
ENDBRANCH   34   32
ENDBRANCH   38   37
BRANCH   42   43
ATOM     43  C36 UNL A   1      22.681  43.223  49.129  1.00  0.00    +0.000 C 
ATOM     44  C37 UNL A   1      23.058  43.524  50.446  1.00  0.00    +0.000 C 
ATOM     45  F1  UNL A   1      23.388  42.540  51.295  1.00  0.00    +0.000 F 
ATOM     46  C38 UNL A   1      23.061  44.838  50.909  1.00  0.00    +0.000 C 
ATOM     47  F2  UNL A   1      23.381  45.097  52.184  1.00  0.00    +0.000 F 
ATOM     48  C39 UNL A   1      22.720  45.877  50.055  1.00  0.00    +0.000 C 
ATOM     49  F3  UNL A   1      22.729  47.140  50.500  1.00  0.00    +0.000 F 
ATOM     50  C40 UNL A   1      22.363  45.603  48.744  1.00  0.00    +0.000 C 
ATOM     51  F4  UNL A   1      22.044  46.608  47.915  1.00  0.00    +0.000 F 
ATOM     52  C41 UNL A   1      22.332  44.289  48.286  1.00  0.00    +0.000 C 
ATOM     53  F5  UNL A   1      21.969  44.056  47.016  1.00  0.00    +0.000 F 
ENDBRANCH   42   43
BRANCH   59   60
ATOM     65  C50 UNL A   1      15.542  36.957  49.460  1.00  0.00    +0.000 C 
ATOM     66  F8  UNL A   1      14.278  36.660  49.793  1.00  0.00    +0.000 F 
ATOM     67  C51 UNL A   1      16.469  37.254  50.448  1.00  0.00    +0.000 C 
ATOM     68  F9  UNL A   1      16.105  37.225  51.737  1.00  0.00    +0.000 F 
ATOM     69  C52 UNL A   1      17.777  37.584  50.103  1.00  0.00    +0.000 C 
ATOM     70  F10 UNL A   1      18.648  37.877  51.079  1.00  0.00    +0.000 F 
ATOM     60  C47 UNL A   1      18.185  37.601  48.760  1.00  0.00    +0.000 C 
ATOM     61  C48 UNL A   1      17.236  37.282  47.778  1.00  0.00    +0.000 C 
ATOM     62  F6  UNL A   1      17.575  37.300  46.480  1.00  0.00    +0.000 F 
ATOM     63  C49 UNL A   1      15.922  36.977  48.127  1.00  0.00    +0.000 C 
ATOM     64  F7  UNL A   1      15.022  36.717  47.169  1.00  0.00    +0.000 F 
ENDBRANCH   59   60
BRANCH   74   75
ATOM     75  C56 UNL A   1      23.256  33.811  45.864  1.00  0.00    +0.000 C 
ATOM     76  C57 UNL A   1      23.961  32.861  46.618  1.00  0.00    +0.000 C 
ATOM     77  F11 UNL A   1      24.582  33.233  47.747  1.00  0.00    +0.000 F 
ATOM     78  C58 UNL A   1      24.062  31.538  46.195  1.00  0.00    +0.000 C 
ATOM     79  F12 UNL A   1      24.776  30.661  46.913  1.00  0.00    +0.000 F 
ATOM     80  C59 UNL A   1      23.438  31.132  45.025  1.00  0.00    +0.000 C 
ATOM     81  F13 UNL A   1      23.532  29.859  44.620  1.00  0.00    +0.000 F 
ATOM     82  C60 UNL A   1      22.721  32.050  44.272  1.00  0.00    +0.000 C 
ATOM     83  F14 UNL A   1      22.106  31.659  43.148  1.00  0.00    +0.000 F 
ATOM     84  C61 UNL A   1      22.640  33.379  44.681  1.00  0.00    +0.000 C 
ATOM     85  F15 UNL A   1      21.949  34.248  43.928  1.00  0.00    +0.000 F 
ENDBRANCH   74   75
TORSDOF 22
ENDMDL
MODEL 2
REMARK VINA RESULT:      -7.8     19.240     25.560
ROOT
ATOM    136  H38 UNL A   1      36.707  33.045  34.270  1.00  0.00    +0.000 H 
ATOM    137  H39 UNL A   1      35.800  32.770  31.841  1.00  0.00    +0.000 H 
ATOM    138  H40 UNL A   1      39.225  30.475  32.219  1.00  0.00    +0.000 H 
ATOM    139  H41 UNL A   1      43.626  26.663  29.604  1.00  0.00    +0.000 H 
ATOM    140  H42 UNL A   1      44.490  26.911  31.980  1.00  0.00    +0.000 H 
ATOM    141  H43 UNL A   1      41.037  29.200  31.637  1.00  0.00    +0.000 H 
ATOM    142  H44 UNL A   1      39.362  28.486  26.951  1.00  0.00    +0.000 H 
ATOM    143  H45 UNL A   1      37.498  30.152  27.502  1.00  0.00    +0.000 H 
ATOM    144  H46 UNL A   1      40.837  30.908  36.947  1.00  0.00    +0.000 H 
ATOM    145  H47 UNL A   1      42.955  29.623  36.295  1.00  0.00    +0.000 H 
ATOM     38  C32 UNL A   1      42.911  28.618  33.630  1.00  0.00    +0.000 C 
ATOM     39  C33 UNL A   1      41.898  29.510  34.292  1.00  0.00    +0.000 C 
ATOM     40  N3  UNL A   1      40.794  30.015  33.803  1.00  0.00    +0.000 N 
ATOM     41  C34 UNL A   1      40.208  30.721  34.845  1.00  0.00    +0.000 C 
ATOM     42  C35 UNL A   1      39.075  31.465  34.830  1.00  0.00    +0.000 C 
ATOM     54  C42 UNL A   1      38.255  31.670  33.665  1.00  0.00    +0.000 C 
ATOM     55  C43 UNL A   1      37.125  32.458  33.532  1.00  0.00    +0.000 C 
ATOM     56  C44 UNL A   1      36.646  32.321  32.224  1.00  0.00    +0.000 C 
ATOM     57  C45 UNL A   1      37.501  31.479  31.532  1.00  0.00    +0.000 C 
ATOM     58  N4  UNL A   1      38.480  31.083  32.429  1.00  0.00    +0.000 N 
ATOM     59  C46 UNL A   1      37.432  31.065  30.154  1.00  0.00    +0.000 C 
ATOM     71  C53 UNL A   1      38.313  30.235  29.546  1.00  0.00    +0.000 C 
ATOM     72  N5  UNL A   1      39.440  29.620  30.074  1.00  0.00    +0.000 N 
ATOM     73  C54 UNL A   1      39.952  28.910  29.099  1.00  0.00    +0.000 C 
ATOM     74  C55 UNL A   1      41.192  28.060  29.095  1.00  0.00    +0.000 C 
ATOM     86  C62 UNL A   1      41.951  27.995  30.206  1.00  0.00    +0.000 C 
ATOM     87  C63 UNL A   1      43.182  27.225  30.348  1.00  0.00    +0.000 C 
ATOM     88  C64 UNL A   1      43.644  27.364  31.601  1.00  0.00    +0.000 C 
ATOM     89  C65 UNL A   1      42.754  28.258  32.341  1.00  0.00    +0.000 C 
ATOM     90  N6  UNL A   1      41.783  28.592  31.431  1.00  0.00    +0.000 N 
ATOM     91  C66 UNL A   1      39.190  28.975  27.844  1.00  0.00    +0.000 C 
ATOM     92  C67 UNL A   1      38.223  29.824  28.159  1.00  0.00    +0.000 C 
ATOM     93  C68 UNL A   1      41.054  30.544  36.005  1.00  0.00    +0.000 C 
ATOM     94  C69 UNL A   1      42.145  29.856  35.700  1.00  0.00    +0.000 C 
ENDROOT
BRANCH   38   37
ATOM     34  C28 UNL A   1      46.214  27.099  35.905  1.00  0.00    +0.000 C 
ATOM     35  C29 UNL A   1      44.989  26.423  35.926  1.00  0.00    +0.000 C 
ATOM     36  C30 UNL A   1      43.916  26.900  35.169  1.00  0.00    +0.000 C 
ATOM     37  C31 UNL A   1      44.051  28.073  34.410  1.00  0.00    +0.000 C 
ATOM    134  H36 UNL A   1      44.879  25.572  36.500  1.00  0.00    +0.000 H 
ATOM    135  H37 UNL A   1      43.021  26.387  35.168  1.00  0.00    +0.000 H 
ATOM    146  H48 UNL A   1      45.394  29.604  33.837  1.00  0.00    +0.000 H 
ATOM    147  H49 UNL A   1      47.299  28.677  35.014  1.00  0.00    +0.000 H 
ATOM     95  C70 UNL A   1      45.288  28.735  34.383  1.00  0.00    +0.000 C 
ATOM     96  C71 UNL A   1      46.375  28.224  35.091  1.00  0.00    +0.000 C 
BRANCH   34   32
ATOM     33  O3  UNL A   1      47.508  26.950  37.851  1.00  0.00    +0.000 O 
ATOM     32  C27 UNL A   1      47.338  26.562  36.706  1.00  0.00    +0.000 C 
BRANCH   32   31
ATOM    133  H35 UNL A   1      49.028  25.969  35.804  1.00  0.00    +0.000 H 
ATOM     31  N2  UNL A   1      48.183  25.619  36.168  1.00  0.00    +0.000 N 
BRANCH   31   30
ATOM    131  H33 UNL A   1      48.965  23.709  36.131  1.00  0.00    +0.000 H 
ATOM    132  H34 UNL A   1      47.363  23.865  36.856  1.00  0.00    +0.000 H 
ATOM     30  C26 UNL A   1      48.007  24.181  36.061  1.00  0.00    +0.000 C 
BRANCH   30   29
ATOM    129  H31 UNL A   1      47.642  22.775  34.516  1.00  0.00    +0.000 H 
ATOM    130  H32 UNL A   1      46.300  23.901  34.876  1.00  0.00    +0.000 H 
ATOM     29  C25 UNL A   1      47.354  23.782  34.738  1.00  0.00    +0.000 C 
BRANCH   29   28
ATOM     28  C24 UNL A   1      47.736  24.661  33.542  1.00  0.00    +0.000 C 
ATOM    127  H29 UNL A   1      48.386  25.433  33.895  1.00  0.00    +0.000 H 
ATOM    128  H30 UNL A   1      48.191  24.003  32.830  1.00  0.00    +0.000 H 
BRANCH   28   27
ATOM     27  C23 UNL A   1      46.566  25.328  32.807  1.00  0.00    +0.000 C 
ATOM    125  H27 UNL A   1      45.723  24.672  32.861  1.00  0.00    +0.000 H 
ATOM    126  H28 UNL A   1      46.407  26.268  33.293  1.00  0.00    +0.000 H 
BRANCH   27   26
ATOM     26  C22 UNL A   1      46.824  25.649  31.332  1.00  0.00    +0.000 C 
ATOM    123  H25 UNL A   1      46.999  24.729  30.814  1.00  0.00    +0.000 H 
ATOM    124  H26 UNL A   1      45.959  26.167  30.973  1.00  0.00    +0.000 H 
BRANCH   26   25
ATOM     25  C21 UNL A   1      48.023  26.572  31.091  1.00  0.00    +0.000 C 
ATOM    122  H24 UNL A   1      47.954  26.954  30.094  1.00  0.00    +0.000 H 
ATOM    121  H23 UNL A   1      48.924  26.012  31.227  1.00  0.00    +0.000 H 
BRANCH   25   24
ATOM    120  H22 UNL A   1      47.674  27.486  32.900  1.00  0.00    +0.000 H 
ATOM     24  N1  UNL A   1      48.027  27.694  32.004  1.00  0.00    +0.000 N 
BRANCH   24   22
ATOM     22  C20 UNL A   1      48.428  28.986  31.852  1.00  0.00    +0.000 C 
ATOM     23  O2  UNL A   1      49.149  29.434  32.752  1.00  0.00    +0.000 O 
BRANCH   22   20
ATOM    116  H18 UNL A   1      47.954  29.209  29.835  1.00  0.00    +0.000 H 
ATOM     20  C18 UNL A   1      48.033  29.881  30.663  1.00  0.00    +0.000 C 
BRANCH   20   19
ATOM      7  C6  UNL A   1      45.592  30.200  29.896  1.00  0.00    +0.000 C 
ATOM      8  C7  UNL A   1      44.299  30.706  30.146  1.00  0.00    +0.000 C 
ATOM      9  C8  UNL A   1      44.040  31.566  31.220  1.00  0.00    +0.000 C 
ATOM    104  H6  UNL A   1      43.523  30.436  29.521  1.00  0.00    +0.000 H 
ATOM     17  C15 UNL A   1      45.082  31.881  32.087  1.00  0.00    +0.000 C 
ATOM     18  C16 UNL A   1      46.357  31.361  31.873  1.00  0.00    +0.000 C 
ATOM     19  C17 UNL A   1      46.637  30.486  30.810  1.00  0.00    +0.000 C 
ATOM    115  H17 UNL A   1      47.119  31.626  32.516  1.00  0.00    +0.000 H 
ATOM    114  H16 UNL A   1      44.910  32.503  32.891  1.00  0.00    +0.000 H 
BRANCH    7    6
ATOM     97  C72 UNL A   1      45.958  28.218  28.369  1.00  0.00    +0.000 C 
ATOM     98  C73 UNL A   1      46.246  27.719  27.090  1.00  0.00    +0.000 C 
ATOM      3  C2  UNL A   1      46.410  28.578  25.991  1.00  0.00    +0.000 C 
ATOM      4  C3  UNL A   1      46.278  29.950  26.201  1.00  0.00    +0.000 C 
ATOM      5  C4  UNL A   1      46.002  30.447  27.475  1.00  0.00    +0.000 C 
ATOM    102  H4  UNL A   1      46.386  30.602  25.408  1.00  0.00    +0.000 H 
ATOM      6  C5  UNL A   1      45.840  29.593  28.579  1.00  0.00    +0.000 C 
ATOM    103  H5  UNL A   1      45.914  31.466  27.609  1.00  0.00    +0.000 H 
ATOM    148  H50 UNL A   1      45.830  27.565  29.159  1.00  0.00    +0.000 H 
ATOM    149  H51 UNL A   1      46.341  26.700  26.954  1.00  0.00    +0.000 H 
BRANCH    3    2
ATOM      2  S1  UNL A   1      46.803  27.839  24.410  1.00  0.00    +0.000 S 
BRANCH    2    1
ATOM      1  C1  UNL A   1      47.429  26.196  24.861  1.00  0.00    +0.000 C 
ATOM     99  H1  UNL A   1      48.086  25.842  24.095  1.00  0.00    +0.000 H 
ATOM    100  H2  UNL A   1      46.608  25.518  24.968  1.00  0.00    +0.000 H 
ATOM    101  H3  UNL A   1      47.962  26.259  25.788  1.00  0.00    +0.000 H 
ENDBRANCH    2    1
ENDBRANCH    3    2
ENDBRANCH    7    6
BRANCH    9   10
ATOM    105  H7  UNL A   1      42.852  33.141  31.945  1.00  0.00    +0.000 H 
ATOM     10  C9  UNL A   1      42.706  32.255  31.363  1.00  0.00    +0.000 C 
ATOM    106  H8  UNL A   1      42.052  31.546  31.824  1.00  0.00    +0.000 H 
BRANCH   10   11
ATOM     11  C10 UNL A   1      42.038  32.659  30.041  1.00  0.00    +0.000 C 
ATOM    108  H10 UNL A   1      40.075  32.465  30.910  1.00  0.00    +0.000 H 
ATOM     12  C11 UNL A   1      40.531  32.954  30.074  1.00  0.00    +0.000 C 
ATOM    107  H9  UNL A   1      42.234  31.786  29.456  1.00  0.00    +0.000 H 
ATOM     15  C14 UNL A   1      42.593  33.960  29.504  1.00  0.00    +0.000 C 
ATOM    109  H11 UNL A   1      40.044  32.596  29.190  1.00  0.00    +0.000 H 
ATOM     13  C12 UNL A   1      40.396  34.467  30.208  1.00  0.00    +0.000 C 
ATOM     14  C13 UNL A   1      41.550  35.039  29.397  1.00  0.00    +0.000 C 
ATOM     16  O1  UNL A   1      43.762  34.112  29.167  1.00  0.00    +0.000 O 
ATOM    110  H12 UNL A   1      40.474  34.762  31.233  1.00  0.00    +0.000 H 
ATOM    111  H13 UNL A   1      39.447  34.819  29.860  1.00  0.00    +0.000 H 
ATOM    112  H14 UNL A   1      41.899  35.958  29.819  1.00  0.00    +0.000 H 
ATOM    113  H15 UNL A   1      41.284  35.276  28.388  1.00  0.00    +0.000 H 
ENDBRANCH   10   11
ENDBRANCH    9   10
ENDBRANCH   20   19
BRANCH   20   21
ATOM    117  H19 UNL A   1      48.662  31.645  29.630  1.00  0.00    +0.000 H 
ATOM     21  C19 UNL A   1      49.116  30.843  30.174  1.00  0.00    +0.000 C 
ATOM    118  H20 UNL A   1      49.797  30.320  29.537  1.00  0.00    +0.000 H 
ATOM    119  H21 UNL A   1      49.647  31.239  31.015  1.00  0.00    +0.000 H 
ENDBRANCH   20   21
ENDBRANCH   22   20
ENDBRANCH   24   22
ENDBRANCH   25   24
ENDBRANCH   26   25
ENDBRANCH   27   26
ENDBRANCH   28   27
ENDBRANCH   29   28
ENDBRANCH   30   29
ENDBRANCH   31   30
ENDBRANCH   32   31
ENDBRANCH   34   32
ENDBRANCH   38   37
BRANCH   42   43
ATOM     43  C36 UNL A   1      38.658  32.121  36.114  1.00  0.00    +0.000 C 
ATOM     44  C37 UNL A   1      37.936  31.423  37.093  1.00  0.00    +0.000 C 
ATOM     45  F1  UNL A   1      37.556  30.155  36.877  1.00  0.00    +0.000 F 
ATOM     46  C38 UNL A   1      37.567  32.040  38.287  1.00  0.00    +0.000 C 
ATOM     47  F2  UNL A   1      36.838  31.368  39.188  1.00  0.00    +0.000 F 
ATOM     48  C39 UNL A   1      37.942  33.352  38.537  1.00  0.00    +0.000 C 
ATOM     49  F3  UNL A   1      37.592  33.941  39.688  1.00  0.00    +0.000 F 
ATOM     50  C40 UNL A   1      38.674  34.053  37.590  1.00  0.00    +0.000 C 
ATOM     51  F4  UNL A   1      39.046  35.317  37.836  1.00  0.00    +0.000 F 
ATOM     52  C41 UNL A   1      39.020  33.449  36.385  1.00  0.00    +0.000 C 
ATOM     53  F5  UNL A   1      39.716  34.158  35.484  1.00  0.00    +0.000 F 
ENDBRANCH   42   43
BRANCH   59   60
ATOM     65  C50 UNL A   1      34.198  32.666  27.800  1.00  0.00    +0.000 C 
ATOM     66  F8  UNL A   1      33.195  33.167  27.068  1.00  0.00    +0.000 F 
ATOM     67  C51 UNL A   1      35.227  33.492  28.227  1.00  0.00    +0.000 C 
ATOM     68  F9  UNL A   1      35.208  34.796  27.922  1.00  0.00    +0.000 F 
ATOM     69  C52 UNL A   1      36.282  32.968  28.970  1.00  0.00    +0.000 C 
ATOM     70  F10 UNL A   1      37.269  33.788  29.359  1.00  0.00    +0.000 F 
ATOM     60  C47 UNL A   1      36.313  31.609  29.317  1.00  0.00    +0.000 C 
ATOM     61  C48 UNL A   1      35.254  30.794  28.890  1.00  0.00    +0.000 C 
ATOM     62  F6  UNL A   1      35.248  29.485  29.185  1.00  0.00    +0.000 F 
ATOM     63  C49 UNL A   1      34.214  31.318  28.126  1.00  0.00    +0.000 C 
ATOM     64  F7  UNL A   1      33.234  30.512  27.692  1.00  0.00    +0.000 F 
ENDBRANCH   59   60
BRANCH   74   75
ATOM     75  C56 UNL A   1      41.604  27.319  27.876  1.00  0.00    +0.000 C 
ATOM     76  C57 UNL A   1      41.218  25.984  27.683  1.00  0.00    +0.000 C 
ATOM     77  F11 UNL A   1      40.488  25.358  28.619  1.00  0.00    +0.000 F 
ATOM     78  C58 UNL A   1      41.612  25.278  26.549  1.00  0.00    +0.000 C 
ATOM     79  F12 UNL A   1      41.265  23.992  26.409  1.00  0.00    +0.000 F 
ATOM     80  C59 UNL A   1      42.377  25.900  25.573  1.00  0.00    +0.000 C 
ATOM     81  F13 UNL A   1      42.752  25.223  24.481  1.00  0.00    +0.000 F 
ATOM     82  C60 UNL A   1      42.755  27.225  25.735  1.00  0.00    +0.000 C 
ATOM     83  F14 UNL A   1      43.483  27.833  24.788  1.00  0.00    +0.000 F 
ATOM     84  C61 UNL A   1      42.383  27.924  26.880  1.00  0.00    +0.000 C 
ATOM     85  F15 UNL A   1      42.771  29.201  27.015  1.00  0.00    +0.000 F 
ENDBRANCH   74   75
TORSDOF 22
ENDMDL
MODEL 3
REMARK VINA RESULT:      -7.7     49.612     54.305
ROOT
ATOM    136  H38 UNL A   1      17.654  21.839  -2.328  1.00  0.00    +0.000 H 
ATOM    137  H39 UNL A   1      19.233  23.899  -2.077  1.00  0.00    +0.000 H 
ATOM    138  H40 UNL A   1      15.328  25.265  -2.247  1.00  0.00    +0.000 H 
ATOM    139  H41 UNL A   1      11.187  30.118  -2.435  1.00  0.00    +0.000 H 
ATOM    140  H42 UNL A   1       9.650  28.107  -2.650  1.00  0.00    +0.000 H 
ATOM    141  H43 UNL A   1      13.559  26.705  -2.452  1.00  0.00    +0.000 H 
ATOM    142  H44 UNL A   1      16.459  30.770  -1.869  1.00  0.00    +0.000 H 
ATOM    143  H45 UNL A   1      18.469  29.187  -1.945  1.00  0.00    +0.000 H 
ATOM    144  H46 UNL A   1      12.324  21.264  -2.565  1.00  0.00    +0.000 H 
ATOM    145  H47 UNL A   1      10.342  22.838  -2.958  1.00  0.00    +0.000 H 
ATOM     38  C32 UNL A   1      11.003  25.597  -2.700  1.00  0.00    +0.000 C 
ATOM     39  C33 UNL A   1      11.938  24.421  -2.656  1.00  0.00    +0.000 C 
ATOM     40  N3  UNL A   1      13.237  24.401  -2.494  1.00  0.00    +0.000 N 
ATOM     41  C34 UNL A   1      13.595  23.060  -2.480  1.00  0.00    +0.000 C 
ATOM     42  C35 UNL A   1      14.834  22.517  -2.389  1.00  0.00    +0.000 C 
ATOM     54  C42 UNL A   1      16.050  23.281  -2.302  1.00  0.00    +0.000 C 
ATOM     55  C43 UNL A   1      17.357  22.825  -2.272  1.00  0.00    +0.000 C 
ATOM     56  C44 UNL A   1      18.205  23.932  -2.150  1.00  0.00    +0.000 C 
ATOM     57  C45 UNL A   1      17.428  25.079  -2.147  1.00  0.00    +0.000 C 
ATOM     58  N4  UNL A   1      16.108  24.665  -2.234  1.00  0.00    +0.000 N 
ATOM     59  C46 UNL A   1      17.856  26.452  -2.068  1.00  0.00    +0.000 C 
ATOM     71  C53 UNL A   1      17.030  27.526  -2.071  1.00  0.00    +0.000 C 
ATOM     72  N5  UNL A   1      15.645  27.561  -2.152  1.00  0.00    +0.000 N 
ATOM     73  C54 UNL A   1      15.313  28.828  -2.106  1.00  0.00    +0.000 C 
ATOM     74  C55 UNL A   1      13.949  29.455  -2.182  1.00  0.00    +0.000 C 
ATOM     86  C62 UNL A   1      12.870  28.668  -2.353  1.00  0.00    +0.000 C 
ATOM     87  C63 UNL A   1      11.490  29.131  -2.455  1.00  0.00    +0.000 C 
ATOM     88  C64 UNL A   1      10.679  28.069  -2.579  1.00  0.00    +0.000 C 
ATOM     89  C65 UNL A   1      11.488  26.849  -2.593  1.00  0.00    +0.000 C 
ATOM     90  N6  UNL A   1      12.776  27.302  -2.464  1.00  0.00    +0.000 N 
ATOM     91  C66 UNL A   1      16.455  29.742  -1.963  1.00  0.00    +0.000 C 
ATOM     92  C67 UNL A   1      17.479  28.901  -1.984  1.00  0.00    +0.000 C 
ATOM     93  C68 UNL A   1      12.374  22.294  -2.605  1.00  0.00    +0.000 C 
ATOM     94  C69 UNL A   1      11.328  23.088  -2.780  1.00  0.00    +0.000 C 
ENDROOT
BRANCH   38   37
ATOM     34  C28 UNL A   1       6.759  25.024  -2.923  1.00  0.00    +0.000 C 
ATOM     35  C29 UNL A   1       7.505  25.135  -4.101  1.00  0.00    +0.000 C 
ATOM     36  C30 UNL A   1       8.891  25.299  -4.035  1.00  0.00    +0.000 C 
ATOM     37  C31 UNL A   1       9.537  25.384  -2.792  1.00  0.00    +0.000 C 
ATOM    134  H36 UNL A   1       7.032  25.095  -5.017  1.00  0.00    +0.000 H 
ATOM    135  H37 UNL A   1       9.443  25.359  -4.905  1.00  0.00    +0.000 H 
ATOM    146  H48 UNL A   1       9.244  25.326  -0.697  1.00  0.00    +0.000 H 
ATOM    147  H49 UNL A   1       6.868  24.869  -0.819  1.00  0.00    +0.000 H 
ATOM     95  C70 UNL A   1       8.780  25.254  -1.616  1.00  0.00    +0.000 C 
ATOM     96  C71 UNL A   1       7.406  25.030  -1.684  1.00  0.00    +0.000 C 
BRANCH   34   32
ATOM     33  O3  UNL A   1       4.817  23.716  -2.926  1.00  0.00    +0.000 O 
ATOM     32  C27 UNL A   1       5.293  24.835  -3.023  1.00  0.00    +0.000 C 
BRANCH   32   31
ATOM    133  H35 UNL A   1       3.705  25.767  -3.817  1.00  0.00    +0.000 H 
ATOM     31  N2  UNL A   1       4.466  25.919  -3.213  1.00  0.00    +0.000 N 
BRANCH   31   30
ATOM    131  H33 UNL A   1       3.574  27.591  -2.397  1.00  0.00    +0.000 H 
ATOM    132  H34 UNL A   1       5.183  27.207  -1.783  1.00  0.00    +0.000 H 
ATOM     30  C26 UNL A   1       4.558  27.255  -2.650  1.00  0.00    +0.000 C 
BRANCH   30   29
ATOM    129  H31 UNL A   1       5.174  27.803  -4.604  1.00  0.00    +0.000 H 
ATOM    130  H32 UNL A   1       4.599  29.140  -3.566  1.00  0.00    +0.000 H 
ATOM     29  C25 UNL A   1       5.183  28.246  -3.630  1.00  0.00    +0.000 C 
BRANCH   29   28
ATOM     28  C24 UNL A   1       6.626  28.650  -3.304  1.00  0.00    +0.000 C 
ATOM    127  H29 UNL A   1       6.697  28.793  -2.247  1.00  0.00    +0.000 H 
ATOM    128  H30 UNL A   1       7.241  27.857  -3.677  1.00  0.00    +0.000 H 
BRANCH   28   27
ATOM     27  C23 UNL A   1       7.130  29.927  -3.988  1.00  0.00    +0.000 C 
ATOM    125  H27 UNL A   1       7.707  30.479  -3.275  1.00  0.00    +0.000 H 
ATOM    126  H28 UNL A   1       7.696  29.606  -4.838  1.00  0.00    +0.000 H 
BRANCH   27   26
ATOM     26  C22 UNL A   1       6.035  30.850  -4.530  1.00  0.00    +0.000 C 
ATOM    123  H25 UNL A   1       5.085  30.438  -4.259  1.00  0.00    +0.000 H 
ATOM    124  H26 UNL A   1       6.204  31.815  -4.099  1.00  0.00    +0.000 H 
BRANCH   26   25
ATOM     25  C21 UNL A   1       6.065  31.034  -6.050  1.00  0.00    +0.000 C 
ATOM    122  H24 UNL A   1       5.779  32.041  -6.269  1.00  0.00    +0.000 H 
ATOM    121  H23 UNL A   1       5.388  30.336  -6.496  1.00  0.00    +0.000 H 
BRANCH   25   24
ATOM    120  H22 UNL A   1       7.631  29.863  -6.685  1.00  0.00    +0.000 H 
ATOM     24  N1  UNL A   1       7.388  30.813  -6.590  1.00  0.00    +0.000 N 
BRANCH   24   22
ATOM     22  C20 UNL A   1       8.361  31.678  -6.991  1.00  0.00    +0.000 C 
ATOM     23  O2  UNL A   1       9.182  31.225  -7.798  1.00  0.00    +0.000 O 
BRANCH   22   20
ATOM    116  H18 UNL A   1       7.500  33.536  -6.605  1.00  0.00    +0.000 H 
ATOM     20  C18 UNL A   1       8.484  33.130  -6.498  1.00  0.00    +0.000 C 
BRANCH   20   19
ATOM      7  C6  UNL A   1       7.972  33.981  -4.118  1.00  0.00    +0.000 C 
ATOM      8  C7  UNL A   1       8.243  33.947  -2.733  1.00  0.00    +0.000 C 
ATOM      9  C8  UNL A   1       9.353  33.268  -2.218  1.00  0.00    +0.000 C 
ATOM    104  H6  UNL A   1       7.606  34.435  -2.084  1.00  0.00    +0.000 H 
ATOM     17  C15 UNL A   1      10.175  32.571  -3.097  1.00  0.00    +0.000 C 
ATOM     18  C16 UNL A   1       9.901  32.567  -4.463  1.00  0.00    +0.000 C 
ATOM     19  C17 UNL A   1       8.785  33.230  -5.002  1.00  0.00    +0.000 C 
ATOM    115  H17 UNL A   1      10.537  32.061  -5.099  1.00  0.00    +0.000 H 
ATOM    114  H16 UNL A   1      10.992  32.054  -2.736  1.00  0.00    +0.000 H 
BRANCH    7    6
ATOM     97  C72 UNL A   1       7.308  36.330  -4.779  1.00  0.00    +0.000 C 
ATOM     98  C73 UNL A   1       6.313  37.231  -5.187  1.00  0.00    +0.000 C 
ATOM      3  C2  UNL A   1       4.998  36.805  -5.433  1.00  0.00    +0.000 C 
ATOM      4  C3  UNL A   1       4.699  35.454  -5.262  1.00  0.00    +0.000 C 
ATOM      5  C4  UNL A   1       5.686  34.559  -4.846  1.00  0.00    +0.000 C 
ATOM    102  H4  UNL A   1       3.742  35.113  -5.444  1.00  0.00    +0.000 H 
ATOM      6  C5  UNL A   1       7.002  34.980  -4.595  1.00  0.00    +0.000 C 
ATOM    103  H5  UNL A   1       5.442  33.565  -4.720  1.00  0.00    +0.000 H 
ATOM    148  H50 UNL A   1       8.270  36.665  -4.615  1.00  0.00    +0.000 H 
ATOM    149  H51 UNL A   1       6.552  38.228  -5.307  1.00  0.00    +0.000 H 
BRANCH    3    2
ATOM      2  S1  UNL A   1       3.802  38.042  -5.923  1.00  0.00    +0.000 S 
BRANCH    2    1
ATOM      1  C1  UNL A   1       2.259  37.450  -5.171  1.00  0.00    +0.000 C 
ATOM     99  H1  UNL A   1       2.127  36.412  -5.397  1.00  0.00    +0.000 H 
ATOM    100  H2  UNL A   1       1.434  38.007  -5.563  1.00  0.00    +0.000 H 
ATOM    101  H3  UNL A   1       2.306  37.580  -4.110  1.00  0.00    +0.000 H 
ENDBRANCH    2    1
ENDBRANCH    3    2
ENDBRANCH    7    6
BRANCH    9   10
ATOM    105  H7  UNL A   1       9.598  34.421  -0.477  1.00  0.00    +0.000 H 
ATOM     10  C9  UNL A   1       9.743  33.401  -0.767  1.00  0.00    +0.000 C 
ATOM    106  H8  UNL A   1      10.762  33.080  -0.701  1.00  0.00    +0.000 H 
BRANCH   10   11
ATOM     11  C10 UNL A   1       8.951  32.513   0.204  1.00  0.00    +0.000 C 
ATOM    108  H10 UNL A   1       7.478  32.080  -1.308  1.00  0.00    +0.000 H 
ATOM     12  C11 UNL A   1       7.821  31.657  -0.386  1.00  0.00    +0.000 C 
ATOM    107  H9  UNL A   1       8.552  33.258   0.858  1.00  0.00    +0.000 H 
ATOM     15  C14 UNL A   1       9.828  31.461   0.847  1.00  0.00    +0.000 C 
ATOM    109  H11 UNL A   1       6.980  31.611   0.275  1.00  0.00    +0.000 H 
ATOM     13  C12 UNL A   1       8.415  30.273  -0.627  1.00  0.00    +0.000 C 
ATOM     14  C13 UNL A   1       9.390  30.059   0.520  1.00  0.00    +0.000 C 
ATOM     16  O1  UNL A   1      10.776  31.722   1.578  1.00  0.00    +0.000 O 
ATOM    110  H12 UNL A   1       8.926  30.243  -1.567  1.00  0.00    +0.000 H 
ATOM    111  H13 UNL A   1       7.663  29.513  -0.663  1.00  0.00    +0.000 H 
ATOM    112  H14 UNL A   1      10.220  29.457   0.214  1.00  0.00    +0.000 H 
ATOM    113  H15 UNL A   1       8.960  29.542   1.353  1.00  0.00    +0.000 H 
ENDBRANCH   10   11
ENDBRANCH    9   10
ENDBRANCH   20   19
BRANCH   20   21
ATOM    117  H19 UNL A   1       8.756  34.971  -7.552  1.00  0.00    +0.000 H 
ATOM     21  C19 UNL A   1       9.300  34.063  -7.393  1.00  0.00    +0.000 C 
ATOM    118  H20 UNL A   1       9.481  33.587  -8.334  1.00  0.00    +0.000 H 
ATOM    119  H21 UNL A   1      10.234  34.284  -6.920  1.00  0.00    +0.000 H 
ENDBRANCH   20   21
ENDBRANCH   22   20
ENDBRANCH   24   22
ENDBRANCH   25   24
ENDBRANCH   26   25
ENDBRANCH   27   26
ENDBRANCH   28   27
ENDBRANCH   29   28
ENDBRANCH   30   29
ENDBRANCH   31   30
ENDBRANCH   32   31
ENDBRANCH   34   32
ENDBRANCH   38   37
BRANCH   42   43
ATOM     43  C36 UNL A   1      14.936  21.020  -2.386  1.00  0.00    +0.000 C 
ATOM     44  C37 UNL A   1      14.956  20.288  -1.190  1.00  0.00    +0.000 C 
ATOM     45  F1  UNL A   1      14.934  20.923  -0.010  1.00  0.00    +0.000 F 
ATOM     46  C38 UNL A   1      15.038  18.897  -1.202  1.00  0.00    +0.000 C 
ATOM     47  F2  UNL A   1      15.102  18.221  -0.047  1.00  0.00    +0.000 F 
ATOM     48  C39 UNL A   1      15.067  18.212  -2.409  1.00  0.00    +0.000 C 
ATOM     49  F3  UNL A   1      15.140  16.875  -2.418  1.00  0.00    +0.000 F 
ATOM     50  C40 UNL A   1      15.028  18.916  -3.603  1.00  0.00    +0.000 C 
ATOM     51  F4  UNL A   1      15.044  18.254  -4.769  1.00  0.00    +0.000 F 
ATOM     52  C41 UNL A   1      14.974  20.306  -3.594  1.00  0.00    +0.000 C 
ATOM     53  F5  UNL A   1      14.951  20.959  -4.766  1.00  0.00    +0.000 F 
ENDBRANCH   42   43
BRANCH   59   60
ATOM     65  C50 UNL A   1      22.078  27.273  -1.825  1.00  0.00    +0.000 C 
ATOM     66  F8  UNL A   1      23.391  27.526  -1.745  1.00  0.00    +0.000 F 
ATOM     67  C51 UNL A   1      21.389  26.817  -0.710  1.00  0.00    +0.000 C 
ATOM     68  F9  UNL A   1      22.035  26.647   0.451  1.00  0.00    +0.000 F 
ATOM     69  C52 UNL A   1      20.029  26.533  -0.798  1.00  0.00    +0.000 C 
ATOM     70  F10 UNL A   1      19.392  26.082   0.293  1.00  0.00    +0.000 F 
ATOM     60  C47 UNL A   1      19.329  26.721  -1.999  1.00  0.00    +0.000 C 
ATOM     61  C48 UNL A   1      20.041  27.199  -3.109  1.00  0.00    +0.000 C 
ATOM     62  F6  UNL A   1      19.418  27.380  -4.283  1.00  0.00    +0.000 F 
ATOM     63  C49 UNL A   1      21.406  27.458  -3.024  1.00  0.00    +0.000 C 
ATOM     64  F7  UNL A   1      22.075  27.873  -4.109  1.00  0.00    +0.000 F 
ENDBRANCH   59   60
BRANCH   74   75
ATOM     75  C56 UNL A   1      13.783  30.928  -2.101  1.00  0.00    +0.000 C 
ATOM     76  C57 UNL A   1      13.524  31.555  -0.874  1.00  0.00    +0.000 C 
ATOM     77  F11 UNL A   1      13.400  30.817   0.240  1.00  0.00    +0.000 F 
ATOM     78  C58 UNL A   1      13.351  32.935  -0.793  1.00  0.00    +0.000 C 
ATOM     79  F12 UNL A   1      13.064  33.504   0.385  1.00  0.00    +0.000 F 
ATOM     80  C59 UNL A   1      13.463  33.718  -1.932  1.00  0.00    +0.000 C 
ATOM     81  F13 UNL A   1      13.302  35.045  -1.854  1.00  0.00    +0.000 F 
ATOM     82  C60 UNL A   1      13.736  33.121  -3.155  1.00  0.00    +0.000 C 
ATOM     83  F14 UNL A   1      13.856  33.875  -4.255  1.00  0.00    +0.000 F 
ATOM     84  C61 UNL A   1      13.883  31.739  -3.241  1.00  0.00    +0.000 C 
ATOM     85  F15 UNL A   1      14.136  31.187  -4.437  1.00  0.00    +0.000 F 
ENDBRANCH   74   75
TORSDOF 22
ENDMDL
MODEL 4
REMARK VINA RESULT:      -7.7      2.530      8.516
ROOT
ATOM    136  H38 UNL A   1      19.088  33.782  47.614  1.00  0.00    +0.000 H 
ATOM    137  H39 UNL A   1      17.235  35.173  48.809  1.00  0.00    +0.000 H 
ATOM    138  H40 UNL A   1      20.525  37.618  48.229  1.00  0.00    +0.000 H 
ATOM    139  H41 UNL A   1      23.439  43.234  49.070  1.00  0.00    +0.000 H 
ATOM    140  H42 UNL A   1      25.233  41.884  47.880  1.00  0.00    +0.000 H 
ATOM    141  H43 UNL A   1      21.932  39.415  48.423  1.00  0.00    +0.000 H 
ATOM    142  H44 UNL A   1      18.425  42.259  50.635  1.00  0.00    +0.000 H 
ATOM    143  H45 UNL A   1      16.953  40.166  50.696  1.00  0.00    +0.000 H 
ATOM    144  H46 UNL A   1      23.996  34.950  45.787  1.00  0.00    +0.000 H 
ATOM    145  H47 UNL A   1      25.651  36.876  46.125  1.00  0.00    +0.000 H 
ATOM     38  C32 UNL A   1      24.486  39.193  47.305  1.00  0.00    +0.000 C 
ATOM     39  C33 UNL A   1      23.841  37.854  47.079  1.00  0.00    +0.000 C 
ATOM     40  N3  UNL A   1      22.626  37.460  47.369  1.00  0.00    +0.000 N 
ATOM     41  C34 UNL A   1      22.532  36.155  46.906  1.00  0.00    +0.000 C 
ATOM     42  C35 UNL A   1      21.491  35.294  47.012  1.00  0.00    +0.000 C 
ATOM     54  C42 UNL A   1      20.248  35.600  47.671  1.00  0.00    +0.000 C 
ATOM     55  C43 UNL A   1      19.159  34.775  47.888  1.00  0.00    +0.000 C 
ATOM     56  C44 UNL A   1      18.169  35.518  48.541  1.00  0.00    +0.000 C 
ATOM     57  C45 UNL A   1      18.659  36.794  48.767  1.00  0.00    +0.000 C 
ATOM     58  N4  UNL A   1      19.933  36.833  48.223  1.00  0.00    +0.000 N 
ATOM     59  C46 UNL A   1      18.013  37.898  49.429  1.00  0.00    +0.000 C 
ATOM     71  C53 UNL A   1      18.561  39.124  49.613  1.00  0.00    +0.000 C 
ATOM     72  N5  UNL A   1      19.814  39.585  49.233  1.00  0.00    +0.000 N 
ATOM     73  C54 UNL A   1      19.871  40.834  49.623  1.00  0.00    +0.000 C 
ATOM     74  C55 UNL A   1      21.002  41.817  49.498  1.00  0.00    +0.000 C 
ATOM     86  C62 UNL A   1      22.163  41.417  48.945  1.00  0.00    +0.000 C 
ATOM     87  C63 UNL A   1      23.348  42.251  48.768  1.00  0.00    +0.000 C 
ATOM     88  C64 UNL A   1      24.299  41.535  48.147  1.00  0.00    +0.000 C 
ATOM     89  C65 UNL A   1      23.799  40.180  47.911  1.00  0.00    +0.000 C 
ATOM     90  N6  UNL A   1      22.527  40.199  48.426  1.00  0.00    +0.000 N 
ATOM     91  C66 UNL A   1      18.644  41.316  50.274  1.00  0.00    +0.000 C 
ATOM     92  C67 UNL A   1      17.893  40.225  50.276  1.00  0.00    +0.000 C 
ATOM     93  C68 UNL A   1      23.795  35.837  46.276  1.00  0.00    +0.000 C 
ATOM     94  C69 UNL A   1      24.661  36.831  46.412  1.00  0.00    +0.000 C 
ENDROOT
BRANCH   38   37
ATOM     34  C28 UNL A   1      28.458  39.894  45.849  1.00  0.00    +0.000 C 
ATOM     35  C29 UNL A   1      27.372  40.520  45.227  1.00  0.00    +0.000 C 
ATOM     36  C30 UNL A   1      26.078  40.313  45.711  1.00  0.00    +0.000 C 
ATOM     37  C31 UNL A   1      25.857  39.457  46.801  1.00  0.00    +0.000 C 
ATOM    134  H36 UNL A   1      27.528  41.133  44.412  1.00  0.00    +0.000 H 
ATOM    135  H37 UNL A   1      25.281  40.792  45.265  1.00  0.00    +0.000 H 
ATOM    146  H48 UNL A   1      26.802  38.208  48.223  1.00  0.00    +0.000 H 
ATOM    147  H49 UNL A   1      29.057  38.705  47.488  1.00  0.00    +0.000 H 
ATOM     95  C70 UNL A   1      26.955  38.847  47.428  1.00  0.00    +0.000 C 
ATOM     96  C71 UNL A   1      28.251  39.102  46.982  1.00  0.00    +0.000 C 
BRANCH   34   32
ATOM     33  O3  UNL A   1      30.279  39.419  44.455  1.00  0.00    +0.000 O 
ATOM     32  C27 UNL A   1      29.821  40.144  45.323  1.00  0.00    +0.000 C 
BRANCH   32   31
ATOM    133  H35 UNL A   1      30.653  41.964  45.192  1.00  0.00    +0.000 H 
ATOM     31  N2  UNL A   1      30.566  41.197  45.802  1.00  0.00    +0.000 N 
BRANCH   31   30
ATOM    131  H33 UNL A   1      32.171  41.848  46.925  1.00  0.00    +0.000 H 
ATOM    132  H34 UNL A   1      30.604  41.892  47.735  1.00  0.00    +0.000 H 
ATOM     30  C26 UNL A   1      31.243  41.337  47.080  1.00  0.00    +0.000 C 
BRANCH   30   29
ATOM    129  H31 UNL A   1      30.916  39.249  47.247  1.00  0.00    +0.000 H 
ATOM    130  H32 UNL A   1      32.575  39.807  47.610  1.00  0.00    +0.000 H 
ATOM     29  C25 UNL A   1      31.526  39.984  47.729  1.00  0.00    +0.000 C 
BRANCH   29   28
ATOM     28  C24 UNL A   1      31.247  39.921  49.235  1.00  0.00    +0.000 C 
ATOM    127  H29 UNL A   1      32.185  39.973  49.746  1.00  0.00    +0.000 H 
ATOM    128  H30 UNL A   1      30.593  40.743  49.445  1.00  0.00    +0.000 H 
BRANCH   28   27
ATOM     27  C23 UNL A   1      30.512  38.667  49.724  1.00  0.00    +0.000 C 
ATOM    125  H27 UNL A   1      30.229  38.093  48.866  1.00  0.00    +0.000 H 
ATOM    126  H28 UNL A   1      31.193  38.157  50.373  1.00  0.00    +0.000 H 
BRANCH   27   26
ATOM     26  C22 UNL A   1      29.251  38.933  50.553  1.00  0.00    +0.000 C 
ATOM    123  H25 UNL A   1      28.841  39.873  50.246  1.00  0.00    +0.000 H 
ATOM    124  H26 UNL A   1      28.587  38.114  50.375  1.00  0.00    +0.000 H 
BRANCH   26   25
ATOM     25  C21 UNL A   1      29.494  38.985  52.064  1.00  0.00    +0.000 C 
ATOM    122  H24 UNL A   1      29.143  39.928  52.426  1.00  0.00    +0.000 H 
ATOM    121  H23 UNL A   1      30.541  38.867  52.251  1.00  0.00    +0.000 H 
BRANCH   25   24
ATOM    120  H22 UNL A   1      27.975  38.252  53.240  1.00  0.00    +0.000 H 
ATOM     24  N1  UNL A   1      28.775  37.939  52.758  1.00  0.00    +0.000 N 
BRANCH   24   22
ATOM     22  C20 UNL A   1      29.002  36.601  52.867  1.00  0.00    +0.000 C 
ATOM     23  O2  UNL A   1      30.005  36.278  53.515  1.00  0.00    +0.000 O 
BRANCH   22   20
ATOM    116  H18 UNL A   1      27.114  35.900  52.331  1.00  0.00    +0.000 H 
ATOM     20  C18 UNL A   1      28.109  35.517  52.238  1.00  0.00    +0.000 C 
BRANCH   20   19
ATOM      7  C6  UNL A   1      27.392  35.843  49.783  1.00  0.00    +0.000 C 
ATOM      8  C7  UNL A   1      27.702  35.763  48.408  1.00  0.00    +0.000 C 
ATOM      9  C8  UNL A   1      28.866  35.133  47.952  1.00  0.00    +0.000 C 
ATOM    104  H6  UNL A   1      27.054  36.180  47.722  1.00  0.00    +0.000 H 
ATOM     17  C15 UNL A   1      29.757  34.621  48.889  1.00  0.00    +0.000 C 
ATOM     18  C16 UNL A   1      29.482  34.723  50.252  1.00  0.00    +0.000 C 
ATOM     19  C17 UNL A   1      28.327  35.362  50.733  1.00  0.00    +0.000 C 
ATOM    115  H17 UNL A   1      30.146  34.316  50.928  1.00  0.00    +0.000 H 
ATOM    114  H16 UNL A   1      30.626  34.163  48.575  1.00  0.00    +0.000 H 
BRANCH    7    6
ATOM     97  C72 UNL A   1      24.936  35.325  50.085  1.00  0.00    +0.000 C 
ATOM     98  C73 UNL A   1      23.641  35.766  50.399  1.00  0.00    +0.000 C 
ATOM      3  C2  UNL A   1      23.396  37.090  50.795  1.00  0.00    +0.000 C 
ATOM      4  C3  UNL A   1      24.477  37.967  50.870  1.00  0.00    +0.000 C 
ATOM      5  C4  UNL A   1      25.764  37.533  50.547  1.00  0.00    +0.000 C 
ATOM    102  H4  UNL A   1      24.325  38.944  51.166  1.00  0.00    +0.000 H 
ATOM      6  C5  UNL A   1      26.014  36.210  50.147  1.00  0.00    +0.000 C 
ATOM    103  H5  UNL A   1      26.549  38.199  50.604  1.00  0.00    +0.000 H 
ATOM    148  H50 UNL A   1      25.092  34.344  49.808  1.00  0.00    +0.000 H 
ATOM    149  H51 UNL A   1      22.852  35.103  50.337  1.00  0.00    +0.000 H 
BRANCH    3    2
ATOM      2  S1  UNL A   1      21.704  37.553  51.147  1.00  0.00    +0.000 S 
BRANCH    2    1
ATOM      1  C1  UNL A   1      21.112  36.199  52.201  1.00  0.00    +0.000 C 
ATOM     99  H1  UNL A   1      21.499  36.322  53.191  1.00  0.00    +0.000 H 
ATOM    100  H2  UNL A   1      21.444  35.264  51.802  1.00  0.00    +0.000 H 
ATOM    101  H3  UNL A   1      20.042  36.213  52.232  1.00  0.00    +0.000 H 
ENDBRANCH    2    1
ENDBRANCH    3    2
ENDBRANCH    7    6
BRANCH    9   10
ATOM    105  H7  UNL A   1      29.077  33.822  46.322  1.00  0.00    +0.000 H 
ATOM     10  C9  UNL A   1      29.090  34.880  46.482  1.00  0.00    +0.000 C 
ATOM    106  H8  UNL A   1      30.027  35.336  46.240  1.00  0.00    +0.000 H 
BRANCH   10   11
ATOM     11  C10 UNL A   1      28.050  35.515  45.547  1.00  0.00    +0.000 C 
ATOM    108  H10 UNL A   1      29.571  36.675  44.554  1.00  0.00    +0.000 H 
ATOM     12  C11 UNL A   1      28.577  36.329  44.356  1.00  0.00    +0.000 C 
ATOM    107  H9  UNL A   1      27.540  36.151  46.238  1.00  0.00    +0.000 H 
ATOM     15  C14 UNL A   1      27.205  34.469  44.853  1.00  0.00    +0.000 C 
ATOM    109  H11 UNL A   1      27.969  37.192  44.175  1.00  0.00    +0.000 H 
ATOM     13  C12 UNL A   1      28.573  35.385  43.159  1.00  0.00    +0.000 C 
ATOM     14  C13 UNL A   1      27.348  34.505  43.355  1.00  0.00    +0.000 C 
ATOM     16  O1  UNL A   1      26.463  33.694  45.444  1.00  0.00    +0.000 O 
ATOM    110  H12 UNL A   1      29.464  34.792  43.145  1.00  0.00    +0.000 H 
ATOM    111  H13 UNL A   1      28.543  35.914  42.229  1.00  0.00    +0.000 H 
ATOM    112  H14 UNL A   1      27.509  33.524  42.959  1.00  0.00    +0.000 H 
ATOM    113  H15 UNL A   1      26.477  34.871  42.853  1.00  0.00    +0.000 H 
ENDBRANCH   10   11
ENDBRANCH    9   10
ENDBRANCH   20   19
BRANCH   20   21
ATOM    117  H19 UNL A   1      27.036  34.132  53.465  1.00  0.00    +0.000 H 
ATOM     21  C19 UNL A   1      28.007  34.209  53.023  1.00  0.00    +0.000 C 
ATOM    118  H20 UNL A   1      28.751  34.195  53.791  1.00  0.00    +0.000 H 
ATOM    119  H21 UNL A   1      28.165  33.383  52.361  1.00  0.00    +0.000 H 
ENDBRANCH   20   21
ENDBRANCH   22   20
ENDBRANCH   24   22
ENDBRANCH   25   24
ENDBRANCH   26   25
ENDBRANCH   27   26
ENDBRANCH   28   27
ENDBRANCH   29   28
ENDBRANCH   30   29
ENDBRANCH   31   30
ENDBRANCH   32   31
ENDBRANCH   34   32
ENDBRANCH   38   37
BRANCH   42   43
ATOM     43  C36 UNL A   1      21.654  33.931  46.406  1.00  0.00    +0.000 C 
ATOM     44  C37 UNL A   1      21.262  33.663  45.086  1.00  0.00    +0.000 C 
ATOM     45  F1  UNL A   1      20.681  34.619  44.347  1.00  0.00    +0.000 F 
ATOM     46  C38 UNL A   1      21.431  32.396  44.531  1.00  0.00    +0.000 C 
ATOM     47  F2  UNL A   1      21.008  32.151  43.284  1.00  0.00    +0.000 F 
ATOM     48  C39 UNL A   1      22.025  31.385  45.274  1.00  0.00    +0.000 C 
ATOM     49  F3  UNL A   1      22.192  30.169  44.737  1.00  0.00    +0.000 F 
ATOM     50  C40 UNL A   1      22.437  31.635  46.573  1.00  0.00    +0.000 C 
ATOM     51  F4  UNL A   1      23.021  30.662  47.287  1.00  0.00    +0.000 F 
ATOM     52  C41 UNL A   1      22.245  32.891  47.140  1.00  0.00    +0.000 C 
ATOM     53  F5  UNL A   1      22.642  33.097  48.405  1.00  0.00    +0.000 F 
ENDBRANCH   42   43
BRANCH   59   60
ATOM     65  C50 UNL A   1      14.037  37.313  50.982  1.00  0.00    +0.000 C 
ATOM     66  F8  UNL A   1      12.799  37.131  51.461  1.00  0.00    +0.000 F 
ATOM     67  C51 UNL A   1      14.246  37.412  49.614  1.00  0.00    +0.000 C 
ATOM     68  F9  UNL A   1      13.206  37.343  48.773  1.00  0.00    +0.000 F 
ATOM     69  C52 UNL A   1      15.534  37.580  49.114  1.00  0.00    +0.000 C 
ATOM     70  F10 UNL A   1      15.706  37.660  47.787  1.00  0.00    +0.000 F 
ATOM     60  C47 UNL A   1      16.636  37.674  49.978  1.00  0.00    +0.000 C 
ATOM     61  C48 UNL A   1      16.401  37.589  51.359  1.00  0.00    +0.000 C 
ATOM     62  F6  UNL A   1      17.425  37.659  52.223  1.00  0.00    +0.000 F 
ATOM     63  C49 UNL A   1      15.114  37.396  51.853  1.00  0.00    +0.000 C 
ATOM     64  F7  UNL A   1      14.918  37.275  53.173  1.00  0.00    +0.000 F 
ENDBRANCH   59   60
BRANCH   74   75
ATOM     75  C56 UNL A   1      20.863  43.206  50.002  1.00  0.00    +0.000 C 
ATOM     76  C57 UNL A   1      20.452  44.241  49.150  1.00  0.00    +0.000 C 
ATOM     77  F11 UNL A   1      20.202  43.982  47.858  1.00  0.00    +0.000 F 
ATOM     78  C58 UNL A   1      20.334  45.550  49.612  1.00  0.00    +0.000 C 
ATOM     79  F12 UNL A   1      19.979  46.527  48.768  1.00  0.00    +0.000 F 
ATOM     80  C59 UNL A   1      20.598  45.844  50.942  1.00  0.00    +0.000 C 
ATOM     81  F13 UNL A   1      20.480  47.101  51.387  1.00  0.00    +0.000 F 
ATOM     82  C60 UNL A   1      20.990  44.833  51.807  1.00  0.00    +0.000 C 
ATOM     83  F14 UNL A   1      21.233  45.111  53.095  1.00  0.00    +0.000 F 
ATOM     84  C61 UNL A   1      21.133  43.529  51.340  1.00  0.00    +0.000 C 
ATOM     85  F15 UNL A   1      21.523  42.572  52.196  1.00  0.00    +0.000 F 
ENDBRANCH   74   75
TORSDOF 22
ENDMDL
MODEL 5
REMARK VINA RESULT:      -7.6     45.613     49.363
ROOT
ATOM    136  H38 UNL A   1      14.880  46.776   0.793  1.00  0.00    +0.000 H 
ATOM    137  H39 UNL A   1      13.209  46.490   2.773  1.00  0.00    +0.000 H 
ATOM    138  H40 UNL A   1      14.663  50.366   2.847  1.00  0.00    +0.000 H 
ATOM    139  H41 UNL A   1      14.993  56.079   5.674  1.00  0.00    +0.000 H 
ATOM    140  H42 UNL A   1      16.599  56.362   3.726  1.00  0.00    +0.000 H 
ATOM    141  H43 UNL A   1      15.131  52.474   3.609  1.00  0.00    +0.000 H 
ATOM    142  H44 UNL A   1      11.861  52.114   7.411  1.00  0.00    +0.000 H 
ATOM    143  H45 UNL A   1      11.560  49.660   6.748  1.00  0.00    +0.000 H 
ATOM    144  H46 UNL A   1      17.744  50.914  -1.070  1.00  0.00    +0.000 H 
ATOM    145  H47 UNL A   1      18.415  53.214  -0.163  1.00  0.00    +0.000 H 
ATOM     38  C32 UNL A   1      16.912  54.030   2.116  1.00  0.00    +0.000 C 
ATOM     39  C33 UNL A   1      16.865  52.703   1.412  1.00  0.00    +0.000 C 
ATOM     40  N3  UNL A   1      16.140  51.647   1.683  1.00  0.00    +0.000 N 
ATOM     41  C34 UNL A   1      16.444  50.717   0.697  1.00  0.00    +0.000 C 
ATOM     42  C35 UNL A   1      15.992  49.446   0.566  1.00  0.00    +0.000 C 
ATOM     54  C42 UNL A   1      15.085  48.809   1.483  1.00  0.00    +0.000 C 
ATOM     55  C43 UNL A   1      14.619  47.506   1.473  1.00  0.00    +0.000 C 
ATOM     56  C44 UNL A   1      13.732  47.349   2.544  1.00  0.00    +0.000 C 
ATOM     57  C45 UNL A   1      13.677  48.543   3.245  1.00  0.00    +0.000 C 
ATOM     58  N4  UNL A   1      14.507  49.432   2.580  1.00  0.00    +0.000 N 
ATOM     59  C46 UNL A   1      12.924  48.852   4.433  1.00  0.00    +0.000 C 
ATOM     71  C53 UNL A   1      12.924  50.051   5.064  1.00  0.00    +0.000 C 
ATOM     72  N5  UNL A   1      13.617  51.208   4.739  1.00  0.00    +0.000 N 
ATOM     73  C54 UNL A   1      13.279  52.096   5.641  1.00  0.00    +0.000 C 
ATOM     74  C55 UNL A   1      13.747  53.517   5.796  1.00  0.00    +0.000 C 
ATOM     86  C62 UNL A   1      14.667  54.005   4.943  1.00  0.00    +0.000 C 
ATOM     87  C63 UNL A   1      15.222  55.354   4.975  1.00  0.00    +0.000 C 
ATOM     88  C64 UNL A   1      16.078  55.501   3.951  1.00  0.00    +0.000 C 
ATOM     89  C65 UNL A   1      16.153  54.243   3.208  1.00  0.00    +0.000 C 
ATOM     90  N6  UNL A   1      15.290  53.409   3.873  1.00  0.00    +0.000 N 
ATOM     91  C66 UNL A   1      12.307  51.607   6.630  1.00  0.00    +0.000 C 
ATOM     92  C67 UNL A   1      12.153  50.346   6.255  1.00  0.00    +0.000 C 
ATOM     93  C68 UNL A   1      17.384  51.347  -0.204  1.00  0.00    +0.000 C 
ATOM     94  C69 UNL A   1      17.726  52.553   0.228  1.00  0.00    +0.000 C 
ENDROOT
BRANCH   38   37
ATOM     34  C28 UNL A   1      19.353  57.184   0.538  1.00  0.00    +0.000 C 
ATOM     35  C29 UNL A   1      18.045  57.021   0.071  1.00  0.00    +0.000 C 
ATOM     36  C30 UNL A   1      17.237  56.010   0.597  1.00  0.00    +0.000 C 
ATOM     37  C31 UNL A   1      17.741  55.135   1.572  1.00  0.00    +0.000 C 
ATOM    134  H36 UNL A   1      17.677  57.648  -0.662  1.00  0.00    +0.000 H 
ATOM    135  H37 UNL A   1      16.265  55.906   0.267  1.00  0.00    +0.000 H 
ATOM    146  H48 UNL A   1      19.433  54.674   2.755  1.00  0.00    +0.000 H 
ATOM    147  H49 UNL A   1      20.769  56.534   1.964  1.00  0.00    +0.000 H 
ATOM     95  C70 UNL A   1      19.050  55.318   2.046  1.00  0.00    +0.000 C 
ATOM     96  C71 UNL A   1      19.834  56.365   1.564  1.00  0.00    +0.000 C 
BRANCH   34   32
ATOM     33  O3  UNL A   1      19.675  59.357  -0.271  1.00  0.00    +0.000 O 
ATOM     32  C27 UNL A   1      20.182  58.274  -0.027  1.00  0.00    +0.000 C 
BRANCH   32   31
ATOM    133  H35 UNL A   1      22.108  58.163   0.519  1.00  0.00    +0.000 H 
ATOM     31  N2  UNL A   1      21.522  58.074  -0.266  1.00  0.00    +0.000 N 
BRANCH   31   30
ATOM    131  H33 UNL A   1      22.228  56.684  -1.620  1.00  0.00    +0.000 H 
ATOM    132  H34 UNL A   1      21.645  58.199  -2.313  1.00  0.00    +0.000 H 
ATOM     30  C26 UNL A   1      22.195  57.749  -1.513  1.00  0.00    +0.000 C 
BRANCH   30   29
ATOM    129  H31 UNL A   1      24.283  57.480  -1.760  1.00  0.00    +0.000 H 
ATOM    130  H32 UNL A   1      23.631  59.053  -2.307  1.00  0.00    +0.000 H 
ATOM     29  C25 UNL A   1      23.621  58.295  -1.552  1.00  0.00    +0.000 C 
BRANCH   29   28
ATOM     28  C24 UNL A   1      24.088  58.969  -0.256  1.00  0.00    +0.000 C 
ATOM    127  H29 UNL A   1      23.281  58.928   0.445  1.00  0.00    +0.000 H 
ATOM    128  H30 UNL A   1      24.960  58.430   0.054  1.00  0.00    +0.000 H 
BRANCH   28   27
ATOM     27  C23 UNL A   1      24.525  60.433  -0.388  1.00  0.00    +0.000 C 
ATOM    125  H27 UNL A   1      25.567  60.491  -0.151  1.00  0.00    +0.000 H 
ATOM    126  H28 UNL A   1      24.299  60.722  -1.393  1.00  0.00    +0.000 H 
BRANCH   27   26
ATOM     26  C22 UNL A   1      23.777  61.418   0.516  1.00  0.00    +0.000 C 
ATOM    123  H25 UNL A   1      24.269  62.366   0.457  1.00  0.00    +0.000 H 
ATOM    124  H26 UNL A   1      22.768  61.453   0.165  1.00  0.00    +0.000 H 
BRANCH   26   25
ATOM     25  C21 UNL A   1      23.718  60.997   1.988  1.00  0.00    +0.000 C 
ATOM    122  H24 UNL A   1      24.469  60.253   2.152  1.00  0.00    +0.000 H 
ATOM    121  H23 UNL A   1      22.743  60.613   2.199  1.00  0.00    +0.000 H 
BRANCH   25   24
ATOM    120  H22 UNL A   1      24.518  61.874   3.667  1.00  0.00    +0.000 H 
ATOM     24  N1  UNL A   1      23.984  62.110   2.874  1.00  0.00    +0.000 N 
BRANCH   24   22
ATOM     22  C20 UNL A   1      23.631  63.423   2.812  1.00  0.00    +0.000 C 
ATOM     23  O2  UNL A   1      22.416  63.654   2.843  1.00  0.00    +0.000 O 
BRANCH   22   20
ATOM    116  H18 UNL A   1      24.639  65.032   3.671  1.00  0.00    +0.000 H 
ATOM     20  C18 UNL A   1      24.634  64.585   2.699  1.00  0.00    +0.000 C 
BRANCH   20   19
ATOM      7  C6  UNL A   1      27.034  64.123   3.521  1.00  0.00    +0.000 C 
ATOM      8  C7  UNL A   1      28.314  63.576   3.282  1.00  0.00    +0.000 C 
ATOM      9  C8  UNL A   1      28.692  63.114   2.016  1.00  0.00    +0.000 C 
ATOM    104  H6  UNL A   1      28.988  63.516   4.061  1.00  0.00    +0.000 H 
ATOM     17  C15 UNL A   1      27.757  63.152   0.987  1.00  0.00    +0.000 C 
ATOM     18  C16 UNL A   1      26.478  63.657   1.215  1.00  0.00    +0.000 C 
ATOM     19  C17 UNL A   1      26.072  64.114   2.481  1.00  0.00    +0.000 C 
ATOM    115  H17 UNL A   1      25.808  63.695   0.432  1.00  0.00    +0.000 H 
ATOM    114  H16 UNL A   1      28.011  62.805   0.049  1.00  0.00    +0.000 H 
BRANCH    7    6
ATOM     97  C72 UNL A   1      27.075  66.254   4.880  1.00  0.00    +0.000 C 
ATOM     98  C73 UNL A   1      26.919  66.898   6.117  1.00  0.00    +0.000 C 
ATOM      3  C2  UNL A   1      26.517  66.192   7.262  1.00  0.00    +0.000 C 
ATOM      4  C3  UNL A   1      26.272  64.825   7.142  1.00  0.00    +0.000 C 
ATOM      5  C4  UNL A   1      26.437  64.182   5.915  1.00  0.00    +0.000 C 
ATOM    102  H4  UNL A   1      25.968  64.284   7.967  1.00  0.00    +0.000 H 
ATOM      6  C5  UNL A   1      26.843  64.882   4.766  1.00  0.00    +0.000 C 
ATOM    103  H5  UNL A   1      26.257  63.168   5.849  1.00  0.00    +0.000 H 
ATOM    148  H50 UNL A   1      27.360  66.797   4.050  1.00  0.00    +0.000 H 
ATOM    149  H51 UNL A   1      27.106  67.911   6.187  1.00  0.00    +0.000 H 
BRANCH    3    2
ATOM      2  S1  UNL A   1      26.376  67.105   8.794  1.00  0.00    +0.000 S 
BRANCH    2    1
ATOM      1  C1  UNL A   1      26.640  65.833  10.062  1.00  0.00    +0.000 C 
ATOM     99  H1  UNL A   1      26.225  64.906   9.729  1.00  0.00    +0.000 H 
ATOM    100  H2  UNL A   1      26.161  66.131  10.972  1.00  0.00    +0.000 H 
ATOM    101  H3  UNL A   1      27.690  65.714  10.234  1.00  0.00    +0.000 H 
ENDBRANCH    2    1
ENDBRANCH    3    2
ENDBRANCH    7    6
BRANCH    9   10
ATOM    105  H7  UNL A   1      30.525  63.428   1.037  1.00  0.00    +0.000 H 
ATOM     10  C9  UNL A   1      30.118  62.717   1.725  1.00  0.00    +0.000 C 
ATOM    106  H8  UNL A   1      30.076  61.722   1.335  1.00  0.00    +0.000 H 
BRANCH   10   11
ATOM     11  C10 UNL A   1      31.040  62.660   2.951  1.00  0.00    +0.000 C 
ATOM    108  H10 UNL A   1      30.940  60.508   2.994  1.00  0.00    +0.000 H 
ATOM     12  C11 UNL A   1      31.580  61.282   3.364  1.00  0.00    +0.000 C 
ATOM    107  H9  UNL A   1      30.381  63.042   3.701  1.00  0.00    +0.000 H 
ATOM     15  C14 UNL A   1      32.319  63.436   2.730  1.00  0.00    +0.000 C 
ATOM    109  H11 UNL A   1      31.620  61.182   4.429  1.00  0.00    +0.000 H 
ATOM     13  C12 UNL A   1      32.967  61.164   2.742  1.00  0.00    +0.000 C 
ATOM     14  C13 UNL A   1      33.547  62.569   2.805  1.00  0.00    +0.000 C 
ATOM     16  O1  UNL A   1      32.356  64.646   2.537  1.00  0.00    +0.000 O 
ATOM    110  H12 UNL A   1      32.897  60.831   1.728  1.00  0.00    +0.000 H 
ATOM    111  H13 UNL A   1      33.579  60.453   3.256  1.00  0.00    +0.000 H 
ATOM    112  H14 UNL A   1      34.202  62.754   1.979  1.00  0.00    +0.000 H 
ATOM    113  H15 UNL A   1      34.140  62.746   3.678  1.00  0.00    +0.000 H 
ENDBRANCH   10   11
ENDBRANCH    9   10
ENDBRANCH   20   19
BRANCH   20   21
ATOM    117  H19 UNL A   1      24.722  66.640   2.114  1.00  0.00    +0.000 H 
ATOM     21  C19 UNL A   1      24.189  65.758   1.825  1.00  0.00    +0.000 C 
ATOM    118  H20 UNL A   1      23.139  65.917   1.949  1.00  0.00    +0.000 H 
ATOM    119  H21 UNL A   1      24.397  65.536   0.799  1.00  0.00    +0.000 H 
ENDBRANCH   20   21
ENDBRANCH   22   20
ENDBRANCH   24   22
ENDBRANCH   25   24
ENDBRANCH   26   25
ENDBRANCH   27   26
ENDBRANCH   28   27
ENDBRANCH   29   28
ENDBRANCH   30   29
ENDBRANCH   31   30
ENDBRANCH   32   31
ENDBRANCH   34   32
ENDBRANCH   38   37
BRANCH   42   43
ATOM     43  C36 UNL A   1      16.479  48.655  -0.613  1.00  0.00    +0.000 C 
ATOM     44  C37 UNL A   1      15.699  48.506  -1.769  1.00  0.00    +0.000 C 
ATOM     45  F1  UNL A   1      14.467  49.032  -1.825  1.00  0.00    +0.000 F 
ATOM     46  C38 UNL A   1      16.168  47.780  -2.862  1.00  0.00    +0.000 C 
ATOM     47  F2  UNL A   1      15.388  47.612  -3.938  1.00  0.00    +0.000 F 
ATOM     48  C39 UNL A   1      17.437  47.220  -2.831  1.00  0.00    +0.000 C 
ATOM     49  F3  UNL A   1      17.890  46.527  -3.885  1.00  0.00    +0.000 F 
ATOM     50  C40 UNL A   1      18.232  47.373  -1.706  1.00  0.00    +0.000 C 
ATOM     51  F4  UNL A   1      19.463  46.841  -1.680  1.00  0.00    +0.000 F 
ATOM     52  C41 UNL A   1      17.755  48.074  -0.602  1.00  0.00    +0.000 C 
ATOM     53  F5  UNL A   1      18.543  48.193   0.478  1.00  0.00    +0.000 F 
ENDBRANCH   42   43
BRANCH   59   60
ATOM     65  C50 UNL A   1      10.571  45.673   6.141  1.00  0.00    +0.000 C 
ATOM     66  F8  UNL A   1       9.843  44.683   6.675  1.00  0.00    +0.000 F 
ATOM     67  C51 UNL A   1      11.851  45.927   6.613  1.00  0.00    +0.000 C 
ATOM     68  F9  UNL A   1      12.364  45.171   7.593  1.00  0.00    +0.000 F 
ATOM     69  C52 UNL A   1      12.600  46.968   6.074  1.00  0.00    +0.000 C 
ATOM     70  F10 UNL A   1      13.829  47.199   6.559  1.00  0.00    +0.000 F 
ATOM     60  C47 UNL A   1      12.090  47.761   5.035  1.00  0.00    +0.000 C 
ATOM     61  C48 UNL A   1      10.801  47.476   4.559  1.00  0.00    +0.000 C 
ATOM     62  F6  UNL A   1      10.264  48.216   3.578  1.00  0.00    +0.000 F 
ATOM     63  C49 UNL A   1      10.045  46.450   5.120  1.00  0.00    +0.000 C 
ATOM     64  F7  UNL A   1       8.800  46.222   4.679  1.00  0.00    +0.000 F 
ENDBRANCH   59   60
BRANCH   74   75
ATOM     75  C56 UNL A   1      13.231  54.373   6.894  1.00  0.00    +0.000 C 
ATOM     76  C57 UNL A   1      12.212  55.307   6.657  1.00  0.00    +0.000 C 
ATOM     77  F11 UNL A   1      11.711  55.449   5.421  1.00  0.00    +0.000 F 
ATOM     78  C58 UNL A   1      11.733  56.124   7.679  1.00  0.00    +0.000 C 
ATOM     79  F12 UNL A   1      10.789  57.036   7.416  1.00  0.00    +0.000 F 
ATOM     80  C59 UNL A   1      12.244  56.003   8.963  1.00  0.00    +0.000 C 
ATOM     81  F13 UNL A   1      11.781  56.785   9.946  1.00  0.00    +0.000 F 
ATOM     82  C60 UNL A   1      13.240  55.074   9.224  1.00  0.00    +0.000 C 
ATOM     83  F14 UNL A   1      13.727  54.946  10.465  1.00  0.00    +0.000 F 
ATOM     84  C61 UNL A   1      13.737  54.274   8.198  1.00  0.00    +0.000 C 
ATOM     85  F15 UNL A   1      14.708  53.391   8.476  1.00  0.00    +0.000 F 
ENDBRANCH   74   75
TORSDOF 22
ENDMDL
MODEL 6
REMARK VINA RESULT:      -7.6     20.801     27.614
ROOT
ATOM    136  H38 UNL A   1      39.530  28.242  26.711  1.00  0.00    +0.000 H 
ATOM    137  H39 UNL A   1      37.677  29.987  27.282  1.00  0.00    +0.000 H 
ATOM    138  H40 UNL A   1      40.049  29.463  30.635  1.00  0.00    +0.000 H 
ATOM    139  H41 UNL A   1      41.272  30.709  36.774  1.00  0.00    +0.000 H 
ATOM    140  H42 UNL A   1      43.093  29.031  36.205  1.00  0.00    +0.000 H 
ATOM    141  H43 UNL A   1      40.746  29.560  32.814  1.00  0.00    +0.000 H 
ATOM    142  H44 UNL A   1      37.301  33.011  34.039  1.00  0.00    +0.000 H 
ATOM    143  H45 UNL A   1      36.328  32.683  31.695  1.00  0.00    +0.000 H 
ATOM    144  H46 UNL A   1      43.688  26.228  29.439  1.00  0.00    +0.000 H 
ATOM    145  H47 UNL A   1      44.398  26.186  31.900  1.00  0.00    +0.000 H 
ATOM     38  C32 UNL A   1      42.984  28.045  33.532  1.00  0.00    +0.000 C 
ATOM     39  C33 UNL A   1      42.740  27.722  32.085  1.00  0.00    +0.000 C 
ATOM     40  N3  UNL A   1      41.841  28.211  31.267  1.00  0.00    +0.000 N 
ATOM     41  C34 UNL A   1      42.083  27.612  30.038  1.00  0.00    +0.000 C 
ATOM     42  C35 UNL A   1      41.392  27.749  28.881  1.00  0.00    +0.000 C 
ATOM     54  C42 UNL A   1      40.221  28.571  28.728  1.00  0.00    +0.000 C 
ATOM     55  C43 UNL A   1      39.413  28.726  27.615  1.00  0.00    +0.000 C 
ATOM     56  C44 UNL A   1      38.411  29.652  27.925  1.00  0.00    +0.000 C 
ATOM     57  C45 UNL A   1      38.571  30.043  29.245  1.00  0.00    +0.000 C 
ATOM     58  N4  UNL A   1      39.688  29.377  29.723  1.00  0.00    +0.000 N 
ATOM     59  C46 UNL A   1      37.766  30.957  30.014  1.00  0.00    +0.000 C 
ATOM     71  C53 UNL A   1      37.988  31.289  31.309  1.00  0.00    +0.000 C 
ATOM     72  N5  UNL A   1      38.988  30.849  32.164  1.00  0.00    +0.000 N 
ATOM     73  C54 UNL A   1      38.786  31.464  33.302  1.00  0.00    +0.000 C 
ATOM     74  C55 UNL A   1      39.550  31.347  34.593  1.00  0.00    +0.000 C 
ATOM     86  C62 UNL A   1      40.580  30.485  34.672  1.00  0.00    +0.000 C 
ATOM     87  C63 UNL A   1      41.404  30.256  35.856  1.00  0.00    +0.000 C 
ATOM     88  C64 UNL A   1      42.360  29.362  35.558  1.00  0.00    +0.000 C 
ATOM     89  C65 UNL A   1      42.197  28.933  34.168  1.00  0.00    +0.000 C 
ATOM     90  N6  UNL A   1      41.111  29.644  33.725  1.00  0.00    +0.000 N 
ATOM     91  C66 UNL A   1      37.644  32.389  33.290  1.00  0.00    +0.000 C 
ATOM     92  C67 UNL A   1      37.171  32.217  32.064  1.00  0.00    +0.000 C 
ATOM     93  C68 UNL A   1      43.239  26.757  30.204  1.00  0.00    +0.000 C 
ATOM     94  C69 UNL A   1      43.644  26.741  31.465  1.00  0.00    +0.000 C 
ENDROOT
BRANCH   38   37
ATOM     34  C28 UNL A   1      46.297  26.244  35.576  1.00  0.00    +0.000 C 
ATOM     35  C29 UNL A   1      46.477  27.454  34.897  1.00  0.00    +0.000 C 
ATOM     36  C30 UNL A   1      45.396  28.057  34.248  1.00  0.00    +0.000 C 
ATOM     37  C31 UNL A   1      44.136  27.440  34.249  1.00  0.00    +0.000 C 
ATOM    134  H36 UNL A   1      47.407  27.901  34.876  1.00  0.00    +0.000 H 
ATOM    135  H37 UNL A   1      45.526  28.960  33.767  1.00  0.00    +0.000 H 
ATOM    146  H48 UNL A   1      43.042  25.769  34.944  1.00  0.00    +0.000 H 
ATOM    147  H49 UNL A   1      44.876  24.817  36.210  1.00  0.00    +0.000 H 
ATOM     95  C70 UNL A   1      43.962  26.235  34.947  1.00  0.00    +0.000 C 
ATOM     96  C71 UNL A   1      45.026  25.666  35.644  1.00  0.00    +0.000 C 
BRANCH   34   32
ATOM     33  O3  UNL A   1      47.774  26.027  37.380  1.00  0.00    +0.000 O 
ATOM     32  C27 UNL A   1      47.457  25.636  36.268  1.00  0.00    +0.000 C 
BRANCH   32   31
ATOM    133  H35 UNL A   1      47.690  23.771  35.569  1.00  0.00    +0.000 H 
ATOM     31  N2  UNL A   1      48.170  24.624  35.666  1.00  0.00    +0.000 N 
BRANCH   31   30
ATOM    131  H33 UNL A   1      50.200  24.381  35.949  1.00  0.00    +0.000 H 
ATOM    132  H34 UNL A   1      49.590  23.925  34.357  1.00  0.00    +0.000 H 
ATOM     30  C26 UNL A   1      49.530  24.636  35.155  1.00  0.00    +0.000 C 
BRANCH   30   29
ATOM    129  H31 UNL A   1      49.527  26.754  35.255  1.00  0.00    +0.000 H 
ATOM    130  H32 UNL A   1      50.988  26.011  34.540  1.00  0.00    +0.000 H 
ATOM     29  C25 UNL A   1      49.919  26.005  34.599  1.00  0.00    +0.000 C 
BRANCH   29   28
ATOM     28  C24 UNL A   1      49.407  26.295  33.184  1.00  0.00    +0.000 C 
ATOM    127  H29 UNL A   1      48.396  25.950  33.123  1.00  0.00    +0.000 H 
ATOM    128  H30 UNL A   1      49.514  27.351  33.046  1.00  0.00    +0.000 H 
BRANCH   28   27
ATOM     27  C23 UNL A   1      50.197  25.642  32.043  1.00  0.00    +0.000 C 
ATOM    125  H27 UNL A   1      51.195  26.027  32.068  1.00  0.00    +0.000 H 
ATOM    126  H28 UNL A   1      50.143  24.586  32.209  1.00  0.00    +0.000 H 
BRANCH   27   26
ATOM     26  C22 UNL A   1      49.632  25.882  30.640  1.00  0.00    +0.000 C 
ATOM    123  H25 UNL A   1      48.603  25.586  30.638  1.00  0.00    +0.000 H 
ATOM    124  H26 UNL A   1      49.763  26.922  30.429  1.00  0.00    +0.000 H 
BRANCH   26   25
ATOM     25  C21 UNL A   1      50.356  25.111  29.532  1.00  0.00    +0.000 C 
ATOM    122  H24 UNL A   1      49.750  24.273  29.259  1.00  0.00    +0.000 H 
ATOM    121  H23 UNL A   1      51.310  24.793  29.898  1.00  0.00    +0.000 H 
BRANCH   25   24
ATOM    120  H22 UNL A   1      50.656  26.888  28.542  1.00  0.00    +0.000 H 
ATOM     24  N1  UNL A   1      50.555  25.927  28.354  1.00  0.00    +0.000 N 
BRANCH   24   22
ATOM     22  C20 UNL A   1      50.626  25.609  27.032  1.00  0.00    +0.000 C 
ATOM     23  O2  UNL A   1      51.585  24.900  26.702  1.00  0.00    +0.000 O 
BRANCH   22   20
ATOM    116  H18 UNL A   1      49.066  25.198  25.713  1.00  0.00    +0.000 H 
ATOM     20  C18 UNL A   1      49.614  26.079  25.972  1.00  0.00    +0.000 C 
BRANCH   20   19
ATOM      7  C6  UNL A   1      47.265  26.607  26.895  1.00  0.00    +0.000 C 
ATOM      8  C7  UNL A   1      46.379  27.521  27.505  1.00  0.00    +0.000 C 
ATOM      9  C8  UNL A   1      46.714  28.869  27.673  1.00  0.00    +0.000 C 
ATOM    104  H6  UNL A   1      45.460  27.186  27.835  1.00  0.00    +0.000 H 
ATOM     17  C15 UNL A   1      47.975  29.298  27.273  1.00  0.00    +0.000 C 
ATOM     18  C16 UNL A   1      48.874  28.400  26.700  1.00  0.00    +0.000 C 
ATOM     19  C17 UNL A   1      48.565  27.039  26.533  1.00  0.00    +0.000 C 
ATOM    115  H17 UNL A   1      49.796  28.745  26.391  1.00  0.00    +0.000 H 
ATOM    114  H16 UNL A   1      48.246  30.285  27.399  1.00  0.00    +0.000 H 
BRANCH    7    6
ATOM     97  C72 UNL A   1      46.818  24.832  25.151  1.00  0.00    +0.000 C 
ATOM     98  C73 UNL A   1      46.218  23.613  24.797  1.00  0.00    +0.000 C 
ATOM      3  C2  UNL A   1      45.514  22.846  25.738  1.00  0.00    +0.000 C 
ATOM      4  C3  UNL A   1      45.422  23.325  27.045  1.00  0.00    +0.000 C 
ATOM      5  C4  UNL A   1      46.009  24.542  27.394  1.00  0.00    +0.000 C 
ATOM    102  H4  UNL A   1      44.916  22.777  27.758  1.00  0.00    +0.000 H 
ATOM      6  C5  UNL A   1      46.712  25.316  26.456  1.00  0.00    +0.000 C 
ATOM    103  H5  UNL A   1      45.924  24.881  28.365  1.00  0.00    +0.000 H 
ATOM    148  H50 UNL A   1      47.341  25.372  24.444  1.00  0.00    +0.000 H 
ATOM    149  H51 UNL A   1      46.296  23.275  23.825  1.00  0.00    +0.000 H 
BRANCH    3    2
ATOM      2  S1  UNL A   1      44.765  21.322  25.176  1.00  0.00    +0.000 S 
BRANCH    2    1
ATOM      1  C1  UNL A   1      46.183  20.205  24.988  1.00  0.00    +0.000 C 
ATOM     99  H1  UNL A   1      46.329  19.659  25.896  1.00  0.00    +0.000 H 
ATOM    100  H2  UNL A   1      47.061  20.776  24.771  1.00  0.00    +0.000 H 
ATOM    101  H3  UNL A   1      45.995  19.521  24.186  1.00  0.00    +0.000 H 
ENDBRANCH    2    1
ENDBRANCH    3    2
ENDBRANCH    7    6
BRANCH    9   10
ATOM    105  H7  UNL A   1      44.915  29.924  27.408  1.00  0.00    +0.000 H 
ATOM     10  C9  UNL A   1      45.690  29.874  28.143  1.00  0.00    +0.000 C 
ATOM    106  H8  UNL A   1      46.216  30.796  28.272  1.00  0.00    +0.000 H 
BRANCH   10   11
ATOM     11  C10 UNL A   1      45.042  29.556  29.499  1.00  0.00    +0.000 C 
ATOM    108  H10 UNL A   1      46.967  29.197  30.398  1.00  0.00    +0.000 H 
ATOM     12  C11 UNL A   1      45.972  29.434  30.714  1.00  0.00    +0.000 C 
ATOM    107  H9  UNL A   1      44.593  28.612  29.276  1.00  0.00    +0.000 H 
ATOM     15  C14 UNL A   1      44.100  30.654  29.942  1.00  0.00    +0.000 C 
ATOM    109  H11 UNL A   1      45.652  28.654  31.374  1.00  0.00    +0.000 H 
ATOM     13  C12 UNL A   1      45.948  30.793  31.407  1.00  0.00    +0.000 C 
ATOM     14  C13 UNL A   1      44.523  31.297  31.235  1.00  0.00    +0.000 C 
ATOM     16  O1  UNL A   1      43.086  30.968  29.329  1.00  0.00    +0.000 O 
ATOM    110  H12 UNL A   1      46.642  31.463  30.945  1.00  0.00    +0.000 H 
ATOM    111  H13 UNL A   1      46.229  30.724  32.438  1.00  0.00    +0.000 H 
ATOM    112  H14 UNL A   1      44.497  32.364  31.163  1.00  0.00    +0.000 H 
ATOM    113  H15 UNL A   1      43.884  31.055  32.059  1.00  0.00    +0.000 H 
ENDBRANCH   10   11
ENDBRANCH    9   10
ENDBRANCH   20   19
BRANCH   20   21
ATOM    117  H19 UNL A   1      51.277  26.526  24.703  1.00  0.00    +0.000 H 
ATOM     21  C19 UNL A   1      50.211  26.477  24.622  1.00  0.00    +0.000 C 
ATOM    118  H20 UNL A   1      49.831  27.434  24.332  1.00  0.00    +0.000 H 
ATOM    119  H21 UNL A   1      49.941  25.749  23.885  1.00  0.00    +0.000 H 
ENDBRANCH   20   21
ENDBRANCH   22   20
ENDBRANCH   24   22
ENDBRANCH   25   24
ENDBRANCH   26   25
ENDBRANCH   27   26
ENDBRANCH   28   27
ENDBRANCH   29   28
ENDBRANCH   30   29
ENDBRANCH   31   30
ENDBRANCH   32   31
ENDBRANCH   34   32
ENDBRANCH   38   37
BRANCH   42   43
ATOM     43  C36 UNL A   1      41.882  26.986  27.685  1.00  0.00    +0.000 C 
ATOM     44  C37 UNL A   1      42.726  27.576  26.733  1.00  0.00    +0.000 C 
ATOM     45  F1  UNL A   1      43.076  28.865  26.848  1.00  0.00    +0.000 F 
ATOM     46  C38 UNL A   1      43.185  26.851  25.635  1.00  0.00    +0.000 C 
ATOM     47  F2  UNL A   1      43.954  27.448  24.714  1.00  0.00    +0.000 F 
ATOM     48  C39 UNL A   1      42.836  25.516  25.488  1.00  0.00    +0.000 C 
ATOM     49  F3  UNL A   1      43.282  24.819  24.434  1.00  0.00    +0.000 F 
ATOM     50  C40 UNL A   1      42.018  24.908  26.428  1.00  0.00    +0.000 C 
ATOM     51  F4  UNL A   1      41.690  23.616  26.292  1.00  0.00    +0.000 F 
ATOM     52  C41 UNL A   1      41.536  25.637  27.511  1.00  0.00    +0.000 C 
ATOM     53  F5  UNL A   1      40.736  25.024  28.397  1.00  0.00    +0.000 F 
ENDBRANCH   42   43
BRANCH   59   60
ATOM     65  C50 UNL A   1      34.360  32.696  28.030  1.00  0.00    +0.000 C 
ATOM     66  F8  UNL A   1      33.299  33.233  27.413  1.00  0.00    +0.000 F 
ATOM     67  C51 UNL A   1      34.387  31.338  28.312  1.00  0.00    +0.000 C 
ATOM     68  F9  UNL A   1      33.357  30.561  27.951  1.00  0.00    +0.000 F 
ATOM     69  C52 UNL A   1      35.479  30.783  28.972  1.00  0.00    +0.000 C 
ATOM     70  F10 UNL A   1      35.471  29.469  29.242  1.00  0.00    +0.000 F 
ATOM     60  C47 UNL A   1      36.577  31.575  29.342  1.00  0.00    +0.000 C 
ATOM     61  C48 UNL A   1      36.538  32.943  29.032  1.00  0.00    +0.000 C 
ATOM     62  F6  UNL A   1      37.557  33.743  29.380  1.00  0.00    +0.000 F 
ATOM     63  C49 UNL A   1      35.431  33.499  28.395  1.00  0.00    +0.000 C 
ATOM     64  F7  UNL A   1      35.397  34.815  28.146  1.00  0.00    +0.000 F 
ENDBRANCH   59   60
BRANCH   74   75
ATOM     75  C56 UNL A   1      39.161  32.146  35.782  1.00  0.00    +0.000 C 
ATOM     76  C57 UNL A   1      39.610  33.466  35.937  1.00  0.00    +0.000 C 
ATOM     77  F11 UNL A   1      40.419  34.009  35.016  1.00  0.00    +0.000 F 
ATOM     78  C58 UNL A   1      39.262  34.217  37.058  1.00  0.00    +0.000 C 
ATOM     79  F12 UNL A   1      39.738  35.460  37.202  1.00  0.00    +0.000 F 
ATOM     80  C59 UNL A   1      38.436  33.673  38.030  1.00  0.00    +0.000 C 
ATOM     81  F13 UNL A   1      38.097  34.396  39.105  1.00  0.00    +0.000 F 
ATOM     82  C60 UNL A   1      37.965  32.376  37.889  1.00  0.00    +0.000 C 
ATOM     83  F14 UNL A   1      37.157  31.851  38.819  1.00  0.00    +0.000 F 
ATOM     84  C61 UNL A   1      38.334  31.615  36.781  1.00  0.00    +0.000 C 
ATOM     85  F15 UNL A   1      37.873  30.360  36.675  1.00  0.00    +0.000 F 
ENDBRANCH   74   75
TORSDOF 22
ENDMDL
MODEL 7
REMARK VINA RESULT:      -7.6     21.498     28.318
ROOT
ATOM    136  H38 UNL A   1      39.966  28.137  26.606  1.00  0.00    +0.000 H 
ATOM    137  H39 UNL A   1      38.036  29.814  27.116  1.00  0.00    +0.000 H 
ATOM    138  H40 UNL A   1      40.340  29.405  30.531  1.00  0.00    +0.000 H 
ATOM    139  H41 UNL A   1      41.361  30.741  36.688  1.00  0.00    +0.000 H 
ATOM    140  H42 UNL A   1      43.257  29.129  36.179  1.00  0.00    +0.000 H 
ATOM    141  H43 UNL A   1      40.978  29.544  32.726  1.00  0.00    +0.000 H 
ATOM    142  H44 UNL A   1      37.376  32.871  33.837  1.00  0.00    +0.000 H 
ATOM    143  H45 UNL A   1      36.475  32.489  31.472  1.00  0.00    +0.000 H 
ATOM    144  H46 UNL A   1      44.127  26.301  29.453  1.00  0.00    +0.000 H 
ATOM    145  H47 UNL A   1      44.776  26.303  31.931  1.00  0.00    +0.000 H 
ATOM     38  C32 UNL A   1      43.253  28.120  33.512  1.00  0.00    +0.000 C 
ATOM     39  C33 UNL A   1      43.057  27.777  32.062  1.00  0.00    +0.000 C 
ATOM     40  N3  UNL A   1      42.162  28.226  31.218  1.00  0.00    +0.000 N 
ATOM     41  C34 UNL A   1      42.457  27.627  30.000  1.00  0.00    +0.000 C 
ATOM     42  C35 UNL A   1      41.790  27.730  28.825  1.00  0.00    +0.000 C 
ATOM     54  C42 UNL A   1      40.593  28.506  28.636  1.00  0.00    +0.000 C 
ATOM     55  C43 UNL A   1      39.808  28.622  27.502  1.00  0.00    +0.000 C 
ATOM     56  C44 UNL A   1      38.765  29.512  27.780  1.00  0.00    +0.000 C 
ATOM     57  C45 UNL A   1      38.877  29.919  29.100  1.00  0.00    +0.000 C 
ATOM     58  N4  UNL A   1      40.006  29.299  29.612  1.00  0.00    +0.000 N 
ATOM     59  C46 UNL A   1      38.019  30.807  29.842  1.00  0.00    +0.000 C 
ATOM     71  C53 UNL A   1      38.196  31.157  31.139  1.00  0.00    +0.000 C 
ATOM     72  N5  UNL A   1      39.190  30.760  32.022  1.00  0.00    +0.000 N 
ATOM     73  C54 UNL A   1      38.936  31.376  33.150  1.00  0.00    +0.000 C 
ATOM     74  C55 UNL A   1      39.671  31.298  34.460  1.00  0.00    +0.000 C 
ATOM     86  C62 UNL A   1      40.731  30.476  34.572  1.00  0.00    +0.000 C 
ATOM     87  C63 UNL A   1      41.533  30.286  35.778  1.00  0.00    +0.000 C 
ATOM     88  C64 UNL A   1      42.529  29.427  35.511  1.00  0.00    +0.000 C 
ATOM     89  C65 UNL A   1      42.417  28.982  34.121  1.00  0.00    +0.000 C 
ATOM     90  N6  UNL A   1      41.316  29.648  33.645  1.00  0.00    +0.000 N 
ATOM     91  C66 UNL A   1      37.761  32.257  33.102  1.00  0.00    +0.000 C 
ATOM     92  C67 UNL A   1      37.325  32.058  31.866  1.00  0.00    +0.000 C 
ATOM     93  C68 UNL A   1      43.639  26.818  30.202  1.00  0.00    +0.000 C 
ATOM     94  C69 UNL A   1      44.013  26.826  31.473  1.00  0.00    +0.000 C 
ENDROOT
BRANCH   38   37
ATOM     34  C28 UNL A   1      46.577  26.460  35.654  1.00  0.00    +0.000 C 
ATOM     35  C29 UNL A   1      46.740  27.650  34.938  1.00  0.00    +0.000 C 
ATOM     36  C30 UNL A   1      45.655  28.208  34.256  1.00  0.00    +0.000 C 
ATOM     37  C31 UNL A   1      44.408  27.564  34.262  1.00  0.00    +0.000 C 
ATOM    134  H36 UNL A   1      47.661  28.116  34.913  1.00  0.00    +0.000 H 
ATOM    135  H37 UNL A   1      45.771  29.097  33.747  1.00  0.00    +0.000 H 
ATOM    146  H48 UNL A   1      43.341  25.893  34.999  1.00  0.00    +0.000 H 
ATOM    147  H49 UNL A   1      45.179  25.023  36.318  1.00  0.00    +0.000 H 
ATOM     95  C70 UNL A   1      44.251  26.379  34.998  1.00  0.00    +0.000 C 
ATOM     96  C71 UNL A   1      45.318  25.856  35.726  1.00  0.00    +0.000 C 
BRANCH   34   32
ATOM     33  O3  UNL A   1      47.784  25.962  37.598  1.00  0.00    +0.000 O 
ATOM     32  C27 UNL A   1      47.741  25.899  36.380  1.00  0.00    +0.000 C 
BRANCH   32   31
ATOM    133  H35 UNL A   1      48.521  24.485  35.191  1.00  0.00    +0.000 H 
ATOM     31  N2  UNL A   1      48.766  25.299  35.686  1.00  0.00    +0.000 N 
BRANCH   31   30
ATOM    131  H33 UNL A   1      50.675  25.390  36.467  1.00  0.00    +0.000 H 
ATOM    132  H34 UNL A   1      50.574  25.225  34.713  1.00  0.00    +0.000 H 
ATOM     30  C26 UNL A   1      50.160  25.696  35.580  1.00  0.00    +0.000 C 
BRANCH   30   29
ATOM    129  H31 UNL A   1      49.344  27.652  35.504  1.00  0.00    +0.000 H 
ATOM    130  H32 UNL A   1      50.995  27.524  36.178  1.00  0.00    +0.000 H 
ATOM     29  C25 UNL A   1      50.314  27.207  35.416  1.00  0.00    +0.000 C 
BRANCH   29   28
ATOM     28  C24 UNL A   1      50.922  27.651  34.081  1.00  0.00    +0.000 C 
ATOM    127  H29 UNL A   1      51.519  28.519  34.264  1.00  0.00    +0.000 H 
ATOM    128  H30 UNL A   1      51.479  26.811  33.721  1.00  0.00    +0.000 H 
BRANCH   28   27
ATOM     27  C23 UNL A   1      49.918  27.994  32.973  1.00  0.00    +0.000 C 
ATOM    125  H27 UNL A   1      48.994  27.504  33.201  1.00  0.00    +0.000 H 
ATOM    126  H28 UNL A   1      49.844  29.061  32.959  1.00  0.00    +0.000 H 
BRANCH   27   26
ATOM     26  C22 UNL A   1      50.341  27.577  31.561  1.00  0.00    +0.000 C 
ATOM    123  H25 UNL A   1      49.689  28.057  30.861  1.00  0.00    +0.000 H 
ATOM    124  H26 UNL A   1      51.362  27.874  31.446  1.00  0.00    +0.000 H 
BRANCH   26   25
ATOM     25  C21 UNL A   1      50.288  26.067  31.311  1.00  0.00    +0.000 C 
ATOM    122  H24 UNL A   1      50.066  25.583  32.238  1.00  0.00    +0.000 H 
ATOM    121  H23 UNL A   1      51.234  25.747  30.927  1.00  0.00    +0.000 H 
BRANCH   25   24
ATOM    120  H22 UNL A   1      49.454  24.916  29.825  1.00  0.00    +0.000 H 
ATOM     24  N1  UNL A   1      49.255  25.718  30.361  1.00  0.00    +0.000 N 
BRANCH   24   22
ATOM     22  C20 UNL A   1      48.056  26.295  30.071  1.00  0.00    +0.000 C 
ATOM     23  O2  UNL A   1      47.345  26.574  31.045  1.00  0.00    +0.000 O 
BRANCH   22   20
ATOM    116  H18 UNL A   1      48.455  26.759  28.079  1.00  0.00    +0.000 H 
ATOM     20  C18 UNL A   1      47.562  26.596  28.645  1.00  0.00    +0.000 C 
BRANCH   20   19
ATOM      7  C6  UNL A   1      47.354  24.860  26.751  1.00  0.00    +0.000 C 
ATOM      8  C7  UNL A   1      46.759  23.685  26.242  1.00  0.00    +0.000 C 
ATOM      9  C8  UNL A   1      45.659  23.088  26.868  1.00  0.00    +0.000 C 
ATOM    104  H6  UNL A   1      47.145  23.256  25.386  1.00  0.00    +0.000 H 
ATOM     17  C15 UNL A   1      45.181  23.645  28.049  1.00  0.00    +0.000 C 
ATOM     18  C16 UNL A   1      45.779  24.785  28.582  1.00  0.00    +0.000 C 
ATOM     19  C17 UNL A   1      46.892  25.394  27.979  1.00  0.00    +0.000 C 
ATOM    115  H17 UNL A   1      45.394  25.193  29.447  1.00  0.00    +0.000 H 
ATOM    114  H16 UNL A   1      44.378  23.213  28.533  1.00  0.00    +0.000 H 
BRANCH    7    6
ATOM     97  C72 UNL A   1      49.495  26.117  26.275  1.00  0.00    +0.000 C 
ATOM     98  C73 UNL A   1      50.287  26.855  25.380  1.00  0.00    +0.000 C 
ATOM      3  C2  UNL A   1      49.878  27.076  24.056  1.00  0.00    +0.000 C 
ATOM      4  C3  UNL A   1      48.658  26.543  23.643  1.00  0.00    +0.000 C 
ATOM      5  C4  UNL A   1      47.865  25.819  24.535  1.00  0.00    +0.000 C 
ATOM    102  H4  UNL A   1      48.337  26.685  22.672  1.00  0.00    +0.000 H 
ATOM      6  C5  UNL A   1      48.267  25.597  25.863  1.00  0.00    +0.000 C 
ATOM    103  H5  UNL A   1      46.963  25.438  24.212  1.00  0.00    +0.000 H 
ATOM    148  H50 UNL A   1      49.823  25.958  27.240  1.00  0.00    +0.000 H 
ATOM    149  H51 UNL A   1      51.187  27.243  25.703  1.00  0.00    +0.000 H 
BRANCH    3    2
ATOM      2  S1  UNL A   1      50.950  28.053  23.008  1.00  0.00    +0.000 S 
BRANCH    2    1
ATOM      1  C1  UNL A   1      49.967  28.274  21.497  1.00  0.00    +0.000 C 
ATOM     99  H1  UNL A   1      50.340  29.114  20.950  1.00  0.00    +0.000 H 
ATOM    100  H2  UNL A   1      48.944  28.444  21.759  1.00  0.00    +0.000 H 
ATOM    101  H3  UNL A   1      50.039  27.394  20.893  1.00  0.00    +0.000 H 
ENDBRANCH    2    1
ENDBRANCH    3    2
ENDBRANCH    7    6
BRANCH    9   10
ATOM    105  H7  UNL A   1      44.056  22.363  25.717  1.00  0.00    +0.000 H 
ATOM     10  C9  UNL A   1      44.911  21.953  26.213  1.00  0.00    +0.000 C 
ATOM    106  H8  UNL A   1      44.661  21.269  26.996  1.00  0.00    +0.000 H 
BRANCH   10   11
ATOM     11  C10 UNL A   1      45.719  21.150  25.183  1.00  0.00    +0.000 C 
ATOM    108  H10 UNL A   1      46.043  19.557  26.598  1.00  0.00    +0.000 H 
ATOM     12  C11 UNL A   1      46.064  19.696  25.537  1.00  0.00    +0.000 C 
ATOM    107  H9  UNL A   1      46.607  21.743  25.136  1.00  0.00    +0.000 H 
ATOM     15  C14 UNL A   1      44.962  20.978  23.884  1.00  0.00    +0.000 C 
ATOM    109  H11 UNL A   1      47.047  19.436  25.200  1.00  0.00    +0.000 H 
ATOM     13  C12 UNL A   1      45.001  18.830  24.868  1.00  0.00    +0.000 C 
ATOM     14  C13 UNL A   1      44.688  19.535  23.557  1.00  0.00    +0.000 C 
ATOM     16  O1  UNL A   1      44.631  21.911  23.162  1.00  0.00    +0.000 O 
ATOM    110  H12 UNL A   1      44.126  18.770  25.481  1.00  0.00    +0.000 H 
ATOM    111  H13 UNL A   1      45.338  17.826  24.715  1.00  0.00    +0.000 H 
ATOM    112  H14 UNL A   1      43.666  19.390  23.275  1.00  0.00    +0.000 H 
ATOM    113  H15 UNL A   1      45.261  19.170  22.730  1.00  0.00    +0.000 H 
ENDBRANCH   10   11
ENDBRANCH    9   10
ENDBRANCH   20   19
BRANCH   20   21
ATOM    117  H19 UNL A   1      47.113  28.362  27.526  1.00  0.00    +0.000 H 
ATOM     21  C19 UNL A   1      46.838  27.931  28.466  1.00  0.00    +0.000 C 
ATOM    118  H20 UNL A   1      47.114  28.595  29.258  1.00  0.00    +0.000 H 
ATOM    119  H21 UNL A   1      45.781  27.769  28.490  1.00  0.00    +0.000 H 
ENDBRANCH   20   21
ENDBRANCH   22   20
ENDBRANCH   24   22
ENDBRANCH   25   24
ENDBRANCH   26   25
ENDBRANCH   27   26
ENDBRANCH   28   27
ENDBRANCH   29   28
ENDBRANCH   30   29
ENDBRANCH   31   30
ENDBRANCH   32   31
ENDBRANCH   34   32
ENDBRANCH   38   37
BRANCH   42   43
ATOM     43  C36 UNL A   1      42.339  26.977  27.649  1.00  0.00    +0.000 C 
ATOM     44  C37 UNL A   1      43.384  27.493  26.869  1.00  0.00    +0.000 C 
ATOM     45  F1  UNL A   1      43.887  28.707  27.134  1.00  0.00    +0.000 F 
ATOM     46  C38 UNL A   1      43.893  26.777  25.788  1.00  0.00    +0.000 C 
ATOM     47  F2  UNL A   1      44.861  27.309  25.030  1.00  0.00    +0.000 F 
ATOM     48  C39 UNL A   1      43.389  25.519  25.488  1.00  0.00    +0.000 C 
ATOM     49  F3  UNL A   1      43.884  24.830  24.451  1.00  0.00    +0.000 F 
ATOM     50  C40 UNL A   1      42.369  24.982  26.258  1.00  0.00    +0.000 C 
ATOM     51  F4  UNL A   1      41.890  23.763  25.974  1.00  0.00    +0.000 F 
ATOM     52  C41 UNL A   1      41.840  25.707  27.322  1.00  0.00    +0.000 C 
ATOM     53  F5  UNL A   1      40.844  25.166  28.039  1.00  0.00    +0.000 F 
ENDBRANCH   42   43
BRANCH   59   60
ATOM     65  C50 UNL A   1      34.577  32.479  27.863  1.00  0.00    +0.000 C 
ATOM     66  F8  UNL A   1      33.508  33.003  27.248  1.00  0.00    +0.000 F 
ATOM     67  C51 UNL A   1      35.670  33.280  28.161  1.00  0.00    +0.000 C 
ATOM     68  F9  UNL A   1      35.649  34.582  27.848  1.00  0.00    +0.000 F 
ATOM     69  C52 UNL A   1      36.789  32.732  28.781  1.00  0.00    +0.000 C 
ATOM     70  F10 UNL A   1      37.836  33.528  29.045  1.00  0.00    +0.000 F 
ATOM     60  C47 UNL A   1      36.825  31.375  29.135  1.00  0.00    +0.000 C 
ATOM     61  C48 UNL A   1      35.703  30.587  28.841  1.00  0.00    +0.000 C 
ATOM     62  F6  UNL A   1      35.696  29.280  29.147  1.00  0.00    +0.000 F 
ATOM     63  C49 UNL A   1      34.595  31.133  28.197  1.00  0.00    +0.000 C 
ATOM     64  F7  UNL A   1      33.551  30.352  27.888  1.00  0.00    +0.000 F 
ENDBRANCH   59   60
BRANCH   74   75
ATOM     75  C56 UNL A   1      39.223  32.090  35.632  1.00  0.00    +0.000 C 
ATOM     76  C57 UNL A   1      39.614  33.428  35.786  1.00  0.00    +0.000 C 
ATOM     77  F11 UNL A   1      40.422  33.996  34.878  1.00  0.00    +0.000 F 
ATOM     78  C58 UNL A   1      39.210  34.174  36.891  1.00  0.00    +0.000 C 
ATOM     79  F12 UNL A   1      39.632  35.437  37.034  1.00  0.00    +0.000 F 
ATOM     80  C59 UNL A   1      38.385  33.604  37.849  1.00  0.00    +0.000 C 
ATOM     81  F13 UNL A   1      37.992  34.322  38.909  1.00  0.00    +0.000 F 
ATOM     82  C60 UNL A   1      37.971  32.288  37.709  1.00  0.00    +0.000 C 
ATOM     83  F14 UNL A   1      37.163  31.739  38.626  1.00  0.00    +0.000 F 
ATOM     84  C61 UNL A   1      38.395  31.534  36.618  1.00  0.00    +0.000 C 
ATOM     85  F15 UNL A   1      37.988  30.260  36.512  1.00  0.00    +0.000 F 
ENDBRANCH   74   75
TORSDOF 22
ENDMDL
MODEL 8
REMARK VINA RESULT:      -7.5     41.040     46.239
ROOT
ATOM    136  H38 UNL A   1      11.588   7.653  15.143  1.00  0.00    +0.000 H 
ATOM    137  H39 UNL A   1      10.072   9.616  15.947  1.00  0.00    +0.000 H 
ATOM    138  H40 UNL A   1      10.112   6.711  18.896  1.00  0.00    +0.000 H 
ATOM    139  H41 UNL A   1       8.020   4.531  24.519  1.00  0.00    +0.000 H 
ATOM    140  H42 UNL A   1       9.521   2.634  23.745  1.00  0.00    +0.000 H 
ATOM    141  H43 UNL A   1       9.523   5.547  20.779  1.00  0.00    +0.000 H 
ATOM    142  H44 UNL A   1       6.651   9.291  22.515  1.00  0.00    +0.000 H 
ATOM    143  H45 UNL A   1       7.061  10.468  20.279  1.00  0.00    +0.000 H 
ATOM    144  H46 UNL A   1      13.166   3.036  17.378  1.00  0.00    +0.000 H 
ATOM    145  H47 UNL A   1      12.410   1.638  19.386  1.00  0.00    +0.000 H 
ATOM     38  C32 UNL A   1      10.701   3.043  21.181  1.00  0.00    +0.000 C 
ATOM     39  C33 UNL A   1      11.225   3.514  19.854  1.00  0.00    +0.000 C 
ATOM     40  N3  UNL A   1      11.017   4.651  19.237  1.00  0.00    +0.000 N 
ATOM     41  C34 UNL A   1      11.773   4.593  18.074  1.00  0.00    +0.000 C 
ATOM     42  C35 UNL A   1      11.856   5.504  17.074  1.00  0.00    +0.000 C 
ATOM     54  C42 UNL A   1      11.124   6.743  17.043  1.00  0.00    +0.000 C 
ATOM     55  C43 UNL A   1      11.090   7.702  16.045  1.00  0.00    +0.000 C 
ATOM     56  C44 UNL A   1      10.266   8.749  16.471  1.00  0.00    +0.000 C 
ATOM     57  C45 UNL A   1       9.754   8.423  17.717  1.00  0.00    +0.000 C 
ATOM     58  N4  UNL A   1      10.293   7.193  18.058  1.00  0.00    +0.000 N 
ATOM     59  C46 UNL A   1       8.841   9.177  18.537  1.00  0.00    +0.000 C 
ATOM     71  C53 UNL A   1       8.383   8.789  19.751  1.00  0.00    +0.000 C 
ATOM     72  N5  UNL A   1       8.663   7.628  20.459  1.00  0.00    +0.000 N 
ATOM     73  C54 UNL A   1       7.991   7.719  21.580  1.00  0.00    +0.000 C 
ATOM     74  C55 UNL A   1       7.900   6.735  22.714  1.00  0.00    +0.000 C 
ATOM     86  C62 UNL A   1       8.548   5.559  22.619  1.00  0.00    +0.000 C 
ATOM     87  C63 UNL A   1       8.543   4.506  23.629  1.00  0.00    +0.000 C 
ATOM     88  C64 UNL A   1       9.329   3.498  23.216  1.00  0.00    +0.000 C 
ATOM     89  C65 UNL A   1       9.869   3.825  21.896  1.00  0.00    +0.000 C 
ATOM     90  N6  UNL A   1       9.345   5.062  21.617  1.00  0.00    +0.000 N 
ATOM     91  C66 UNL A   1       7.226   8.966  21.722  1.00  0.00    +0.000 C 
ATOM     92  C67 UNL A   1       7.470   9.565  20.565  1.00  0.00    +0.000 C 
ATOM     93  C68 UNL A   1      12.478   3.330  18.090  1.00  0.00    +0.000 C 
ATOM     94  C69 UNL A   1      12.126   2.599  19.137  1.00  0.00    +0.000 C 
ENDROOT
BRANCH   38   37
ATOM     34  C28 UNL A   1      11.992  -0.733  22.751  1.00  0.00    +0.000 C 
ATOM     35  C29 UNL A   1      12.719   0.425  23.047  1.00  0.00    +0.000 C 
ATOM     36  C30 UNL A   1      12.291   1.661  22.557  1.00  0.00    +0.000 C 
ATOM     37  C31 UNL A   1      11.150   1.744  21.744  1.00  0.00    +0.000 C 
ATOM    134  H36 UNL A   1      13.571   0.365  23.627  1.00  0.00    +0.000 H 
ATOM    135  H37 UNL A   1      12.815   2.517  22.795  1.00  0.00    +0.000 H 
ATOM    146  H48 UNL A   1       9.585   0.628  20.861  1.00  0.00    +0.000 H 
ATOM    147  H49 UNL A   1      10.235  -1.485  21.854  1.00  0.00    +0.000 H 
ATOM     95  C70 UNL A   1      10.419   0.579  21.467  1.00  0.00    +0.000 C 
ATOM     96  C71 UNL A   1      10.813  -0.645  22.006  1.00  0.00    +0.000 C 
BRANCH   34   32
ATOM     33  O3  UNL A   1      13.416  -2.056  24.057  1.00  0.00    +0.000 O 
ATOM     32  C27 UNL A   1      12.462  -2.029  23.297  1.00  0.00    +0.000 C 
BRANCH   32   31
ATOM    133  H35 UNL A   1      11.958  -3.502  22.034  1.00  0.00    +0.000 H 
ATOM     31  N2  UNL A   1      11.819  -3.197  22.958  1.00  0.00    +0.000 N 
BRANCH   31   30
ATOM    131  H33 UNL A   1      10.054  -4.230  23.239  1.00  0.00    +0.000 H 
ATOM    132  H34 UNL A   1      11.489  -4.956  23.967  1.00  0.00    +0.000 H 
ATOM     30  C26 UNL A   1      10.963  -4.044  23.772  1.00  0.00    +0.000 C 
BRANCH   30   29
ATOM    129  H31 UNL A   1      10.516  -4.173  25.840  1.00  0.00    +0.000 H 
ATOM    130  H32 UNL A   1      11.428  -2.722  25.331  1.00  0.00    +0.000 H 
ATOM     29  C25 UNL A   1      10.626  -3.396  25.113  1.00  0.00    +0.000 C 
BRANCH   29   28
ATOM     28  C24 UNL A   1       9.344  -2.555  25.118  1.00  0.00    +0.000 C 
ATOM    127  H29 UNL A   1       9.243  -2.115  26.087  1.00  0.00    +0.000 H 
ATOM    128  H30 UNL A   1       9.460  -1.843  24.327  1.00  0.00    +0.000 H 
BRANCH   28   27
ATOM     27  C23 UNL A   1       8.048  -3.316  24.808  1.00  0.00    +0.000 C 
ATOM    125  H27 UNL A   1       7.313  -2.605  24.493  1.00  0.00    +0.000 H 
ATOM    126  H28 UNL A   1       8.298  -4.034  24.054  1.00  0.00    +0.000 H 
BRANCH   27   26
ATOM     26  C22 UNL A   1       7.466  -4.113  25.979  1.00  0.00    +0.000 C 
ATOM    123  H25 UNL A   1       7.380  -5.136  25.679  1.00  0.00    +0.000 H 
ATOM    124  H26 UNL A   1       8.134  -3.979  26.804  1.00  0.00    +0.000 H 
BRANCH   26   25
ATOM     25  C21 UNL A   1       6.089  -3.630  26.443  1.00  0.00    +0.000 C 
ATOM    122  H24 UNL A   1       5.534  -4.479  26.781  1.00  0.00    +0.000 H 
ATOM    121  H23 UNL A   1       5.596  -3.150  25.624  1.00  0.00    +0.000 H 
BRANCH   25   24
ATOM    120  H22 UNL A   1       5.794  -3.014  28.383  1.00  0.00    +0.000 H 
ATOM     24  N1  UNL A   1       6.192  -2.693  27.541  1.00  0.00    +0.000 N 
BRANCH   24   22
ATOM     22  C20 UNL A   1       6.737  -1.448  27.623  1.00  0.00    +0.000 C 
ATOM     23  O2  UNL A   1       7.837  -1.381  28.186  1.00  0.00    +0.000 O 
BRANCH   22   20
ATOM    116  H18 UNL A   1       6.625   0.630  27.517  1.00  0.00    +0.000 H 
ATOM     20  C18 UNL A   1       6.070  -0.173  27.078  1.00  0.00    +0.000 C 
BRANCH   20   19
ATOM      7  C6  UNL A   1       7.476   0.465  25.013  1.00  0.00    +0.000 C 
ATOM      8  C7  UNL A   1       7.621   0.504  23.609  1.00  0.00    +0.000 C 
ATOM      9  C8  UNL A   1       6.560   0.190  22.751  1.00  0.00    +0.000 C 
ATOM    104  H6  UNL A   1       8.532   0.770  23.205  1.00  0.00    +0.000 H 
ATOM     17  C15 UNL A   1       5.352  -0.219  23.307  1.00  0.00    +0.000 C 
ATOM     18  C16 UNL A   1       5.205  -0.295  24.691  1.00  0.00    +0.000 C 
ATOM     19  C17 UNL A   1       6.259   0.002  25.571  1.00  0.00    +0.000 C 
ATOM    115  H17 UNL A   1       4.293  -0.580  25.081  1.00  0.00    +0.000 H 
ATOM    114  H16 UNL A   1       4.562  -0.466  22.692  1.00  0.00    +0.000 H 
BRANCH    7    6
ATOM     97  C72 UNL A   1       8.242   2.097  26.785  1.00  0.00    +0.000 C 
ATOM     98  C73 UNL A   1       9.292   2.720  27.477  1.00  0.00    +0.000 C 
ATOM      3  C2  UNL A   1      10.631   2.377  27.234  1.00  0.00    +0.000 C 
ATOM      4  C3  UNL A   1      10.899   1.396  26.280  1.00  0.00    +0.000 C 
ATOM      5  C4  UNL A   1       9.856   0.785  25.583  1.00  0.00    +0.000 C 
ATOM    102  H4  UNL A   1      11.875   1.120  26.088  1.00  0.00    +0.000 H 
ATOM      6  C5  UNL A   1       8.514   1.125  25.820  1.00  0.00    +0.000 C 
ATOM    103  H5  UNL A   1      10.076   0.065  24.877  1.00  0.00    +0.000 H 
ATOM    148  H50 UNL A   1       7.265   2.358  26.990  1.00  0.00    +0.000 H 
ATOM    149  H51 UNL A   1       9.075   3.444  28.179  1.00  0.00    +0.000 H 
BRANCH    3    2
ATOM      2  S1  UNL A   1      11.893   3.251  28.153  1.00  0.00    +0.000 S 
BRANCH    2    1
ATOM      1  C1  UNL A   1      11.064   4.792  28.638  1.00  0.00    +0.000 C 
ATOM     99  H1  UNL A   1      10.122   4.563  29.089  1.00  0.00    +0.000 H 
ATOM    100  H2  UNL A   1      10.906   5.399  27.771  1.00  0.00    +0.000 H 
ATOM    101  H3  UNL A   1      11.676   5.321  29.338  1.00  0.00    +0.000 H 
ENDBRANCH    2    1
ENDBRANCH    3    2
ENDBRANCH    7    6
BRANCH    9   10
ATOM    105  H7  UNL A   1       5.732   0.148  20.820  1.00  0.00    +0.000 H 
ATOM     10  C9  UNL A   1       6.665   0.424  21.264  1.00  0.00    +0.000 C 
ATOM    106  H8  UNL A   1       7.489  -0.168  20.927  1.00  0.00    +0.000 H 
BRANCH   10   11
ATOM     11  C10 UNL A   1       6.979   1.870  20.854  1.00  0.00    +0.000 C 
ATOM    108  H10 UNL A   1       8.121   1.198  19.155  1.00  0.00    +0.000 H 
ATOM     12  C11 UNL A   1       7.621   2.089  19.476  1.00  0.00    +0.000 C 
ATOM    107  H9  UNL A   1       7.661   2.142  21.631  1.00  0.00    +0.000 H 
ATOM     15  C14 UNL A   1       5.724   2.708  20.744  1.00  0.00    +0.000 C 
ATOM    109  H11 UNL A   1       8.351   2.871  19.506  1.00  0.00    +0.000 H 
ATOM     13  C12 UNL A   1       6.480   2.428  18.523  1.00  0.00    +0.000 C 
ATOM     14  C13 UNL A   1       5.502   3.244  19.355  1.00  0.00    +0.000 C 
ATOM     16  O1  UNL A   1       4.982   2.949  21.689  1.00  0.00    +0.000 O 
ATOM    110  H12 UNL A   1       6.014   1.535  18.162  1.00  0.00    +0.000 H 
ATOM    111  H13 UNL A   1       6.821   2.965  17.663  1.00  0.00    +0.000 H 
ATOM    112  H14 UNL A   1       4.494   3.082  19.035  1.00  0.00    +0.000 H 
ATOM    113  H15 UNL A   1       5.655   4.300  19.277  1.00  0.00    +0.000 H 
ENDBRANCH   10   11
ENDBRANCH    9   10
ENDBRANCH   20   19
BRANCH   20   21
ATOM    117  H19 UNL A   1       3.941  -0.233  26.883  1.00  0.00    +0.000 H 
ATOM     21  C19 UNL A   1       4.660   0.108  27.599  1.00  0.00    +0.000 C 
ATOM    118  H20 UNL A   1       4.540   1.160  27.753  1.00  0.00    +0.000 H 
ATOM    119  H21 UNL A   1       4.514  -0.407  28.525  1.00  0.00    +0.000 H 
ENDBRANCH   20   21
ENDBRANCH   22   20
ENDBRANCH   24   22
ENDBRANCH   25   24
ENDBRANCH   26   25
ENDBRANCH   27   26
ENDBRANCH   28   27
ENDBRANCH   29   28
ENDBRANCH   30   29
ENDBRANCH   31   30
ENDBRANCH   32   31
ENDBRANCH   34   32
ENDBRANCH   38   37
BRANCH   42   43
ATOM     43  C36 UNL A   1      12.767   5.191  15.924  1.00  0.00    +0.000 C 
ATOM     44  C37 UNL A   1      14.119   5.564  15.936  1.00  0.00    +0.000 C 
ATOM     45  F1  UNL A   1      14.618   6.261  16.968  1.00  0.00    +0.000 F 
ATOM     46  C38 UNL A   1      14.958   5.255  14.867  1.00  0.00    +0.000 C 
ATOM     47  F2  UNL A   1      16.234   5.662  14.881  1.00  0.00    +0.000 F 
ATOM     48  C39 UNL A   1      14.469   4.539  13.785  1.00  0.00    +0.000 C 
ATOM     49  F3  UNL A   1      15.279   4.237  12.761  1.00  0.00    +0.000 F 
ATOM     50  C40 UNL A   1      13.141   4.142  13.762  1.00  0.00    +0.000 C 
ATOM     51  F4  UNL A   1      12.671   3.441  12.721  1.00  0.00    +0.000 F 
ATOM     52  C41 UNL A   1      12.294   4.474  14.815  1.00  0.00    +0.000 C 
ATOM     53  F5  UNL A   1      11.010   4.088  14.757  1.00  0.00    +0.000 F 
ENDBRANCH   42   43
BRANCH   59   60
ATOM     65  C50 UNL A   1       7.389  12.955  17.060  1.00  0.00    +0.000 C 
ATOM     66  F8  UNL A   1       6.941  14.132  16.603  1.00  0.00    +0.000 F 
ATOM     67  C51 UNL A   1       8.547  12.901  17.822  1.00  0.00    +0.000 C 
ATOM     68  F9  UNL A   1       9.208  14.029  18.115  1.00  0.00    +0.000 F 
ATOM     69  C52 UNL A   1       9.025  11.677  18.280  1.00  0.00    +0.000 C 
ATOM     70  F10 UNL A   1      10.154  11.654  19.004  1.00  0.00    +0.000 F 
ATOM     60  C47 UNL A   1       8.339  10.485  18.001  1.00  0.00    +0.000 C 
ATOM     61  C48 UNL A   1       7.160  10.564  17.244  1.00  0.00    +0.000 C 
ATOM     62  F6  UNL A   1       6.478   9.450  16.940  1.00  0.00    +0.000 F 
ATOM     63  C49 UNL A   1       6.700  11.788  16.767  1.00  0.00    +0.000 C 
ATOM     64  F7  UNL A   1       5.595  11.835  16.010  1.00  0.00    +0.000 F 
ENDBRANCH   59   60
BRANCH   74   75
ATOM     75  C56 UNL A   1       7.081   7.033  23.915  1.00  0.00    +0.000 C 
ATOM     76  C57 UNL A   1       5.769   6.549  24.028  1.00  0.00    +0.000 C 
ATOM     77  F11 UNL A   1       5.236   5.828  23.030  1.00  0.00    +0.000 F 
ATOM     78  C58 UNL A   1       4.989   6.837  25.146  1.00  0.00    +0.000 C 
ATOM     79  F12 UNL A   1       3.726   6.397  25.209  1.00  0.00    +0.000 F 
ATOM     80  C59 UNL A   1       5.515   7.591  26.185  1.00  0.00    +0.000 C 
ATOM     81  F13 UNL A   1       4.767   7.864  27.261  1.00  0.00    +0.000 F 
ATOM     82  C60 UNL A   1       6.816   8.066  26.103  1.00  0.00    +0.000 C 
ATOM     83  F14 UNL A   1       7.331   8.783  27.110  1.00  0.00    +0.000 F 
ATOM     84  C61 UNL A   1       7.588   7.800  24.974  1.00  0.00    +0.000 C 
ATOM     85  F15 UNL A   1       8.839   8.280  24.917  1.00  0.00    +0.000 F 
ENDBRANCH   74   75
TORSDOF 22
ENDMDL
MODEL 9
REMARK VINA RESULT:      -7.5     43.582     46.953
ROOT
ATOM    136  H38 UNL A   1      13.155  46.605   3.168  1.00  0.00    +0.000 H 
ATOM    137  H39 UNL A   1      14.834  46.850   1.188  1.00  0.00    +0.000 H 
ATOM    138  H40 UNL A   1      14.520  50.515   3.087  1.00  0.00    +0.000 H 
ATOM    139  H41 UNL A   1      16.011  56.713   3.392  1.00  0.00    +0.000 H 
ATOM    140  H42 UNL A   1      14.397  56.464   5.338  1.00  0.00    +0.000 H 
ATOM    141  H43 UNL A   1      14.716  52.764   3.469  1.00  0.00    +0.000 H 
ATOM    142  H44 UNL A   1      18.050  53.373  -0.245  1.00  0.00    +0.000 H 
ATOM    143  H45 UNL A   1      17.606  50.930  -0.868  1.00  0.00    +0.000 H 
ATOM    144  H46 UNL A   1      11.411  49.955   6.980  1.00  0.00    +0.000 H 
ATOM    145  H47 UNL A   1      11.477  52.490   7.341  1.00  0.00    +0.000 H 
ATOM     38  C32 UNL A   1      13.324  53.841   5.642  1.00  0.00    +0.000 C 
ATOM     39  C33 UNL A   1      12.945  52.386   5.615  1.00  0.00    +0.000 C 
ATOM     40  N3  UNL A   1      13.368  51.435   4.821  1.00  0.00    +0.000 N 
ATOM     41  C34 UNL A   1      12.742  50.274   5.255  1.00  0.00    +0.000 C 
ATOM     42  C35 UNL A   1      12.812  49.028   4.727  1.00  0.00    +0.000 C 
ATOM     54  C42 UNL A   1      13.578  48.684   3.557  1.00  0.00    +0.000 C 
ATOM     55  C43 UNL A   1      13.662  47.466   2.907  1.00  0.00    +0.000 C 
ATOM     56  C44 UNL A   1      14.553  47.600   1.837  1.00  0.00    +0.000 C 
ATOM     57  C45 UNL A   1      14.991  48.914   1.796  1.00  0.00    +0.000 C 
ATOM     58  N4  UNL A   1      14.390  49.566   2.860  1.00  0.00    +0.000 N 
ATOM     59  C46 UNL A   1      15.893  49.530   0.857  1.00  0.00    +0.000 C 
ATOM     71  C53 UNL A   1      16.275  50.830   0.883  1.00  0.00    +0.000 C 
ATOM     72  N5  UNL A   1      15.906  51.830   1.770  1.00  0.00    +0.000 N 
ATOM     73  C54 UNL A   1      16.547  52.906   1.388  1.00  0.00    +0.000 C 
ATOM     74  C55 UNL A   1      16.505  54.293   1.968  1.00  0.00    +0.000 C 
ATOM     86  C62 UNL A   1      15.691  54.547   3.010  1.00  0.00    +0.000 C 
ATOM     87  C63 UNL A   1      15.536  55.840   3.669  1.00  0.00    +0.000 C 
ATOM     88  C64 UNL A   1      14.675  55.710   4.691  1.00  0.00    +0.000 C 
ATOM     89  C65 UNL A   1      14.196  54.329   4.740  1.00  0.00    +0.000 C 
ATOM     90  N6  UNL A   1      14.845  53.713   3.699  1.00  0.00    +0.000 N 
ATOM     91  C66 UNL A   1      17.421  52.702   0.223  1.00  0.00    +0.000 C 
ATOM     92  C67 UNL A   1      17.190  51.430  -0.067  1.00  0.00    +0.000 C 
ATOM     93  C68 UNL A   1      11.944  50.630   6.408  1.00  0.00    +0.000 C 
ATOM     94  C69 UNL A   1      11.985  51.935   6.634  1.00  0.00    +0.000 C 
ENDROOT
BRANCH   38   37
ATOM     34  C28 UNL A   1      11.846  56.437   8.719  1.00  0.00    +0.000 C 
ATOM     35  C29 UNL A   1      11.146  56.326   7.513  1.00  0.00    +0.000 C 
ATOM     36  C30 UNL A   1      11.611  55.464   6.515  1.00  0.00    +0.000 C 
ATOM     37  C31 UNL A   1      12.793  54.731   6.705  1.00  0.00    +0.000 C 
ATOM    134  H36 UNL A   1      10.289  56.879   7.360  1.00  0.00    +0.000 H 
ATOM    135  H37 UNL A   1      11.082  55.367   5.635  1.00  0.00    +0.000 H 
ATOM    146  H48 UNL A   1      14.352  54.311   8.071  1.00  0.00    +0.000 H 
ATOM    147  H49 UNL A   1      13.450  55.674   9.861  1.00  0.00    +0.000 H 
ATOM     95  C70 UNL A   1      13.477  54.838   7.926  1.00  0.00    +0.000 C 
ATOM     96  C71 UNL A   1      12.980  55.651   8.943  1.00  0.00    +0.000 C 
BRANCH   34   32
ATOM     33  O3  UNL A   1      11.231  58.542   9.539  1.00  0.00    +0.000 O 
ATOM     32  C27 UNL A   1      11.322  57.347   9.765  1.00  0.00    +0.000 C 
BRANCH   32   31
ATOM    133  H35 UNL A   1      11.146  57.407  11.762  1.00  0.00    +0.000 H 
ATOM     31  N2  UNL A   1      10.926  56.846  10.984  1.00  0.00    +0.000 N 
BRANCH   31   30
ATOM    131  H33 UNL A   1      10.869  54.784  11.044  1.00  0.00    +0.000 H 
ATOM    132  H34 UNL A   1       9.986  55.610  12.329  1.00  0.00    +0.000 H 
ATOM     30  C26 UNL A   1      10.230  55.607  11.287  1.00  0.00    +0.000 C 
BRANCH   30   29
ATOM    129  H31 UNL A   1       8.119  55.436  11.194  1.00  0.00    +0.000 H 
ATOM    130  H32 UNL A   1       8.888  56.320   9.843  1.00  0.00    +0.000 H 
ATOM     29  C25 UNL A   1       8.930  55.473  10.497  1.00  0.00    +0.000 C 
BRANCH   29   28
ATOM     28  C24 UNL A   1       8.845  54.232   9.601  1.00  0.00    +0.000 C 
ATOM    127  H29 UNL A   1       8.012  53.647   9.928  1.00  0.00    +0.000 H 
ATOM    128  H30 UNL A   1       8.750  54.600   8.601  1.00  0.00    +0.000 H 
BRANCH   28   27
ATOM     27  C23 UNL A   1      10.084  53.328   9.599  1.00  0.00    +0.000 C 
ATOM    125  H27 UNL A   1      10.313  53.081   8.583  1.00  0.00    +0.000 H 
ATOM    126  H28 UNL A   1      10.858  53.881  10.088  1.00  0.00    +0.000 H 
BRANCH   27   26
ATOM     26  C22 UNL A   1       9.936  52.019  10.382  1.00  0.00    +0.000 C 
ATOM    123  H25 UNL A   1       9.954  51.208   9.685  1.00  0.00    +0.000 H 
ATOM    124  H26 UNL A   1      10.747  51.984  11.079  1.00  0.00    +0.000 H 
BRANCH   26   25
ATOM     25  C21 UNL A   1       8.645  51.922  11.201  1.00  0.00    +0.000 C 
ATOM    122  H24 UNL A   1       7.817  51.988  10.527  1.00  0.00    +0.000 H 
ATOM    121  H23 UNL A   1       8.626  52.721  11.913  1.00  0.00    +0.000 H 
BRANCH   25   24
ATOM    120  H22 UNL A   1       7.710  50.178  11.757  1.00  0.00    +0.000 H 
ATOM     24  N1  UNL A   1       8.553  50.663  11.908  1.00  0.00    +0.000 N 
BRANCH   24   22
ATOM     22  C20 UNL A   1       9.419  50.027  12.744  1.00  0.00    +0.000 C 
ATOM     23  O2  UNL A   1       9.730  50.649  13.768  1.00  0.00    +0.000 O 
BRANCH   22   20
ATOM    116  H18 UNL A   1       9.258  48.122  11.915  1.00  0.00    +0.000 H 
ATOM     20  C18 UNL A   1      10.010  48.631  12.480  1.00  0.00    +0.000 C 
BRANCH   20   19
ATOM      7  C6  UNL A   1      11.111  48.673  10.149  1.00  0.00    +0.000 C 
ATOM      8  C7  UNL A   1      12.273  48.810   9.358  1.00  0.00    +0.000 C 
ATOM      9  C8  UNL A   1      13.551  48.840   9.928  1.00  0.00    +0.000 C 
ATOM    104  H6  UNL A   1      12.177  48.890   8.334  1.00  0.00    +0.000 H 
ATOM     17  C15 UNL A   1      13.664  48.784  11.313  1.00  0.00    +0.000 C 
ATOM     18  C16 UNL A   1      12.525  48.683  12.109  1.00  0.00    +0.000 C 
ATOM     19  C17 UNL A   1      11.231  48.664  11.560  1.00  0.00    +0.000 C 
ATOM    115  H17 UNL A   1      12.634  48.621  13.133  1.00  0.00    +0.000 H 
ATOM    114  H16 UNL A   1      14.596  48.817  11.754  1.00  0.00    +0.000 H 
BRANCH    7    6
ATOM     97  C72 UNL A   1       9.198  49.157   8.568  1.00  0.00    +0.000 C 
ATOM     98  C73 UNL A   1       7.982  48.761   7.991  1.00  0.00    +0.000 C 
ATOM      3  C2  UNL A   1       7.408  47.513   8.280  1.00  0.00    +0.000 C 
ATOM      4  C3  UNL A   1       8.080  46.666   9.161  1.00  0.00    +0.000 C 
ATOM      5  C4  UNL A   1       9.284  47.063   9.743  1.00  0.00    +0.000 C 
ATOM    102  H4  UNL A   1       7.684  45.740   9.384  1.00  0.00    +0.000 H 
ATOM      6  C5  UNL A   1       9.861  48.312   9.461  1.00  0.00    +0.000 C 
ATOM    103  H5  UNL A   1       9.762  46.424  10.397  1.00  0.00    +0.000 H 
ATOM    148  H50 UNL A   1       9.605  50.075   8.331  1.00  0.00    +0.000 H 
ATOM    149  H51 UNL A   1       7.498  49.402   7.342  1.00  0.00    +0.000 H 
BRANCH    3    2
ATOM      2  S1  UNL A   1       5.842  47.120   7.511  1.00  0.00    +0.000 S 
BRANCH    2    1
ATOM      1  C1  UNL A   1       5.822  48.181   6.038  1.00  0.00    +0.000 C 
ATOM     99  H1  UNL A   1       6.805  48.225   5.617  1.00  0.00    +0.000 H 
ATOM    100  H2  UNL A   1       5.507  49.166   6.312  1.00  0.00    +0.000 H 
ATOM    101  H3  UNL A   1       5.143  47.777   5.316  1.00  0.00    +0.000 H 
ENDBRANCH    2    1
ENDBRANCH    3    2
ENDBRANCH    7    6
BRANCH    9   10
ATOM    105  H7  UNL A   1      14.586  48.151   8.233  1.00  0.00    +0.000 H 
ATOM     10  C9  UNL A   1      14.789  48.789   9.067  1.00  0.00    +0.000 C 
ATOM    106  H8  UNL A   1      15.575  48.429   9.698  1.00  0.00    +0.000 H 
BRANCH   10   11
ATOM     11  C10 UNL A   1      15.261  50.145   8.526  1.00  0.00    +0.000 C 
ATOM    108  H10 UNL A   1      15.203  51.015  10.496  1.00  0.00    +0.000 H 
ATOM     12  C11 UNL A   1      15.669  51.212   9.553  1.00  0.00    +0.000 C 
ATOM    107  H9  UNL A   1      14.384  50.453   7.997  1.00  0.00    +0.000 H 
ATOM     15  C14 UNL A   1      16.524  50.014   7.703  1.00  0.00    +0.000 C 
ATOM    109  H11 UNL A   1      15.361  52.189   9.243  1.00  0.00    +0.000 H 
ATOM     13  C12 UNL A   1      17.186  51.122   9.682  1.00  0.00    +0.000 C 
ATOM     14  C13 UNL A   1      17.680  50.782   8.284  1.00  0.00    +0.000 C 
ATOM     16  O1  UNL A   1      16.593  49.372   6.661  1.00  0.00    +0.000 O 
ATOM    110  H12 UNL A   1      17.459  50.353  10.374  1.00  0.00    +0.000 H 
ATOM    111  H13 UNL A   1      17.613  52.031  10.050  1.00  0.00    +0.000 H 
ATOM    112  H14 UNL A   1      18.564  50.181   8.322  1.00  0.00    +0.000 H 
ATOM    113  H15 UNL A   1      17.951  51.643   7.708  1.00  0.00    +0.000 H 
ENDBRANCH   10   11
ENDBRANCH    9   10
ENDBRANCH   20   19
BRANCH   20   21
ATOM    117  H19 UNL A   1      10.417  46.741  13.394  1.00  0.00    +0.000 H 
ATOM     21  C19 UNL A   1      10.138  47.726  13.706  1.00  0.00    +0.000 C 
ATOM    118  H20 UNL A   1       9.200  47.686  14.219  1.00  0.00    +0.000 H 
ATOM    119  H21 UNL A   1      10.886  48.119  14.362  1.00  0.00    +0.000 H 
ENDBRANCH   20   21
ENDBRANCH   22   20
ENDBRANCH   24   22
ENDBRANCH   25   24
ENDBRANCH   26   25
ENDBRANCH   27   26
ENDBRANCH   28   27
ENDBRANCH   29   28
ENDBRANCH   30   29
ENDBRANCH   31   30
ENDBRANCH   32   31
ENDBRANCH   34   32
ENDBRANCH   38   37
BRANCH   42   43
ATOM     43  C36 UNL A   1      12.034  47.941   5.408  1.00  0.00    +0.000 C 
ATOM     44  C37 UNL A   1      10.699  47.672   5.070  1.00  0.00    +0.000 C 
ATOM     45  F1  UNL A   1      10.070  48.423   4.155  1.00  0.00    +0.000 F 
ATOM     46  C38 UNL A   1       9.992  46.651   5.702  1.00  0.00    +0.000 C 
ATOM     47  F2  UNL A   1       8.705  46.441   5.395  1.00  0.00    +0.000 F 
ATOM     48  C39 UNL A   1      10.616  45.860   6.656  1.00  0.00    +0.000 C 
ATOM     49  F3  UNL A   1       9.936  44.875   7.257  1.00  0.00    +0.000 F 
ATOM     50  C40 UNL A   1      11.940  46.096   6.990  1.00  0.00    +0.000 C 
ATOM     51  F4  UNL A   1      12.546  45.326   7.904  1.00  0.00    +0.000 F 
ATOM     52  C41 UNL A   1      12.641  47.134   6.382  1.00  0.00    +0.000 C 
ATOM     53  F5  UNL A   1      13.917  47.346   6.737  1.00  0.00    +0.000 F 
ENDBRANCH   42   43
BRANCH   59   60
ATOM     65  C50 UNL A   1      17.504  47.126  -2.335  1.00  0.00    +0.000 C 
ATOM     66  F8  UNL A   1      18.009  46.378  -3.325  1.00  0.00    +0.000 F 
ATOM     67  C51 UNL A   1      18.266  47.392  -1.207  1.00  0.00    +0.000 C 
ATOM     68  F9  UNL A   1      19.514  46.914  -1.115  1.00  0.00    +0.000 F 
ATOM     69  C52 UNL A   1      17.735  48.151  -0.168  1.00  0.00    +0.000 C 
ATOM     70  F10 UNL A   1      18.491  48.381   0.916  1.00  0.00    +0.000 F 
ATOM     60  C47 UNL A   1      16.437  48.678  -0.251  1.00  0.00    +0.000 C 
ATOM     61  C48 UNL A   1      15.690  48.412  -1.407  1.00  0.00    +0.000 C 
ATOM     62  F6  UNL A   1      14.439  48.881  -1.525  1.00  0.00    +0.000 F 
ATOM     63  C49 UNL A   1      16.216  47.630  -2.433  1.00  0.00    +0.000 C 
ATOM     64  F7  UNL A   1      15.469  47.354  -3.510  1.00  0.00    +0.000 F 
ENDBRANCH   59   60
BRANCH   74   75
ATOM     75  C56 UNL A   1      17.323  55.387   1.386  1.00  0.00    +0.000 C 
ATOM     76  C57 UNL A   1      16.800  56.219   0.386  1.00  0.00    +0.000 C 
ATOM     77  F11 UNL A   1      15.556  56.015  -0.071  1.00  0.00    +0.000 F 
ATOM     78  C58 UNL A   1      17.567  57.238  -0.176  1.00  0.00    +0.000 C 
ATOM     79  F12 UNL A   1      17.058  57.993  -1.158  1.00  0.00    +0.000 F 
ATOM     80  C59 UNL A   1      18.861  57.461   0.272  1.00  0.00    +0.000 C 
ATOM     81  F13 UNL A   1      19.597  58.443  -0.265  1.00  0.00    +0.000 F 
ATOM     82  C60 UNL A   1      19.393  56.661   1.272  1.00  0.00    +0.000 C 
ATOM     83  F14 UNL A   1      20.637  56.882   1.715  1.00  0.00    +0.000 F 
ATOM     84  C61 UNL A   1      18.636  55.626   1.816  1.00  0.00    +0.000 C 
ATOM     85  F15 UNL A   1      19.178  54.861   2.775  1.00  0.00    +0.000 F 
ENDBRANCH   74   75
TORSDOF 22
ENDMDL
MODEL 10
REMARK VINA RESULT:      -7.5     17.919     24.903
ROOT
ATOM    136  H38 UNL A   1      39.863  28.246  26.774  1.00  0.00    +0.000 H 
ATOM    137  H39 UNL A   1      37.958  29.951  27.288  1.00  0.00    +0.000 H 
ATOM    138  H40 UNL A   1      40.219  29.454  30.720  1.00  0.00    +0.000 H 
ATOM    139  H41 UNL A   1      41.199  30.689  36.905  1.00  0.00    +0.000 H 
ATOM    140  H42 UNL A   1      43.071  29.050  36.393  1.00  0.00    +0.000 H 
ATOM    141  H43 UNL A   1      40.836  29.553  32.923  1.00  0.00    +0.000 H 
ATOM    142  H44 UNL A   1      37.283  32.929  34.043  1.00  0.00    +0.000 H 
ATOM    143  H45 UNL A   1      36.400  32.595  31.663  1.00  0.00    +0.000 H 
ATOM    144  H46 UNL A   1      43.960  26.297  29.639  1.00  0.00    +0.000 H 
ATOM    145  H47 UNL A   1      44.583  26.254  32.123  1.00  0.00    +0.000 H 
ATOM     38  C32 UNL A   1      43.077  28.077  33.713  1.00  0.00    +0.000 C 
ATOM     39  C33 UNL A   1      42.890  27.758  32.256  1.00  0.00    +0.000 C 
ATOM     40  N3  UNL A   1      42.012  28.234  31.409  1.00  0.00    +0.000 N 
ATOM     41  C34 UNL A   1      42.309  27.646  30.187  1.00  0.00    +0.000 C 
ATOM     42  C35 UNL A   1      41.656  27.777  29.006  1.00  0.00    +0.000 C 
ATOM     54  C42 UNL A   1      40.475  28.577  28.816  1.00  0.00    +0.000 C 
ATOM     55  C43 UNL A   1      39.704  28.723  27.676  1.00  0.00    +0.000 C 
ATOM     56  C44 UNL A   1      38.674  29.627  27.955  1.00  0.00    +0.000 C 
ATOM     57  C45 UNL A   1      38.780  30.014  29.282  1.00  0.00    +0.000 C 
ATOM     58  N4  UNL A   1      39.892  29.367  29.796  1.00  0.00    +0.000 N 
ATOM     59  C46 UNL A   1      37.930  30.907  30.026  1.00  0.00    +0.000 C 
ATOM     71  C53 UNL A   1      38.100  31.237  31.330  1.00  0.00    +0.000 C 
ATOM     72  N5  UNL A   1      39.078  30.810  32.217  1.00  0.00    +0.000 N 
ATOM     73  C54 UNL A   1      38.823  31.415  33.351  1.00  0.00    +0.000 C 
ATOM     74  C55 UNL A   1      39.543  31.306  34.667  1.00  0.00    +0.000 C 
ATOM     86  C62 UNL A   1      40.587  30.464  34.779  1.00  0.00    +0.000 C 
ATOM     87  C63 UNL A   1      41.372  30.244  35.990  1.00  0.00    +0.000 C 
ATOM     88  C64 UNL A   1      42.356  29.370  35.722  1.00  0.00    +0.000 C 
ATOM     89  C65 UNL A   1      42.250  28.946  34.325  1.00  0.00    +0.000 C 
ATOM     90  N6  UNL A   1      41.167  29.638  33.847  1.00  0.00    +0.000 N 
ATOM     91  C66 UNL A   1      37.665  32.318  33.303  1.00  0.00    +0.000 C 
ATOM     92  C67 UNL A   1      37.238  32.144  32.060  1.00  0.00    +0.000 C 
ATOM     93  C68 UNL A   1      43.474  26.813  30.389  1.00  0.00    +0.000 C 
ATOM     94  C69 UNL A   1      43.835  26.798  31.664  1.00  0.00    +0.000 C 
ENDROOT
BRANCH   38   37
ATOM     34  C28 UNL A   1      46.352  26.330  35.861  1.00  0.00    +0.000 C 
ATOM     35  C29 UNL A   1      46.506  27.587  35.266  1.00  0.00    +0.000 C 
ATOM     36  C30 UNL A   1      45.436  28.171  34.584  1.00  0.00    +0.000 C 
ATOM     37  C31 UNL A   1      44.214  27.491  34.467  1.00  0.00    +0.000 C 
ATOM    134  H36 UNL A   1      47.409  28.082  35.331  1.00  0.00    +0.000 H 
ATOM    135  H37 UNL A   1      45.544  29.108  34.165  1.00  0.00    +0.000 H 
ATOM    146  H48 UNL A   1      43.174  25.725  34.992  1.00  0.00    +0.000 H 
ATOM    147  H49 UNL A   1      44.977  24.794  36.318  1.00  0.00    +0.000 H 
ATOM     95  C70 UNL A   1      44.065  26.237  35.082  1.00  0.00    +0.000 C 
ATOM     96  C71 UNL A   1      45.114  25.683  35.813  1.00  0.00    +0.000 C 
BRANCH   34   32
ATOM     33  O3  UNL A   1      48.350  25.116  35.980  1.00  0.00    +0.000 O 
ATOM     32  C27 UNL A   1      47.500  25.742  36.591  1.00  0.00    +0.000 C 
BRANCH   32   31
ATOM    133  H35 UNL A   1      48.386  25.462  38.367  1.00  0.00    +0.000 H 
ATOM     31  N2  UNL A   1      47.615  25.910  37.951  1.00  0.00    +0.000 N 
BRANCH   31   30
ATOM    131  H33 UNL A   1      45.890  26.977  38.330  1.00  0.00    +0.000 H 
ATOM    132  H34 UNL A   1      46.498  26.006  39.673  1.00  0.00    +0.000 H 
ATOM     30  C26 UNL A   1      46.761  26.653  38.861  1.00  0.00    +0.000 C 
BRANCH   30   29
ATOM    129  H31 UNL A   1      48.500  27.626  39.583  1.00  0.00    +0.000 H 
ATOM    130  H32 UNL A   1      47.319  28.670  38.741  1.00  0.00    +0.000 H 
ATOM     29  C25 UNL A   1      47.469  27.876  39.441  1.00  0.00    +0.000 C 
BRANCH   29   28
ATOM     28  C24 UNL A   1      46.910  28.369  40.781  1.00  0.00    +0.000 C 
ATOM    127  H29 UNL A   1      45.843  28.370  40.711  1.00  0.00    +0.000 H 
ATOM    128  H30 UNL A   1      47.296  27.699  41.522  1.00  0.00    +0.000 H 
BRANCH   28   27
ATOM     27  C23 UNL A   1      47.356  29.772  41.212  1.00  0.00    +0.000 C 
ATOM    125  H27 UNL A   1      46.568  30.457  40.977  1.00  0.00    +0.000 H 
ATOM    126  H28 UNL A   1      47.568  29.708  42.259  1.00  0.00    +0.000 H 
BRANCH   27   26
ATOM     26  C22 UNL A   1      48.640  30.279  40.548  1.00  0.00    +0.000 C 
ATOM    123  H25 UNL A   1      49.359  30.474  41.315  1.00  0.00    +0.000 H 
ATOM    124  H26 UNL A   1      48.957  29.516  39.868  1.00  0.00    +0.000 H 
BRANCH   26   25
ATOM     25  C21 UNL A   1      48.456  31.556  39.723  1.00  0.00    +0.000 C 
ATOM    122  H24 UNL A   1      48.869  31.387  38.751  1.00  0.00    +0.000 H 
ATOM    121  H23 UNL A   1      48.955  32.363  40.218  1.00  0.00    +0.000 H 
BRANCH   25   24
ATOM    120  H22 UNL A   1      46.529  31.814  40.392  1.00  0.00    +0.000 H 
ATOM     24  N1  UNL A   1      47.059  31.896  39.566  1.00  0.00    +0.000 N 
BRANCH   24   22
ATOM     22  C20 UNL A   1      46.342  32.309  38.484  1.00  0.00    +0.000 C 
ATOM     23  O2  UNL A   1      46.749  33.339  37.932  1.00  0.00    +0.000 O 
BRANCH   22   20
ATOM    116  H18 UNL A   1      44.336  31.778  38.677  1.00  0.00    +0.000 H 
ATOM     20  C18 UNL A   1      45.094  31.587  37.946  1.00  0.00    +0.000 C 
BRANCH   20   19
ATOM      7  C6  UNL A   1      43.585  33.237  36.663  1.00  0.00    +0.000 C 
ATOM      8  C7  UNL A   1      43.208  33.838  35.443  1.00  0.00    +0.000 C 
ATOM      9  C8  UNL A   1      43.694  33.376  34.215  1.00  0.00    +0.000 C 
ATOM    104  H6  UNL A   1      42.556  34.639  35.457  1.00  0.00    +0.000 H 
ATOM     17  C15 UNL A   1      44.611  32.331  34.212  1.00  0.00    +0.000 C 
ATOM     18  C16 UNL A   1      45.020  31.750  35.410  1.00  0.00    +0.000 C 
ATOM     19  C17 UNL A   1      44.556  32.205  36.656  1.00  0.00    +0.000 C 
ATOM    115  H17 UNL A   1      45.684  30.961  35.383  1.00  0.00    +0.000 H 
ATOM    114  H16 UNL A   1      44.991  31.983  33.318  1.00  0.00    +0.000 H 
BRANCH    7    6
ATOM     97  C72 UNL A   1      42.657  34.842  38.382  1.00  0.00    +0.000 C 
ATOM     98  C73 UNL A   1      41.912  35.057  39.552  1.00  0.00    +0.000 C 
ATOM      3  C2  UNL A   1      41.264  34.000  40.210  1.00  0.00    +0.000 C 
ATOM      4  C3  UNL A   1      41.378  32.719  39.672  1.00  0.00    +0.000 C 
ATOM      5  C4  UNL A   1      42.128  32.502  38.514  1.00  0.00    +0.000 C 
ATOM    102  H4  UNL A   1      40.905  31.925  40.132  1.00  0.00    +0.000 H 
ATOM      6  C5  UNL A   1      42.780  33.556  37.853  1.00  0.00    +0.000 C 
ATOM    103  H5  UNL A   1      42.204  31.546  38.136  1.00  0.00    +0.000 H 
ATOM    148  H50 UNL A   1      43.114  35.638  37.910  1.00  0.00    +0.000 H 
ATOM    149  H51 UNL A   1      41.840  36.012  39.937  1.00  0.00    +0.000 H 
BRANCH    3    2
ATOM      2  S1  UNL A   1      40.364  34.380  41.709  1.00  0.00    +0.000 S 
BRANCH    2    1
ATOM      1  C1  UNL A   1      39.306  32.923  41.941  1.00  0.00    +0.000 C 
ATOM     99  H1  UNL A   1      39.850  32.168  42.468  1.00  0.00    +0.000 H 
ATOM    100  H2  UNL A   1      39.005  32.546  40.986  1.00  0.00    +0.000 H 
ATOM    101  H3  UNL A   1      38.439  33.199  42.505  1.00  0.00    +0.000 H 
ENDBRANCH    2    1
ENDBRANCH    3    2
ENDBRANCH    7    6
BRANCH    9   10
ATOM    105  H7  UNL A   1      43.884  33.767  32.158  1.00  0.00    +0.000 H 
ATOM     10  C9  UNL A   1      43.136  33.893  32.911  1.00  0.00    +0.000 C 
ATOM    106  H8  UNL A   1      42.873  34.916  33.084  1.00  0.00    +0.000 H 
BRANCH   10   11
ATOM     11  C10 UNL A   1      41.854  33.196  32.431  1.00  0.00    +0.000 C 
ATOM    108  H10 UNL A   1      40.819  35.080  32.283  1.00  0.00    +0.000 H 
ATOM     12  C11 UNL A   1      40.726  34.088  31.892  1.00  0.00    +0.000 C 
ATOM    107  H9  UNL A   1      41.550  32.716  33.336  1.00  0.00    +0.000 H 
ATOM     15  C14 UNL A   1      42.118  32.288  31.250  1.00  0.00    +0.000 C 
ATOM    109  H11 UNL A   1      39.765  33.719  32.184  1.00  0.00    +0.000 H 
ATOM     13  C12 UNL A   1      40.880  34.100  30.375  1.00  0.00    +0.000 C 
ATOM     14  C13 UNL A   1      41.360  32.702  30.017  1.00  0.00    +0.000 C 
ATOM     16  O1  UNL A   1      42.848  31.305  31.298  1.00  0.00    +0.000 O 
ATOM    110  H12 UNL A   1      41.600  34.833  30.076  1.00  0.00    +0.000 H 
ATOM    111  H13 UNL A   1      39.965  34.350  29.880  1.00  0.00    +0.000 H 
ATOM    112  H14 UNL A   1      41.999  32.721  29.159  1.00  0.00    +0.000 H 
ATOM    113  H15 UNL A   1      40.566  32.032  29.760  1.00  0.00    +0.000 H 
ENDBRANCH   10   11
ENDBRANCH    9   10
ENDBRANCH   20   19
BRANCH   20   21
ATOM    117  H19 UNL A   1      45.433  29.703  36.993  1.00  0.00    +0.000 H 
ATOM     21  C19 UNL A   1      45.157  30.059  37.964  1.00  0.00    +0.000 C 
ATOM    118  H20 UNL A   1      44.199  29.665  38.230  1.00  0.00    +0.000 H 
ATOM    119  H21 UNL A   1      45.885  29.741  38.681  1.00  0.00    +0.000 H 
ENDBRANCH   20   21
ENDBRANCH   22   20
ENDBRANCH   24   22
ENDBRANCH   25   24
ENDBRANCH   26   25
ENDBRANCH   27   26
ENDBRANCH   28   27
ENDBRANCH   29   28
ENDBRANCH   30   29
ENDBRANCH   31   30
ENDBRANCH   32   31
ENDBRANCH   34   32
ENDBRANCH   38   37
BRANCH   42   43
ATOM     43  C36 UNL A   1      42.203  27.030  27.825  1.00  0.00    +0.000 C 
ATOM     44  C37 UNL A   1      41.794  25.720  27.532  1.00  0.00    +0.000 C 
ATOM     45  F1  UNL A   1      40.933  25.085  28.339  1.00  0.00    +0.000 F 
ATOM     46  C38 UNL A   1      42.300  25.043  26.424  1.00  0.00    +0.000 C 
ATOM     47  F2  UNL A   1      41.930  23.777  26.189  1.00  0.00    +0.000 F 
ATOM     48  C39 UNL A   1      43.196  25.674  25.573  1.00  0.00    +0.000 C 
ATOM     49  F3  UNL A   1      43.677  25.023  24.505  1.00  0.00    +0.000 F 
ATOM     50  C40 UNL A   1      43.598  26.974  25.834  1.00  0.00    +0.000 C 
ATOM     51  F4  UNL A   1      44.455  27.588  25.005  1.00  0.00    +0.000 F 
ATOM     52  C41 UNL A   1      43.116  27.644  26.955  1.00  0.00    +0.000 C 
ATOM     53  F5  UNL A   1      43.534  28.897  27.188  1.00  0.00    +0.000 F 
ENDBRANCH   42   43
BRANCH   59   60
ATOM     65  C50 UNL A   1      34.561  32.589  27.933  1.00  0.00    +0.000 C 
ATOM     66  F8  UNL A   1      33.512  33.108  27.282  1.00  0.00    +0.000 F 
ATOM     67  C51 UNL A   1      34.574  31.244  28.271  1.00  0.00    +0.000 C 
ATOM     68  F9  UNL A   1      33.542  30.460  27.931  1.00  0.00    +0.000 F 
ATOM     69  C52 UNL A   1      35.654  30.708  28.966  1.00  0.00    +0.000 C 
ATOM     70  F10 UNL A   1      35.632  29.407  29.290  1.00  0.00    +0.000 F 
ATOM     60  C47 UNL A   1      36.754  31.506  29.315  1.00  0.00    +0.000 C 
ATOM     61  C48 UNL A   1      36.730  32.860  28.949  1.00  0.00    +0.000 C 
ATOM     62  F6  UNL A   1      37.751  33.666  29.274  1.00  0.00    +0.000 F 
ATOM     63  C49 UNL A   1      35.635  33.397  28.276  1.00  0.00    +0.000 C 
ATOM     64  F7  UNL A   1      35.614  34.703  27.973  1.00  0.00    +0.000 F 
ENDBRANCH   59   60
BRANCH   74   75
ATOM     75  C56 UNL A   1      39.097  32.091  35.846  1.00  0.00    +0.000 C 
ATOM     76  C57 UNL A   1      38.272  31.513  36.821  1.00  0.00    +0.000 C 
ATOM     77  F11 UNL A   1      37.859  30.244  36.681  1.00  0.00    +0.000 F 
ATOM     78  C58 UNL A   1      37.836  32.247  37.922  1.00  0.00    +0.000 C 
ATOM     79  F12 UNL A   1      37.015  31.684  38.818  1.00  0.00    +0.000 F 
ATOM     80  C59 UNL A   1      38.240  33.564  38.083  1.00  0.00    +0.000 C 
ATOM     81  F13 UNL A   1      37.826  34.269  39.144  1.00  0.00    +0.000 F 
ATOM     82  C60 UNL A   1      39.070  34.151  37.139  1.00  0.00    +0.000 C 
ATOM     83  F14 UNL A   1      39.473  35.419  37.298  1.00  0.00    +0.000 F 
ATOM     84  C61 UNL A   1      39.485  33.426  36.025  1.00  0.00    +0.000 C 
ATOM     85  F15 UNL A   1      40.280  34.021  35.123  1.00  0.00    +0.000 F 
ENDBRANCH   74   75
TORSDOF 22
ENDMDL
