MODEL 1
REMARK VINA RESULT:     -11.6      0.000      0.000
ROOT
ATOM    129  H32 UNL A   1      50.803  22.499  15.050  1.00  0.00    +0.000 H 
ATOM    130  H33 UNL A   1      50.468  21.525  12.705  1.00  0.00    +0.000 H 
ATOM     28  C21 UNL A   1      52.802  20.297  11.632  1.00  0.00    +0.000 C 
ATOM     29  C22 UNL A   1      52.616  20.864  13.010  1.00  0.00    +0.000 C 
ATOM     30  N4  UNL A   1      53.465  20.918  14.005  1.00  0.00    +0.000 N 
ATOM     31  C23 UNL A   1      52.804  21.581  15.030  1.00  0.00    +0.000 C 
ATOM     32  C24 UNL A   1      53.243  21.844  16.284  1.00  0.00    +0.000 C 
ATOM     44  C31 UNL A   1      54.532  21.454  16.791  1.00  0.00    +0.000 C 
ATOM     45  C32 UNL A   1      55.037  21.605  18.072  1.00  0.00    +0.000 C 
ATOM     46  C33 UNL A   1      56.348  21.119  18.084  1.00  0.00    +0.000 C 
ATOM     47  C34 UNL A   1      56.647  20.630  16.822  1.00  0.00    +0.000 C 
ATOM     48  N5  UNL A   1      55.522  20.838  16.041  1.00  0.00    +0.000 N 
ATOM     49  C35 UNL A   1      57.870  20.028  16.359  1.00  0.00    +0.000 C 
ATOM     61  C42 UNL A   1      58.063  19.513  15.120  1.00  0.00    +0.000 C 
ATOM     62  N6  UNL A   1      57.177  19.454  14.054  1.00  0.00    +0.000 N 
ATOM     63  C43 UNL A   1      57.831  18.880  13.075  1.00  0.00    +0.000 C 
ATOM     64  C44 UNL A   1      57.359  18.551  11.685  1.00  0.00    +0.000 C 
ATOM     76  C51 UNL A   1      56.096  18.851  11.328  1.00  0.00    +0.000 C 
ATOM     77  C52 UNL A   1      55.510  18.613  10.012  1.00  0.00    +0.000 C 
ATOM     78  C53 UNL A   1      54.267  19.121   9.989  1.00  0.00    +0.000 C 
ATOM     79  C54 UNL A   1      53.954  19.682  11.304  1.00  0.00    +0.000 C 
ATOM     80  N7  UNL A   1      55.086  19.447  12.044  1.00  0.00    +0.000 N 
ATOM     81  C55 UNL A   1      59.218  18.524  13.405  1.00  0.00    +0.000 C 
ATOM     82  C56 UNL A   1      59.298  18.904  14.673  1.00  0.00    +0.000 C 
ATOM     83  C57 UNL A   1      51.498  21.945  14.525  1.00  0.00    +0.000 C 
ATOM     84  C58 UNL A   1      51.310  21.475  13.300  1.00  0.00    +0.000 C 
ATOM    121  H24 UNL A   1      54.532  22.006  18.878  1.00  0.00    +0.000 H 
ATOM    122  H25 UNL A   1      56.986  21.123  18.896  1.00  0.00    +0.000 H 
ATOM    123  H26 UNL A   1      55.437  20.584  15.093  1.00  0.00    +0.000 H 
ATOM    124  H27 UNL A   1      55.976  18.134   9.227  1.00  0.00    +0.000 H 
ATOM    125  H28 UNL A   1      53.634  19.115   9.174  1.00  0.00    +0.000 H 
ATOM    126  H29 UNL A   1      55.167  19.682  12.997  1.00  0.00    +0.000 H 
ATOM    127  H30 UNL A   1      59.940  18.091  12.807  1.00  0.00    +0.000 H 
ATOM    128  H31 UNL A   1      60.134  18.781  15.265  1.00  0.00    +0.000 H 
ENDROOT
BRANCH   28   27
ATOM    131  H34 UNL A   1      52.444  22.409  10.036  1.00  0.00    +0.000 H 
ATOM    132  H35 UNL A   1      50.748  22.765   8.342  1.00  0.00    +0.000 H 
ATOM     27  C20 UNL A   1      51.755  20.490  10.599  1.00  0.00    +0.000 C 
ATOM     85  C59 UNL A   1      51.744  21.676   9.847  1.00  0.00    +0.000 C 
ATOM     86  C60 UNL A   1      50.793  21.867   8.848  1.00  0.00    +0.000 C 
ATOM    119  H22 UNL A   1      49.174  18.939   9.104  1.00  0.00    +0.000 H 
ATOM     24  C17 UNL A   1      49.898  20.840   8.535  1.00  0.00    +0.000 C 
ATOM     25  C18 UNL A   1      49.870  19.674   9.304  1.00  0.00    +0.000 C 
ATOM     26  C19 UNL A   1      50.788  19.505  10.344  1.00  0.00    +0.000 C 
ATOM    120  H23 UNL A   1      50.755  18.655  10.927  1.00  0.00    +0.000 H 
BRANCH   24   22
ATOM     22  C16 UNL A   1      48.956  20.973   7.403  1.00  0.00    +0.000 C 
ATOM     23  O4  UNL A   1      48.243  21.970   7.319  1.00  0.00    +0.000 O 
BRANCH   22   21
ATOM     21  N3  UNL A   1      48.872  19.983   6.456  1.00  0.00    +0.000 N 
ATOM    118  H21 UNL A   1      49.503  20.063   5.705  1.00  0.00    +0.000 H 
BRANCH   21   20
ATOM    116  H19 UNL A   1      48.321  18.103   7.113  1.00  0.00    +0.000 H 
ATOM     20  C15 UNL A   1      47.984  18.831   6.404  1.00  0.00    +0.000 C 
ATOM    117  H20 UNL A   1      46.994  19.167   6.633  1.00  0.00    +0.000 H 
BRANCH   20   19
ATOM    114  H17 UNL A   1      47.945  18.973   4.290  1.00  0.00    +0.000 H 
ATOM     19  C14 UNL A   1      47.954  18.190   5.018  1.00  0.00    +0.000 C 
ATOM    115  H18 UNL A   1      48.819  17.565   4.956  1.00  0.00    +0.000 H 
BRANCH   19   18
ATOM    113  H16 UNL A   1      46.438  16.919   5.716  1.00  0.00    +0.000 H 
ATOM     18  C13 UNL A   1      46.746  17.284   4.759  1.00  0.00    +0.000 C 
ATOM    112  H15 UNL A   1      47.052  16.512   4.084  1.00  0.00    +0.000 H 
BRANCH   18   17
ATOM     17  C12 UNL A   1      45.521  17.982   4.156  1.00  0.00    +0.000 C 
ATOM    110  H13 UNL A   1      45.094  17.328   3.424  1.00  0.00    +0.000 H 
ATOM    111  H14 UNL A   1      44.865  18.191   4.975  1.00  0.00    +0.000 H 
BRANCH   17   16
ATOM    108  H11 UNL A   1      46.750  19.691   3.829  1.00  0.00    +0.000 H 
ATOM    109  H12 UNL A   1      45.798  19.160   2.424  1.00  0.00    +0.000 H 
ATOM     16  C11 UNL A   1      45.805  19.330   3.481  1.00  0.00    +0.000 C 
BRANCH   16   15
ATOM    106  H9  UNL A   1      44.182  20.101   4.632  1.00  0.00    +0.000 H 
ATOM    107  H10 UNL A   1      45.238  21.328   3.940  1.00  0.00    +0.000 H 
ATOM     15  C10 UNL A   1      44.744  20.395   3.770  1.00  0.00    +0.000 C 
BRANCH   15   14
ATOM    105  H8  UNL A   1      43.866  21.427   2.199  1.00  0.00    +0.000 H 
ATOM     14  N2  UNL A   1      43.840  20.552   2.648  1.00  0.00    +0.000 N 
BRANCH   14   12
ATOM     12  C9  UNL A   1      42.955  19.647   2.131  1.00  0.00    +0.000 C 
ATOM     13  O3  UNL A   1      43.364  18.859   1.275  1.00  0.00    +0.000 O 
BRANCH   12   11
ATOM     11  C8  UNL A   1      41.491  19.693   2.525  1.00  0.00    +0.000 C 
ATOM    103  H6  UNL A   1      41.143  18.691   2.666  1.00  0.00    +0.000 H 
ATOM    104  H7  UNL A   1      41.415  20.266   3.426  1.00  0.00    +0.000 H 
BRANCH   11   10
ATOM      7  C6  UNL A   1      39.162  21.247   0.116  1.00  0.00    +0.000 C 
ATOM      8  N1  UNL A   1      40.319  21.177  -0.558  1.00  0.00    +0.000 N 
ATOM      9  O2  UNL A   1      41.243  20.641   0.315  1.00  0.00    +0.000 O 
ATOM     10  C7  UNL A   1      40.645  20.351   1.502  1.00  0.00    +0.000 C 
ATOM     87  C61 UNL A   1      39.324  20.750   1.445  1.00  0.00    +0.000 C 
BRANCH    7    6
ATOM     97  C70 UNL A   1      36.628  23.553  -1.451  1.00  0.00    +0.000 C 
ATOM      3  C2  UNL A   1      35.506  22.727  -1.513  1.00  0.00    +0.000 C 
ATOM      4  C3  UNL A   1      35.606  21.401  -1.084  1.00  0.00    +0.000 C 
ATOM    101  H4  UNL A   1      34.778  20.786  -1.129  1.00  0.00    +0.000 H 
ATOM      5  C4  UNL A   1      36.814  20.899  -0.595  1.00  0.00    +0.000 C 
ATOM    102  H5  UNL A   1      36.879  19.913  -0.295  1.00  0.00    +0.000 H 
ATOM      6  C5  UNL A   1      37.936  21.730  -0.509  1.00  0.00    +0.000 C 
ATOM    140  H43 UNL A   1      38.665  23.670  -0.913  1.00  0.00    +0.000 H 
ATOM    141  H44 UNL A   1      36.566  24.531  -1.772  1.00  0.00    +0.000 H 
ATOM     96  C69 UNL A   1      37.837  23.055  -0.953  1.00  0.00    +0.000 C 
BRANCH    3    2
ATOM      2  O1  UNL A   1      34.263  23.100  -1.946  1.00  0.00    +0.000 O 
BRANCH    2    1
ATOM      1  C1  UNL A   1      33.750  22.407  -3.076  1.00  0.00    +0.000 C 
ATOM     98  H1  UNL A   1      34.506  22.347  -3.831  1.00  0.00    +0.000 H 
ATOM     99  H2  UNL A   1      32.902  22.932  -3.462  1.00  0.00    +0.000 H 
ATOM    100  H3  UNL A   1      33.457  21.419  -2.786  1.00  0.00    +0.000 H 
ENDBRANCH    2    1
ENDBRANCH    3    2
ENDBRANCH    7    6
BRANCH   87   88
ATOM    133  H36 UNL A   1      38.653  18.445   2.586  1.00  0.00    +0.000 H 
ATOM    134  H37 UNL A   1      37.024  18.056   4.333  1.00  0.00    +0.000 H 
ATOM    138  H41 UNL A   1      36.126  22.155   4.428  1.00  0.00    +0.000 H 
ATOM    139  H42 UNL A   1      37.754  22.552   2.670  1.00  0.00    +0.000 H 
ATOM     88  C62 UNL A   1      38.344  20.532   2.493  1.00  0.00    +0.000 C 
ATOM     89  C63 UNL A   1      38.120  19.237   2.976  1.00  0.00    +0.000 C 
ATOM     90  C64 UNL A   1      37.180  19.014   3.983  1.00  0.00    +0.000 C 
ATOM     91  C65 UNL A   1      36.450  20.074   4.522  1.00  0.00    +0.000 C 
ATOM     94  C67 UNL A   1      36.664  21.366   4.038  1.00  0.00    +0.000 C 
ATOM     95  C68 UNL A   1      37.605  21.594   3.025  1.00  0.00    +0.000 C 
BRANCH   91   92
ATOM     92  O5  UNL A   1      35.568  19.713   5.501  1.00  0.00    +0.000 O 
BRANCH   92   93
ATOM    137  H40 UNL A   1      35.512  17.674   5.383  1.00  0.00    +0.000 H 
ATOM     93  C66 UNL A   1      34.844  18.506   5.308  1.00  0.00    +0.000 C 
ATOM    135  H38 UNL A   1      34.392  18.513   4.339  1.00  0.00    +0.000 H 
ATOM    136  H39 UNL A   1      34.085  18.421   6.056  1.00  0.00    +0.000 H 
ENDBRANCH   92   93
ENDBRANCH   91   92
ENDBRANCH   87   88
ENDBRANCH   11   10
ENDBRANCH   12   11
ENDBRANCH   14   12
ENDBRANCH   15   14
ENDBRANCH   16   15
ENDBRANCH   17   16
ENDBRANCH   18   17
ENDBRANCH   19   18
ENDBRANCH   20   19
ENDBRANCH   21   20
ENDBRANCH   22   21
ENDBRANCH   24   22
ENDBRANCH   28   27
BRANCH   32   33
ATOM     33  C25 UNL A   1      52.320  22.592  17.199  1.00  0.00    +0.000 C 
ATOM     34  C26 UNL A   1      51.541  21.928  18.159  1.00  0.00    +0.000 C 
ATOM     35  F1  UNL A   1      51.570  20.589  18.243  1.00  0.00    +0.000 F 
ATOM     36  C27 UNL A   1      50.703  22.637  19.015  1.00  0.00    +0.000 C 
ATOM     37  F2  UNL A   1      49.938  21.978  19.897  1.00  0.00    +0.000 F 
ATOM     38  C28 UNL A   1      50.649  24.021  18.950  1.00  0.00    +0.000 C 
ATOM     39  F3  UNL A   1      49.848  24.702  19.781  1.00  0.00    +0.000 F 
ATOM     40  C29 UNL A   1      51.425  24.699  18.022  1.00  0.00    +0.000 C 
ATOM     41  F4  UNL A   1      51.384  26.038  17.966  1.00  0.00    +0.000 F 
ATOM     42  C30 UNL A   1      52.245  23.992  17.146  1.00  0.00    +0.000 C 
ATOM     43  F5  UNL A   1      52.974  24.675  16.252  1.00  0.00    +0.000 F 
ENDBRANCH   32   33
BRANCH   49   50
ATOM     50  C36 UNL A   1      59.017  19.948  17.321  1.00  0.00    +0.000 C 
ATOM     51  C37 UNL A   1      59.743  21.091  17.686  1.00  0.00    +0.000 C 
ATOM     52  F6  UNL A   1      59.463  22.277  17.123  1.00  0.00    +0.000 F 
ATOM     53  C38 UNL A   1      60.782  21.012  18.608  1.00  0.00    +0.000 C 
ATOM     54  F7  UNL A   1      61.487  22.110  18.917  1.00  0.00    +0.000 F 
ATOM     55  C39 UNL A   1      61.096  19.799  19.203  1.00  0.00    +0.000 C 
ATOM     56  F8  UNL A   1      62.090  19.727  20.098  1.00  0.00    +0.000 F 
ATOM     57  C40 UNL A   1      60.383  18.658  18.863  1.00  0.00    +0.000 C 
ATOM     58  F9  UNL A   1      60.679  17.487  19.444  1.00  0.00    +0.000 F 
ATOM     59  C41 UNL A   1      59.360  18.729  17.923  1.00  0.00    +0.000 C 
ATOM     60  F10 UNL A   1      58.692  17.608  17.609  1.00  0.00    +0.000 F 
ENDBRANCH   49   50
BRANCH   64   65
ATOM     65  C45 UNL A   1      58.266  17.894  10.710  1.00  0.00    +0.000 C 
ATOM     66  C46 UNL A   1      59.082  18.656   9.863  1.00  0.00    +0.000 C 
ATOM     67  F11 UNL A   1      59.026  19.995   9.910  1.00  0.00    +0.000 F 
ATOM     68  C47 UNL A   1      59.928  18.047   8.940  1.00  0.00    +0.000 C 
ATOM     69  F12 UNL A   1      60.669  18.799   8.115  1.00  0.00    +0.000 F 
ATOM     70  C48 UNL A   1      59.994  16.663   8.865  1.00  0.00    +0.000 C 
ATOM     71  F13 UNL A   1      60.813  16.077   7.980  1.00  0.00    +0.000 F 
ATOM     72  C49 UNL A   1      59.206  15.889   9.701  1.00  0.00    +0.000 C 
ATOM     73  F14 UNL A   1      59.276  14.552   9.638  1.00  0.00    +0.000 F 
ATOM     74  C50 UNL A   1      58.341  16.497  10.608  1.00  0.00    +0.000 C 
ATOM     75  F15 UNL A   1      57.582  15.724  11.399  1.00  0.00    +0.000 F 
ENDBRANCH   64   65
TORSDOF 22
ENDMDL
MODEL 2
REMARK VINA RESULT:     -11.6     39.646     46.772
ROOT
ATOM    129  H32 UNL A   1      29.049  34.140  42.884  1.00  0.00    +0.000 H 
ATOM    130  H33 UNL A   1      26.601  33.838  43.578  1.00  0.00    +0.000 H 
ATOM     28  C21 UNL A   1      25.723  35.720  45.525  1.00  0.00    +0.000 C 
ATOM     29  C22 UNL A   1      27.051  35.678  44.825  1.00  0.00    +0.000 C 
ATOM     30  N4  UNL A   1      28.077  36.482  44.947  1.00  0.00    +0.000 N 
ATOM     31  C23 UNL A   1      29.059  35.970  44.109  1.00  0.00    +0.000 C 
ATOM     32  C24 UNL A   1      30.289  36.472  43.849  1.00  0.00    +0.000 C 
ATOM     44  C31 UNL A   1      30.808  37.686  44.421  1.00  0.00    +0.000 C 
ATOM     45  C32 UNL A   1      32.012  38.318  44.158  1.00  0.00    +0.000 C 
ATOM     46  C33 UNL A   1      32.105  39.442  44.986  1.00  0.00    +0.000 C 
ATOM     47  C34 UNL A   1      30.944  39.531  45.737  1.00  0.00    +0.000 C 
ATOM     48  N5  UNL A   1      30.155  38.451  45.376  1.00  0.00    +0.000 N 
ATOM     49  C35 UNL A   1      30.583  40.522  46.718  1.00  0.00    +0.000 C 
ATOM     61  C42 UNL A   1      29.394  40.577  47.366  1.00  0.00    +0.000 C 
ATOM     62  N6  UNL A   1      28.300  39.731  47.253  1.00  0.00    +0.000 N 
ATOM     63  C43 UNL A   1      27.403  40.189  48.090  1.00  0.00    +0.000 C 
ATOM     64  C44 UNL A   1      26.021  39.668  48.378  1.00  0.00    +0.000 C 
ATOM     76  C51 UNL A   1      25.571  38.589  47.711  1.00  0.00    +0.000 C 
ATOM     77  C52 UNL A   1      24.267  37.961  47.902  1.00  0.00    +0.000 C 
ATOM     78  C53 UNL A   1      24.197  36.858  47.139  1.00  0.00    +0.000 C 
ATOM     79  C54 UNL A   1      25.437  36.726  46.373  1.00  0.00    +0.000 C 
ATOM     80  N7  UNL A   1      26.180  37.816  46.753  1.00  0.00    +0.000 N 
ATOM     81  C55 UNL A   1      27.836  41.373  48.846  1.00  0.00    +0.000 C 
ATOM     82  C56 UNL A   1      29.044  41.585  48.344  1.00  0.00    +0.000 C 
ATOM     83  C57 UNL A   1      28.521  34.767  43.513  1.00  0.00    +0.000 C 
ATOM     84  C58 UNL A   1      27.261  34.573  43.878  1.00  0.00    +0.000 C 
ATOM    121  H24 UNL A   1      32.718  38.013  43.470  1.00  0.00    +0.000 H 
ATOM    122  H25 UNL A   1      32.904  40.094  45.031  1.00  0.00    +0.000 H 
ATOM    123  H26 UNL A   1      29.263  38.255  45.743  1.00  0.00    +0.000 H 
ATOM    124  H27 UNL A   1      23.520  38.308  48.523  1.00  0.00    +0.000 H 
ATOM    125  H28 UNL A   1      23.396  36.208  47.100  1.00  0.00    +0.000 H 
ATOM    126  H29 UNL A   1      27.065  38.024  46.374  1.00  0.00    +0.000 H 
ATOM    127  H30 UNL A   1      27.331  41.900  49.576  1.00  0.00    +0.000 H 
ATOM    128  H31 UNL A   1      29.657  42.369  48.616  1.00  0.00    +0.000 H 
ENDROOT
BRANCH   28   27
ATOM    131  H34 UNL A   1      23.677  35.570  43.815  1.00  0.00    +0.000 H 
ATOM    132  H35 UNL A   1      22.075  33.776  43.513  1.00  0.00    +0.000 H 
ATOM     27  C20 UNL A   1      24.756  34.607  45.358  1.00  0.00    +0.000 C 
ATOM     85  C59 UNL A   1      23.751  34.713  44.385  1.00  0.00    +0.000 C 
ATOM     86  C60 UNL A   1      22.851  33.669  44.184  1.00  0.00    +0.000 C 
ATOM    119  H22 UNL A   1      24.047  31.510  46.458  1.00  0.00    +0.000 H 
ATOM     24  C17 UNL A   1      23.002  32.475  44.896  1.00  0.00    +0.000 C 
ATOM     25  C18 UNL A   1      23.971  32.374  45.898  1.00  0.00    +0.000 C 
ATOM     26  C19 UNL A   1      24.838  33.443  46.138  1.00  0.00    +0.000 C 
ATOM    120  H23 UNL A   1      25.539  33.378  46.892  1.00  0.00    +0.000 H 
BRANCH   24   22
ATOM     22  C16 UNL A   1      22.134  31.311  44.619  1.00  0.00    +0.000 C 
ATOM     23  O4  UNL A   1      22.604  30.177  44.665  1.00  0.00    +0.000 O 
BRANCH   22   21
ATOM     21  N3  UNL A   1      20.812  31.498  44.303  1.00  0.00    +0.000 N 
ATOM    118  H21 UNL A   1      20.600  31.467  43.342  1.00  0.00    +0.000 H 
BRANCH   21   20
ATOM    116  H19 UNL A   1      19.160  30.813  45.338  1.00  0.00    +0.000 H 
ATOM     20  C15 UNL A   1      19.678  31.737  45.184  1.00  0.00    +0.000 C 
ATOM    117  H20 UNL A   1      20.053  32.130  46.105  1.00  0.00    +0.000 H 
BRANCH   20   19
ATOM    114  H17 UNL A   1      18.744  33.640  45.202  1.00  0.00    +0.000 H 
ATOM     19  C14 UNL A   1      18.701  32.756  44.601  1.00  0.00    +0.000 C 
ATOM    115  H18 UNL A   1      19.004  32.919  43.588  1.00  0.00    +0.000 H 
BRANCH   19   18
ATOM    113  H16 UNL A   1      16.814  32.753  43.686  1.00  0.00    +0.000 H 
ATOM     18  C13 UNL A   1      17.244  32.286  44.547  1.00  0.00    +0.000 C 
ATOM    112  H15 UNL A   1      16.773  32.565  45.467  1.00  0.00    +0.000 H 
BRANCH   18   17
ATOM     17  C12 UNL A   1      17.049  30.777  44.354  1.00  0.00    +0.000 C 
ATOM    110  H13 UNL A   1      17.864  30.274  44.832  1.00  0.00    +0.000 H 
ATOM    111  H14 UNL A   1      16.096  30.544  44.780  1.00  0.00    +0.000 H 
BRANCH   17   16
ATOM    108  H11 UNL A   1      17.379  31.088  42.273  1.00  0.00    +0.000 H 
ATOM    109  H12 UNL A   1      17.569  29.410  42.830  1.00  0.00    +0.000 H 
ATOM     16  C11 UNL A   1      16.990  30.308  42.894  1.00  0.00    +0.000 C 
BRANCH   16   15
ATOM    106  H9  UNL A   1      14.896  30.704  42.789  1.00  0.00    +0.000 H 
ATOM    107  H10 UNL A   1      15.574  29.954  41.348  1.00  0.00    +0.000 H 
ATOM     15  C10 UNL A   1      15.577  29.967  42.418  1.00  0.00    +0.000 C 
BRANCH   15   14
ATOM    105  H8  UNL A   1      14.472  28.662  43.593  1.00  0.00    +0.000 H 
ATOM     14  N2  UNL A   1      15.165  28.662  42.894  1.00  0.00    +0.000 N 
BRANCH   14   12
ATOM     12  C9  UNL A   1      15.609  27.430  42.502  1.00  0.00    +0.000 C 
ATOM     13  O3  UNL A   1      16.519  26.907  43.150  1.00  0.00    +0.000 O 
BRANCH   12   11
ATOM     11  C8  UNL A   1      15.069  26.784  41.239  1.00  0.00    +0.000 C 
ATOM    103  H6  UNL A   1      14.291  27.404  40.844  1.00  0.00    +0.000 H 
ATOM    104  H7  UNL A   1      15.883  26.687  40.551  1.00  0.00    +0.000 H 
BRANCH   11   10
ATOM      7  C6  UNL A   1      13.701  23.369  41.568  1.00  0.00    +0.000 C 
ATOM      8  N1  UNL A   1      13.425  23.939  42.750  1.00  0.00    +0.000 N 
ATOM      9  O2  UNL A   1      13.957  25.211  42.699  1.00  0.00    +0.000 O 
ATOM     10  C7  UNL A   1      14.521  25.429  41.481  1.00  0.00    +0.000 C 
ATOM     87  C61 UNL A   1      14.420  24.275  40.729  1.00  0.00    +0.000 C 
BRANCH    7    6
ATOM     97  C70 UNL A   1      13.321  19.621  41.637  1.00  0.00    +0.000 C 
ATOM      3  C2  UNL A   1      12.567  19.400  40.486  1.00  0.00    +0.000 C 
ATOM      4  C3  UNL A   1      12.147  20.491  39.720  1.00  0.00    +0.000 C 
ATOM    101  H4  UNL A   1      11.588  20.331  38.867  1.00  0.00    +0.000 H 
ATOM      5  C4  UNL A   1      12.475  21.795  40.097  1.00  0.00    +0.000 C 
ATOM    102  H5  UNL A   1      12.146  22.594  39.532  1.00  0.00    +0.000 H 
ATOM      6  C5  UNL A   1      13.251  22.021  41.239  1.00  0.00    +0.000 C 
ATOM    140  H43 UNL A   1      14.215  21.084  42.868  1.00  0.00    +0.000 H 
ATOM    141  H44 UNL A   1      13.630  18.823  42.212  1.00  0.00    +0.000 H 
ATOM     96  C69 UNL A   1      13.659  20.927  42.013  1.00  0.00    +0.000 C 
BRANCH    3    2
ATOM      2  O1  UNL A   1      12.201  18.177  39.994  1.00  0.00    +0.000 O 
BRANCH    2    1
ATOM      1  C1  UNL A   1      11.689  18.154  38.667  1.00  0.00    +0.000 C 
ATOM     98  H1  UNL A   1      12.490  17.985  37.979  1.00  0.00    +0.000 H 
ATOM     99  H2  UNL A   1      11.223  19.091  38.448  1.00  0.00    +0.000 H 
ATOM    100  H3  UNL A   1      10.969  17.367  38.577  1.00  0.00    +0.000 H 
ENDBRANCH    2    1
ENDBRANCH    3    2
ENDBRANCH    7    6
BRANCH   87   88
ATOM    133  H36 UNL A   1      13.655  25.757  38.659  1.00  0.00    +0.000 H 
ATOM    134  H37 UNL A   1      14.334  25.561  36.344  1.00  0.00    +0.000 H 
ATOM    138  H41 UNL A   1      16.792  22.303  37.326  1.00  0.00    +0.000 H 
ATOM    139  H42 UNL A   1      16.110  22.489  39.649  1.00  0.00    +0.000 H 
ATOM     88  C62 UNL A   1      14.835  24.145  39.345  1.00  0.00    +0.000 C 
ATOM     89  C63 UNL A   1      14.324  25.022  38.380  1.00  0.00    +0.000 C 
ATOM     90  C64 UNL A   1      14.716  24.908  37.046  1.00  0.00    +0.000 C 
ATOM     91  C65 UNL A   1      15.619  23.921  36.652  1.00  0.00    +0.000 C 
ATOM     94  C67 UNL A   1      16.126  23.038  37.608  1.00  0.00    +0.000 C 
ATOM     95  C68 UNL A   1      15.733  23.148  38.949  1.00  0.00    +0.000 C 
BRANCH   91   92
ATOM     92  O5  UNL A   1      15.917  23.925  35.319  1.00  0.00    +0.000 O 
BRANCH   92   93
ATOM    137  H40 UNL A   1      13.939  23.627  34.899  1.00  0.00    +0.000 H 
ATOM     93  C66 UNL A   1      14.824  23.979  34.412  1.00  0.00    +0.000 C 
ATOM    135  H38 UNL A   1      15.034  23.362  33.565  1.00  0.00    +0.000 H 
ATOM    136  H39 UNL A   1      14.676  24.989  34.091  1.00  0.00    +0.000 H 
ENDBRANCH   92   93
ENDBRANCH   91   92
ENDBRANCH   87   88
ENDBRANCH   11   10
ENDBRANCH   12   11
ENDBRANCH   14   12
ENDBRANCH   15   14
ENDBRANCH   16   15
ENDBRANCH   17   16
ENDBRANCH   18   17
ENDBRANCH   19   18
ENDBRANCH   20   19
ENDBRANCH   21   20
ENDBRANCH   22   21
ENDBRANCH   24   22
ENDBRANCH   28   27
BRANCH   32   33
ATOM     33  C25 UNL A   1      31.163  35.708  42.900  1.00  0.00    +0.000 C 
ATOM     34  C26 UNL A   1      31.865  34.564  43.308  1.00  0.00    +0.000 C 
ATOM     35  F1  UNL A   1      31.806  34.155  44.583  1.00  0.00    +0.000 F 
ATOM     36  C27 UNL A   1      32.659  33.853  42.410  1.00  0.00    +0.000 C 
ATOM     37  F2  UNL A   1      33.352  32.787  42.833  1.00  0.00    +0.000 F 
ATOM     38  C28 UNL A   1      32.742  34.253  41.085  1.00  0.00    +0.000 C 
ATOM     39  F3  UNL A   1      33.500  33.564  40.222  1.00  0.00    +0.000 F 
ATOM     40  C29 UNL A   1      32.041  35.371  40.656  1.00  0.00    +0.000 C 
ATOM     41  F4  UNL A   1      32.111  35.752  39.373  1.00  0.00    +0.000 F 
ATOM     42  C30 UNL A   1      31.267  36.099  41.556  1.00  0.00    +0.000 C 
ATOM     43  F5  UNL A   1      30.611  37.182  41.114  1.00  0.00    +0.000 F 
ENDBRANCH   32   33
BRANCH   49   50
ATOM     50  C36 UNL A   1      31.590  41.584  47.040  1.00  0.00    +0.000 C 
ATOM     51  C37 UNL A   1      32.725  41.303  47.814  1.00  0.00    +0.000 C 
ATOM     52  F6  UNL A   1      32.896  40.081  48.340  1.00  0.00    +0.000 F 
ATOM     53  C38 UNL A   1      33.672  42.288  48.076  1.00  0.00    +0.000 C 
ATOM     54  F7  UNL A   1      34.732  42.007  48.848  1.00  0.00    +0.000 F 
ATOM     55  C39 UNL A   1      33.519  43.561  47.548  1.00  0.00    +0.000 C 
ATOM     56  F8  UNL A   1      34.438  44.505  47.793  1.00  0.00    +0.000 F 
ATOM     57  C40 UNL A   1      32.408  43.858  46.771  1.00  0.00    +0.000 C 
ATOM     58  F9  UNL A   1      32.264  45.085  46.252  1.00  0.00    +0.000 F 
ATOM     59  C41 UNL A   1      31.446  42.882  46.527  1.00  0.00    +0.000 C 
ATOM     60  F10 UNL A   1      30.380  43.199  45.778  1.00  0.00    +0.000 F 
ENDBRANCH   49   50
BRANCH   64   65
ATOM     65  C45 UNL A   1      25.151  40.336  49.377  1.00  0.00    +0.000 C 
ATOM     66  C46 UNL A   1      24.287  41.372  48.998  1.00  0.00    +0.000 C 
ATOM     67  F11 UNL A   1      24.264  41.789  47.724  1.00  0.00    +0.000 F 
ATOM     68  C47 UNL A   1      23.474  42.009  49.932  1.00  0.00    +0.000 C 
ATOM     69  F12 UNL A   1      22.685  43.023  49.550  1.00  0.00    +0.000 F 
ATOM     70  C48 UNL A   1      23.489  41.604  51.259  1.00  0.00    +0.000 C 
ATOM     71  F13 UNL A   1      22.702  42.214  52.156  1.00  0.00    +0.000 F 
ATOM     72  C49 UNL A   1      24.326  40.572  51.655  1.00  0.00    +0.000 C 
ATOM     73  F14 UNL A   1      24.335  40.171  52.934  1.00  0.00    +0.000 F 
ATOM     74  C50 UNL A   1      25.157  39.950  50.726  1.00  0.00    +0.000 C 
ATOM     75  F15 UNL A   1      25.965  38.962  51.138  1.00  0.00    +0.000 F 
ENDBRANCH   64   65
TORSDOF 22
ENDMDL
MODEL 3
REMARK VINA RESULT:     -11.2     41.434     48.338
ROOT
ATOM    129  H32 UNL A   1      22.219  34.482  47.093  1.00  0.00    +0.000 H 
ATOM    130  H33 UNL A   1      21.755  36.734  48.223  1.00  0.00    +0.000 H 
ATOM     28  C21 UNL A   1      24.035  38.435  48.363  1.00  0.00    +0.000 C 
ATOM     29  C22 UNL A   1      23.925  37.104  47.676  1.00  0.00    +0.000 C 
ATOM     30  N4  UNL A   1      24.832  36.444  47.001  1.00  0.00    +0.000 N 
ATOM     31  C23 UNL A   1      24.226  35.255  46.618  1.00  0.00    +0.000 C 
ATOM     32  C24 UNL A   1      24.736  34.255  45.861  1.00  0.00    +0.000 C 
ATOM     44  C31 UNL A   1      26.057  34.262  45.290  1.00  0.00    +0.000 C 
ATOM     45  C32 UNL A   1      26.636  33.332  44.443  1.00  0.00    +0.000 C 
ATOM     46  C33 UNL A   1      27.951  33.734  44.187  1.00  0.00    +0.000 C 
ATOM     47  C34 UNL A   1      28.180  34.933  44.843  1.00  0.00    +0.000 C 
ATOM     48  N5  UNL A   1      27.007  35.248  45.511  1.00  0.00    +0.000 N 
ATOM     49  C35 UNL A   1      29.380  35.729  44.868  1.00  0.00    +0.000 C 
ATOM     61  C42 UNL A   1      29.504  36.930  45.484  1.00  0.00    +0.000 C 
ATOM     62  N6  UNL A   1      28.556  37.639  46.209  1.00  0.00    +0.000 N 
ATOM     63  C43 UNL A   1      29.156  38.731  46.613  1.00  0.00    +0.000 C 
ATOM     64  C44 UNL A   1      28.606  39.868  47.430  1.00  0.00    +0.000 C 
ATOM     76  C51 UNL A   1      27.320  39.832  47.829  1.00  0.00    +0.000 C 
ATOM     77  C52 UNL A   1      26.659  40.849  48.642  1.00  0.00    +0.000 C 
ATOM     78  C53 UNL A   1      25.411  40.440  48.924  1.00  0.00    +0.000 C 
ATOM     79  C54 UNL A   1      25.171  39.151  48.273  1.00  0.00    +0.000 C 
ATOM     80  N7  UNL A   1      26.348  38.884  47.619  1.00  0.00    +0.000 N 
ATOM     81  C55 UNL A   1      30.564  38.830  46.204  1.00  0.00    +0.000 C 
ATOM     82  C56 UNL A   1      30.715  37.721  45.493  1.00  0.00    +0.000 C 
ATOM     83  C57 UNL A   1      22.888  35.265  47.169  1.00  0.00    +0.000 C 
ATOM     84  C58 UNL A   1      22.632  36.412  47.784  1.00  0.00    +0.000 C 
ATOM    121  H24 UNL A   1      26.177  32.489  44.065  1.00  0.00    +0.000 H 
ATOM    122  H25 UNL A   1      28.636  33.224  43.608  1.00  0.00    +0.000 H 
ATOM    123  H26 UNL A   1      26.869  36.052  46.062  1.00  0.00    +0.000 H 
ATOM    124  H27 UNL A   1      27.083  41.737  48.951  1.00  0.00    +0.000 H 
ATOM    125  H28 UNL A   1      24.731  40.953  49.505  1.00  0.00    +0.000 H 
ATOM    126  H29 UNL A   1      26.483  38.089  47.053  1.00  0.00    +0.000 H 
ATOM    127  H30 UNL A   1      31.254  39.569  46.415  1.00  0.00    +0.000 H 
ATOM    128  H31 UNL A   1      31.587  37.456  45.007  1.00  0.00    +0.000 H 
ENDROOT
BRANCH   28   27
ATOM    131  H34 UNL A   1      22.085  40.136  47.700  1.00  0.00    +0.000 H 
ATOM    132  H35 UNL A   1      20.261  40.966  49.065  1.00  0.00    +0.000 H 
ATOM     27  C20 UNL A   1      22.926  38.926  49.218  1.00  0.00    +0.000 C 
ATOM     85  C59 UNL A   1      21.984  39.815  48.675  1.00  0.00    +0.000 C 
ATOM     86  C60 UNL A   1      20.915  40.265  49.446  1.00  0.00    +0.000 C 
ATOM    119  H22 UNL A   1      21.574  38.588  52.277  1.00  0.00    +0.000 H 
ATOM     24  C17 UNL A   1      20.731  39.765  50.739  1.00  0.00    +0.000 C 
ATOM     25  C18 UNL A   1      21.685  38.915  51.305  1.00  0.00    +0.000 C 
ATOM     26  C19 UNL A   1      22.788  38.508  50.551  1.00  0.00    +0.000 C 
ATOM    120  H23 UNL A   1      23.505  37.898  50.974  1.00  0.00    +0.000 H 
BRANCH   24   22
ATOM     22  C16 UNL A   1      19.542  40.137  51.534  1.00  0.00    +0.000 C 
ATOM     23  O4  UNL A   1      19.572  41.142  52.240  1.00  0.00    +0.000 O 
BRANCH   22   21
ATOM     21  N3  UNL A   1      18.413  39.357  51.491  1.00  0.00    +0.000 N 
ATOM    118  H21 UNL A   1      17.988  39.182  52.362  1.00  0.00    +0.000 H 
BRANCH   21   20
ATOM    116  H19 UNL A   1      18.221  39.109  49.449  1.00  0.00    +0.000 H 
ATOM     20  C15 UNL A   1      17.755  38.751  50.343  1.00  0.00    +0.000 C 
ATOM    117  H20 UNL A   1      17.848  37.689  50.432  1.00  0.00    +0.000 H 
BRANCH   20   19
ATOM    114  H17 UNL A   1      15.931  39.278  51.287  1.00  0.00    +0.000 H 
ATOM     19  C14 UNL A   1      16.266  39.089  50.290  1.00  0.00    +0.000 C 
ATOM    115  H18 UNL A   1      16.172  39.938  49.645  1.00  0.00    +0.000 H 
BRANCH   19   18
ATOM    113  H16 UNL A   1      14.671  38.490  49.067  1.00  0.00    +0.000 H 
ATOM     18  C13 UNL A   1      15.383  37.991  49.690  1.00  0.00    +0.000 C 
ATOM    112  H15 UNL A   1      14.938  37.446  50.497  1.00  0.00    +0.000 H 
BRANCH   18   17
ATOM     17  C12 UNL A   1      16.109  36.987  48.786  1.00  0.00    +0.000 C 
ATOM    110  H13 UNL A   1      17.001  37.453  48.422  1.00  0.00    +0.000 H 
ATOM    111  H14 UNL A   1      16.294  36.123  49.389  1.00  0.00    +0.000 H 
BRANCH   17   16
ATOM    108  H11 UNL A   1      14.737  35.638  47.871  1.00  0.00    +0.000 H 
ATOM    109  H12 UNL A   1      14.677  37.308  47.266  1.00  0.00    +0.000 H 
ATOM     16  C11 UNL A   1      15.302  36.497  47.575  1.00  0.00    +0.000 C 
BRANCH   16   15
ATOM    106  H9  UNL A   1      15.761  35.243  45.911  1.00  0.00    +0.000 H 
ATOM    107  H10 UNL A   1      16.181  36.938  45.690  1.00  0.00    +0.000 H 
ATOM     15  C10 UNL A   1      16.171  36.116  46.375  1.00  0.00    +0.000 C 
BRANCH   15   14
ATOM    105  H8  UNL A   1      17.664  35.656  47.739  1.00  0.00    +0.000 H 
ATOM     14  N2  UNL A   1      17.534  35.840  46.781  1.00  0.00    +0.000 N 
BRANCH   14   12
ATOM     12  C9  UNL A   1      18.663  35.800  46.011  1.00  0.00    +0.000 C 
ATOM     13  O3  UNL A   1      19.666  36.389  46.420  1.00  0.00    +0.000 O 
BRANCH   12   11
ATOM     11  C8  UNL A   1      18.637  35.142  44.644  1.00  0.00    +0.000 C 
ATOM    103  H6  UNL A   1      17.813  35.539  44.088  1.00  0.00    +0.000 H 
ATOM    104  H7  UNL A   1      19.572  35.351  44.166  1.00  0.00    +0.000 H 
BRANCH   11   10
ATOM      7  C6  UNL A   1      18.071  31.492  44.656  1.00  0.00    +0.000 C 
ATOM      8  N1  UNL A   1      18.773  31.710  45.778  1.00  0.00    +0.000 N 
ATOM      9  O2  UNL A   1      19.052  33.062  45.802  1.00  0.00    +0.000 O 
ATOM     10  C7  UNL A   1      18.493  33.669  44.722  1.00  0.00    +0.000 C 
ATOM     87  C61 UNL A   1      17.884  32.711  43.935  1.00  0.00    +0.000 C 
BRANCH    7    6
ATOM     97  C70 UNL A   1      15.691  28.628  44.086  1.00  0.00    +0.000 C 
ATOM      3  C2  UNL A   1      16.577  27.573  43.870  1.00  0.00    +0.000 C 
ATOM      4  C3  UNL A   1      17.952  27.822  43.865  1.00  0.00    +0.000 C 
ATOM    101  H4  UNL A   1      18.611  27.044  43.704  1.00  0.00    +0.000 H 
ATOM      5  C4  UNL A   1      18.444  29.112  44.074  1.00  0.00    +0.000 C 
ATOM    102  H5  UNL A   1      19.461  29.286  44.052  1.00  0.00    +0.000 H 
ATOM      6  C5  UNL A   1      17.560  30.170  44.314  1.00  0.00    +0.000 C 
ATOM    140  H43 UNL A   1      15.520  30.698  44.461  1.00  0.00    +0.000 H 
ATOM    141  H44 UNL A   1      14.674  28.455  44.085  1.00  0.00    +0.000 H 
ATOM     96  C69 UNL A   1      16.181  29.920  44.304  1.00  0.00    +0.000 C 
BRANCH    3    2
ATOM      2  O1  UNL A   1      16.228  26.264  43.678  1.00  0.00    +0.000 O 
BRANCH    2    1
ATOM      1  C1  UNL A   1      15.050  26.026  42.918  1.00  0.00    +0.000 C 
ATOM     98  H1  UNL A   1      14.703  25.030  43.102  1.00  0.00    +0.000 H 
ATOM     99  H2  UNL A   1      15.267  26.141  41.878  1.00  0.00    +0.000 H 
ATOM    100  H3  UNL A   1      14.293  26.726  43.205  1.00  0.00    +0.000 H 
ENDBRANCH    2    1
ENDBRANCH    3    2
ENDBRANCH    7    6
BRANCH   87   88
ATOM    133  H36 UNL A   1      17.990  31.434  41.606  1.00  0.00    +0.000 H 
ATOM    134  H37 UNL A   1      16.710  31.872  39.599  1.00  0.00    +0.000 H 
ATOM    138  H41 UNL A   1      14.752  35.047  41.523  1.00  0.00    +0.000 H 
ATOM    139  H42 UNL A   1      16.038  34.619  43.537  1.00  0.00    +0.000 H 
ATOM     88  C62 UNL A   1      17.111  32.985  42.739  1.00  0.00    +0.000 C 
ATOM     89  C63 UNL A   1      17.301  32.203  41.594  1.00  0.00    +0.000 C 
ATOM     90  C64 UNL A   1      16.563  32.456  40.437  1.00  0.00    +0.000 C 
ATOM     91  C65 UNL A   1      15.627  33.490  40.403  1.00  0.00    +0.000 C 
ATOM     94  C67 UNL A   1      15.439  34.278  41.539  1.00  0.00    +0.000 C 
ATOM     95  C68 UNL A   1      16.180  34.029  42.702  1.00  0.00    +0.000 C 
BRANCH   91   92
ATOM     92  O5  UNL A   1      14.975  33.624  39.210  1.00  0.00    +0.000 O 
BRANCH   92   93
ATOM    137  H40 UNL A   1      14.365  32.088  38.008  1.00  0.00    +0.000 H 
ATOM     93  C66 UNL A   1      15.250  32.653  38.209  1.00  0.00    +0.000 C 
ATOM    135  H38 UNL A   1      16.021  31.996  38.553  1.00  0.00    +0.000 H 
ATOM    136  H39 UNL A   1      15.571  33.143  37.315  1.00  0.00    +0.000 H 
ENDBRANCH   92   93
ENDBRANCH   91   92
ENDBRANCH   87   88
ENDBRANCH   11   10
ENDBRANCH   12   11
ENDBRANCH   14   12
ENDBRANCH   15   14
ENDBRANCH   16   15
ENDBRANCH   17   16
ENDBRANCH   18   17
ENDBRANCH   19   18
ENDBRANCH   20   19
ENDBRANCH   21   20
ENDBRANCH   22   21
ENDBRANCH   24   22
ENDBRANCH   28   27
BRANCH   32   33
ATOM     33  C25 UNL A   1      23.862  33.065  45.603  1.00  0.00    +0.000 C 
ATOM     34  C26 UNL A   1      22.866  33.085  44.614  1.00  0.00    +0.000 C 
ATOM     35  F1  UNL A   1      22.642  34.202  43.905  1.00  0.00    +0.000 F 
ATOM     36  C27 UNL A   1      22.074  31.966  44.372  1.00  0.00    +0.000 C 
ATOM     37  F2  UNL A   1      21.103  32.022  43.450  1.00  0.00    +0.000 F 
ATOM     38  C28 UNL A   1      22.281  30.797  45.091  1.00  0.00    +0.000 C 
ATOM     39  F3  UNL A   1      21.523  29.719  44.851  1.00  0.00    +0.000 F 
ATOM     40  C29 UNL A   1      23.272  30.749  46.060  1.00  0.00    +0.000 C 
ATOM     41  F4  UNL A   1      23.481  29.617  46.747  1.00  0.00    +0.000 F 
ATOM     42  C30 UNL A   1      24.049  31.875  46.323  1.00  0.00    +0.000 C 
ATOM     43  F5  UNL A   1      24.991  31.801  47.274  1.00  0.00    +0.000 F 
ENDBRANCH   32   33
BRANCH   49   50
ATOM     50  C36 UNL A   1      30.582  35.201  44.147  1.00  0.00    +0.000 C 
ATOM     51  C37 UNL A   1      30.792  35.469  42.786  1.00  0.00    +0.000 C 
ATOM     52  F6  UNL A   1      29.877  36.155  42.085  1.00  0.00    +0.000 F 
ATOM     53  C38 UNL A   1      31.930  35.004  42.135  1.00  0.00    +0.000 C 
ATOM     54  F7  UNL A   1      32.094  35.241  40.826  1.00  0.00    +0.000 F 
ATOM     55  C39 UNL A   1      32.891  34.289  42.834  1.00  0.00    +0.000 C 
ATOM     56  F8  UNL A   1      33.991  33.850  42.207  1.00  0.00    +0.000 F 
ATOM     57  C40 UNL A   1      32.707  34.021  44.183  1.00  0.00    +0.000 C 
ATOM     58  F9  UNL A   1      33.640  33.338  44.862  1.00  0.00    +0.000 F 
ATOM     59  C41 UNL A   1      31.558  34.463  44.832  1.00  0.00    +0.000 C 
ATOM     60  F10 UNL A   1      31.404  34.183  46.135  1.00  0.00    +0.000 F 
ENDBRANCH   49   50
BRANCH   64   65
ATOM     65  C45 UNL A   1      29.459  41.027  47.791  1.00  0.00    +0.000 C 
ATOM     66  C46 UNL A   1      29.448  42.195  47.015  1.00  0.00    +0.000 C 
ATOM     67  F11 UNL A   1      28.680  42.260  45.918  1.00  0.00    +0.000 F 
ATOM     68  C47 UNL A   1      30.253  43.283  47.342  1.00  0.00    +0.000 C 
ATOM     69  F12 UNL A   1      30.252  44.373  46.562  1.00  0.00    +0.000 F 
ATOM     70  C48 UNL A   1      31.065  43.235  48.466  1.00  0.00    +0.000 C 
ATOM     71  F13 UNL A   1      31.836  44.285  48.784  1.00  0.00    +0.000 F 
ATOM     72  C49 UNL A   1      31.083  42.096  49.256  1.00  0.00    +0.000 C 
ATOM     73  F14 UNL A   1      31.858  42.050  50.348  1.00  0.00    +0.000 F 
ATOM     74  C50 UNL A   1      30.296  40.997  48.916  1.00  0.00    +0.000 C 
ATOM     75  F15 UNL A   1      30.341  39.904  49.691  1.00  0.00    +0.000 F 
ENDBRANCH   64   65
TORSDOF 22
ENDMDL
MODEL 4
REMARK VINA RESULT:     -11.2     39.848     46.005
ROOT
ATOM    129  H32 UNL A   1      23.654  38.267  47.992  1.00  0.00    +0.000 H 
ATOM    130  H33 UNL A   1      23.608  35.802  47.295  1.00  0.00    +0.000 H 
ATOM     28  C21 UNL A   1      26.099  34.850  46.298  1.00  0.00    +0.000 C 
ATOM     29  C22 UNL A   1      25.804  36.198  46.890  1.00  0.00    +0.000 C 
ATOM     30  N4  UNL A   1      26.609  37.213  47.079  1.00  0.00    +0.000 N 
ATOM     31  C23 UNL A   1      25.822  38.224  47.614  1.00  0.00    +0.000 C 
ATOM     32  C24 UNL A   1      26.201  39.457  48.026  1.00  0.00    +0.000 C 
ATOM     44  C31 UNL A   1      27.553  39.948  47.982  1.00  0.00    +0.000 C 
ATOM     45  C32 UNL A   1      28.048  41.154  48.449  1.00  0.00    +0.000 C 
ATOM     46  C33 UNL A   1      29.412  41.212  48.145  1.00  0.00    +0.000 C 
ATOM     47  C34 UNL A   1      29.775  40.028  47.523  1.00  0.00    +0.000 C 
ATOM     48  N5  UNL A   1      28.625  39.260  47.434  1.00  0.00    +0.000 N 
ATOM     49  C35 UNL A   1      31.070  39.629  47.036  1.00  0.00    +0.000 C 
ATOM     61  C42 UNL A   1      31.359  38.421  46.495  1.00  0.00    +0.000 C 
ATOM     62  N6  UNL A   1      30.517  37.338  46.282  1.00  0.00    +0.000 N 
ATOM     63  C43 UNL A   1      31.257  36.413  45.724  1.00  0.00    +0.000 C 
ATOM     64  C44 UNL A   1      30.869  35.027  45.283  1.00  0.00    +0.000 C 
ATOM     76  C51 UNL A   1      29.603  34.606  45.466  1.00  0.00    +0.000 C 
ATOM     77  C52 UNL A   1      29.080  33.303  45.069  1.00  0.00    +0.000 C 
ATOM     78  C53 UNL A   1      27.761  33.266  45.321  1.00  0.00    +0.000 C 
ATOM     79  C54 UNL A   1      27.356  34.529  45.937  1.00  0.00    +0.000 C 
ATOM     80  N7  UNL A   1      28.521  35.251  46.014  1.00  0.00    +0.000 N 
ATOM     81  C55 UNL A   1      32.654  36.811  45.501  1.00  0.00    +0.000 C 
ATOM     82  C56 UNL A   1      32.669  38.033  46.017  1.00  0.00    +0.000 C 
ATOM     83  C57 UNL A   1      24.470  37.715  47.684  1.00  0.00    +0.000 C 
ATOM     84  C58 UNL A   1      24.415  36.447  47.303  1.00  0.00    +0.000 C 
ATOM    121  H24 UNL A   1      27.506  41.883  48.938  1.00  0.00    +0.000 H 
ATOM    122  H25 UNL A   1      30.043  42.004  48.349  1.00  0.00    +0.000 H 
ATOM    123  H26 UNL A   1      28.576  38.359  47.041  1.00  0.00    +0.000 H 
ATOM    124  H27 UNL A   1      29.634  32.535  44.660  1.00  0.00    +0.000 H 
ATOM    125  H28 UNL A   1      27.135  32.472  45.113  1.00  0.00    +0.000 H 
ATOM    126  H29 UNL A   1      28.576  36.145  46.424  1.00  0.00    +0.000 H 
ATOM    127  H30 UNL A   1      33.421  36.280  45.060  1.00  0.00    +0.000 H 
ATOM    128  H31 UNL A   1      33.509  38.631  46.071  1.00  0.00    +0.000 H 
ENDROOT
BRANCH   28   27
ATOM    131  H34 UNL A   1      24.655  34.614  44.062  1.00  0.00    +0.000 H 
ATOM    132  H35 UNL A   1      22.843  33.079  43.577  1.00  0.00    +0.000 H 
ATOM     27  C20 UNL A   1      24.994  33.898  46.024  1.00  0.00    +0.000 C 
ATOM     85  C59 UNL A   1      24.364  33.922  44.770  1.00  0.00    +0.000 C 
ATOM     86  C60 UNL A   1      23.346  33.017  44.475  1.00  0.00    +0.000 C 
ATOM    119  H22 UNL A   1      23.310  31.318  47.369  1.00  0.00    +0.000 H 
ATOM     24  C17 UNL A   1      23.009  32.026  45.401  1.00  0.00    +0.000 C 
ATOM     25  C18 UNL A   1      23.598  32.019  46.669  1.00  0.00    +0.000 C 
ATOM     26  C19 UNL A   1      24.578  32.962  46.985  1.00  0.00    +0.000 C 
ATOM    120  H23 UNL A   1      24.998  32.973  47.926  1.00  0.00    +0.000 H 
BRANCH   24   22
ATOM     22  C16 UNL A   1      22.015  30.983  45.068  1.00  0.00    +0.000 C 
ATOM     23  O4  UNL A   1      22.345  29.800  45.089  1.00  0.00    +0.000 O 
BRANCH   22   21
ATOM     21  N3  UNL A   1      20.734  31.336  44.726  1.00  0.00    +0.000 N 
ATOM    118  H21 UNL A   1      20.373  30.892  43.925  1.00  0.00    +0.000 H 
BRANCH   21   20
ATOM    116  H19 UNL A   1      19.519  31.858  46.314  1.00  0.00    +0.000 H 
ATOM     20  C15 UNL A   1      19.832  32.274  45.379  1.00  0.00    +0.000 C 
ATOM    117  H20 UNL A   1      20.358  33.195  45.519  1.00  0.00    +0.000 H 
BRANCH   20   19
ATOM    114  H17 UNL A   1      17.730  32.413  45.142  1.00  0.00    +0.000 H 
ATOM     19  C14 UNL A   1      18.595  32.565  44.532  1.00  0.00    +0.000 C 
ATOM    115  H18 UNL A   1      18.696  33.572  44.186  1.00  0.00    +0.000 H 
BRANCH   19   18
ATOM    113  H16 UNL A   1      19.410  31.232  43.133  1.00  0.00    +0.000 H 
ATOM     18  C13 UNL A   1      18.456  31.691  43.282  1.00  0.00    +0.000 C 
ATOM    112  H15 UNL A   1      18.151  32.320  42.471  1.00  0.00    +0.000 H 
BRANCH   18   17
ATOM     17  C12 UNL A   1      17.445  30.542  43.395  1.00  0.00    +0.000 C 
ATOM    110  H13 UNL A   1      16.736  30.798  44.154  1.00  0.00    +0.000 H 
ATOM    111  H14 UNL A   1      17.010  30.433  42.424  1.00  0.00    +0.000 H 
BRANCH   17   16
ATOM    108  H11 UNL A   1      18.724  28.893  42.970  1.00  0.00    +0.000 H 
ATOM    109  H12 UNL A   1      18.537  29.284  44.694  1.00  0.00    +0.000 H 
ATOM     16  C11 UNL A   1      18.048  29.176  43.749  1.00  0.00    +0.000 C 
BRANCH   16   15
ATOM    106  H9  UNL A   1      17.415  27.284  44.508  1.00  0.00    +0.000 H 
ATOM    107  H10 UNL A   1      16.136  28.487  44.378  1.00  0.00    +0.000 H 
ATOM     15  C10 UNL A   1      17.003  28.070  43.909  1.00  0.00    +0.000 C 
BRANCH   15   14
ATOM    105  H8  UNL A   1      17.239  26.879  42.226  1.00  0.00    +0.000 H 
ATOM     14  N2  UNL A   1      16.613  27.527  42.623  1.00  0.00    +0.000 N 
BRANCH   14   12
ATOM     12  C9  UNL A   1      15.492  27.794  41.888  1.00  0.00    +0.000 C 
ATOM     13  O3  UNL A   1      14.719  28.661  42.302  1.00  0.00    +0.000 O 
BRANCH   12   11
ATOM     11  C8  UNL A   1      15.161  26.963  40.662  1.00  0.00    +0.000 C 
ATOM    103  H6  UNL A   1      14.435  27.489  40.078  1.00  0.00    +0.000 H 
ATOM    104  H7  UNL A   1      16.071  26.813  40.118  1.00  0.00    +0.000 H 
BRANCH   11   10
ATOM      7  C6  UNL A   1      13.802  23.579  41.250  1.00  0.00    +0.000 C 
ATOM      8  N1  UNL A   1      13.544  24.230  42.393  1.00  0.00    +0.000 N 
ATOM      9  O2  UNL A   1      14.074  25.496  42.246  1.00  0.00    +0.000 O 
ATOM     10  C7  UNL A   1      14.618  25.628  41.007  1.00  0.00    +0.000 C 
ATOM     87  C61 UNL A   1      14.506  24.424  40.339  1.00  0.00    +0.000 C 
BRANCH    7    6
ATOM     97  C70 UNL A   1      13.393  19.852  41.616  1.00  0.00    +0.000 C 
ATOM      3  C2  UNL A   1      12.659  19.542  40.472  1.00  0.00    +0.000 C 
ATOM      4  C3  UNL A   1      12.261  20.570  39.613  1.00  0.00    +0.000 C 
ATOM    101  H4  UNL A   1      11.716  20.345  38.766  1.00  0.00    +0.000 H 
ATOM      5  C4  UNL A   1      12.592  21.899  39.889  1.00  0.00    +0.000 C 
ATOM    102  H5  UNL A   1      12.278  22.651  39.255  1.00  0.00    +0.000 H 
ATOM      6  C5  UNL A   1      13.348  22.212  41.024  1.00  0.00    +0.000 C 
ATOM    140  H43 UNL A   1      14.275  21.404  42.741  1.00  0.00    +0.000 H 
ATOM    141  H44 UNL A   1      13.686  19.101  42.259  1.00  0.00    +0.000 H 
ATOM     96  C69 UNL A   1      13.734  21.181  41.891  1.00  0.00    +0.000 C 
BRANCH    3    2
ATOM      2  O1  UNL A   1      12.292  18.286  40.074  1.00  0.00    +0.000 O 
BRANCH    2    1
ATOM      1  C1  UNL A   1      11.638  18.184  38.816  1.00  0.00    +0.000 C 
ATOM     98  H1  UNL A   1      12.342  17.872  38.072  1.00  0.00    +0.000 H 
ATOM     99  H2  UNL A   1      11.234  19.136  38.545  1.00  0.00    +0.000 H 
ATOM    100  H3  UNL A   1      10.847  17.465  38.882  1.00  0.00    +0.000 H 
ENDBRANCH    2    1
ENDBRANCH    3    2
ENDBRANCH    7    6
BRANCH   87   88
ATOM    133  H36 UNL A   1      16.192  22.589  39.413  1.00  0.00    +0.000 H 
ATOM    134  H37 UNL A   1      16.863  22.192  37.121  1.00  0.00    +0.000 H 
ATOM    138  H41 UNL A   1      14.405  25.344  35.840  1.00  0.00    +0.000 H 
ATOM    139  H42 UNL A   1      13.734  25.754  38.137  1.00  0.00    +0.000 H 
ATOM     88  C62 UNL A   1      14.900  24.198  38.960  1.00  0.00    +0.000 C 
ATOM     89  C63 UNL A   1      15.808  23.177  38.656  1.00  0.00    +0.000 C 
ATOM     90  C64 UNL A   1      16.194  22.949  37.334  1.00  0.00    +0.000 C 
ATOM     91  C65 UNL A   1      15.684  23.732  36.299  1.00  0.00    +0.000 C 
ATOM     94  C67 UNL A   1      14.785  24.757  36.598  1.00  0.00    +0.000 C 
ATOM     95  C68 UNL A   1      14.396  24.991  37.924  1.00  0.00    +0.000 C 
BRANCH   91   92
ATOM     92  O5  UNL A   1      16.144  23.398  35.057  1.00  0.00    +0.000 O 
BRANCH   92   93
ATOM    137  H40 UNL A   1      16.042  25.018  33.816  1.00  0.00    +0.000 H 
ATOM     93  C66 UNL A   1      15.562  24.071  33.949  1.00  0.00    +0.000 C 
ATOM    135  H38 UNL A   1      14.520  24.223  34.132  1.00  0.00    +0.000 H 
ATOM    136  H39 UNL A   1      15.688  23.481  33.066  1.00  0.00    +0.000 H 
ENDBRANCH   92   93
ENDBRANCH   91   92
ENDBRANCH   87   88
ENDBRANCH   11   10
ENDBRANCH   12   11
ENDBRANCH   14   12
ENDBRANCH   15   14
ENDBRANCH   16   15
ENDBRANCH   17   16
ENDBRANCH   18   17
ENDBRANCH   19   18
ENDBRANCH   20   19
ENDBRANCH   21   20
ENDBRANCH   22   21
ENDBRANCH   24   22
ENDBRANCH   28   27
BRANCH   32   33
ATOM     33  C25 UNL A   1      25.136  40.366  48.563  1.00  0.00    +0.000 C 
ATOM     34  C26 UNL A   1      24.708  40.288  49.897  1.00  0.00    +0.000 C 
ATOM     35  F1  UNL A   1      25.215  39.353  50.714  1.00  0.00    +0.000 F 
ATOM     36  C27 UNL A   1      23.732  41.152  50.387  1.00  0.00    +0.000 C 
ATOM     37  F2  UNL A   1      23.310  41.032  51.654  1.00  0.00    +0.000 F 
ATOM     38  C28 UNL A   1      23.188  42.127  49.565  1.00  0.00    +0.000 C 
ATOM     39  F3  UNL A   1      22.254  42.962  50.041  1.00  0.00    +0.000 F 
ATOM     40  C29 UNL A   1      23.610  42.234  48.248  1.00  0.00    +0.000 C 
ATOM     41  F4  UNL A   1      23.094  43.184  47.455  1.00  0.00    +0.000 F 
ATOM     42  C30 UNL A   1      24.567  41.355  47.747  1.00  0.00    +0.000 C 
ATOM     43  F5  UNL A   1      24.946  41.476  46.466  1.00  0.00    +0.000 F 
ENDBRANCH   32   33
BRANCH   49   50
ATOM     50  C36 UNL A   1      32.192  40.617  47.148  1.00  0.00    +0.000 C 
ATOM     51  C37 UNL A   1      32.339  41.661  46.224  1.00  0.00    +0.000 C 
ATOM     52  F6  UNL A   1      31.508  41.755  45.175  1.00  0.00    +0.000 F 
ATOM     53  C38 UNL A   1      33.363  42.594  46.358  1.00  0.00    +0.000 C 
ATOM     54  F7  UNL A   1      33.507  43.563  45.444  1.00  0.00    +0.000 F 
ATOM     55  C39 UNL A   1      34.238  42.518  47.431  1.00  0.00    +0.000 C 
ATOM     56  F8  UNL A   1      35.218  43.424  47.564  1.00  0.00    +0.000 F 
ATOM     57  C40 UNL A   1      34.105  41.499  48.362  1.00  0.00    +0.000 C 
ATOM     58  F9  UNL A   1      34.945  41.430  49.404  1.00  0.00    +0.000 F 
ATOM     59  C41 UNL A   1      33.097  40.549  48.217  1.00  0.00    +0.000 C 
ATOM     60  F10 UNL A   1      32.996  39.571  49.129  1.00  0.00    +0.000 F 
ENDBRANCH   49   50
BRANCH   64   65
ATOM     65  C45 UNL A   1      31.866  34.121  44.660  1.00  0.00    +0.000 C 
ATOM     66  C46 UNL A   1      32.200  34.245  43.305  1.00  0.00    +0.000 C 
ATOM     67  F11 UNL A   1      31.594  35.173  42.550  1.00  0.00    +0.000 F 
ATOM     68  C47 UNL A   1      33.127  33.393  42.712  1.00  0.00    +0.000 C 
ATOM     69  F12 UNL A   1      33.400  33.508  41.405  1.00  0.00    +0.000 F 
ATOM     70  C48 UNL A   1      33.759  32.417  43.469  1.00  0.00    +0.000 C 
ATOM     71  F13 UNL A   1      34.656  31.600  42.899  1.00  0.00    +0.000 F 
ATOM     72  C49 UNL A   1      33.455  32.283  44.815  1.00  0.00    +0.000 C 
ATOM     73  F14 UNL A   1      34.071  31.349  45.551  1.00  0.00    +0.000 F 
ATOM     74  C50 UNL A   1      32.509  33.120  45.404  1.00  0.00    +0.000 C 
ATOM     75  F15 UNL A   1      32.225  32.963  46.705  1.00  0.00    +0.000 F 
ENDBRANCH   64   65
TORSDOF 22
ENDMDL
MODEL 5
REMARK VINA RESULT:     -11.1     44.850     50.269
ROOT
ATOM    129  H32 UNL A   1      16.712  56.710   2.807  1.00  0.00    +0.000 H 
ATOM    130  H33 UNL A   1      15.385  56.459   4.984  1.00  0.00    +0.000 H 
ATOM     28  C21 UNL A   1      14.205  53.889   5.314  1.00  0.00    +0.000 C 
ATOM     29  C22 UNL A   1      15.130  54.339   4.220  1.00  0.00    +0.000 C 
ATOM     30  N4  UNL A   1      15.592  53.665   3.197  1.00  0.00    +0.000 N 
ATOM     31  C23 UNL A   1      16.366  54.562   2.473  1.00  0.00    +0.000 C 
ATOM     32  C24 UNL A   1      17.096  54.334   1.356  1.00  0.00    +0.000 C 
ATOM     44  C31 UNL A   1      17.203  53.055   0.703  1.00  0.00    +0.000 C 
ATOM     45  C32 UNL A   1      17.980  52.706  -0.388  1.00  0.00    +0.000 C 
ATOM     46  C33 UNL A   1      17.721  51.367  -0.698  1.00  0.00    +0.000 C 
ATOM     47  C34 UNL A   1      16.812  50.871   0.222  1.00  0.00    +0.000 C 
ATOM     48  N5  UNL A   1      16.506  51.916   1.079  1.00  0.00    +0.000 N 
ATOM     49  C35 UNL A   1      16.254  49.546   0.310  1.00  0.00    +0.000 C 
ATOM     61  C42 UNL A   1      15.416  49.118   1.285  1.00  0.00    +0.000 C 
ATOM     62  N6  UNL A   1      14.911  49.821   2.370  1.00  0.00    +0.000 N 
ATOM     63  C43 UNL A   1      14.137  48.982   3.013  1.00  0.00    +0.000 C 
ATOM     64  C44 UNL A   1      13.340  49.201   4.269  1.00  0.00    +0.000 C 
ATOM     76  C51 UNL A   1      13.387  50.400   4.881  1.00  0.00    +0.000 C 
ATOM     77  C52 UNL A   1      12.650  50.763   6.088  1.00  0.00    +0.000 C 
ATOM     78  C53 UNL A   1      12.865  52.060   6.358  1.00  0.00    +0.000 C 
ATOM     79  C54 UNL A   1      13.790  52.609   5.365  1.00  0.00    +0.000 C 
ATOM     80  N7  UNL A   1      14.072  51.543   4.548  1.00  0.00    +0.000 N 
ATOM     81  C55 UNL A   1      14.049  47.652   2.395  1.00  0.00    +0.000 C 
ATOM     82  C56 UNL A   1      14.871  47.780   1.363  1.00  0.00    +0.000 C 
ATOM     83  C57 UNL A   1      16.280  55.838   3.150  1.00  0.00    +0.000 C 
ATOM     84  C58 UNL A   1      15.574  55.740   4.268  1.00  0.00    +0.000 C 
ATOM    121  H24 UNL A   1      18.637  53.326  -0.887  1.00  0.00    +0.000 H 
ATOM    122  H25 UNL A   1      18.137  50.837  -1.481  1.00  0.00    +0.000 H 
ATOM    123  H26 UNL A   1      15.887  51.859   1.842  1.00  0.00    +0.000 H 
ATOM    124  H27 UNL A   1      12.060  50.125   6.643  1.00  0.00    +0.000 H 
ATOM    125  H28 UNL A   1      12.445  52.586   7.141  1.00  0.00    +0.000 H 
ATOM    126  H29 UNL A   1      14.705  51.593   3.795  1.00  0.00    +0.000 H 
ATOM    127  H30 UNL A   1      13.492  46.833   2.689  1.00  0.00    +0.000 H 
ATOM    128  H31 UNL A   1      15.093  47.021   0.699  1.00  0.00    +0.000 H 
ENDROOT
BRANCH   28   27
ATOM    131  H34 UNL A   1      12.262  55.684   4.941  1.00  0.00    +0.000 H 
ATOM    132  H35 UNL A   1      11.368  57.305   6.506  1.00  0.00    +0.000 H 
ATOM     27  C20 UNL A   1      13.673  54.870   6.291  1.00  0.00    +0.000 C 
ATOM     85  C59 UNL A   1      12.630  55.727   5.904  1.00  0.00    +0.000 C 
ATOM     86  C60 UNL A   1      12.090  56.634   6.812  1.00  0.00    +0.000 C 
ATOM    119  H22 UNL A   1      13.954  55.858   9.492  1.00  0.00    +0.000 H 
ATOM     24  C17 UNL A   1      12.530  56.635   8.139  1.00  0.00    +0.000 C 
ATOM     25  C18 UNL A   1      13.597  55.818   8.525  1.00  0.00    +0.000 C 
ATOM     26  C19 UNL A   1      14.177  54.948   7.599  1.00  0.00    +0.000 C 
ATOM    120  H23 UNL A   1      14.978  54.361   7.876  1.00  0.00    +0.000 H 
BRANCH   24   22
ATOM     22  C16 UNL A   1      11.893  57.506   9.150  1.00  0.00    +0.000 C 
ATOM     23  O4  UNL A   1      12.116  58.714   9.139  1.00  0.00    +0.000 O 
BRANCH   22   21
ATOM     21  N3  UNL A   1      11.064  56.965  10.101  1.00  0.00    +0.000 N 
ATOM    118  H21 UNL A   1      10.835  56.017   9.971  1.00  0.00    +0.000 H 
BRANCH   21   20
ATOM    116  H19 UNL A   1      10.931  58.551  11.418  1.00  0.00    +0.000 H 
ATOM     20  C15 UNL A   1      10.475  57.594  11.275  1.00  0.00    +0.000 C 
ATOM    117  H20 UNL A   1       9.423  57.685  11.106  1.00  0.00    +0.000 H 
BRANCH   20   19
ATOM    114  H17 UNL A   1      11.715  56.792  12.795  1.00  0.00    +0.000 H 
ATOM     19  C14 UNL A   1      10.678  56.758  12.537  1.00  0.00    +0.000 C 
ATOM    115  H18 UNL A   1      10.043  57.182  13.285  1.00  0.00    +0.000 H 
BRANCH   19   18
ATOM    113  H16 UNL A   1      10.314  55.061  11.359  1.00  0.00    +0.000 H 
ATOM     18  C13 UNL A   1      10.268  55.289  12.403  1.00  0.00    +0.000 C 
ATOM    112  H15 UNL A   1       9.290  55.179  12.824  1.00  0.00    +0.000 H 
BRANCH   18   17
ATOM     17  C12 UNL A   1      11.196  54.284  13.098  1.00  0.00    +0.000 C 
ATOM    110  H13 UNL A   1      10.754  54.016  14.035  1.00  0.00    +0.000 H 
ATOM    111  H14 UNL A   1      11.299  53.460  12.424  1.00  0.00    +0.000 H 
BRANCH   17   16
ATOM    108  H11 UNL A   1      12.852  55.549  12.654  1.00  0.00    +0.000 H 
ATOM    109  H12 UNL A   1      12.631  55.163  14.375  1.00  0.00    +0.000 H 
ATOM     16  C11 UNL A   1      12.619  54.791  13.372  1.00  0.00    +0.000 C 
BRANCH   16   15
ATOM    106  H9  UNL A   1      13.878  53.479  12.255  1.00  0.00    +0.000 H 
ATOM    107  H10 UNL A   1      14.572  54.049  13.769  1.00  0.00    +0.000 H 
ATOM     15  C10 UNL A   1      13.685  53.697  13.285  1.00  0.00    +0.000 C 
BRANCH   15   14
ATOM    105  H8  UNL A   1      12.543  52.602  14.627  1.00  0.00    +0.000 H 
ATOM     14  N2  UNL A   1      13.249  52.486  13.951  1.00  0.00    +0.000 N 
BRANCH   14   12
ATOM     12  C9  UNL A   1      13.687  51.205  13.765  1.00  0.00    +0.000 C 
ATOM     13  O3  UNL A   1      14.886  50.971  13.930  1.00  0.00    +0.000 O 
BRANCH   12   11
ATOM     11  C8  UNL A   1      12.737  50.134  13.262  1.00  0.00    +0.000 C 
ATOM    103  H6  UNL A   1      13.313  49.328  12.858  1.00  0.00    +0.000 H 
ATOM    104  H7  UNL A   1      12.140  49.815  14.090  1.00  0.00    +0.000 H 
BRANCH   11   10
ATOM      7  C6  UNL A   1      10.668  51.452  10.500  1.00  0.00    +0.000 C 
ATOM      8  N1  UNL A   1       9.822  51.407  11.539  1.00  0.00    +0.000 N 
ATOM      9  O2  UNL A   1      10.535  50.876  12.595  1.00  0.00    +0.000 O 
ATOM     10  C7  UNL A   1      11.817  50.634  12.212  1.00  0.00    +0.000 C 
ATOM     87  C61 UNL A   1      11.951  50.949  10.874  1.00  0.00    +0.000 C 
BRANCH    7    6
ATOM     97  C70 UNL A   1       9.962  53.916   7.739  1.00  0.00    +0.000 C 
ATOM      3  C2  UNL A   1       9.310  53.108   6.809  1.00  0.00    +0.000 C 
ATOM      4  C3  UNL A   1       9.150  51.746   7.077  1.00  0.00    +0.000 C 
ATOM    101  H4  UNL A   1       8.669  51.143   6.390  1.00  0.00    +0.000 H 
ATOM      5  C4  UNL A   1       9.636  51.190   8.262  1.00  0.00    +0.000 C 
ATOM    102  H5  UNL A   1       9.526  50.179   8.441  1.00  0.00    +0.000 H 
ATOM      6  C5  UNL A   1      10.271  52.001   9.209  1.00  0.00    +0.000 C 
ATOM    140  H43 UNL A   1      10.928  53.967   9.615  1.00  0.00    +0.000 H 
ATOM    141  H44 UNL A   1      10.090  54.921   7.548  1.00  0.00    +0.000 H 
ATOM     96  C69 UNL A   1      10.442  53.364   8.932  1.00  0.00    +0.000 C 
BRANCH    3    2
ATOM      2  O1  UNL A   1       8.767  53.529   5.626  1.00  0.00    +0.000 O 
BRANCH    2    1
ATOM      1  C1  UNL A   1       9.356  53.015   4.439  1.00  0.00    +0.000 C 
ATOM     98  H1  UNL A   1       9.717  53.826   3.840  1.00  0.00    +0.000 H 
ATOM     99  H2  UNL A   1       8.625  52.463   3.887  1.00  0.00    +0.000 H 
ATOM    100  H3  UNL A   1      10.172  52.371   4.695  1.00  0.00    +0.000 H 
ENDBRANCH    2    1
ENDBRANCH    3    2
ENDBRANCH    7    6
BRANCH   87   88
ATOM    133  H36 UNL A   1      13.014  48.858   9.623  1.00  0.00    +0.000 H 
ATOM    134  H37 UNL A   1      15.084  48.753   8.374  1.00  0.00    +0.000 H 
ATOM    138  H41 UNL A   1      15.796  52.809   9.186  1.00  0.00    +0.000 H 
ATOM    139  H42 UNL A   1      13.725  52.920  10.448  1.00  0.00    +0.000 H 
ATOM     88  C62 UNL A   1      13.195  50.901  10.129  1.00  0.00    +0.000 C 
ATOM     89  C63 UNL A   1      13.601  49.701   9.531  1.00  0.00    +0.000 C 
ATOM     90  C64 UNL A   1      14.795  49.642   8.812  1.00  0.00    +0.000 C 
ATOM     91  C65 UNL A   1      15.601  50.772   8.677  1.00  0.00    +0.000 C 
ATOM     94  C67 UNL A   1      15.205  51.969   9.278  1.00  0.00    +0.000 C 
ATOM     95  C68 UNL A   1      14.008  52.032  10.003  1.00  0.00    +0.000 C 
BRANCH   91   92
ATOM     92  O5  UNL A   1      16.738  50.573   7.945  1.00  0.00    +0.000 O 
BRANCH   92   93
ATOM    137  H40 UNL A   1      18.778  50.481   8.005  1.00  0.00    +0.000 H 
ATOM     93  C66 UNL A   1      17.972  50.910   8.563  1.00  0.00    +0.000 C 
ATOM    135  H38 UNL A   1      17.988  50.527   9.561  1.00  0.00    +0.000 H 
ATOM    136  H39 UNL A   1      18.082  51.974   8.586  1.00  0.00    +0.000 H 
ENDBRANCH   92   93
ENDBRANCH   91   92
ENDBRANCH   87   88
ENDBRANCH   11   10
ENDBRANCH   12   11
ENDBRANCH   14   12
ENDBRANCH   15   14
ENDBRANCH   16   15
ENDBRANCH   17   16
ENDBRANCH   18   17
ENDBRANCH   19   18
ENDBRANCH   20   19
ENDBRANCH   21   20
ENDBRANCH   22   21
ENDBRANCH   24   22
ENDBRANCH   28   27
BRANCH   32   33
ATOM     33  C25 UNL A   1      17.840  55.493   0.764  1.00  0.00    +0.000 C 
ATOM     34  C26 UNL A   1      19.116  55.857   1.222  1.00  0.00    +0.000 C 
ATOM     35  F1  UNL A   1      19.679  55.197   2.245  1.00  0.00    +0.000 F 
ATOM     36  C27 UNL A   1      19.803  56.924   0.650  1.00  0.00    +0.000 C 
ATOM     37  F2  UNL A   1      21.003  57.279   1.132  1.00  0.00    +0.000 F 
ATOM     38  C28 UNL A   1      19.245  57.627  -0.407  1.00  0.00    +0.000 C 
ATOM     39  F3  UNL A   1      19.912  58.649  -0.961  1.00  0.00    +0.000 F 
ATOM     40  C29 UNL A   1      17.993  57.273  -0.887  1.00  0.00    +0.000 C 
ATOM     41  F4  UNL A   1      17.457  57.943  -1.917  1.00  0.00    +0.000 F 
ATOM     42  C30 UNL A   1      17.291  56.222  -0.301  1.00  0.00    +0.000 C 
ATOM     43  F5  UNL A   1      16.078  55.911  -0.781  1.00  0.00    +0.000 F 
ENDBRANCH   32   33
BRANCH   49   50
ATOM     50  C36 UNL A   1      16.640  48.556  -0.746  1.00  0.00    +0.000 C 
ATOM     51  C37 UNL A   1      17.839  47.832  -0.664  1.00  0.00    +0.000 C 
ATOM     52  F6  UNL A   1      18.700  48.065   0.338  1.00  0.00    +0.000 F 
ATOM     53  C38 UNL A   1      18.170  46.889  -1.632  1.00  0.00    +0.000 C 
ATOM     54  F7  UNL A   1      19.337  46.234  -1.554  1.00  0.00    +0.000 F 
ATOM     55  C39 UNL A   1      17.301  46.631  -2.681  1.00  0.00    +0.000 C 
ATOM     56  F8  UNL A   1      17.617  45.715  -3.607  1.00  0.00    +0.000 F 
ATOM     57  C40 UNL A   1      16.106  47.329  -2.776  1.00  0.00    +0.000 C 
ATOM     58  F9  UNL A   1      15.260  47.073  -3.784  1.00  0.00    +0.000 F 
ATOM     59  C41 UNL A   1      15.782  48.290  -1.823  1.00  0.00    +0.000 C 
ATOM     60  F10 UNL A   1      14.623  48.954  -1.944  1.00  0.00    +0.000 F 
ENDBRANCH   49   50
BRANCH   64   65
ATOM     65  C45 UNL A   1      12.512  48.111   4.844  1.00  0.00    +0.000 C 
ATOM     66  C46 UNL A   1      13.001  47.315   5.889  1.00  0.00    +0.000 C 
ATOM     67  F11 UNL A   1      14.240  47.517   6.360  1.00  0.00    +0.000 F 
ATOM     68  C47 UNL A   1      12.234  46.284   6.427  1.00  0.00    +0.000 C 
ATOM     69  F12 UNL A   1      12.739  45.513   7.399  1.00  0.00    +0.000 F 
ATOM     70  C48 UNL A   1      10.954  46.047   5.948  1.00  0.00    +0.000 C 
ATOM     71  F13 UNL A   1      10.214  45.058   6.470  1.00  0.00    +0.000 F 
ATOM     72  C49 UNL A   1      10.444  46.830   4.924  1.00  0.00    +0.000 C 
ATOM     73  F14 UNL A   1       9.204  46.610   4.467  1.00  0.00    +0.000 F 
ATOM     74  C50 UNL A   1      11.219  47.845   4.368  1.00  0.00    +0.000 C 
ATOM     75  F15 UNL A   1      10.707  48.581   3.371  1.00  0.00    +0.000 F 
ENDBRANCH   64   65
TORSDOF 22
ENDMDL
MODEL 6
REMARK VINA RESULT:     -11.1     44.772     49.937
ROOT
ATOM    129  H32 UNL A   1      16.496  56.770   2.770  1.00  0.00    +0.000 H 
ATOM    130  H33 UNL A   1      15.169  56.477   4.943  1.00  0.00    +0.000 H 
ATOM     28  C21 UNL A   1      14.093  53.863   5.282  1.00  0.00    +0.000 C 
ATOM     29  C22 UNL A   1      15.004  54.344   4.190  1.00  0.00    +0.000 C 
ATOM     30  N4  UNL A   1      15.499  53.683   3.173  1.00  0.00    +0.000 N 
ATOM     31  C23 UNL A   1      16.239  54.607   2.447  1.00  0.00    +0.000 C 
ATOM     32  C24 UNL A   1      16.983  54.402   1.335  1.00  0.00    +0.000 C 
ATOM     44  C31 UNL A   1      17.144  53.126   0.689  1.00  0.00    +0.000 C 
ATOM     45  C32 UNL A   1      17.941  52.802  -0.396  1.00  0.00    +0.000 C 
ATOM     46  C33 UNL A   1      17.738  51.452  -0.699  1.00  0.00    +0.000 C 
ATOM     47  C34 UNL A   1      16.845  50.925   0.220  1.00  0.00    +0.000 C 
ATOM     48  N5  UNL A   1      16.493  51.962   1.069  1.00  0.00    +0.000 N 
ATOM     49  C35 UNL A   1      16.342  49.579   0.313  1.00  0.00    +0.000 C 
ATOM     61  C42 UNL A   1      15.516  49.123   1.286  1.00  0.00    +0.000 C 
ATOM     62  N6  UNL A   1      14.979  49.810   2.365  1.00  0.00    +0.000 N 
ATOM     63  C43 UNL A   1      14.236  48.945   3.009  1.00  0.00    +0.000 C 
ATOM     64  C44 UNL A   1      13.424  49.138   4.261  1.00  0.00    +0.000 C 
ATOM     76  C51 UNL A   1      13.420  50.341   4.865  1.00  0.00    +0.000 C 
ATOM     77  C52 UNL A   1      12.663  50.680   6.067  1.00  0.00    +0.000 C 
ATOM     78  C53 UNL A   1      12.824  51.987   6.330  1.00  0.00    +0.000 C 
ATOM     79  C54 UNL A   1      13.730  52.568   5.338  1.00  0.00    +0.000 C 
ATOM     80  N7  UNL A   1      14.059  51.509   4.528  1.00  0.00    +0.000 N 
ATOM     81  C55 UNL A   1      14.205  47.608   2.399  1.00  0.00    +0.000 C 
ATOM     82  C56 UNL A   1      15.026  47.764   1.369  1.00  0.00    +0.000 C 
ATOM     83  C57 UNL A   1      16.098  55.882   3.116  1.00  0.00    +0.000 C 
ATOM     84  C58 UNL A   1      15.391  55.762   4.231  1.00  0.00    +0.000 C 
ATOM    121  H24 UNL A   1      18.575  53.446  -0.895  1.00  0.00    +0.000 H 
ATOM    122  H25 UNL A   1      18.179  50.935  -1.477  1.00  0.00    +0.000 H 
ATOM    123  H26 UNL A   1      15.873  51.884   1.830  1.00  0.00    +0.000 H 
ATOM    124  H27 UNL A   1      12.096  50.022   6.623  1.00  0.00    +0.000 H 
ATOM    125  H28 UNL A   1      12.379  52.500   7.108  1.00  0.00    +0.000 H 
ATOM    126  H29 UNL A   1      14.693  51.581   3.778  1.00  0.00    +0.000 H 
ATOM    127  H30 UNL A   1      13.681  46.769   2.694  1.00  0.00    +0.000 H 
ATOM    128  H31 UNL A   1      15.282  47.011   0.711  1.00  0.00    +0.000 H 
ENDROOT
BRANCH   28   27
ATOM    131  H34 UNL A   1      11.763  55.160   5.115  1.00  0.00    +0.000 H 
ATOM    132  H35 UNL A   1      10.790  56.743   6.670  1.00  0.00    +0.000 H 
ATOM     27  C20 UNL A   1      13.517  54.827   6.251  1.00  0.00    +0.000 C 
ATOM     85  C59 UNL A   1      12.261  55.396   5.987  1.00  0.00    +0.000 C 
ATOM     86  C60 UNL A   1      11.682  56.279   6.897  1.00  0.00    +0.000 C 
ATOM    119  H22 UNL A   1      14.075  56.241   9.250  1.00  0.00    +0.000 H 
ATOM     24  C17 UNL A   1      12.316  56.534   8.116  1.00  0.00    +0.000 C 
ATOM     25  C18 UNL A   1      13.586  56.009   8.371  1.00  0.00    +0.000 C 
ATOM     26  C19 UNL A   1      14.192  55.169   7.434  1.00  0.00    +0.000 C 
ATOM    120  H23 UNL A   1      15.138  54.798   7.610  1.00  0.00    +0.000 H 
BRANCH   24   22
ATOM     22  C16 UNL A   1      11.669  57.374   9.146  1.00  0.00    +0.000 C 
ATOM     23  O4  UNL A   1      11.988  58.556   9.257  1.00  0.00    +0.000 O 
BRANCH   22   21
ATOM     21  N3  UNL A   1      10.724  56.834   9.982  1.00  0.00    +0.000 N 
ATOM    118  H21 UNL A   1      10.174  56.118   9.589  1.00  0.00    +0.000 H 
BRANCH   21   20
ATOM    116  H19 UNL A   1      10.843  58.122  11.592  1.00  0.00    +0.000 H 
ATOM     20  C15 UNL A   1      10.418  57.167  11.366  1.00  0.00    +0.000 C 
ATOM    117  H20 UNL A   1       9.355  57.178  11.475  1.00  0.00    +0.000 H 
BRANCH   20   19
ATOM    114  H17 UNL A   1      12.046  56.159  12.276  1.00  0.00    +0.000 H 
ATOM     19  C14 UNL A   1      10.979  56.135  12.342  1.00  0.00    +0.000 C 
ATOM    115  H18 UNL A   1      10.610  56.404  13.310  1.00  0.00    +0.000 H 
BRANCH   19   18
ATOM    113  H16 UNL A   1      10.043  54.703  11.129  1.00  0.00    +0.000 H 
ATOM     18  C13 UNL A   1      10.517  54.697  12.088  1.00  0.00    +0.000 C 
ATOM    112  H15 UNL A   1       9.865  54.413  12.887  1.00  0.00    +0.000 H 
BRANCH   18   17
ATOM     17  C12 UNL A   1      11.639  53.655  12.000  1.00  0.00    +0.000 C 
ATOM    110  H13 UNL A   1      12.022  53.496  12.987  1.00  0.00    +0.000 H 
ATOM    111  H14 UNL A   1      11.199  52.781  11.568  1.00  0.00    +0.000 H 
BRANCH   17   16
ATOM    108  H11 UNL A   1      12.874  53.319  10.297  1.00  0.00    +0.000 H 
ATOM    109  H12 UNL A   1      12.624  55.025  10.730  1.00  0.00    +0.000 H 
ATOM     16  C11 UNL A   1      12.814  54.036  11.090  1.00  0.00    +0.000 C 
BRANCH   16   15
ATOM    106  H9  UNL A   1      14.927  53.740  11.142  1.00  0.00    +0.000 H 
ATOM    107  H10 UNL A   1      14.348  55.077  12.131  1.00  0.00    +0.000 H 
ATOM     15  C10 UNL A   1      14.162  54.073  11.813  1.00  0.00    +0.000 C 
BRANCH   15   14
ATOM    105  H8  UNL A   1      13.471  53.423  13.658  1.00  0.00    +0.000 H 
ATOM     14  N2  UNL A   1      14.154  53.215  12.981  1.00  0.00    +0.000 N 
BRANCH   14   12
ATOM     12  C9  UNL A   1      14.967  52.154  13.267  1.00  0.00    +0.000 C 
ATOM     13  O3  UNL A   1      16.178  52.282  13.072  1.00  0.00    +0.000 O 
BRANCH   12   11
ATOM     11  C8  UNL A   1      14.375  50.828  13.705  1.00  0.00    +0.000 C 
ATOM    103  H6  UNL A   1      15.124  50.070  13.609  1.00  0.00    +0.000 H 
ATOM    104  H7  UNL A   1      14.052  50.936  14.719  1.00  0.00    +0.000 H 
BRANCH   11   10
ATOM      7  C6  UNL A   1      11.592  49.883  11.467  1.00  0.00    +0.000 C 
ATOM      8  N1  UNL A   1      10.982  50.199  12.619  1.00  0.00    +0.000 N 
ATOM      9  O2  UNL A   1      11.985  50.519  13.512  1.00  0.00    +0.000 O 
ATOM     10  C7  UNL A   1      13.195  50.435  12.898  1.00  0.00    +0.000 C 
ATOM     87  C61 UNL A   1      13.009  49.999  11.601  1.00  0.00    +0.000 C 
BRANCH    7    6
ATOM     97  C70 UNL A   1      10.100  47.857   8.663  1.00  0.00    +0.000 C 
ATOM      3  C2  UNL A   1       9.574  48.860   7.850  1.00  0.00    +0.000 C 
ATOM      4  C3  UNL A   1       9.670  50.194   8.255  1.00  0.00    +0.000 C 
ATOM    101  H4  UNL A   1       9.281  50.939   7.656  1.00  0.00    +0.000 H 
ATOM      5  C4  UNL A   1      10.288  50.529   9.462  1.00  0.00    +0.000 C 
ATOM    102  H5  UNL A   1      10.339  51.517   9.758  1.00  0.00    +0.000 H 
ATOM      6  C5  UNL A   1      10.838  49.529  10.270  1.00  0.00    +0.000 C 
ATOM    140  H43 UNL A   1      11.112  47.444  10.468  1.00  0.00    +0.000 H 
ATOM    141  H44 UNL A   1      10.028  46.870   8.375  1.00  0.00    +0.000 H 
ATOM     96  C69 UNL A   1      10.727  48.191   9.869  1.00  0.00    +0.000 C 
BRANCH    3    2
ATOM      2  O1  UNL A   1       8.969  48.669   6.637  1.00  0.00    +0.000 O 
BRANCH    2    1
ATOM      1  C1  UNL A   1       7.734  47.965   6.648  1.00  0.00    +0.000 C 
ATOM     98  H1  UNL A   1       7.343  47.945   7.644  1.00  0.00    +0.000 H 
ATOM     99  H2  UNL A   1       7.891  46.964   6.307  1.00  0.00    +0.000 H 
ATOM    100  H3  UNL A   1       7.037  48.457   6.001  1.00  0.00    +0.000 H 
ENDBRANCH    2    1
ENDBRANCH    3    2
ENDBRANCH    7    6
BRANCH   87   88
ATOM    133  H36 UNL A   1      13.775  51.794   9.797  1.00  0.00    +0.000 H 
ATOM    134  H37 UNL A   1      15.522  51.597   8.134  1.00  0.00    +0.000 H 
ATOM    138  H41 UNL A   1      16.374  47.710   9.471  1.00  0.00    +0.000 H 
ATOM    139  H42 UNL A   1      14.616  47.898  11.135  1.00  0.00    +0.000 H 
ATOM     88  C62 UNL A   1      14.060  49.866  10.609  1.00  0.00    +0.000 C 
ATOM     89  C63 UNL A   1      14.326  50.925   9.732  1.00  0.00    +0.000 C 
ATOM     90  C64 UNL A   1      15.334  50.809   8.774  1.00  0.00    +0.000 C 
ATOM     91  C65 UNL A   1      16.089  49.641   8.673  1.00  0.00    +0.000 C 
ATOM     94  C67 UNL A   1      15.822  48.579   9.540  1.00  0.00    +0.000 C 
ATOM     95  C68 UNL A   1      14.809  48.690  10.502  1.00  0.00    +0.000 C 
BRANCH   91   92
ATOM     92  O5  UNL A   1      17.043  49.666   7.695  1.00  0.00    +0.000 O 
BRANCH   92   93
ATOM    137  H40 UNL A   1      17.287  49.214   5.717  1.00  0.00    +0.000 H 
ATOM     93  C66 UNL A   1      16.588  49.721   6.350  1.00  0.00    +0.000 C 
ATOM    135  H38 UNL A   1      16.505  50.742   6.043  1.00  0.00    +0.000 H 
ATOM    136  H39 UNL A   1      15.633  49.246   6.276  1.00  0.00    +0.000 H 
ENDBRANCH   92   93
ENDBRANCH   91   92
ENDBRANCH   87   88
ENDBRANCH   11   10
ENDBRANCH   12   11
ENDBRANCH   14   12
ENDBRANCH   15   14
ENDBRANCH   16   15
ENDBRANCH   17   16
ENDBRANCH   18   17
ENDBRANCH   19   18
ENDBRANCH   20   19
ENDBRANCH   21   20
ENDBRANCH   22   21
ENDBRANCH   24   22
ENDBRANCH   28   27
BRANCH   32   33
ATOM     33  C25 UNL A   1      17.682  55.588   0.740  1.00  0.00    +0.000 C 
ATOM     34  C26 UNL A   1      17.083  56.368  -0.261  1.00  0.00    +0.000 C 
ATOM     35  F1  UNL A   1      15.878  56.034  -0.746  1.00  0.00    +0.000 F 
ATOM     36  C27 UNL A   1      17.737  57.477  -0.791  1.00  0.00    +0.000 C 
ATOM     37  F2  UNL A   1      17.162  58.183  -1.775  1.00  0.00    +0.000 F 
ATOM     38  C28 UNL A   1      18.985  57.846  -0.311  1.00  0.00    +0.000 C 
ATOM     39  F3  UNL A   1      19.609  58.919  -0.817  1.00  0.00    +0.000 F 
ATOM     40  C29 UNL A   1      19.587  57.100   0.691  1.00  0.00    +0.000 C 
ATOM     41  F4  UNL A   1      20.788  57.462   1.165  1.00  0.00    +0.000 F 
ATOM     42  C30 UNL A   1      18.948  55.974   1.205  1.00  0.00    +0.000 C 
ATOM     43  F5  UNL A   1      19.561  55.267   2.165  1.00  0.00    +0.000 F 
ENDBRANCH   32   33
BRANCH   49   50
ATOM     50  C36 UNL A   1      16.773  48.599  -0.736  1.00  0.00    +0.000 C 
ATOM     51  C37 UNL A   1      17.978  47.892  -0.621  1.00  0.00    +0.000 C 
ATOM     52  F6  UNL A   1      18.806  48.131   0.407  1.00  0.00    +0.000 F 
ATOM     53  C38 UNL A   1      18.351  46.957  -1.583  1.00  0.00    +0.000 C 
ATOM     54  F7  UNL A   1      19.524  46.318  -1.473  1.00  0.00    +0.000 F 
ATOM     55  C39 UNL A   1      17.517  46.693  -2.659  1.00  0.00    +0.000 C 
ATOM     56  F8  UNL A   1      17.874  45.786  -3.579  1.00  0.00    +0.000 F 
ATOM     57  C40 UNL A   1      16.316  47.375  -2.786  1.00  0.00    +0.000 C 
ATOM     58  F9  UNL A   1      15.504  47.113  -3.821  1.00  0.00    +0.000 F 
ATOM     59  C41 UNL A   1      15.951  48.327  -1.839  1.00  0.00    +0.000 C 
ATOM     60  F10 UNL A   1      14.787  48.976  -1.992  1.00  0.00    +0.000 F 
ENDBRANCH   49   50
BRANCH   64   65
ATOM     65  C45 UNL A   1      12.639  48.018   4.838  1.00  0.00    +0.000 C 
ATOM     66  C46 UNL A   1      11.429  47.617   4.257  1.00  0.00    +0.000 C 
ATOM     67  F11 UNL A   1      10.955  48.267   3.183  1.00  0.00    +0.000 F 
ATOM     68  C47 UNL A   1      10.682  46.573   4.797  1.00  0.00    +0.000 C 
ATOM     69  F12 UNL A   1       9.509  46.234   4.245  1.00  0.00    +0.000 F 
ATOM     70  C48 UNL A   1      11.145  45.893   5.915  1.00  0.00    +0.000 C 
ATOM     71  F13 UNL A   1      10.429  44.885   6.432  1.00  0.00    +0.000 F 
ATOM     72  C49 UNL A   1      12.346  46.264   6.499  1.00  0.00    +0.000 C 
ATOM     73  F14 UNL A   1      12.801  45.602   7.572  1.00  0.00    +0.000 F 
ATOM     74  C50 UNL A   1      13.082  47.323   5.973  1.00  0.00    +0.000 C 
ATOM     75  F15 UNL A   1      14.235  47.669   6.564  1.00  0.00    +0.000 F 
ENDBRANCH   64   65
TORSDOF 22
ENDMDL
MODEL 7
REMARK VINA RESULT:     -11.0      6.131     10.204
ROOT
ATOM    129  H32 UNL A   1      50.760  22.652  14.926  1.00  0.00    +0.000 H 
ATOM    130  H33 UNL A   1      50.308  21.651  12.611  1.00  0.00    +0.000 H 
ATOM     28  C21 UNL A   1      52.559  20.323  11.481  1.00  0.00    +0.000 C 
ATOM     29  C22 UNL A   1      52.442  20.920  12.853  1.00  0.00    +0.000 C 
ATOM     30  N4  UNL A   1      53.327  20.960  13.817  1.00  0.00    +0.000 N 
ATOM     31  C23 UNL A   1      52.726  21.663  14.853  1.00  0.00    +0.000 C 
ATOM     32  C24 UNL A   1      53.218  21.931  16.085  1.00  0.00    +0.000 C 
ATOM     44  C31 UNL A   1      54.509  21.503  16.555  1.00  0.00    +0.000 C 
ATOM     45  C32 UNL A   1      55.064  21.657  17.814  1.00  0.00    +0.000 C 
ATOM     46  C33 UNL A   1      56.357  21.125  17.790  1.00  0.00    +0.000 C 
ATOM     47  C34 UNL A   1      56.594  20.605  16.527  1.00  0.00    +0.000 C 
ATOM     48  N5  UNL A   1      55.450  20.839  15.782  1.00  0.00    +0.000 N 
ATOM     49  C35 UNL A   1      57.778  19.952  16.032  1.00  0.00    +0.000 C 
ATOM     61  C42 UNL A   1      57.909  19.410  14.797  1.00  0.00    +0.000 C 
ATOM     62  N6  UNL A   1      56.984  19.365  13.763  1.00  0.00    +0.000 N 
ATOM     63  C43 UNL A   1      57.582  18.751  12.773  1.00  0.00    +0.000 C 
ATOM     64  C44 UNL A   1      57.051  18.417  11.406  1.00  0.00    +0.000 C 
ATOM     76  C51 UNL A   1      55.787  18.755  11.088  1.00  0.00    +0.000 C 
ATOM     77  C52 UNL A   1      55.147  18.517   9.798  1.00  0.00    +0.000 C 
ATOM     78  C53 UNL A   1      53.922  19.068   9.809  1.00  0.00    +0.000 C 
ATOM     79  C54 UNL A   1      53.676  19.662  11.124  1.00  0.00    +0.000 C 
ATOM     80  N7  UNL A   1      54.825  19.399  11.828  1.00  0.00    +0.000 N 
ATOM     81  C55 UNL A   1      58.967  18.351  13.061  1.00  0.00    +0.000 C 
ATOM     82  C56 UNL A   1      59.105  18.749  14.318  1.00  0.00    +0.000 C 
ATOM     83  C57 UNL A   1      51.416  22.065  14.387  1.00  0.00    +0.000 C 
ATOM     84  C58 UNL A   1      51.169  21.581  13.178  1.00  0.00    +0.000 C 
ATOM    121  H24 UNL A   1      54.603  22.090  18.630  1.00  0.00    +0.000 H 
ATOM    122  H25 UNL A   1      57.023  21.120  18.578  1.00  0.00    +0.000 H 
ATOM    123  H26 UNL A   1      55.323  20.574  14.842  1.00  0.00    +0.000 H 
ATOM    124  H27 UNL A   1      55.568  18.008   9.005  1.00  0.00    +0.000 H 
ATOM    125  H28 UNL A   1      53.261  19.072   9.017  1.00  0.00    +0.000 H 
ATOM    126  H29 UNL A   1      54.947  19.647  12.773  1.00  0.00    +0.000 H 
ATOM    127  H30 UNL A   1      59.651  17.883  12.446  1.00  0.00    +0.000 H 
ATOM    128  H31 UNL A   1      59.956  18.606  14.883  1.00  0.00    +0.000 H 
ENDROOT
BRANCH   28   27
ATOM    131  H34 UNL A   1      52.307  22.343   9.750  1.00  0.00    +0.000 H 
ATOM    132  H35 UNL A   1      50.567  22.729   8.107  1.00  0.00    +0.000 H 
ATOM     27  C20 UNL A   1      51.484  20.536  10.481  1.00  0.00    +0.000 C 
ATOM     85  C59 UNL A   1      51.538  21.663   9.645  1.00  0.00    +0.000 C 
ATOM     86  C60 UNL A   1      50.559  21.869   8.676  1.00  0.00    +0.000 C 
ATOM    119  H22 UNL A   1      48.709  19.121   9.215  1.00  0.00    +0.000 H 
ATOM     24  C17 UNL A   1      49.565  20.906   8.477  1.00  0.00    +0.000 C 
ATOM     25  C18 UNL A   1      49.474  19.803   9.331  1.00  0.00    +0.000 C 
ATOM     26  C19 UNL A   1      50.424  19.626  10.340  1.00  0.00    +0.000 C 
ATOM    120  H23 UNL A   1      50.346  18.825  10.985  1.00  0.00    +0.000 H 
BRANCH   24   22
ATOM     22  C16 UNL A   1      48.584  21.044   7.379  1.00  0.00    +0.000 C 
ATOM     23  O4  UNL A   1      48.102  22.146   7.128  1.00  0.00    +0.000 O 
BRANCH   22   21
ATOM     21  N3  UNL A   1      48.207  19.943   6.651  1.00  0.00    +0.000 N 
ATOM    118  H21 UNL A   1      47.574  19.338   7.099  1.00  0.00    +0.000 H 
BRANCH   21   20
ATOM    116  H19 UNL A   1      47.796  19.026   4.846  1.00  0.00    +0.000 H 
ATOM     20  C15 UNL A   1      48.609  19.544   5.310  1.00  0.00    +0.000 C 
ATOM    117  H20 UNL A   1      48.868  20.427   4.766  1.00  0.00    +0.000 H 
BRANCH   20   19
ATOM    114  H17 UNL A   1      49.746  17.973   6.167  1.00  0.00    +0.000 H 
ATOM     19  C14 UNL A   1      49.831  18.627   5.326  1.00  0.00    +0.000 C 
ATOM    115  H18 UNL A   1      49.833  18.111   4.389  1.00  0.00    +0.000 H 
BRANCH   19   18
ATOM    113  H16 UNL A   1      50.943  20.384   5.599  1.00  0.00    +0.000 H 
ATOM     18  C13 UNL A   1      51.175  19.355   5.421  1.00  0.00    +0.000 C 
ATOM    112  H15 UNL A   1      51.707  19.188   4.508  1.00  0.00    +0.000 H 
BRANCH   18   17
ATOM     17  C12 UNL A   1      52.077  18.916   6.582  1.00  0.00    +0.000 C 
ATOM    110  H13 UNL A   1      53.065  18.770   6.197  1.00  0.00    +0.000 H 
ATOM    111  H14 UNL A   1      52.015  19.691   7.316  1.00  0.00    +0.000 H 
BRANCH   17   16
ATOM    108  H11 UNL A   1      51.436  17.852   8.312  1.00  0.00    +0.000 H 
ATOM    109  H12 UNL A   1      50.788  17.252   6.769  1.00  0.00    +0.000 H 
ATOM     16  C11 UNL A   1      51.647  17.623   7.289  1.00  0.00    +0.000 C 
BRANCH   16   15
ATOM    106  H9  UNL A   1      53.608  16.920   6.829  1.00  0.00    +0.000 H 
ATOM    107  H10 UNL A   1      52.875  16.174   8.245  1.00  0.00    +0.000 H 
ATOM     15  C10 UNL A   1      52.707  16.521   7.247  1.00  0.00    +0.000 C 
BRANCH   15   14
ATOM    105  H8  UNL A   1      52.485  14.509   6.794  1.00  0.00    +0.000 H 
ATOM     14  N2  UNL A   1      52.268  15.401   6.439  1.00  0.00    +0.000 N 
BRANCH   14   12
ATOM     12  C9  UNL A   1      51.592  15.419   5.251  1.00  0.00    +0.000 C 
ATOM     13  O3  UNL A   1      50.543  14.776   5.170  1.00  0.00    +0.000 O 
BRANCH   12   11
ATOM     11  C8  UNL A   1      52.183  16.120   4.042  1.00  0.00    +0.000 C 
ATOM    103  H6  UNL A   1      51.470  16.086   3.245  1.00  0.00    +0.000 H 
ATOM    104  H7  UNL A   1      52.407  17.126   4.328  1.00  0.00    +0.000 H 
BRANCH   11   10
ATOM      7  C6  UNL A   1      55.457  14.789   2.969  1.00  0.00    +0.000 C 
ATOM      8  N1  UNL A   1      54.572  14.027   2.311  1.00  0.00    +0.000 N 
ATOM      9  O2  UNL A   1      53.322  14.454   2.711  1.00  0.00    +0.000 O 
ATOM     10  C7  UNL A   1      53.444  15.494   3.579  1.00  0.00    +0.000 C 
ATOM     87  C61 UNL A   1      54.785  15.729   3.809  1.00  0.00    +0.000 C 
BRANCH    7    6
ATOM     97  C70 UNL A   1      58.975  13.455   3.167  1.00  0.00    +0.000 C 
ATOM      3  C2  UNL A   1      59.694  14.484   2.560  1.00  0.00    +0.000 C 
ATOM      4  C3  UNL A   1      59.009  15.588   2.045  1.00  0.00    +0.000 C 
ATOM    101  H4  UNL A   1      59.538  16.351   1.593  1.00  0.00    +0.000 H 
ATOM      5  C4  UNL A   1      57.618  15.669   2.134  1.00  0.00    +0.000 C 
ATOM    102  H5  UNL A   1      57.122  16.483   1.735  1.00  0.00    +0.000 H 
ATOM      6  C5  UNL A   1      56.894  14.651   2.763  1.00  0.00    +0.000 C 
ATOM    140  H43 UNL A   1      57.055  12.771   3.713  1.00  0.00    +0.000 H 
ATOM    141  H44 UNL A   1      59.471  12.633   3.545  1.00  0.00    +0.000 H 
ATOM     96  C69 UNL A   1      57.582  13.538   3.265  1.00  0.00    +0.000 C 
BRANCH    3    2
ATOM      2  O1  UNL A   1      61.055  14.539   2.431  1.00  0.00    +0.000 O 
BRANCH    2    1
ATOM      1  C1  UNL A   1      61.697  15.690   2.966  1.00  0.00    +0.000 C 
ATOM     98  H1  UNL A   1      62.754  15.610   2.815  1.00  0.00    +0.000 H 
ATOM     99  H2  UNL A   1      61.491  15.759   4.013  1.00  0.00    +0.000 H 
ATOM    100  H3  UNL A   1      61.331  16.565   2.471  1.00  0.00    +0.000 H 
ENDBRANCH    2    1
ENDBRANCH    3    2
ENDBRANCH    7    6
BRANCH   87   88
ATOM    133  H36 UNL A   1      56.078  15.548   6.124  1.00  0.00    +0.000 H 
ATOM    134  H37 UNL A   1      56.969  17.339   7.487  1.00  0.00    +0.000 H 
ATOM    138  H41 UNL A   1      55.580  20.162   4.708  1.00  0.00    +0.000 H 
ATOM    139  H42 UNL A   1      54.677  18.371   3.341  1.00  0.00    +0.000 H 
ATOM     88  C62 UNL A   1      55.314  16.813   4.616  1.00  0.00    +0.000 C 
ATOM     89  C63 UNL A   1      55.972  16.528   5.818  1.00  0.00    +0.000 C 
ATOM     90  C64 UNL A   1      56.484  17.561   6.603  1.00  0.00    +0.000 C 
ATOM     91  C65 UNL A   1      56.350  18.891   6.204  1.00  0.00    +0.000 C 
ATOM     94  C67 UNL A   1      55.687  19.182   5.010  1.00  0.00    +0.000 C 
ATOM     95  C68 UNL A   1      55.169  18.147   4.220  1.00  0.00    +0.000 C 
BRANCH   91   92
ATOM     92  O5  UNL A   1      56.900  19.798   7.064  1.00  0.00    +0.000 O 
BRANCH   92   93
ATOM    137  H40 UNL A   1      56.774  21.676   7.861  1.00  0.00    +0.000 H 
ATOM     93  C66 UNL A   1      56.361  21.113   7.051  1.00  0.00    +0.000 C 
ATOM    135  H38 UNL A   1      55.298  21.063   7.158  1.00  0.00    +0.000 H 
ATOM    136  H39 UNL A   1      56.605  21.589   6.125  1.00  0.00    +0.000 H 
ENDBRANCH   92   93
ENDBRANCH   91   92
ENDBRANCH   87   88
ENDBRANCH   11   10
ENDBRANCH   12   11
ENDBRANCH   14   12
ENDBRANCH   15   14
ENDBRANCH   16   15
ENDBRANCH   17   16
ENDBRANCH   18   17
ENDBRANCH   19   18
ENDBRANCH   20   19
ENDBRANCH   21   20
ENDBRANCH   22   21
ENDBRANCH   24   22
ENDBRANCH   28   27
BRANCH   32   33
ATOM     33  C25 UNL A   1      52.355  22.726  17.019  1.00  0.00    +0.000 C 
ATOM     34  C26 UNL A   1      52.296  24.127  16.951  1.00  0.00    +0.000 C 
ATOM     35  F1  UNL A   1      53.059  24.792  16.071  1.00  0.00    +0.000 F 
ATOM     36  C27 UNL A   1      51.476  24.851  17.812  1.00  0.00    +0.000 C 
ATOM     37  F2  UNL A   1      51.467  26.190  17.756  1.00  0.00    +0.000 F 
ATOM     38  C28 UNL A   1      50.677  24.191  18.734  1.00  0.00    +0.000 C 
ATOM     39  F3  UNL A   1      49.883  24.889  19.556  1.00  0.00    +0.000 F 
ATOM     40  C29 UNL A   1      50.706  22.806  18.805  1.00  0.00    +0.000 C 
ATOM     41  F4  UNL A   1      49.925  22.165  19.687  1.00  0.00    +0.000 F 
ATOM     42  C30 UNL A   1      51.544  22.079  17.964  1.00  0.00    +0.000 C 
ATOM     43  F5  UNL A   1      51.558  20.742  18.065  1.00  0.00    +0.000 F 
ENDBRANCH   32   33
BRANCH   49   50
ATOM     50  C36 UNL A   1      58.954  19.847  16.956  1.00  0.00    +0.000 C 
ATOM     51  C37 UNL A   1      59.821  20.931  17.158  1.00  0.00    +0.000 C 
ATOM     52  F6  UNL A   1      59.648  22.070  16.471  1.00  0.00    +0.000 F 
ATOM     53  C38 UNL A   1      60.889  20.835  18.045  1.00  0.00    +0.000 C 
ATOM     54  F7  UNL A   1      61.726  21.870  18.197  1.00  0.00    +0.000 F 
ATOM     55  C39 UNL A   1      61.093  19.668  18.766  1.00  0.00    +0.000 C 
ATOM     56  F8  UNL A   1      62.117  19.581  19.627  1.00  0.00    +0.000 F 
ATOM     57  C40 UNL A   1      60.242  18.587  18.588  1.00  0.00    +0.000 C 
ATOM     58  F9  UNL A   1      60.433  17.462  19.291  1.00  0.00    +0.000 F 
ATOM     59  C41 UNL A   1      59.188  18.671  17.683  1.00  0.00    +0.000 C 
ATOM     60  F10 UNL A   1      58.385  17.608  17.527  1.00  0.00    +0.000 F 
ENDBRANCH   49   50
BRANCH   64   65
ATOM     65  C45 UNL A   1      57.898  17.711  10.412  1.00  0.00    +0.000 C 
ATOM     66  C46 UNL A   1      57.864  16.315  10.304  1.00  0.00    +0.000 C 
ATOM     67  F11 UNL A   1      57.080  15.600  11.123  1.00  0.00    +0.000 F 
ATOM     68  C47 UNL A   1      58.663  15.645   9.381  1.00  0.00    +0.000 C 
ATOM     69  F12 UNL A   1      58.640  14.307   9.323  1.00  0.00    +0.000 F 
ATOM     70  C48 UNL A   1      59.493  16.362   8.529  1.00  0.00    +0.000 C 
ATOM     71  F13 UNL A   1      60.258  15.718   7.637  1.00  0.00    +0.000 F 
ATOM     72  C49 UNL A   1      59.533  17.745   8.610  1.00  0.00    +0.000 C 
ATOM     73  F14 UNL A   1      60.325  18.441   7.782  1.00  0.00    +0.000 F 
ATOM     74  C50 UNL A   1      58.753  18.414   9.549  1.00  0.00    +0.000 C 
ATOM     75  F15 UNL A   1      58.819  19.752   9.614  1.00  0.00    +0.000 F 
ENDBRANCH   64   65
TORSDOF 22
ENDMDL
MODEL 8
REMARK VINA RESULT:     -11.0     44.663     49.728
ROOT
ATOM    129  H32 UNL A   1      11.949  50.332   6.063  1.00  0.00    +0.000 H 
ATOM    130  H33 UNL A   1      12.090  52.873   6.361  1.00  0.00    +0.000 H 
ATOM     28  C21 UNL A   1      13.934  54.131   4.594  1.00  0.00    +0.000 C 
ATOM     29  C22 UNL A   1      13.526  52.686   4.616  1.00  0.00    +0.000 C 
ATOM     30  N4  UNL A   1      13.916  51.704   3.843  1.00  0.00    +0.000 N 
ATOM     31  C23 UNL A   1      13.270  50.571   4.318  1.00  0.00    +0.000 C 
ATOM     32  C24 UNL A   1      13.309  49.310   3.825  1.00  0.00    +0.000 C 
ATOM     44  C31 UNL A   1      14.059  48.916   2.662  1.00  0.00    +0.000 C 
ATOM     45  C32 UNL A   1      14.099  47.681   2.038  1.00  0.00    +0.000 C 
ATOM     46  C33 UNL A   1      15.003  47.757   0.974  1.00  0.00    +0.000 C 
ATOM     47  C34 UNL A   1      15.498  49.050   0.910  1.00  0.00    +0.000 C 
ATOM     48  N5  UNL A   1      14.906  49.752   1.949  1.00  0.00    +0.000 N 
ATOM     49  C35 UNL A   1      16.447  49.605  -0.021  1.00  0.00    +0.000 C 
ATOM     61  C42 UNL A   1      16.833  50.903  -0.057  1.00  0.00    +0.000 C 
ATOM     62  N6  UNL A   1      16.434  51.954   0.758  1.00  0.00    +0.000 N 
ATOM     63  C43 UNL A   1      17.094  53.004   0.338  1.00  0.00    +0.000 C 
ATOM     64  C44 UNL A   1      17.049  54.418   0.848  1.00  0.00    +0.000 C 
ATOM     76  C51 UNL A   1      16.230  54.724   1.873  1.00  0.00    +0.000 C 
ATOM     77  C52 UNL A   1      16.099  56.043   2.485  1.00  0.00    +0.000 C 
ATOM     78  C53 UNL A   1      15.265  55.957   3.534  1.00  0.00    +0.000 C 
ATOM     79  C54 UNL A   1      14.770  54.584   3.641  1.00  0.00    +0.000 C 
ATOM     80  N7  UNL A   1      15.370  53.931   2.593  1.00  0.00    +0.000 N 
ATOM     81  C55 UNL A   1      18.004  52.734  -0.785  1.00  0.00    +0.000 C 
ATOM     82  C56 UNL A   1      17.782  51.446  -1.005  1.00  0.00    +0.000 C 
ATOM     83  C57 UNL A   1      12.493  50.978   5.469  1.00  0.00    +0.000 C 
ATOM     84  C58 UNL A   1      12.571  52.287   5.661  1.00  0.00    +0.000 C 
ATOM    121  H24 UNL A   1      13.555  46.847   2.311  1.00  0.00    +0.000 H 
ATOM    122  H25 UNL A   1      15.259  46.982   0.342  1.00  0.00    +0.000 H 
ATOM    123  H26 UNL A   1      15.063  50.702   2.151  1.00  0.00    +0.000 H 
ATOM    124  H27 UNL A   1      16.572  56.902   2.165  1.00  0.00    +0.000 H 
ATOM    125  H28 UNL A   1      15.014  56.735   4.164  1.00  0.00    +0.000 H 
ATOM    126  H29 UNL A   1      15.201  52.985   2.378  1.00  0.00    +0.000 H 
ATOM    127  H30 UNL A   1      18.646  53.379  -1.273  1.00  0.00    +0.000 H 
ATOM    128  H31 UNL A   1      18.230  50.899  -1.758  1.00  0.00    +0.000 H 
ENDROOT
BRANCH   28   27
ATOM    131  H34 UNL A   1      15.143  54.624   6.925  1.00  0.00    +0.000 H 
ATOM    132  H35 UNL A   1      14.452  56.106   8.714  1.00  0.00    +0.000 H 
ATOM     27  C20 UNL A   1      13.491  55.047   5.674  1.00  0.00    +0.000 C 
ATOM     85  C59 UNL A   1      14.280  55.180   6.827  1.00  0.00    +0.000 C 
ATOM     86  C60 UNL A   1      13.904  56.058   7.841  1.00  0.00    +0.000 C 
ATOM    119  H22 UNL A   1      11.107  57.285   6.453  1.00  0.00    +0.000 H 
ATOM     24  C17 UNL A   1      12.781  56.873   7.673  1.00  0.00    +0.000 C 
ATOM     25  C18 UNL A   1      11.963  56.719   6.550  1.00  0.00    +0.000 C 
ATOM     26  C19 UNL A   1      12.310  55.797   5.559  1.00  0.00    +0.000 C 
ATOM    120  H23 UNL A   1      11.696  55.667   4.741  1.00  0.00    +0.000 H 
BRANCH   24   22
ATOM     22  C16 UNL A   1      12.427  57.895   8.681  1.00  0.00    +0.000 C 
ATOM     23  O4  UNL A   1      12.797  59.056   8.526  1.00  0.00    +0.000 O 
BRANCH   22   21
ATOM     21  N3  UNL A   1      11.698  57.545   9.790  1.00  0.00    +0.000 N 
ATOM    118  H21 UNL A   1      12.029  57.906  10.643  1.00  0.00    +0.000 H 
BRANCH   21   20
ATOM    116  H19 UNL A   1       9.891  57.085  10.680  1.00  0.00    +0.000 H 
ATOM     20  C15 UNL A   1      10.505  56.717   9.884  1.00  0.00    +0.000 C 
ATOM    117  H20 UNL A   1       9.994  56.766   8.945  1.00  0.00    +0.000 H 
BRANCH   20   19
ATOM    114  H17 UNL A   1      10.081  54.850  10.793  1.00  0.00    +0.000 H 
ATOM     19  C14 UNL A   1      10.841  55.253  10.159  1.00  0.00    +0.000 C 
ATOM    115  H18 UNL A   1      10.895  54.771   9.206  1.00  0.00    +0.000 H 
BRANCH   19   18
ATOM    113  H16 UNL A   1      12.228  55.695  11.669  1.00  0.00    +0.000 H 
ATOM     18  C13 UNL A   1      12.196  55.026  10.836  1.00  0.00    +0.000 C 
ATOM    112  H15 UNL A   1      12.963  55.208  10.111  1.00  0.00    +0.000 H 
BRANCH   18   17
ATOM     17  C12 UNL A   1      12.414  53.620  11.410  1.00  0.00    +0.000 C 
ATOM    110  H13 UNL A   1      11.761  52.947  10.895  1.00  0.00    +0.000 H 
ATOM    111  H14 UNL A   1      13.451  53.399  11.271  1.00  0.00    +0.000 H 
BRANCH   17   16
ATOM    108  H11 UNL A   1      12.972  52.966  13.359  1.00  0.00    +0.000 H 
ATOM    109  H12 UNL A   1      12.029  54.472  13.305  1.00  0.00    +0.000 H 
ATOM     16  C11 UNL A   1      12.147  53.482  12.916  1.00  0.00    +0.000 C 
BRANCH   16   15
ATOM    106  H9  UNL A   1      10.323  53.247  13.998  1.00  0.00    +0.000 H 
ATOM    107  H10 UNL A   1      10.281  52.634  12.348  1.00  0.00    +0.000 H 
ATOM     15  C10 UNL A   1      10.864  52.716  13.242  1.00  0.00    +0.000 C 
BRANCH   15   14
ATOM    105  H8  UNL A   1      10.614  50.658  13.334  1.00  0.00    +0.000 H 
ATOM     14  N2  UNL A   1      11.158  51.381  13.722  1.00  0.00    +0.000 N 
BRANCH   14   12
ATOM     12  C9  UNL A   1      12.091  50.991  14.643  1.00  0.00    +0.000 C 
ATOM     13  O3  UNL A   1      12.075  51.532  15.751  1.00  0.00    +0.000 O 
BRANCH   12   11
ATOM     11  C8  UNL A   1      13.177  50.003  14.263  1.00  0.00    +0.000 C 
ATOM    103  H6  UNL A   1      13.880  49.940  15.069  1.00  0.00    +0.000 H 
ATOM    104  H7  UNL A   1      12.707  49.059  14.077  1.00  0.00    +0.000 H 
BRANCH   11   10
ATOM      7  C6  UNL A   1      14.879  50.751  11.071  1.00  0.00    +0.000 C 
ATOM      8  N1  UNL A   1      15.533  51.506  11.967  1.00  0.00    +0.000 N 
ATOM      9  O2  UNL A   1      14.906  51.298  13.179  1.00  0.00    +0.000 O 
ATOM     10  C7  UNL A   1      13.901  50.395  13.030  1.00  0.00    +0.000 C 
ATOM     87  C61 UNL A   1      13.813  50.037  11.699  1.00  0.00    +0.000 C 
BRANCH    7    6
ATOM     97  C70 UNL A   1      16.521  49.569   7.894  1.00  0.00    +0.000 C 
ATOM      3  C2  UNL A   1      16.280  50.647   7.042  1.00  0.00    +0.000 C 
ATOM      4  C3  UNL A   1      15.536  51.735   7.506  1.00  0.00    +0.000 C 
ATOM    101  H4  UNL A   1      15.355  52.534   6.879  1.00  0.00    +0.000 H 
ATOM      5  C4  UNL A   1      15.035  51.751   8.810  1.00  0.00    +0.000 C 
ATOM    102  H5  UNL A   1      14.473  52.554   9.136  1.00  0.00    +0.000 H 
ATOM      6  C5  UNL A   1      15.293  50.683   9.675  1.00  0.00    +0.000 C 
ATOM    140  H43 UNL A   1      16.206  48.784   9.827  1.00  0.00    +0.000 H 
ATOM    141  H44 UNL A   1      17.064  48.759   7.558  1.00  0.00    +0.000 H 
ATOM     96  C69 UNL A   1      16.027  49.587   9.203  1.00  0.00    +0.000 C 
BRANCH    3    2
ATOM      2  O1  UNL A   1      16.734  50.766   5.757  1.00  0.00    +0.000 O 
BRANCH    2    1
ATOM      1  C1  UNL A   1      16.928  49.556   5.037  1.00  0.00    +0.000 C 
ATOM     98  H1  UNL A   1      16.385  48.766   5.514  1.00  0.00    +0.000 H 
ATOM     99  H2  UNL A   1      17.970  49.312   5.023  1.00  0.00    +0.000 H 
ATOM    100  H3  UNL A   1      16.576  49.676   4.034  1.00  0.00    +0.000 H 
ENDBRANCH    2    1
ENDBRANCH    3    2
ENDBRANCH    7    6
BRANCH   87   88
ATOM    133  H36 UNL A   1      11.381  50.408  10.692  1.00  0.00    +0.000 H 
ATOM    134  H37 UNL A   1       9.863  48.750   9.795  1.00  0.00    +0.000 H 
ATOM    138  H41 UNL A   1      12.663  45.728  10.601  1.00  0.00    +0.000 H 
ATOM    139  H42 UNL A   1      14.188  47.385  11.510  1.00  0.00    +0.000 H 
ATOM     88  C62 UNL A   1      12.913  49.032  11.165  1.00  0.00    +0.000 C 
ATOM     89  C63 UNL A   1      11.659  49.414  10.673  1.00  0.00    +0.000 C 
ATOM     90  C64 UNL A   1      10.784  48.457  10.157  1.00  0.00    +0.000 C 
ATOM     91  C65 UNL A   1      11.143  47.110  10.123  1.00  0.00    +0.000 C 
ATOM     94  C67 UNL A   1      12.390  46.723  10.619  1.00  0.00    +0.000 C 
ATOM     95  C68 UNL A   1      13.270  47.680  11.141  1.00  0.00    +0.000 C 
BRANCH   91   92
ATOM     92  O5  UNL A   1      10.195  46.284   9.588  1.00  0.00    +0.000 O 
BRANCH   92   93
ATOM    137  H40 UNL A   1       9.023  47.366   8.310  1.00  0.00    +0.000 H 
ATOM     93  C66 UNL A   1       8.943  46.868   9.254  1.00  0.00    +0.000 C 
ATOM    135  H38 UNL A   1       8.667  47.575  10.007  1.00  0.00    +0.000 H 
ATOM    136  H39 UNL A   1       8.198  46.104   9.191  1.00  0.00    +0.000 H 
ENDBRANCH   92   93
ENDBRANCH   91   92
ENDBRANCH   87   88
ENDBRANCH   11   10
ENDBRANCH   12   11
ENDBRANCH   14   12
ENDBRANCH   15   14
ENDBRANCH   16   15
ENDBRANCH   17   16
ENDBRANCH   18   17
ENDBRANCH   19   18
ENDBRANCH   20   19
ENDBRANCH   21   20
ENDBRANCH   22   21
ENDBRANCH   24   22
ENDBRANCH   28   27
BRANCH   32   33
ATOM     33  C25 UNL A   1      12.515  48.260   4.542  1.00  0.00    +0.000 C 
ATOM     34  C26 UNL A   1      13.027  47.590   5.664  1.00  0.00    +0.000 C 
ATOM     35  F1  UNL A   1      14.272  47.846   6.092  1.00  0.00    +0.000 F 
ATOM     36  C27 UNL A   1      12.271  46.631   6.332  1.00  0.00    +0.000 C 
ATOM     37  F2  UNL A   1      12.796  45.975   7.376  1.00  0.00    +0.000 F 
ATOM     38  C28 UNL A   1      10.980  46.344   5.911  1.00  0.00    +0.000 C 
ATOM     39  F3  UNL A   1      10.252  45.425   6.560  1.00  0.00    +0.000 F 
ATOM     40  C29 UNL A   1      10.448  47.007   4.816  1.00  0.00    +0.000 C 
ATOM     41  F4  UNL A   1       9.197  46.740   4.416  1.00  0.00    +0.000 F 
ATOM     42  C30 UNL A   1      11.210  47.949   4.130  1.00  0.00    +0.000 C 
ATOM     43  F5  UNL A   1      10.671  48.565   3.068  1.00  0.00    +0.000 F 
ENDBRANCH   32   33
BRANCH   49   50
ATOM     50  C36 UNL A   1      17.044  48.682  -1.039  1.00  0.00    +0.000 C 
ATOM     51  C37 UNL A   1      16.476  48.536  -2.313  1.00  0.00    +0.000 C 
ATOM     52  F6  UNL A   1      15.339  49.177  -2.622  1.00  0.00    +0.000 F 
ATOM     53  C38 UNL A   1      17.061  47.704  -3.264  1.00  0.00    +0.000 C 
ATOM     54  F7  UNL A   1      16.482  47.552  -4.463  1.00  0.00    +0.000 F 
ATOM     55  C39 UNL A   1      18.234  47.027  -2.970  1.00  0.00    +0.000 C 
ATOM     56  F8  UNL A   1      18.801  46.234  -3.891  1.00  0.00    +0.000 F 
ATOM     57  C40 UNL A   1      18.818  47.165  -1.719  1.00  0.00    +0.000 C 
ATOM     58  F9  UNL A   1      19.958  46.518  -1.438  1.00  0.00    +0.000 F 
ATOM     59  C41 UNL A   1      18.224  47.976  -0.758  1.00  0.00    +0.000 C 
ATOM     60  F10 UNL A   1      18.806  48.086   0.445  1.00  0.00    +0.000 F 
ENDBRANCH   49   50
BRANCH   64   65
ATOM     65  C45 UNL A   1      17.887  55.477   0.231  1.00  0.00    +0.000 C 
ATOM     66  C46 UNL A   1      19.128  55.821   0.782  1.00  0.00    +0.000 C 
ATOM     67  F11 UNL A   1      19.557  55.210   1.896  1.00  0.00    +0.000 F 
ATOM     68  C47 UNL A   1      19.916  56.819   0.214  1.00  0.00    +0.000 C 
ATOM     69  F12 UNL A   1      21.082  57.155   0.782  1.00  0.00    +0.000 F 
ATOM     70  C48 UNL A   1      19.489  57.474  -0.933  1.00  0.00    +0.000 C 
ATOM     71  F13 UNL A   1      20.249  58.431  -1.482  1.00  0.00    +0.000 F 
ATOM     72  C49 UNL A   1      18.270  57.141  -1.503  1.00  0.00    +0.000 C 
ATOM     73  F14 UNL A   1      17.859  57.765  -2.616  1.00  0.00    +0.000 F 
ATOM     74  C50 UNL A   1      17.470  56.160  -0.921  1.00  0.00    +0.000 C 
ATOM     75  F15 UNL A   1      16.290  55.865  -1.487  1.00  0.00    +0.000 F 
ENDBRANCH   64   65
TORSDOF 22
ENDMDL
MODEL 9
REMARK VINA RESULT:     -10.9     44.304     49.782
ROOT
ATOM    129  H32 UNL A   1      15.240  47.450   0.231  1.00  0.00    +0.000 H 
ATOM    130  H33 UNL A   1      13.304  47.802   1.871  1.00  0.00    +0.000 H 
ATOM     28  C21 UNL A   1      13.183  50.434   2.949  1.00  0.00    +0.000 C 
ATOM     29  C22 UNL A   1      14.113  49.921   1.888  1.00  0.00    +0.000 C 
ATOM     30  N4  UNL A   1      15.053  50.555   1.234  1.00  0.00    +0.000 N 
ATOM     31  C23 UNL A   1      15.639  49.608   0.404  1.00  0.00    +0.000 C 
ATOM     32  C24 UNL A   1      16.628  49.782  -0.504  1.00  0.00    +0.000 C 
ATOM     44  C31 UNL A   1      17.264  51.043  -0.781  1.00  0.00    +0.000 C 
ATOM     45  C32 UNL A   1      18.220  51.335  -1.739  1.00  0.00    +0.000 C 
ATOM     46  C33 UNL A   1      18.576  52.681  -1.605  1.00  0.00    +0.000 C 
ATOM     47  C34 UNL A   1      17.815  53.237  -0.589  1.00  0.00    +0.000 C 
ATOM     48  N5  UNL A   1      17.011  52.222  -0.096  1.00  0.00    +0.000 N 
ATOM     49  C35 UNL A   1      17.825  54.590  -0.096  1.00  0.00    +0.000 C 
ATOM     61  C42 UNL A   1      16.999  55.075   0.862  1.00  0.00    +0.000 C 
ATOM     62  N6  UNL A   1      16.003  54.416   1.569  1.00  0.00    +0.000 N 
ATOM     63  C43 UNL A   1      15.497  55.303   2.389  1.00  0.00    +0.000 C 
ATOM     64  C44 UNL A   1      14.382  55.145   3.386  1.00  0.00    +0.000 C 
ATOM     76  C51 UNL A   1      13.763  53.955   3.501  1.00  0.00    +0.000 C 
ATOM     77  C52 UNL A   1      12.686  53.648   4.438  1.00  0.00    +0.000 C 
ATOM     78  C53 UNL A   1      12.377  52.345   4.338  1.00  0.00    +0.000 C 
ATOM     79  C54 UNL A   1      13.207  51.735   3.298  1.00  0.00    +0.000 C 
ATOM     80  N7  UNL A   1      13.976  52.772   2.834  1.00  0.00    +0.000 N 
ATOM     81  C55 UNL A   1      16.130  56.627   2.307  1.00  0.00    +0.000 C 
ATOM     82  C56 UNL A   1      17.018  56.441   1.340  1.00  0.00    +0.000 C 
ATOM     83  C57 UNL A   1      14.976  48.349   0.665  1.00  0.00    +0.000 C 
ATOM     84  C58 UNL A   1      13.986  48.500   1.532  1.00  0.00    +0.000 C 
ATOM    121  H24 UNL A   1      18.604  50.674  -2.433  1.00  0.00    +0.000 H 
ATOM    122  H25 UNL A   1      19.285  53.177  -2.167  1.00  0.00    +0.000 H 
ATOM    123  H26 UNL A   1      16.356  52.322   0.632  1.00  0.00    +0.000 H 
ATOM    124  H27 UNL A   1      12.236  54.324   5.074  1.00  0.00    +0.000 H 
ATOM    125  H28 UNL A   1      11.668  51.854   4.904  1.00  0.00    +0.000 H 
ATOM    126  H29 UNL A   1      14.618  52.679   2.093  1.00  0.00    +0.000 H 
ATOM    127  H30 UNL A   1      15.934  57.478   2.858  1.00  0.00    +0.000 H 
ATOM    128  H31 UNL A   1      17.642  57.177   0.975  1.00  0.00    +0.000 H 
ENDROOT
BRANCH   28   27
ATOM    131  H34 UNL A   1      10.613  49.890   2.463  1.00  0.00    +0.000 H 
ATOM    132  H35 UNL A   1       9.132  48.372   3.635  1.00  0.00    +0.000 H 
ATOM     27  C20 UNL A   1      12.296  49.497   3.681  1.00  0.00    +0.000 C 
ATOM     85  C59 UNL A   1      10.967  49.338   3.258  1.00  0.00    +0.000 C 
ATOM     86  C60 UNL A   1      10.124  48.439   3.908  1.00  0.00    +0.000 C 
ATOM    119  H22 UNL A   1      12.287  47.247   6.179  1.00  0.00    +0.000 H 
ATOM     24  C17 UNL A   1      10.627  47.630   4.931  1.00  0.00    +0.000 C 
ATOM     25  C18 UNL A   1      11.934  47.810   5.390  1.00  0.00    +0.000 C 
ATOM     26  C19 UNL A   1      12.763  48.751   4.776  1.00  0.00    +0.000 C 
ATOM    120  H23 UNL A   1      13.721  48.901   5.127  1.00  0.00    +0.000 H 
BRANCH   24   22
ATOM     22  C16 UNL A   1       9.785  46.587   5.556  1.00  0.00    +0.000 C 
ATOM     23  O4  UNL A   1       9.403  45.631   4.887  1.00  0.00    +0.000 O 
BRANCH   22   21
ATOM     21  N3  UNL A   1       9.424  46.694   6.876  1.00  0.00    +0.000 N 
ATOM    118  H21 UNL A   1       8.812  47.436   7.087  1.00  0.00    +0.000 H 
BRANCH   21   20
ATOM    116  H19 UNL A   1       8.935  45.544   8.521  1.00  0.00    +0.000 H 
ATOM     20  C15 UNL A   1       9.816  45.867   8.008  1.00  0.00    +0.000 C 
ATOM    117  H20 UNL A   1      10.375  45.036   7.632  1.00  0.00    +0.000 H 
BRANCH   20   19
ATOM    114  H17 UNL A   1      10.915  47.588   8.578  1.00  0.00    +0.000 H 
ATOM     19  C14 UNL A   1      10.707  46.625   8.991  1.00  0.00    +0.000 C 
ATOM    115  H18 UNL A   1      10.168  46.669   9.914  1.00  0.00    +0.000 H 
BRANCH   19   18
ATOM    113  H16 UNL A   1      12.457  45.658   8.359  1.00  0.00    +0.000 H 
ATOM     18  C13 UNL A   1      12.041  45.940   9.303  1.00  0.00    +0.000 C 
ATOM    112  H15 UNL A   1      11.844  45.111   9.950  1.00  0.00    +0.000 H 
BRANCH   18   17
ATOM     17  C12 UNL A   1      13.091  46.830   9.981  1.00  0.00    +0.000 C 
ATOM    110  H13 UNL A   1      14.048  46.586   9.569  1.00  0.00    +0.000 H 
ATOM    111  H14 UNL A   1      12.790  47.839   9.794  1.00  0.00    +0.000 H 
BRANCH   17   16
ATOM    108  H11 UNL A   1      12.904  45.687  11.769  1.00  0.00    +0.000 H 
ATOM    109  H12 UNL A   1      14.187  46.918  11.784  1.00  0.00    +0.000 H 
ATOM     16  C11 UNL A   1      13.180  46.687  11.506  1.00  0.00    +0.000 C 
BRANCH   16   15
ATOM    106  H9  UNL A   1      11.308  47.207  12.389  1.00  0.00    +0.000 H 
ATOM    107  H10 UNL A   1      12.717  47.863  13.217  1.00  0.00    +0.000 H 
ATOM     15  C10 UNL A   1      12.272  47.656  12.266  1.00  0.00    +0.000 C 
BRANCH   15   14
ATOM    105  H8  UNL A   1      11.627  48.852  10.699  1.00  0.00    +0.000 H 
ATOM     14  N2  UNL A   1      12.122  48.905  11.548  1.00  0.00    +0.000 N 
BRANCH   14   12
ATOM     12  C9  UNL A   1      12.575  50.148  11.892  1.00  0.00    +0.000 C 
ATOM     13  O3  UNL A   1      11.750  51.057  12.003  1.00  0.00    +0.000 O 
BRANCH   12   11
ATOM     11  C8  UNL A   1      14.063  50.414  12.021  1.00  0.00    +0.000 C 
ATOM    103  H6  UNL A   1      14.210  51.460  12.194  1.00  0.00    +0.000 H 
ATOM    104  H7  UNL A   1      14.428  49.825  12.837  1.00  0.00    +0.000 H 
BRANCH   11   10
ATOM      7  C6  UNL A   1      15.723  49.486   8.854  1.00  0.00    +0.000 C 
ATOM      8  N1  UNL A   1      16.500  48.932   9.796  1.00  0.00    +0.000 N 
ATOM      9  O2  UNL A   1      15.947  49.286  11.011  1.00  0.00    +0.000 O 
ATOM     10  C7  UNL A   1      14.821  50.021  10.809  1.00  0.00    +0.000 C 
ATOM     87  C61 UNL A   1      14.647  50.211   9.453  1.00  0.00    +0.000 C 
BRANCH    7    6
ATOM     97  C70 UNL A   1      16.153  47.805   5.510  1.00  0.00    +0.000 C 
ATOM      3  C2  UNL A   1      16.677  48.846   4.745  1.00  0.00    +0.000 C 
ATOM      4  C3  UNL A   1      16.838  50.108   5.322  1.00  0.00    +0.000 C 
ATOM    101  H4  UNL A   1      17.225  50.882   4.758  1.00  0.00    +0.000 H 
ATOM      5  C4  UNL A   1      16.482  50.334   6.654  1.00  0.00    +0.000 C 
ATOM    102  H5  UNL A   1      16.592  51.276   7.064  1.00  0.00    +0.000 H 
ATOM      6  C5  UNL A   1      15.978  49.287   7.432  1.00  0.00    +0.000 C 
ATOM    140  H43 UNL A   1      15.413  47.252   7.407  1.00  0.00    +0.000 H 
ATOM    141  H44 UNL A   1      16.024  46.872   5.091  1.00  0.00    +0.000 H 
ATOM     96  C69 UNL A   1      15.803  48.027   6.847  1.00  0.00    +0.000 C 
BRANCH    3    2
ATOM      2  O1  UNL A   1      17.087  48.752   3.443  1.00  0.00    +0.000 O 
BRANCH    2    1
ATOM      1  C1  UNL A   1      18.115  49.646   3.035  1.00  0.00    +0.000 C 
ATOM     98  H1  UNL A   1      18.809  49.128   2.406  1.00  0.00    +0.000 H 
ATOM     99  H2  UNL A   1      18.626  50.019   3.897  1.00  0.00    +0.000 H 
ATOM    100  H3  UNL A   1      17.684  50.462   2.494  1.00  0.00    +0.000 H 
ENDBRANCH    2    1
ENDBRANCH    3    2
ENDBRANCH    7    6
BRANCH   87   88
ATOM    133  H36 UNL A   1      14.172  52.823   9.329  1.00  0.00    +0.000 H 
ATOM    134  H37 UNL A   1      12.286  53.957   8.321  1.00  0.00    +0.000 H 
ATOM    138  H41 UNL A   1      10.647  50.259   7.197  1.00  0.00    +0.000 H 
ATOM    139  H42 UNL A   1      12.531  49.115   8.213  1.00  0.00    +0.000 H 
ATOM     88  C62 UNL A   1      13.510  50.877   8.844  1.00  0.00    +0.000 C 
ATOM     89  C63 UNL A   1      13.425  52.274   8.875  1.00  0.00    +0.000 C 
ATOM     90  C64 UNL A   1      12.337  52.926   8.294  1.00  0.00    +0.000 C 
ATOM     91  C65 UNL A   1      11.320  52.199   7.675  1.00  0.00    +0.000 C 
ATOM     94  C67 UNL A   1      11.396  50.805   7.649  1.00  0.00    +0.000 C 
ATOM     95  C68 UNL A   1      12.486  50.146   8.234  1.00  0.00    +0.000 C 
BRANCH   91   92
ATOM     92  O5  UNL A   1      10.320  52.964   7.146  1.00  0.00    +0.000 O 
BRANCH   92   93
ATOM    137  H40 UNL A   1       8.902  51.502   6.970  1.00  0.00    +0.000 H 
ATOM     93  C66 UNL A   1       9.325  52.292   6.385  1.00  0.00    +0.000 C 
ATOM    135  H38 UNL A   1       9.768  51.883   5.502  1.00  0.00    +0.000 H 
ATOM    136  H39 UNL A   1       8.556  52.983   6.112  1.00  0.00    +0.000 H 
ENDBRANCH   92   93
ENDBRANCH   91   92
ENDBRANCH   87   88
ENDBRANCH   11   10
ENDBRANCH   12   11
ENDBRANCH   14   12
ENDBRANCH   15   14
ENDBRANCH   16   15
ENDBRANCH   17   16
ENDBRANCH   18   17
ENDBRANCH   19   18
ENDBRANCH   20   19
ENDBRANCH   21   20
ENDBRANCH   22   21
ENDBRANCH   24   22
ENDBRANCH   28   27
BRANCH   32   33
ATOM     33  C25 UNL A   1      17.086  48.577  -1.270  1.00  0.00    +0.000 C 
ATOM     34  C26 UNL A   1      18.143  47.775  -0.813  1.00  0.00    +0.000 C 
ATOM     35  F1  UNL A   1      18.805  48.104   0.306  1.00  0.00    +0.000 F 
ATOM     36  C27 UNL A   1      18.545  46.648  -1.525  1.00  0.00    +0.000 C 
ATOM     37  F2  UNL A   1      19.584  45.920  -1.091  1.00  0.00    +0.000 F 
ATOM     38  C28 UNL A   1      17.881  46.283  -2.687  1.00  0.00    +0.000 C 
ATOM     39  F3  UNL A   1      18.265  45.194  -3.366  1.00  0.00    +0.000 F 
ATOM     40  C29 UNL A   1      16.822  47.051  -3.146  1.00  0.00    +0.000 C 
ATOM     41  F4  UNL A   1      16.171  46.694  -4.262  1.00  0.00    +0.000 F 
ATOM     42  C30 UNL A   1      16.433  48.194  -2.451  1.00  0.00    +0.000 C 
ATOM     43  F5  UNL A   1      15.413  48.922  -2.927  1.00  0.00    +0.000 F 
ENDBRANCH   32   33
BRANCH   49   50
ATOM     50  C36 UNL A   1      18.813  55.543  -0.697  1.00  0.00    +0.000 C 
ATOM     51  C37 UNL A   1      18.622  56.080  -1.979  1.00  0.00    +0.000 C 
ATOM     52  F6  UNL A   1      17.574  55.694  -2.722  1.00  0.00    +0.000 F 
ATOM     53  C38 UNL A   1      19.528  56.992  -2.513  1.00  0.00    +0.000 C 
ATOM     54  F7  UNL A   1      19.345  57.466  -3.753  1.00  0.00    +0.000 F 
ATOM     55  C39 UNL A   1      20.622  57.406  -1.768  1.00  0.00    +0.000 C 
ATOM     56  F8  UNL A   1      21.487  58.292  -2.280  1.00  0.00    +0.000 F 
ATOM     57  C40 UNL A   1      20.824  56.895  -0.495  1.00  0.00    +0.000 C 
ATOM     58  F9  UNL A   1      21.877  57.301   0.230  1.00  0.00    +0.000 F 
ATOM     59  C41 UNL A   1      19.935  55.964   0.033  1.00  0.00    +0.000 C 
ATOM     60  F10 UNL A   1      20.159  55.481   1.264  1.00  0.00    +0.000 F 
ENDBRANCH   49   50
BRANCH   64   65
ATOM     65  C45 UNL A   1      13.954  56.285   4.235  1.00  0.00    +0.000 C 
ATOM     66  C46 UNL A   1      12.982  57.188   3.784  1.00  0.00    +0.000 C 
ATOM     67  F11 UNL A   1      12.449  57.042   2.562  1.00  0.00    +0.000 F 
ATOM     68  C47 UNL A   1      12.581  58.265   4.570  1.00  0.00    +0.000 C 
ATOM     69  F12 UNL A   1      11.677  59.136   4.101  1.00  0.00    +0.000 F 
ATOM     70  C48 UNL A   1      13.126  58.445   5.834  1.00  0.00    +0.000 C 
ATOM     71  F13 UNL A   1      12.737  59.479   6.593  1.00  0.00    +0.000 F 
ATOM     72  C49 UNL A   1      14.080  57.557   6.306  1.00  0.00    +0.000 C 
ATOM     73  F14 UNL A   1      14.600  57.721   7.530  1.00  0.00    +0.000 F 
ATOM     74  C50 UNL A   1      14.499  56.493   5.510  1.00  0.00    +0.000 C 
ATOM     75  F15 UNL A   1      15.431  55.655   5.987  1.00  0.00    +0.000 F 
ENDBRANCH   64   65
TORSDOF 22
ENDMDL
MODEL 10
REMARK VINA RESULT:     -10.9     40.850     48.836
ROOT
ATOM    129  H32 UNL A   1      29.125  33.899  42.793  1.00  0.00    +0.000 H 
ATOM    130  H33 UNL A   1      26.642  33.628  43.365  1.00  0.00    +0.000 H 
ATOM     28  C21 UNL A   1      25.689  35.530  45.257  1.00  0.00    +0.000 C 
ATOM     29  C22 UNL A   1      27.049  35.470  44.623  1.00  0.00    +0.000 C 
ATOM     30  N4  UNL A   1      28.078  36.263  44.793  1.00  0.00    +0.000 N 
ATOM     31  C23 UNL A   1      29.094  35.736  44.007  1.00  0.00    +0.000 C 
ATOM     32  C24 UNL A   1      30.341  36.223  43.806  1.00  0.00    +0.000 C 
ATOM     44  C31 UNL A   1      30.845  37.434  44.397  1.00  0.00    +0.000 C 
ATOM     45  C32 UNL A   1      32.067  38.051  44.191  1.00  0.00    +0.000 C 
ATOM     46  C33 UNL A   1      32.132  39.178  45.017  1.00  0.00    +0.000 C 
ATOM     47  C34 UNL A   1      30.936  39.285  45.709  1.00  0.00    +0.000 C 
ATOM     48  N5  UNL A   1      30.154  38.211  45.314  1.00  0.00    +0.000 N 
ATOM     49  C35 UNL A   1      30.538  40.285  46.665  1.00  0.00    +0.000 C 
ATOM     61  C42 UNL A   1      29.319  40.358  47.253  1.00  0.00    +0.000 C 
ATOM     62  N6  UNL A   1      28.222  39.523  47.089  1.00  0.00    +0.000 N 
ATOM     63  C43 UNL A   1      27.290  39.996  47.878  1.00  0.00    +0.000 C 
ATOM     64  C44 UNL A   1      25.890  39.492  48.099  1.00  0.00    +0.000 C 
ATOM     76  C51 UNL A   1      25.461  38.414  47.417  1.00  0.00    +0.000 C 
ATOM     77  C52 UNL A   1      24.142  37.801  47.545  1.00  0.00    +0.000 C 
ATOM     78  C53 UNL A   1      24.098  36.695  46.786  1.00  0.00    +0.000 C 
ATOM     79  C54 UNL A   1      25.373  36.544  46.084  1.00  0.00    +0.000 C 
ATOM     80  N7  UNL A   1      26.109  37.628  46.494  1.00  0.00    +0.000 N 
ATOM     81  C55 UNL A   1      27.697  41.179  48.649  1.00  0.00    +0.000 C 
ATOM     82  C56 UNL A   1      28.932  41.375  48.207  1.00  0.00    +0.000 C 
ATOM     83  C57 UNL A   1      28.573  34.535  43.391  1.00  0.00    +0.000 C 
ATOM     84  C58 UNL A   1      27.295  34.357  43.694  1.00  0.00    +0.000 C 
ATOM    121  H24 UNL A   1      32.804  37.735  43.541  1.00  0.00    +0.000 H 
ATOM    122  H25 UNL A   1      32.935  39.822  45.098  1.00  0.00    +0.000 H 
ATOM    123  H26 UNL A   1      29.242  38.027  45.637  1.00  0.00    +0.000 H 
ATOM    124  H27 UNL A   1      23.369  38.161  48.127  1.00  0.00    +0.000 H 
ATOM    125  H28 UNL A   1      23.293  36.053  46.710  1.00  0.00    +0.000 H 
ATOM    126  H29 UNL A   1      27.014  37.825  46.158  1.00  0.00    +0.000 H 
ATOM    127  H30 UNL A   1      27.163  41.716  49.350  1.00  0.00    +0.000 H 
ATOM    128  H31 UNL A   1      29.540  42.154  48.505  1.00  0.00    +0.000 H 
ENDROOT
BRANCH   28   27
ATOM    131  H34 UNL A   1      25.563  33.192  46.543  1.00  0.00    +0.000 H 
ATOM    132  H35 UNL A   1      24.001  31.366  46.228  1.00  0.00    +0.000 H 
ATOM     27  C20 UNL A   1      24.720  34.427  45.047  1.00  0.00    +0.000 C 
ATOM     85  C59 UNL A   1      24.811  33.274  45.841  1.00  0.00    +0.000 C 
ATOM     86  C60 UNL A   1      23.893  32.238  45.687  1.00  0.00    +0.000 C 
ATOM    119  H22 UNL A   1      21.988  33.588  43.276  1.00  0.00    +0.000 H 
ATOM     24  C17 UNL A   1      22.825  32.383  44.796  1.00  0.00    +0.000 C 
ATOM     25  C18 UNL A   1      22.748  33.506  43.969  1.00  0.00    +0.000 C 
ATOM     26  C19 UNL A   1      23.702  34.521  44.084  1.00  0.00    +0.000 C 
ATOM    120  H23 UNL A   1      23.660  35.340  43.459  1.00  0.00    +0.000 H 
BRANCH   24   22
ATOM     22  C16 UNL A   1      21.772  31.349  44.699  1.00  0.00    +0.000 C 
ATOM     23  O4  UNL A   1      22.088  30.164  44.630  1.00  0.00    +0.000 O 
BRANCH   22   21
ATOM     21  N3  UNL A   1      20.449  31.713  44.676  1.00  0.00    +0.000 N 
ATOM    118  H21 UNL A   1      20.111  32.126  45.503  1.00  0.00    +0.000 H 
BRANCH   21   20
ATOM    116  H19 UNL A   1      18.976  32.514  43.469  1.00  0.00    +0.000 H 
ATOM     20  C15 UNL A   1      19.475  31.576  43.603  1.00  0.00    +0.000 C 
ATOM    117  H20 UNL A   1      19.998  31.284  42.718  1.00  0.00    +0.000 H 
BRANCH   20   19
ATOM    114  H17 UNL A   1      18.303  29.905  43.031  1.00  0.00    +0.000 H 
ATOM     19  C14 UNL A   1      18.431  30.504  43.908  1.00  0.00    +0.000 C 
ATOM    115  H18 UNL A   1      18.802  29.951  44.746  1.00  0.00    +0.000 H 
BRANCH   19   18
ATOM    113  H16 UNL A   1      17.187  31.466  45.296  1.00  0.00    +0.000 H 
ATOM     18  C13 UNL A   1      17.059  31.046  44.321  1.00  0.00    +0.000 C 
ATOM    112  H15 UNL A   1      16.361  30.235  44.292  1.00  0.00    +0.000 H 
BRANCH   18   17
ATOM     17  C12 UNL A   1      16.509  32.175  43.441  1.00  0.00    +0.000 C 
ATOM    110  H13 UNL A   1      17.331  32.619  42.919  1.00  0.00    +0.000 H 
ATOM    111  H14 UNL A   1      15.787  31.722  42.794  1.00  0.00    +0.000 H 
BRANCH   17   16
ATOM    108  H11 UNL A   1      14.798  33.404  43.758  1.00  0.00    +0.000 H 
ATOM    109  H12 UNL A   1      15.720  32.992  45.222  1.00  0.00    +0.000 H 
ATOM     16  C11 UNL A   1      15.768  33.288  44.195  1.00  0.00    +0.000 C 
BRANCH   16   15
ATOM    106  H9  UNL A   1      16.684  34.895  43.130  1.00  0.00    +0.000 H 
ATOM    107  H10 UNL A   1      15.855  35.372  44.608  1.00  0.00    +0.000 H 
ATOM     15  C10 UNL A   1      16.485  34.639  44.151  1.00  0.00    +0.000 C 
BRANCH   15   14
ATOM    105  H8  UNL A   1      18.328  33.835  44.660  1.00  0.00    +0.000 H 
ATOM     14  N2  UNL A   1      17.738  34.591  44.878  1.00  0.00    +0.000 N 
BRANCH   14   12
ATOM     12  C9  UNL A   1      18.208  35.457  45.825  1.00  0.00    +0.000 C 
ATOM     13  O3  UNL A   1      17.407  35.916  46.642  1.00  0.00    +0.000 O 
BRANCH   12   11
ATOM     11  C8  UNL A   1      19.653  35.920  45.792  1.00  0.00    +0.000 C 
ATOM    103  H6  UNL A   1      20.120  35.524  44.914  1.00  0.00    +0.000 H 
ATOM    104  H7  UNL A   1      19.650  36.991  45.787  1.00  0.00    +0.000 H 
BRANCH   11   10
ATOM      7  C6  UNL A   1      21.557  35.081  48.844  1.00  0.00    +0.000 C 
ATOM      8  N1  UNL A   1      21.812  34.057  48.017  1.00  0.00    +0.000 N 
ATOM      9  O2  UNL A   1      21.085  34.298  46.868  1.00  0.00    +0.000 O 
ATOM     10  C7  UNL A   1      20.421  35.479  46.980  1.00  0.00    +0.000 C 
ATOM     87  C61 UNL A   1      20.655  36.007  48.235  1.00  0.00    +0.000 C 
BRANCH    7    6
ATOM     97  C70 UNL A   1      22.015  35.297  52.577  1.00  0.00    +0.000 C 
ATOM      3  C2  UNL A   1      23.370  35.615  52.670  1.00  0.00    +0.000 C 
ATOM      4  C3  UNL A   1      24.134  35.708  51.504  1.00  0.00    +0.000 C 
ATOM    101  H4  UNL A   1      25.138  35.942  51.568  1.00  0.00    +0.000 H 
ATOM      5  C4  UNL A   1      23.555  35.486  50.252  1.00  0.00    +0.000 C 
ATOM    102  H5  UNL A   1      24.134  35.542  49.399  1.00  0.00    +0.000 H 
ATOM      6  C5  UNL A   1      22.192  35.190  50.152  1.00  0.00    +0.000 C 
ATOM    140  H43 UNL A   1      20.428  34.845  51.262  1.00  0.00    +0.000 H 
ATOM    141  H44 UNL A   1      21.445  35.220  53.433  1.00  0.00    +0.000 H 
ATOM     96  C69 UNL A   1      21.431  35.083  51.324  1.00  0.00    +0.000 C 
BRANCH    3    2
ATOM      2  O1  UNL A   1      24.051  35.879  53.827  1.00  0.00    +0.000 O 
BRANCH    2    1
ATOM      1  C1  UNL A   1      24.100  37.239  54.238  1.00  0.00    +0.000 C 
ATOM     98  H1  UNL A   1      23.505  37.834  53.576  1.00  0.00    +0.000 H 
ATOM     99  H2  UNL A   1      25.112  37.584  54.213  1.00  0.00    +0.000 H 
ATOM    100  H3  UNL A   1      23.718  37.325  55.234  1.00  0.00    +0.000 H 
ENDBRANCH    2    1
ENDBRANCH    3    2
ENDBRANCH    7    6
BRANCH   87   88
ATOM    133  H36 UNL A   1      18.521  36.511  49.736  1.00  0.00    +0.000 H 
ATOM    134  H37 UNL A   1      17.711  38.653  50.519  1.00  0.00    +0.000 H 
ATOM    138  H41 UNL A   1      20.885  40.582  48.562  1.00  0.00    +0.000 H 
ATOM    139  H42 UNL A   1      21.698  38.437  47.767  1.00  0.00    +0.000 H 
ATOM     88  C62 UNL A   1      20.182  37.298  48.696  1.00  0.00    +0.000 C 
ATOM     89  C63 UNL A   1      19.028  37.374  49.486  1.00  0.00    +0.000 C 
ATOM     90  C64 UNL A   1      18.562  38.610  49.935  1.00  0.00    +0.000 C 
ATOM     91  C65 UNL A   1      19.235  39.786  49.606  1.00  0.00    +0.000 C 
ATOM     94  C67 UNL A   1      20.382  39.717  48.813  1.00  0.00    +0.000 C 
ATOM     95  C68 UNL A   1      20.852  38.478  48.357  1.00  0.00    +0.000 C 
BRANCH   91   92
ATOM     92  O5  UNL A   1      18.672  40.922  50.116  1.00  0.00    +0.000 O 
BRANCH   92   93
ATOM    137  H40 UNL A   1      17.772  41.282  51.915  1.00  0.00    +0.000 H 
ATOM     93  C66 UNL A   1      17.575  40.758  51.003  1.00  0.00    +0.000 C 
ATOM    135  H38 UNL A   1      17.438  39.718  51.213  1.00  0.00    +0.000 H 
ATOM    136  H39 UNL A   1      16.689  41.151  50.552  1.00  0.00    +0.000 H 
ENDBRANCH   92   93
ENDBRANCH   91   92
ENDBRANCH   87   88
ENDBRANCH   11   10
ENDBRANCH   12   11
ENDBRANCH   14   12
ENDBRANCH   15   14
ENDBRANCH   16   15
ENDBRANCH   17   16
ENDBRANCH   18   17
ENDBRANCH   19   18
ENDBRANCH   20   19
ENDBRANCH   21   20
ENDBRANCH   22   21
ENDBRANCH   24   22
ENDBRANCH   28   27
BRANCH   32   33
ATOM     33  C25 UNL A   1      31.253  35.444  42.906  1.00  0.00    +0.000 C 
ATOM     34  C26 UNL A   1      31.955  34.319  43.367  1.00  0.00    +0.000 C 
ATOM     35  F1  UNL A   1      31.860  33.945  44.651  1.00  0.00    +0.000 F 
ATOM     36  C27 UNL A   1      32.783  33.594  42.514  1.00  0.00    +0.000 C 
ATOM     37  F2  UNL A   1      33.475  32.548  42.987  1.00  0.00    +0.000 F 
ATOM     38  C28 UNL A   1      32.903  33.959  41.181  1.00  0.00    +0.000 C 
ATOM     39  F3  UNL A   1      33.695  33.255  40.361  1.00  0.00    +0.000 F 
ATOM     40  C29 UNL A   1      32.204  35.056  40.701  1.00  0.00    +0.000 C 
ATOM     41  F4  UNL A   1      32.309  35.402  39.410  1.00  0.00    +0.000 F 
ATOM     42  C30 UNL A   1      31.394  35.799  41.556  1.00  0.00    +0.000 C 
ATOM     43  F5  UNL A   1      30.740  36.861  41.064  1.00  0.00    +0.000 F 
ENDBRANCH   32   33
BRANCH   49   50
ATOM     50  C36 UNL A   1      31.540  41.338  47.031  1.00  0.00    +0.000 C 
ATOM     51  C37 UNL A   1      32.655  41.038  47.826  1.00  0.00    +0.000 C 
ATOM     52  F6  UNL A   1      32.811  39.806  48.333  1.00  0.00    +0.000 F 
ATOM     53  C38 UNL A   1      33.598  42.016  48.129  1.00  0.00    +0.000 C 
ATOM     54  F7  UNL A   1      34.638  41.717  48.920  1.00  0.00    +0.000 F 
ATOM     55  C39 UNL A   1      33.461  43.299  47.623  1.00  0.00    +0.000 C 
ATOM     56  F8  UNL A   1      34.376  44.236  47.908  1.00  0.00    +0.000 F 
ATOM     57  C40 UNL A   1      32.370  43.614  46.826  1.00  0.00    +0.000 C 
ATOM     58  F9  UNL A   1      32.241  44.852  46.327  1.00  0.00    +0.000 F 
ATOM     59  C41 UNL A   1      31.411  42.646  46.541  1.00  0.00    +0.000 C 
ATOM     60  F10 UNL A   1      30.363  42.981  45.773  1.00  0.00    +0.000 F 
ENDBRANCH   49   50
BRANCH   64   65
ATOM     65  C45 UNL A   1      24.978  40.175  49.051  1.00  0.00    +0.000 C 
ATOM     66  C46 UNL A   1      24.153  41.225  48.626  1.00  0.00    +0.000 C 
ATOM     67  F11 UNL A   1      24.205  41.641  47.352  1.00  0.00    +0.000 F 
ATOM     68  C47 UNL A   1      23.302  41.876  49.514  1.00  0.00    +0.000 C 
ATOM     69  F12 UNL A   1      22.552  42.903  49.091  1.00  0.00    +0.000 F 
ATOM     70  C48 UNL A   1      23.239  41.472  50.840  1.00  0.00    +0.000 C 
ATOM     71  F13 UNL A   1      22.416  42.096  51.694  1.00  0.00    +0.000 F 
ATOM     72  C49 UNL A   1      24.036  40.427  51.281  1.00  0.00    +0.000 C 
ATOM     73  F14 UNL A   1      23.970  40.027  52.558  1.00  0.00    +0.000 F 
ATOM     74  C50 UNL A   1      24.906  39.791  50.398  1.00  0.00    +0.000 C 
ATOM     75  F15 UNL A   1      25.674  38.790  50.853  1.00  0.00    +0.000 F 
ENDBRANCH   64   65
TORSDOF 22
ENDMDL
