MODEL 1
REMARK VINA RESULT:      -6.8      0.000      0.000
ROOT
ATOM    163  H58 UNL A   1       8.631  36.414  -8.911  1.00  0.00    +0.000 H 
ATOM    164  H59 UNL A   1      10.176  36.800 -10.975  1.00  0.00    +0.000 H 
ATOM    165  H60 UNL A   1      11.017  33.064  -9.402  1.00  0.00    +0.000 H 
ATOM    166  H61 UNL A   1      14.505  27.708  -9.479  1.00  0.00    +0.000 H 
ATOM    167  H62 UNL A   1      12.957  27.312  -7.504  1.00  0.00    +0.000 H 
ATOM    168  H63 UNL A   1      12.062  31.048  -9.090  1.00  0.00    +0.000 H 
ATOM    169  H64 UNL A   1      15.080  31.650 -13.052  1.00  0.00    +0.000 H 
ATOM    170  H65 UNL A   1      14.125  34.015 -13.253  1.00  0.00    +0.000 H 
ATOM    171  H66 UNL A   1       7.873  32.260  -5.595  1.00  0.00    +0.000 H 
ATOM    172  H67 UNL A   1       9.192  30.141  -5.023  1.00  0.00    +0.000 H 
ATOM     47  C38 UNL A   1      11.188  29.480  -6.948  1.00  0.00    +0.000 C 
ATOM     48  C39 UNL A   1      10.334  30.717  -6.896  1.00  0.00    +0.000 C 
ATOM     49  N5  UNL A   1      10.318  31.748  -7.703  1.00  0.00    +0.000 N 
ATOM     50  C40 UNL A   1       9.314  32.583  -7.227  1.00  0.00    +0.000 C 
ATOM     51  C41 UNL A   1       8.956  33.810  -7.670  1.00  0.00    +0.000 C 
ATOM     63  C48 UNL A   1       9.588  34.485  -8.772  1.00  0.00    +0.000 C 
ATOM     64  C49 UNL A   1       9.327  35.747  -9.279  1.00  0.00    +0.000 C 
ATOM     65  C50 UNL A   1      10.169  35.961 -10.375  1.00  0.00    +0.000 C 
ATOM     66  C51 UNL A   1      10.992  34.856 -10.518  1.00  0.00    +0.000 C 
ATOM     67  N6  UNL A   1      10.616  33.952  -9.537  1.00  0.00    +0.000 N 
ATOM     68  C52 UNL A   1      12.046  34.642 -11.475  1.00  0.00    +0.000 C 
ATOM     80  C59 UNL A   1      12.793  33.514 -11.573  1.00  0.00    +0.000 C 
ATOM     81  N7  UNL A   1      12.743  32.362 -10.799  1.00  0.00    +0.000 N 
ATOM     82  C60 UNL A   1      13.656  31.559 -11.290  1.00  0.00    +0.000 C 
ATOM     83  C61 UNL A   1      14.075  30.191 -10.818  1.00  0.00    +0.000 C 
ATOM     95  C68 UNL A   1      13.477  29.663  -9.735  1.00  0.00    +0.000 C 
ATOM     96  C69 UNL A   1      13.783  28.363  -9.143  1.00  0.00    +0.000 C 
ATOM     97  C70 UNL A   1      12.971  28.159  -8.093  1.00  0.00    +0.000 C 
ATOM     98  C71 UNL A   1      12.112  29.330  -7.917  1.00  0.00    +0.000 C 
ATOM     99  N8  UNL A   1      12.477  30.168  -8.940  1.00  0.00    +0.000 N 
ATOM    100  C72 UNL A   1      14.361  32.097 -12.461  1.00  0.00    +0.000 C 
ATOM    101  C73 UNL A   1      13.833  33.309 -12.560  1.00  0.00    +0.000 C 
ATOM    102  C74 UNL A   1       8.702  31.912  -6.102  1.00  0.00    +0.000 C 
ATOM    103  C75 UNL A   1       9.344  30.792  -5.809  1.00  0.00    +0.000 C 
ENDROOT
BRANCH   47   46
ATOM    161  H56 UNL A   1      12.127  27.268  -3.001  1.00  0.00    +0.000 H 
ATOM    162  H57 UNL A   1      12.494  29.042  -4.616  1.00  0.00    +0.000 H 
ATOM    104  C76 UNL A   1       9.965  27.457  -6.156  1.00  0.00    +0.000 C 
ATOM    105  C77 UNL A   1       9.696  26.498  -5.187  1.00  0.00    +0.000 C 
ATOM     43  C34 UNL A   1      10.512  26.402  -4.055  1.00  0.00    +0.000 C 
ATOM     44  C35 UNL A   1      11.536  27.329  -3.845  1.00  0.00    +0.000 C 
ATOM     45  C36 UNL A   1      11.757  28.337  -4.783  1.00  0.00    +0.000 C 
ATOM    174  H69 UNL A   1       8.894  25.858  -5.300  1.00  0.00    +0.000 H 
ATOM    173  H68 UNL A   1       9.415  27.474  -7.030  1.00  0.00    +0.000 H 
ATOM     46  C37 UNL A   1      10.982  28.400  -5.953  1.00  0.00    +0.000 C 
BRANCH   43   41
ATOM     41  C33 UNL A   1      10.285  25.351  -3.044  1.00  0.00    +0.000 C 
ATOM     42  O4  UNL A   1      11.042  24.384  -2.983  1.00  0.00    +0.000 O 
BRANCH   41   40
ATOM    160  H55 UNL A   1       8.401  25.015  -2.456  1.00  0.00    +0.000 H 
ATOM     40  N4  UNL A   1       9.234  25.458  -2.174  1.00  0.00    +0.000 N 
BRANCH   40   39
ATOM    159  H54 UNL A   1      10.179  26.370  -0.591  1.00  0.00    +0.000 H 
ATOM    158  H53 UNL A   1       8.705  25.496  -0.178  1.00  0.00    +0.000 H 
ATOM     39  C32 UNL A   1       9.178  26.138  -0.891  1.00  0.00    +0.000 C 
BRANCH   39   38
ATOM    156  H51 UNL A   1       7.554  27.286  -1.621  1.00  0.00    +0.000 H 
ATOM    157  H52 UNL A   1       8.108  27.696   0.021  1.00  0.00    +0.000 H 
ATOM     38  C31 UNL A   1       8.394  27.442  -0.977  1.00  0.00    +0.000 C 
BRANCH   38   37
ATOM    154  H49 UNL A   1       9.360  29.316  -0.716  1.00  0.00    +0.000 H 
ATOM    155  H50 UNL A   1      10.113  28.215  -1.905  1.00  0.00    +0.000 H 
ATOM     37  C30 UNL A   1       9.204  28.624  -1.518  1.00  0.00    +0.000 C 
BRANCH   37   36
ATOM    153  H48 UNL A   1       9.253  29.398  -3.476  1.00  0.00    +0.000 H 
ATOM     36  C29 UNL A   1       8.541  29.379  -2.677  1.00  0.00    +0.000 C 
ATOM    152  H47 UNL A   1       8.276  30.357  -2.332  1.00  0.00    +0.000 H 
BRANCH   36   35
ATOM     35  C28 UNL A   1       7.281  28.708  -3.227  1.00  0.00    +0.000 C 
ATOM    150  H45 UNL A   1       7.523  28.237  -4.157  1.00  0.00    +0.000 H 
ATOM    151  H46 UNL A   1       6.949  28.000  -2.498  1.00  0.00    +0.000 H 
BRANCH   35   34
ATOM     34  C27 UNL A   1       6.139  29.695  -3.464  1.00  0.00    +0.000 C 
ATOM    148  H43 UNL A   1       6.182  30.465  -2.724  1.00  0.00    +0.000 H 
ATOM    149  H44 UNL A   1       6.244  30.113  -4.443  1.00  0.00    +0.000 H 
BRANCH   34   33
ATOM     33  N3  UNL A   1       4.851  29.021  -3.379  1.00  0.00    +0.000 N 
ATOM    147  H42 UNL A   1       4.607  28.495  -4.175  1.00  0.00    +0.000 H 
BRANCH   33   31
ATOM     31  C26 UNL A   1       3.923  29.002  -2.370  1.00  0.00    +0.000 C 
ATOM     32  O3  UNL A   1       3.218  27.995  -2.255  1.00  0.00    +0.000 O 
BRANCH   31    5
ATOM    115  H10 UNL A   1       4.449  31.030  -1.414  1.00  0.00    +0.000 H 
ATOM      5  C5  UNL A   1       3.775  30.199  -1.406  1.00  0.00    +0.000 C 
BRANCH    5    4
ATOM    113  H8  UNL A   1       2.215  30.584  -2.791  1.00  0.00    +0.000 H 
ATOM    114  H9  UNL A   1       1.813  30.699  -0.994  1.00  0.00    +0.000 H 
ATOM      4  C4  UNL A   1       2.464  30.933  -1.810  1.00  0.00    +0.000 C 
BRANCH    4    3
ATOM      3  C3  UNL A   1       2.375  32.457  -1.864  1.00  0.00    +0.000 C 
ATOM    111  H6  UNL A   1       3.334  32.826  -2.163  1.00  0.00    +0.000 H 
ATOM    112  H7  UNL A   1       1.578  32.665  -2.547  1.00  0.00    +0.000 H 
BRANCH    3    2
ATOM      2  C2  UNL A   1       1.987  33.177  -0.574  1.00  0.00    +0.000 C 
ATOM    109  H4  UNL A   1       2.865  33.620  -0.154  1.00  0.00    +0.000 H 
ATOM    110  H5  UNL A   1       1.250  33.911  -0.828  1.00  0.00    +0.000 H 
BRANCH    2    1
ATOM      1  C1  UNL A   1       1.369  32.256   0.461  1.00  0.00    +0.000 C 
ATOM    106  H1  UNL A   1       0.309  32.219   0.319  1.00  0.00    +0.000 H 
ATOM    107  H2  UNL A   1       1.585  32.625   1.441  1.00  0.00    +0.000 H 
ATOM    108  H3  UNL A   1       1.778  31.272   0.352  1.00  0.00    +0.000 H 
ENDBRANCH    2    1
ENDBRANCH    3    2
ENDBRANCH    4    3
ENDBRANCH    5    4
BRANCH    5    6
ATOM      6  S1  UNL A   1       4.074  29.401   0.268  1.00  0.00    +0.000 S 
BRANCH    6    7
ATOM    131  H26 UNL A   1       8.591  31.119   2.272  1.00  0.00    +0.000 H 
ATOM      7  C6  UNL A   1       5.807  29.560   0.526  1.00  0.00    +0.000 C 
ATOM      8  N1  UNL A   1       6.326  28.870   1.563  1.00  0.00    +0.000 N 
ATOM      9  C7  UNL A   1       7.420  29.391   2.126  1.00  0.00    +0.000 C 
ATOM     19  C16 UNL A   1       7.908  30.593   1.705  1.00  0.00    +0.000 C 
ATOM     20  C17 UNL A   1       7.463  31.076   0.511  1.00  0.00    +0.000 C 
ATOM     30  N2  UNL A   1       6.406  30.565  -0.104  1.00  0.00    +0.000 N 
BRANCH    9   10
ATOM     10  O1  UNL A   1       8.005  28.636   3.116  1.00  0.00    +0.000 O 
BRANCH   10   11
ATOM     11  C8  UNL A   1       9.170  27.864   2.794  1.00  0.00    +0.000 C 
ATOM    116  H11 UNL A   1       9.002  27.407   1.842  1.00  0.00    +0.000 H 
ATOM    117  H12 UNL A   1       9.286  27.177   3.607  1.00  0.00    +0.000 H 
BRANCH   11   12
ATOM     12  C9  UNL A   1      10.516  28.635   2.716  1.00  0.00    +0.000 C 
ATOM    118  H13 UNL A   1      11.165  28.228   3.463  1.00  0.00    +0.000 H 
ATOM    119  H14 UNL A   1      10.258  29.664   2.859  1.00  0.00    +0.000 H 
BRANCH   12   13
ATOM    129  H24 UNL A   1      11.524  26.471   1.469  1.00  0.00    +0.000 H 
ATOM    130  H25 UNL A   1      12.965  27.382   1.847  1.00  0.00    +0.000 H 
ATOM     13  C10 UNL A   1      11.265  28.592   1.375  1.00  0.00    +0.000 C 
ATOM     14  C11 UNL A   1      12.142  29.823   1.096  1.00  0.00    +0.000 C 
ATOM     15  C12 UNL A   1      12.675  29.779  -0.342  1.00  0.00    +0.000 C 
ATOM     16  C13 UNL A   1      13.330  28.448  -0.715  1.00  0.00    +0.000 C 
ATOM     17  C14 UNL A   1      12.563  27.211  -0.244  1.00  0.00    +0.000 C 
ATOM     18  C15 UNL A   1      12.108  27.328   1.208  1.00  0.00    +0.000 C 
ATOM    120  H15 UNL A   1      10.476  28.590   0.652  1.00  0.00    +0.000 H 
ATOM    121  H16 UNL A   1      12.967  29.830   1.778  1.00  0.00    +0.000 H 
ATOM    122  H17 UNL A   1      11.553  30.707   1.224  1.00  0.00    +0.000 H 
ATOM    123  H18 UNL A   1      13.402  30.557  -0.457  1.00  0.00    +0.000 H 
ATOM    124  H19 UNL A   1      11.834  29.907  -0.992  1.00  0.00    +0.000 H 
ATOM    125  H20 UNL A   1      14.306  28.421  -0.279  1.00  0.00    +0.000 H 
ATOM    126  H21 UNL A   1      13.349  28.406  -1.784  1.00  0.00    +0.000 H 
ATOM    127  H22 UNL A   1      13.199  26.355  -0.339  1.00  0.00    +0.000 H 
ATOM    128  H23 UNL A   1      11.689  27.118  -0.854  1.00  0.00    +0.000 H 
ENDBRANCH   12   13
ENDBRANCH   11   12
ENDBRANCH   10   11
ENDBRANCH    9   10
BRANCH   20   21
ATOM     21  O2  UNL A   1       7.881  32.286   0.030  1.00  0.00    +0.000 O 
BRANCH   21   22
ATOM    132  H27 UNL A   1       9.625  31.365  -0.529  1.00  0.00    +0.000 H 
ATOM    133  H28 UNL A   1       9.822  32.798   0.448  1.00  0.00    +0.000 H 
ATOM     22  C18 UNL A   1       9.258  32.352  -0.344  1.00  0.00    +0.000 C 
BRANCH   22   23
ATOM    135  H30 UNL A   1       8.700  32.832  -2.343  1.00  0.00    +0.000 H 
ATOM    134  H29 UNL A   1       9.206  34.229  -1.380  1.00  0.00    +0.000 H 
ATOM     23  C19 UNL A   1       9.400  33.207  -1.626  1.00  0.00    +0.000 C 
BRANCH   23   24
ATOM    136  H31 UNL A   1      10.767  33.922  -2.951  1.00  0.00    +0.000 H 
ATOM    137  H32 UNL A   1      12.093  32.325  -0.733  1.00  0.00    +0.000 H 
ATOM    138  H33 UNL A   1      11.652  33.980  -0.478  1.00  0.00    +0.000 H 
ATOM    139  H34 UNL A   1      13.944  33.930  -1.276  1.00  0.00    +0.000 H 
ATOM    140  H35 UNL A   1      12.957  34.567  -2.561  1.00  0.00    +0.000 H 
ATOM    141  H36 UNL A   1      14.025  31.779  -2.265  1.00  0.00    +0.000 H 
ATOM    142  H37 UNL A   1      14.338  32.960  -3.558  1.00  0.00    +0.000 H 
ATOM    143  H38 UNL A   1      12.787  30.981  -4.046  1.00  0.00    +0.000 H 
ATOM    144  H39 UNL A   1      12.326  32.643  -4.534  1.00  0.00    +0.000 H 
ATOM    145  H40 UNL A   1      10.354  31.641  -3.744  1.00  0.00    +0.000 H 
ATOM    146  H41 UNL A   1      11.160  31.004  -2.327  1.00  0.00    +0.000 H 
ATOM     24  C20 UNL A   1      10.801  33.110  -2.254  1.00  0.00    +0.000 C 
ATOM     25  C21 UNL A   1      11.918  33.260  -1.224  1.00  0.00    +0.000 C 
ATOM     26  C22 UNL A   1      13.168  33.696  -1.974  1.00  0.00    +0.000 C 
ATOM     27  C23 UNL A   1      13.617  32.556  -2.877  1.00  0.00    +0.000 C 
ATOM     28  C24 UNL A   1      12.482  31.957  -3.729  1.00  0.00    +0.000 C 
ATOM     29  C25 UNL A   1      11.119  31.821  -3.017  1.00  0.00    +0.000 C 
ENDBRANCH   23   24
ENDBRANCH   22   23
ENDBRANCH   21   22
ENDBRANCH   20   21
ENDBRANCH    6    7
ENDBRANCH    5    6
ENDBRANCH   31    5
ENDBRANCH   33   31
ENDBRANCH   34   33
ENDBRANCH   35   34
ENDBRANCH   36   35
ENDBRANCH   37   36
ENDBRANCH   38   37
ENDBRANCH   39   38
ENDBRANCH   40   39
ENDBRANCH   41   40
ENDBRANCH   43   41
ENDBRANCH   47   46
BRANCH   51   52
ATOM     52  C42 UNL A   1       7.834  34.507  -6.955  1.00  0.00    +0.000 C 
ATOM     53  C43 UNL A   1       8.074  35.581  -6.082  1.00  0.00    +0.000 C 
ATOM     54  F1  UNL A   1       9.330  35.980  -5.833  1.00  0.00    +0.000 F 
ATOM     55  C44 UNL A   1       7.025  36.222  -5.429  1.00  0.00    +0.000 C 
ATOM     56  F2  UNL A   1       7.282  37.210  -4.561  1.00  0.00    +0.000 F 
ATOM     57  C45 UNL A   1       5.716  35.831  -5.664  1.00  0.00    +0.000 C 
ATOM     58  F3  UNL A   1       4.706  36.455  -5.041  1.00  0.00    +0.000 F 
ATOM     59  C46 UNL A   1       5.453  34.788  -6.538  1.00  0.00    +0.000 C 
ATOM     60  F4  UNL A   1       4.187  34.416  -6.776  1.00  0.00    +0.000 F 
ATOM     61  C47 UNL A   1       6.502  34.122  -7.168  1.00  0.00    +0.000 C 
ATOM     62  F5  UNL A   1       6.216  33.105  -7.996  1.00  0.00    +0.000 F 
ENDBRANCH   51   52
BRANCH   68   69
ATOM     69  C53 UNL A   1      12.367  35.763 -12.420  1.00  0.00    +0.000 C 
ATOM     70  C54 UNL A   1      13.301  36.758 -12.099  1.00  0.00    +0.000 C 
ATOM     71  F6  UNL A   1      13.906  36.756 -10.902  1.00  0.00    +0.000 F 
ATOM     72  C55 UNL A   1      13.584  37.787 -12.994  1.00  0.00    +0.000 C 
ATOM     73  F7  UNL A   1      14.441  38.757 -12.645  1.00  0.00    +0.000 F 
ATOM     74  C56 UNL A   1      12.970  37.819 -14.237  1.00  0.00    +0.000 C 
ATOM     75  F8  UNL A   1      13.249  38.807 -15.098  1.00  0.00    +0.000 F 
ATOM     76  C57 UNL A   1      12.060  36.832 -14.584  1.00  0.00    +0.000 C 
ATOM     77  F9  UNL A   1      11.477  36.852 -15.790  1.00  0.00    +0.000 F 
ATOM     78  C58 UNL A   1      11.751  35.820 -13.680  1.00  0.00    +0.000 C 
ATOM     79  F10 UNL A   1      10.856  34.888 -14.039  1.00  0.00    +0.000 F 
ENDBRANCH   68   69
BRANCH   83   84
ATOM     84  C62 UNL A   1      15.158  29.446 -11.512  1.00  0.00    +0.000 C 
ATOM     85  C63 UNL A   1      16.506  29.697 -11.215  1.00  0.00    +0.000 C 
ATOM     86  F11 UNL A   1      16.829  30.617 -10.294  1.00  0.00    +0.000 F 
ATOM     87  C64 UNL A   1      17.528  29.039 -11.897  1.00  0.00    +0.000 C 
ATOM     88  F12 UNL A   1      18.807  29.338 -11.633  1.00  0.00    +0.000 F 
ATOM     89  C65 UNL A   1      17.221  28.093 -12.864  1.00  0.00    +0.000 C 
ATOM     90  F13 UNL A   1      18.204  27.464 -13.522  1.00  0.00    +0.000 F 
ATOM     91  C66 UNL A   1      15.896  27.810 -13.155  1.00  0.00    +0.000 C 
ATOM     92  F14 UNL A   1      15.597  26.887 -14.079  1.00  0.00    +0.000 F 
ATOM     93  C67 UNL A   1      14.874  28.489 -12.495  1.00  0.00    +0.000 C 
ATOM     94  F15 UNL A   1      13.601  28.208 -12.812  1.00  0.00    +0.000 F 
ENDBRANCH   83   84
TORSDOF 29
ENDMDL
MODEL 2
REMARK VINA RESULT:      -6.6     45.364     50.135
ROOT
ATOM    163  H58 UNL A   1      39.253  26.077  29.527  1.00  0.00    +0.000 H 
ATOM    164  H59 UNL A   1      38.592  28.238  30.827  1.00  0.00    +0.000 H 
ATOM    165  H60 UNL A   1      42.067  29.005  28.711  1.00  0.00    +0.000 H 
ATOM    166  H61 UNL A   1      46.833  32.985  27.195  1.00  0.00    +0.000 H 
ATOM    167  H62 UNL A   1      47.442  30.895  25.885  1.00  0.00    +0.000 H 
ATOM    168  H63 UNL A   1      43.928  30.113  27.964  1.00  0.00    +0.000 H 
ATOM    169  H64 UNL A   1      42.762  34.345  30.391  1.00  0.00    +0.000 H 
ATOM    170  H65 UNL A   1      40.833  33.046  31.456  1.00  0.00    +0.000 H 
ATOM    171  H66 UNL A   1      43.173  24.918  26.047  1.00  0.00    +0.000 H 
ATOM    172  H67 UNL A   1      45.408  25.998  25.417  1.00  0.00    +0.000 H 
ATOM     47  C38 UNL A   1      45.648  28.710  26.265  1.00  0.00    +0.000 C 
ATOM     48  C39 UNL A   1      44.541  27.741  26.582  1.00  0.00    +0.000 C 
ATOM     49  N5  UNL A   1      43.466  27.919  27.306  1.00  0.00    +0.000 N 
ATOM     50  C40 UNL A   1      42.762  26.724  27.237  1.00  0.00    +0.000 C 
ATOM     51  C41 UNL A   1      41.622  26.376  27.878  1.00  0.00    +0.000 C 
ATOM     63  C48 UNL A   1      40.909  27.240  28.781  1.00  0.00    +0.000 C 
ATOM     64  C49 UNL A   1      39.764  26.973  29.511  1.00  0.00    +0.000 C 
ATOM     65  C50 UNL A   1      39.420  28.127  30.222  1.00  0.00    +0.000 C 
ATOM     66  C51 UNL A   1      40.380  29.095  29.978  1.00  0.00    +0.000 C 
ATOM     67  N6  UNL A   1      41.280  28.543  29.081  1.00  0.00    +0.000 N 
ATOM     68  C52 UNL A   1      40.472  30.424  30.525  1.00  0.00    +0.000 C 
ATOM     80  C59 UNL A   1      41.430  31.331  30.213  1.00  0.00    +0.000 C 
ATOM     81  N7  UNL A   1      42.514  31.198  29.354  1.00  0.00    +0.000 N 
ATOM     82  C60 UNL A   1      43.141  32.349  29.384  1.00  0.00    +0.000 C 
ATOM     83  C61 UNL A   1      44.408  32.763  28.684  1.00  0.00    +0.000 C 
ATOM     95  C68 UNL A   1      45.049  31.867  27.910  1.00  0.00    +0.000 C 
ATOM     96  C69 UNL A   1      46.293  32.106  27.185  1.00  0.00    +0.000 C 
ATOM     97  C70 UNL A   1      46.620  30.998  26.501  1.00  0.00    +0.000 C 
ATOM     98  C71 UNL A   1      45.625  29.958  26.769  1.00  0.00    +0.000 C 
ATOM     99  N8  UNL A   1      44.727  30.566  27.610  1.00  0.00    +0.000 N 
ATOM    100  C72 UNL A   1      42.498  33.359  30.236  1.00  0.00    +0.000 C 
ATOM    101  C73 UNL A   1      41.491  32.672  30.756  1.00  0.00    +0.000 C 
ATOM    102  C74 UNL A   1      43.498  25.849  26.351  1.00  0.00    +0.000 C 
ATOM    103  C75 UNL A   1      44.643  26.402  25.980  1.00  0.00    +0.000 C 
ENDROOT
BRANCH   47   46
ATOM    161  H56 UNL A   1      49.921  27.194  25.373  1.00  0.00    +0.000 H 
ATOM    162  H57 UNL A   1      48.145  27.865  26.885  1.00  0.00    +0.000 H 
ATOM    104  C76 UNL A   1      46.529  28.288  23.971  1.00  0.00    +0.000 C 
ATOM    105  C77 UNL A   1      47.516  27.815  23.113  1.00  0.00    +0.000 C 
ATOM     43  C34 UNL A   1      48.768  27.457  23.621  1.00  0.00    +0.000 C 
ATOM     44  C35 UNL A   1      49.002  27.476  24.998  1.00  0.00    +0.000 C 
ATOM     45  C36 UNL A   1      47.986  27.879  25.865  1.00  0.00    +0.000 C 
ATOM    174  H69 UNL A   1      47.324  27.727  22.103  1.00  0.00    +0.000 H 
ATOM    173  H68 UNL A   1      45.634  28.631  23.587  1.00  0.00    +0.000 H 
ATOM     46  C37 UNL A   1      46.746  28.302  25.356  1.00  0.00    +0.000 C 
BRANCH   43   41
ATOM     41  C33 UNL A   1      49.852  27.013  22.722  1.00  0.00    +0.000 C 
ATOM     42  O4  UNL A   1      49.605  26.744  21.549  1.00  0.00    +0.000 O 
BRANCH   41   40
ATOM    160  H55 UNL A   1      51.214  26.636  24.139  1.00  0.00    +0.000 H 
ATOM     40  N4  UNL A   1      51.131  26.908  23.197  1.00  0.00    +0.000 N 
BRANCH   40   39
ATOM    159  H54 UNL A   1      52.163  27.358  21.476  1.00  0.00    +0.000 H 
ATOM    158  H53 UNL A   1      52.998  26.270  22.584  1.00  0.00    +0.000 H 
ATOM     39  C32 UNL A   1      52.385  27.143  22.500  1.00  0.00    +0.000 C 
BRANCH   39   38
ATOM    156  H51 UNL A   1      54.100  27.995  23.408  1.00  0.00    +0.000 H 
ATOM    157  H52 UNL A   1      53.199  29.068  22.309  1.00  0.00    +0.000 H 
ATOM     38  C31 UNL A   1      53.139  28.333  23.083  1.00  0.00    +0.000 C 
BRANCH   38   37
ATOM    154  H49 UNL A   1      51.436  28.619  24.321  1.00  0.00    +0.000 H 
ATOM    155  H50 UNL A   1      53.020  28.766  25.135  1.00  0.00    +0.000 H 
ATOM     37  C30 UNL A   1      52.436  28.998  24.269  1.00  0.00    +0.000 C 
BRANCH   37   36
ATOM    153  H48 UNL A   1      51.688  30.765  23.399  1.00  0.00    +0.000 H 
ATOM     36  C29 UNL A   1      52.362  30.529  24.196  1.00  0.00    +0.000 C 
ATOM    152  H47 UNL A   1      53.351  30.904  24.030  1.00  0.00    +0.000 H 
BRANCH   36   35
ATOM     35  C28 UNL A   1      51.803  31.193  25.455  1.00  0.00    +0.000 C 
ATOM    150  H45 UNL A   1      52.509  31.918  25.803  1.00  0.00    +0.000 H 
ATOM    151  H46 UNL A   1      50.868  31.644  25.194  1.00  0.00    +0.000 H 
BRANCH   35   34
ATOM     34  C27 UNL A   1      51.533  30.196  26.581  1.00  0.00    +0.000 C 
ATOM    148  H43 UNL A   1      51.594  29.202  26.192  1.00  0.00    +0.000 H 
ATOM    149  H44 UNL A   1      52.264  30.340  27.349  1.00  0.00    +0.000 H 
BRANCH   34   33
ATOM     33  N3  UNL A   1      50.210  30.407  27.150  1.00  0.00    +0.000 N 
ATOM    147  H42 UNL A   1      49.513  30.644  26.496  1.00  0.00    +0.000 H 
BRANCH   33   31
ATOM     31  C26 UNL A   1      49.777  30.328  28.448  1.00  0.00    +0.000 C 
ATOM     32  O3  UNL A   1      49.939  31.317  29.170  1.00  0.00    +0.000 O 
BRANCH   31    5
ATOM    115  H10 UNL A   1      48.395  28.487  28.404  1.00  0.00    +0.000 H 
ATOM      5  C5  UNL A   1      49.099  29.048  28.982  1.00  0.00    +0.000 C 
BRANCH    5    4
ATOM    113  H8  UNL A   1      51.046  28.332  28.535  1.00  0.00    +0.000 H 
ATOM    114  H9  UNL A   1      50.331  27.899  30.179  1.00  0.00    +0.000 H 
ATOM      4  C4  UNL A   1      50.222  27.978  29.118  1.00  0.00    +0.000 C 
BRANCH    4    3
ATOM      3  C3  UNL A   1      50.004  26.522  28.709  1.00  0.00    +0.000 C 
ATOM    111  H6  UNL A   1      49.010  26.441  28.322  1.00  0.00    +0.000 H 
ATOM    112  H7  UNL A   1      50.782  26.312  28.006  1.00  0.00    +0.000 H 
BRANCH    3    2
ATOM      2  C2  UNL A   1      50.161  25.463  29.799  1.00  0.00    +0.000 C 
ATOM    109  H4  UNL A   1      49.196  25.056  30.019  1.00  0.00    +0.000 H 
ATOM    110  H5  UNL A   1      50.834  24.719  29.426  1.00  0.00    +0.000 H 
BRANCH    2    1
ATOM      1  C1  UNL A   1      50.758  26.011  31.082  1.00  0.00    +0.000 C 
ATOM    106  H1  UNL A   1      51.594  26.636  30.848  1.00  0.00    +0.000 H 
ATOM    107  H2  UNL A   1      51.081  25.200  31.700  1.00  0.00    +0.000 H 
ATOM    108  H3  UNL A   1      50.018  26.584  31.603  1.00  0.00    +0.000 H 
ENDBRANCH    2    1
ENDBRANCH    3    2
ENDBRANCH    4    3
ENDBRANCH    5    4
BRANCH    5    6
ATOM      6  S1  UNL A   1      48.078  29.704  30.415  1.00  0.00    +0.000 S 
BRANCH    6    7
ATOM    131  H26 UNL A   1      46.788  24.701  31.242  1.00  0.00    +0.000 H 
ATOM      7  C6  UNL A   1      47.164  28.310  30.976  1.00  0.00    +0.000 C 
ATOM      8  N1  UNL A   1      47.574  27.747  32.132  1.00  0.00    +0.000 N 
ATOM      9  C7  UNL A   1      47.327  26.442  32.271  1.00  0.00    +0.000 C 
ATOM     19  C16 UNL A   1      46.766  25.733  31.250  1.00  0.00    +0.000 C 
ATOM     20  C17 UNL A   1      46.175  26.433  30.241  1.00  0.00    +0.000 C 
ATOM     30  N2  UNL A   1      46.360  27.737  30.088  1.00  0.00    +0.000 N 
BRANCH    9   10
ATOM     10  O1  UNL A   1      47.656  25.893  33.489  1.00  0.00    +0.000 O 
BRANCH   10   11
ATOM     11  C8  UNL A   1      46.603  25.379  34.317  1.00  0.00    +0.000 C 
ATOM    116  H11 UNL A   1      47.056  24.939  35.180  1.00  0.00    +0.000 H 
ATOM    117  H12 UNL A   1      46.064  24.695  33.696  1.00  0.00    +0.000 H 
BRANCH   11   12
ATOM     12  C9  UNL A   1      45.544  26.402  34.810  1.00  0.00    +0.000 C 
ATOM    118  H13 UNL A   1      45.601  27.260  34.173  1.00  0.00    +0.000 H 
ATOM    119  H14 UNL A   1      45.791  26.588  35.835  1.00  0.00    +0.000 H 
BRANCH   12   13
ATOM    129  H24 UNL A   1      43.333  27.917  34.544  1.00  0.00    +0.000 H 
ATOM    130  H25 UNL A   1      43.179  27.327  36.181  1.00  0.00    +0.000 H 
ATOM     13  C10 UNL A   1      44.081  25.933  34.830  1.00  0.00    +0.000 C 
ATOM     14  C11 UNL A   1      43.804  24.750  35.770  1.00  0.00    +0.000 C 
ATOM     15  C12 UNL A   1      42.375  24.230  35.561  1.00  0.00    +0.000 C 
ATOM     16  C13 UNL A   1      41.309  25.325  35.606  1.00  0.00    +0.000 C 
ATOM     17  C14 UNL A   1      41.678  26.600  34.845  1.00  0.00    +0.000 C 
ATOM     18  C15 UNL A   1      43.101  27.064  35.146  1.00  0.00    +0.000 C 
ATOM    120  H15 UNL A   1      43.917  25.593  33.829  1.00  0.00    +0.000 H 
ATOM    121  H16 UNL A   1      43.918  25.071  36.785  1.00  0.00    +0.000 H 
ATOM    122  H17 UNL A   1      44.497  23.964  35.555  1.00  0.00    +0.000 H 
ATOM    123  H18 UNL A   1      42.160  23.517  36.330  1.00  0.00    +0.000 H 
ATOM    124  H19 UNL A   1      42.340  23.797  34.583  1.00  0.00    +0.000 H 
ATOM    125  H20 UNL A   1      41.139  25.585  36.630  1.00  0.00    +0.000 H 
ATOM    126  H21 UNL A   1      40.440  24.926  35.127  1.00  0.00    +0.000 H 
ATOM    127  H22 UNL A   1      40.996  27.376  35.123  1.00  0.00    +0.000 H 
ATOM    128  H23 UNL A   1      41.620  26.383  33.799  1.00  0.00    +0.000 H 
ENDBRANCH   12   13
ENDBRANCH   11   12
ENDBRANCH   10   11
ENDBRANCH    9   10
BRANCH   20   21
ATOM     21  O2  UNL A   1      45.614  25.799  29.167  1.00  0.00    +0.000 O 
BRANCH   21   22
ATOM    132  H27 UNL A   1      45.428  23.836  28.609  1.00  0.00    +0.000 H 
ATOM    133  H28 UNL A   1      46.792  24.189  29.639  1.00  0.00    +0.000 H 
ATOM     22  C18 UNL A   1      46.200  24.544  28.822  1.00  0.00    +0.000 C 
BRANCH   22   23
ATOM    135  H30 UNL A   1      46.903  25.696  27.174  1.00  0.00    +0.000 H 
ATOM    134  H29 UNL A   1      48.119  24.610  27.865  1.00  0.00    +0.000 H 
ATOM     23  C19 UNL A   1      47.096  24.723  27.573  1.00  0.00    +0.000 C 
BRANCH   23   24
ATOM    136  H31 UNL A   1      47.610  23.025  26.580  1.00  0.00    +0.000 H 
ATOM    137  H32 UNL A   1      44.652  23.644  26.275  1.00  0.00    +0.000 H 
ATOM    138  H33 UNL A   1      45.238  22.846  27.695  1.00  0.00    +0.000 H 
ATOM    139  H34 UNL A   1      44.590  21.141  26.094  1.00  0.00    +0.000 H 
ATOM    140  H35 UNL A   1      46.328  21.135  26.190  1.00  0.00    +0.000 H 
ATOM    141  H36 UNL A   1      44.603  22.391  24.082  1.00  0.00    +0.000 H 
ATOM    142  H37 UNL A   1      45.819  21.105  23.905  1.00  0.00    +0.000 H 
ATOM    143  H38 UNL A   1      46.390  23.461  23.080  1.00  0.00    +0.000 H 
ATOM    144  H39 UNL A   1      47.564  22.530  24.065  1.00  0.00    +0.000 H 
ATOM    145  H40 UNL A   1      47.698  24.744  24.837  1.00  0.00    +0.000 H 
ATOM    146  H41 UNL A   1      45.956  24.902  24.906  1.00  0.00    +0.000 H 
ATOM     24  C20 UNL A   1      46.787  23.700  26.467  1.00  0.00    +0.000 C 
ATOM     25  C21 UNL A   1      45.433  23.020  26.658  1.00  0.00    +0.000 C 
ATOM     26  C22 UNL A   1      45.475  21.707  25.889  1.00  0.00    +0.000 C 
ATOM     27  C23 UNL A   1      45.553  22.016  24.400  1.00  0.00    +0.000 C 
ATOM     28  C24 UNL A   1      46.632  23.054  24.040  1.00  0.00    +0.000 C 
ATOM     29  C25 UNL A   1      46.779  24.230  25.030  1.00  0.00    +0.000 C 
ENDBRANCH   23   24
ENDBRANCH   22   23
ENDBRANCH   21   22
ENDBRANCH   20   21
ENDBRANCH    6    7
ENDBRANCH    5    6
ENDBRANCH   31    5
ENDBRANCH   33   31
ENDBRANCH   34   33
ENDBRANCH   35   34
ENDBRANCH   36   35
ENDBRANCH   37   36
ENDBRANCH   38   37
ENDBRANCH   39   38
ENDBRANCH   40   39
ENDBRANCH   41   40
ENDBRANCH   43   41
ENDBRANCH   47   46
BRANCH   51   52
ATOM     52  C42 UNL A   1      41.079  24.997  27.631  1.00  0.00    +0.000 C 
ATOM     53  C43 UNL A   1      39.950  24.786  26.823  1.00  0.00    +0.000 C 
ATOM     54  F1  UNL A   1      39.300  25.828  26.285  1.00  0.00    +0.000 F 
ATOM     55  C44 UNL A   1      39.460  23.502  26.598  1.00  0.00    +0.000 C 
ATOM     56  F2  UNL A   1      38.352  23.329  25.865  1.00  0.00    +0.000 F 
ATOM     57  C45 UNL A   1      40.108  22.404  27.142  1.00  0.00    +0.000 C 
ATOM     58  F3  UNL A   1      39.640  21.168  26.918  1.00  0.00    +0.000 F 
ATOM     59  C46 UNL A   1      41.238  22.587  27.925  1.00  0.00    +0.000 C 
ATOM     60  F4  UNL A   1      41.873  21.526  28.442  1.00  0.00    +0.000 F 
ATOM     61  C47 UNL A   1      41.712  23.872  28.180  1.00  0.00    +0.000 C 
ATOM     62  F5  UNL A   1      42.797  24.016  28.956  1.00  0.00    +0.000 F 
ENDBRANCH   51   52
BRANCH   68   69
ATOM     69  C53 UNL A   1      39.446  30.830  31.543  1.00  0.00    +0.000 C 
ATOM     70  C54 UNL A   1      39.597  30.536  32.905  1.00  0.00    +0.000 C 
ATOM     71  F6  UNL A   1      40.658  29.833  33.331  1.00  0.00    +0.000 F 
ATOM     72  C55 UNL A   1      38.634  30.926  33.831  1.00  0.00    +0.000 C 
ATOM     73  F7  UNL A   1      38.773  30.587  35.120  1.00  0.00    +0.000 F 
ATOM     74  C56 UNL A   1      37.524  31.649  33.421  1.00  0.00    +0.000 C 
ATOM     75  F8  UNL A   1      36.601  32.028  34.315  1.00  0.00    +0.000 F 
ATOM     76  C57 UNL A   1      37.366  31.972  32.081  1.00  0.00    +0.000 C 
ATOM     77  F9  UNL A   1      36.303  32.683  31.684  1.00  0.00    +0.000 F 
ATOM     78  C58 UNL A   1      38.311  31.556  31.148  1.00  0.00    +0.000 C 
ATOM     79  F10 UNL A   1      38.123  31.870  29.858  1.00  0.00    +0.000 F 
ENDBRANCH   68   69
BRANCH   83   84
ATOM     84  C62 UNL A   1      44.969  34.127  28.869  1.00  0.00    +0.000 C 
ATOM     85  C63 UNL A   1      44.577  35.183  28.034  1.00  0.00    +0.000 C 
ATOM     86  F11 UNL A   1      43.685  34.968  27.055  1.00  0.00    +0.000 F 
ATOM     87  C64 UNL A   1      45.135  36.453  28.168  1.00  0.00    +0.000 C 
ATOM     88  F12 UNL A   1      44.784  37.430  27.321  1.00  0.00    +0.000 F 
ATOM     89  C65 UNL A   1      46.070  36.700  29.162  1.00  0.00    +0.000 C 
ATOM     90  F13 UNL A   1      46.609  37.919  29.289  1.00  0.00    +0.000 F 
ATOM     91  C66 UNL A   1      46.454  35.677  30.016  1.00  0.00    +0.000 C 
ATOM     92  F14 UNL A   1      47.347  35.915  30.986  1.00  0.00    +0.000 F 
ATOM     93  C67 UNL A   1      45.919  34.399  29.863  1.00  0.00    +0.000 C 
ATOM     94  F15 UNL A   1      46.322  33.426  30.692  1.00  0.00    +0.000 F 
ENDBRANCH   83   84
TORSDOF 29
ENDMDL
MODEL 3
REMARK VINA RESULT:      -6.6     48.119     55.572
ROOT
ATOM    163  H58 UNL A   1      18.746  38.309  48.807  1.00  0.00    +0.000 H 
ATOM    164  H59 UNL A   1      18.140  40.659  49.762  1.00  0.00    +0.000 H 
ATOM    165  H60 UNL A   1      22.089  40.739  48.521  1.00  0.00    +0.000 H 
ATOM    166  H61 UNL A   1      27.632  43.874  47.969  1.00  0.00    +0.000 H 
ATOM    167  H62 UNL A   1      28.201  41.601  46.987  1.00  0.00    +0.000 H 
ATOM    168  H63 UNL A   1      24.221  41.507  48.184  1.00  0.00    +0.000 H 
ATOM    169  H64 UNL A   1      23.186  46.078  49.972  1.00  0.00    +0.000 H 
ATOM    170  H65 UNL A   1      20.885  45.162  50.612  1.00  0.00    +0.000 H 
ATOM    171  H66 UNL A   1      23.145  36.295  46.479  1.00  0.00    +0.000 H 
ATOM    172  H67 UNL A   1      25.604  36.999  46.350  1.00  0.00    +0.000 H 
ATOM     47  C38 UNL A   1      26.054  39.725  47.054  1.00  0.00    +0.000 C 
ATOM     48  C39 UNL A   1      24.768  38.949  47.151  1.00  0.00    +0.000 C 
ATOM     49  N5  UNL A   1      23.593  39.341  47.576  1.00  0.00    +0.000 N 
ATOM     50  C40 UNL A   1      22.751  38.249  47.413  1.00  0.00    +0.000 C 
ATOM     51  C41 UNL A   1      21.452  38.123  47.774  1.00  0.00    +0.000 C 
ATOM     63  C48 UNL A   1      20.690  39.160  48.417  1.00  0.00    +0.000 C 
ATOM     64  C49 UNL A   1      19.379  39.123  48.859  1.00  0.00    +0.000 C 
ATOM     65  C50 UNL A   1      19.060  40.378  49.388  1.00  0.00    +0.000 C 
ATOM     66  C51 UNL A   1      20.188  41.180  49.325  1.00  0.00    +0.000 C 
ATOM     67  N6  UNL A   1      21.177  40.425  48.715  1.00  0.00    +0.000 N 
ATOM     68  C52 UNL A   1      20.352  42.532  49.791  1.00  0.00    +0.000 C 
ATOM     80  C59 UNL A   1      21.485  43.267  49.666  1.00  0.00    +0.000 C 
ATOM     81  N7  UNL A   1      22.706  42.906  49.111  1.00  0.00    +0.000 N 
ATOM     82  C60 UNL A   1      23.477  43.959  49.220  1.00  0.00    +0.000 C 
ATOM     83  C61 UNL A   1      24.922  44.128  48.828  1.00  0.00    +0.000 C 
ATOM     95  C68 UNL A   1      25.580  43.082  48.294  1.00  0.00    +0.000 C 
ATOM     96  C69 UNL A   1      26.981  43.078  47.883  1.00  0.00    +0.000 C 
ATOM     97  C70 UNL A   1      27.284  41.874  47.373  1.00  0.00    +0.000 C 
ATOM     98  C71 UNL A   1      26.106  41.009  47.455  1.00  0.00    +0.000 C 
ATOM     99  N8  UNL A   1      25.141  41.813  48.009  1.00  0.00    +0.000 N 
ATOM    100  C72 UNL A   1      22.817  45.126  49.821  1.00  0.00    +0.000 C 
ATOM    101  C73 UNL A   1      21.623  44.635  50.120  1.00  0.00    +0.000 C 
ATOM    102  C74 UNL A   1      23.530  37.200  46.793  1.00  0.00    +0.000 C 
ATOM    103  C75 UNL A   1      24.800  37.555  46.680  1.00  0.00    +0.000 C 
ENDROOT
BRANCH   47   46
ATOM    161  H56 UNL A   1      29.129  39.013  43.679  1.00  0.00    +0.000 H 
ATOM    162  H57 UNL A   1      27.149  40.071  44.601  1.00  0.00    +0.000 H 
ATOM    104  C76 UNL A   1      28.010  38.191  47.248  1.00  0.00    +0.000 C 
ATOM    105  C77 UNL A   1      29.193  37.658  46.751  1.00  0.00    +0.000 C 
ATOM     43  C34 UNL A   1      29.579  37.924  45.434  1.00  0.00    +0.000 C 
ATOM     44  C35 UNL A   1      28.834  38.804  44.646  1.00  0.00    +0.000 C 
ATOM     45  C36 UNL A   1      27.686  39.398  45.171  1.00  0.00    +0.000 C 
ATOM    174  H69 UNL A   1      29.788  37.068  47.354  1.00  0.00    +0.000 H 
ATOM    173  H68 UNL A   1      27.682  37.928  48.191  1.00  0.00    +0.000 H 
ATOM     46  C37 UNL A   1      27.257  39.085  46.472  1.00  0.00    +0.000 C 
BRANCH   43   41
ATOM     41  C33 UNL A   1      30.799  37.317  44.864  1.00  0.00    +0.000 C 
ATOM     42  O4  UNL A   1      31.664  38.032  44.364  1.00  0.00    +0.000 O 
BRANCH   41   40
ATOM    160  H55 UNL A   1      31.807  35.642  45.295  1.00  0.00    +0.000 H 
ATOM     40  N4  UNL A   1      30.963  35.959  44.898  1.00  0.00    +0.000 N 
BRANCH   40   39
ATOM    159  H54 UNL A   1      30.594  34.309  43.728  1.00  0.00    +0.000 H 
ATOM    158  H53 UNL A   1      29.213  35.378  43.968  1.00  0.00    +0.000 H 
ATOM     39  C32 UNL A   1      30.063  34.919  44.428  1.00  0.00    +0.000 C 
BRANCH   39   38
ATOM    156  H51 UNL A   1      30.112  33.099  45.512  1.00  0.00    +0.000 H 
ATOM    157  H52 UNL A   1      29.781  34.560  46.476  1.00  0.00    +0.000 H 
ATOM     38  C31 UNL A   1      29.585  34.029  45.569  1.00  0.00    +0.000 C 
BRANCH   38   37
ATOM    154  H49 UNL A   1      27.905  32.963  44.824  1.00  0.00    +0.000 H 
ATOM    155  H50 UNL A   1      27.816  33.448  46.541  1.00  0.00    +0.000 H 
ATOM     37  C30 UNL A   1      28.083  33.734  45.545  1.00  0.00    +0.000 C 
BRANCH   37   36
ATOM    153  H48 UNL A   1      27.661  35.419  44.355  1.00  0.00    +0.000 H 
ATOM     36  C29 UNL A   1      27.198  34.935  45.189  1.00  0.00    +0.000 C 
ATOM    152  H47 UNL A   1      27.126  35.565  46.050  1.00  0.00    +0.000 H 
BRANCH   36   35
ATOM     35  C28 UNL A   1      25.780  34.563  44.748  1.00  0.00    +0.000 C 
ATOM    150  H45 UNL A   1      25.262  35.458  44.474  1.00  0.00    +0.000 H 
ATOM    151  H46 UNL A   1      25.866  33.885  43.925  1.00  0.00    +0.000 H 
BRANCH   35   34
ATOM     34  C27 UNL A   1      24.985  33.856  45.844  1.00  0.00    +0.000 C 
ATOM    148  H43 UNL A   1      25.620  33.692  46.689  1.00  0.00    +0.000 H 
ATOM    149  H44 UNL A   1      24.155  34.472  46.118  1.00  0.00    +0.000 H 
BRANCH   34   33
ATOM     33  N3  UNL A   1      24.481  32.575  45.371  1.00  0.00    +0.000 N 
ATOM    147  H42 UNL A   1      25.172  31.887  45.227  1.00  0.00    +0.000 H 
BRANCH   33   31
ATOM     31  C26 UNL A   1      23.201  32.171  45.091  1.00  0.00    +0.000 C 
ATOM     32  O3  UNL A   1      22.438  32.993  44.576  1.00  0.00    +0.000 O 
BRANCH   31    5
ATOM    115  H10 UNL A   1      22.631  29.986  44.641  1.00  0.00    +0.000 H 
ATOM      5  C5  UNL A   1      22.739  30.731  45.401  1.00  0.00    +0.000 C 
BRANCH    5    4
ATOM    113  H8  UNL A   1      23.864  30.560  47.191  1.00  0.00    +0.000 H 
ATOM    114  H9  UNL A   1      23.622  29.035  46.183  1.00  0.00    +0.000 H 
ATOM      4  C4  UNL A   1      23.874  30.073  46.239  1.00  0.00    +0.000 C 
BRANCH    4    3
ATOM      3  C3  UNL A   1      25.328  30.077  45.772  1.00  0.00    +0.000 C 
ATOM    111  H6  UNL A   1      25.389  29.460  44.900  1.00  0.00    +0.000 H 
ATOM    112  H7  UNL A   1      25.566  31.108  45.613  1.00  0.00    +0.000 H 
BRANCH    3    2
ATOM      2  C2  UNL A   1      26.378  29.577  46.763  1.00  0.00    +0.000 C 
ATOM    109  H4  UNL A   1      27.298  29.429  46.238  1.00  0.00    +0.000 H 
ATOM    110  H5  UNL A   1      26.469  30.317  47.531  1.00  0.00    +0.000 H 
BRANCH    2    1
ATOM      1  C1  UNL A   1      25.991  28.273  47.435  1.00  0.00    +0.000 C 
ATOM    106  H1  UNL A   1      26.861  27.820  47.863  1.00  0.00    +0.000 H 
ATOM    107  H2  UNL A   1      25.564  27.612  46.712  1.00  0.00    +0.000 H 
ATOM    108  H3  UNL A   1      25.275  28.468  48.207  1.00  0.00    +0.000 H 
ENDBRANCH    2    1
ENDBRANCH    3    2
ENDBRANCH    4    3
ENDBRANCH    5    4
BRANCH    5    6
ATOM      6  S1  UNL A   1      20.984  30.999  46.014  1.00  0.00    +0.000 S 
BRANCH    6    7
ATOM    131  H26 UNL A   1      16.679  30.540  43.076  1.00  0.00    +0.000 H 
ATOM      7  C6  UNL A   1      19.976  30.692  44.605  1.00  0.00    +0.000 C 
ATOM      8  N1  UNL A   1      19.596  31.772  43.891  1.00  0.00    +0.000 N 
ATOM      9  C7  UNL A   1      18.436  31.665  43.236  1.00  0.00    +0.000 C 
ATOM     19  C16 UNL A   1      17.668  30.546  43.370  1.00  0.00    +0.000 C 
ATOM     20  C17 UNL A   1      18.251  29.437  43.907  1.00  0.00    +0.000 C 
ATOM     30  N2  UNL A   1      19.419  29.489  44.531  1.00  0.00    +0.000 N 
BRANCH    9   10
ATOM     10  O1  UNL A   1      18.099  32.728  42.430  1.00  0.00    +0.000 O 
BRANCH   10   11
ATOM     11  C8  UNL A   1      16.776  33.272  42.527  1.00  0.00    +0.000 C 
ATOM    116  H11 UNL A   1      16.836  34.313  42.291  1.00  0.00    +0.000 H 
ATOM    117  H12 UNL A   1      16.456  33.058  43.526  1.00  0.00    +0.000 H 
BRANCH   11   12
ATOM     12  C9  UNL A   1      15.695  32.641  41.609  1.00  0.00    +0.000 C 
ATOM    118  H13 UNL A   1      14.843  33.289  41.620  1.00  0.00    +0.000 H 
ATOM    119  H14 UNL A   1      15.521  31.665  42.010  1.00  0.00    +0.000 H 
BRANCH   12   13
ATOM    129  H24 UNL A   1      15.517  34.389  39.567  1.00  0.00    +0.000 H 
ATOM    130  H25 UNL A   1      14.369  33.158  39.099  1.00  0.00    +0.000 H 
ATOM     13  C10 UNL A   1      16.081  32.407  40.140  1.00  0.00    +0.000 C 
ATOM     14  C11 UNL A   1      15.834  30.976  39.637  1.00  0.00    +0.000 C 
ATOM     15  C12 UNL A   1      16.440  30.793  38.239  1.00  0.00    +0.000 C 
ATOM     16  C13 UNL A   1      16.034  31.882  37.246  1.00  0.00    +0.000 C 
ATOM     17  C14 UNL A   1      16.070  33.302  37.813  1.00  0.00    +0.000 C 
ATOM     18  C15 UNL A   1      15.409  33.395  39.186  1.00  0.00    +0.000 C 
ATOM    120  H15 UNL A   1      17.138  32.571  40.134  1.00  0.00    +0.000 H 
ATOM    121  H16 UNL A   1      14.780  30.794  39.591  1.00  0.00    +0.000 H 
ATOM    122  H17 UNL A   1      16.295  30.285  40.311  1.00  0.00    +0.000 H 
ATOM    123  H18 UNL A   1      16.120  29.847  37.853  1.00  0.00    +0.000 H 
ATOM    124  H19 UNL A   1      17.503  30.849  38.349  1.00  0.00    +0.000 H 
ATOM    125  H20 UNL A   1      15.037  31.680  36.915  1.00  0.00    +0.000 H 
ATOM    126  H21 UNL A   1      16.750  31.854  36.451  1.00  0.00    +0.000 H 
ATOM    127  H22 UNL A   1      15.556  33.955  37.138  1.00  0.00    +0.000 H 
ATOM    128  H23 UNL A   1      17.096  33.583  37.924  1.00  0.00    +0.000 H 
ENDBRANCH   12   13
ENDBRANCH   11   12
ENDBRANCH   10   11
ENDBRANCH    9   10
BRANCH   20   21
ATOM     21  O2  UNL A   1      17.543  28.283  44.101  1.00  0.00    +0.000 O 
BRANCH   21   22
ATOM    132  H27 UNL A   1      15.733  28.770  43.271  1.00  0.00    +0.000 H 
ATOM    133  H28 UNL A   1      15.908  29.175  44.960  1.00  0.00    +0.000 H 
ATOM     22  C18 UNL A   1      16.128  28.445  44.211  1.00  0.00    +0.000 C 
BRANCH   22   23
ATOM    135  H30 UNL A   1      16.281  26.400  44.789  1.00  0.00    +0.000 H 
ATOM    134  H29 UNL A   1      14.876  27.239  45.468  1.00  0.00    +0.000 H 
ATOM     23  C19 UNL A   1      15.486  27.092  44.601  1.00  0.00    +0.000 C 
BRANCH   23   24
ATOM    136  H31 UNL A   1      14.413  27.377  42.899  1.00  0.00    +0.000 H 
ATOM    137  H32 UNL A   1      15.271  24.479  43.204  1.00  0.00    +0.000 H 
ATOM    138  H33 UNL A   1      16.369  25.656  42.565  1.00  0.00    +0.000 H 
ATOM    139  H34 UNL A   1      15.189  24.643  40.701  1.00  0.00    +0.000 H 
ATOM    140  H35 UNL A   1      14.600  26.272  40.871  1.00  0.00    +0.000 H 
ATOM    141  H36 UNL A   1      13.302  23.736  41.808  1.00  0.00    +0.000 H 
ATOM    142  H37 UNL A   1      12.696  24.930  40.638  1.00  0.00    +0.000 H 
ATOM    143  H38 UNL A   1      11.657  24.861  42.977  1.00  0.00    +0.000 H 
ATOM    144  H39 UNL A   1      12.127  26.423  42.234  1.00  0.00    +0.000 H 
ATOM    145  H40 UNL A   1      12.733  26.586  44.498  1.00  0.00    +0.000 H 
ATOM    146  H41 UNL A   1      13.472  25.000  44.489  1.00  0.00    +0.000 H 
ATOM     24  C20 UNL A   1      14.614  26.501  43.481  1.00  0.00    +0.000 C 
ATOM     25  C21 UNL A   1      15.334  25.414  42.687  1.00  0.00    +0.000 C 
ATOM     26  C22 UNL A   1      14.642  25.309  41.335  1.00  0.00    +0.000 C 
ATOM     27  C23 UNL A   1      13.233  24.771  41.550  1.00  0.00    +0.000 C 
ATOM     28  C24 UNL A   1      12.456  25.499  42.661  1.00  0.00    +0.000 C 
ATOM     29  C25 UNL A   1      13.282  25.880  43.910  1.00  0.00    +0.000 C 
ENDBRANCH   23   24
ENDBRANCH   22   23
ENDBRANCH   21   22
ENDBRANCH   20   21
ENDBRANCH    6    7
ENDBRANCH    5    6
ENDBRANCH   31    5
ENDBRANCH   33   31
ENDBRANCH   34   33
ENDBRANCH   35   34
ENDBRANCH   36   35
ENDBRANCH   37   36
ENDBRANCH   38   37
ENDBRANCH   39   38
ENDBRANCH   40   39
ENDBRANCH   41   40
ENDBRANCH   43   41
ENDBRANCH   47   46
BRANCH   51   52
ATOM     52  C42 UNL A   1      20.777  36.812  47.492  1.00  0.00    +0.000 C 
ATOM     53  C43 UNL A   1      19.996  36.620  46.340  1.00  0.00    +0.000 C 
ATOM     54  F1  UNL A   1      19.800  37.633  45.482  1.00  0.00    +0.000 F 
ATOM     55  C44 UNL A   1      19.380  35.398  46.087  1.00  0.00    +0.000 C 
ATOM     56  F2  UNL A   1      18.598  35.255  45.008  1.00  0.00    +0.000 F 
ATOM     57  C45 UNL A   1      19.561  34.334  46.956  1.00  0.00    +0.000 C 
ATOM     58  F3  UNL A   1      18.974  33.155  46.706  1.00  0.00    +0.000 F 
ATOM     59  C46 UNL A   1      20.345  34.492  48.088  1.00  0.00    +0.000 C 
ATOM     60  F4  UNL A   1      20.532  33.460  48.923  1.00  0.00    +0.000 F 
ATOM     61  C47 UNL A   1      20.937  35.723  48.362  1.00  0.00    +0.000 C 
ATOM     62  F5  UNL A   1      21.676  35.849  49.475  1.00  0.00    +0.000 F 
ENDBRANCH   51   52
BRANCH   68   69
ATOM     69  C53 UNL A   1      19.193  43.171  50.497  1.00  0.00    +0.000 C 
ATOM     70  C54 UNL A   1      18.177  43.840  49.799  1.00  0.00    +0.000 C 
ATOM     71  F6  UNL A   1      18.244  43.966  48.466  1.00  0.00    +0.000 F 
ATOM     72  C55 UNL A   1      17.109  44.423  50.477  1.00  0.00    +0.000 C 
ATOM     73  F7  UNL A   1      16.178  45.103  49.794  1.00  0.00    +0.000 F 
ATOM     74  C56 UNL A   1      17.016  44.315  51.856  1.00  0.00    +0.000 C 
ATOM     75  F8  UNL A   1      15.984  44.871  52.505  1.00  0.00    +0.000 F 
ATOM     76  C57 UNL A   1      17.996  43.637  52.564  1.00  0.00    +0.000 C 
ATOM     77  F9  UNL A   1      17.900  43.517  53.895  1.00  0.00    +0.000 F 
ATOM     78  C58 UNL A   1      19.082  43.081  51.894  1.00  0.00    +0.000 C 
ATOM     79  F10 UNL A   1      20.022  42.445  52.608  1.00  0.00    +0.000 F 
ENDBRANCH   68   69
BRANCH   83   84
ATOM     84  C62 UNL A   1      25.627  45.416  49.056  1.00  0.00    +0.000 C 
ATOM     85  C63 UNL A   1      25.605  46.429  48.086  1.00  0.00    +0.000 C 
ATOM     86  F11 UNL A   1      24.941  46.239  46.935  1.00  0.00    +0.000 F 
ATOM     87  C64 UNL A   1      26.305  47.619  48.271  1.00  0.00    +0.000 C 
ATOM     88  F12 UNL A   1      26.313  48.546  47.303  1.00  0.00    +0.000 F 
ATOM     89  C65 UNL A   1      27.011  47.835  49.445  1.00  0.00    +0.000 C 
ATOM     90  F13 UNL A   1      27.687  48.978  49.621  1.00  0.00    +0.000 F 
ATOM     91  C66 UNL A   1      27.026  46.859  50.429  1.00  0.00    +0.000 C 
ATOM     92  F14 UNL A   1      27.696  47.070  51.570  1.00  0.00    +0.000 F 
ATOM     93  C67 UNL A   1      26.351  45.656  50.232  1.00  0.00    +0.000 C 
ATOM     94  F15 UNL A   1      26.398  44.723  51.194  1.00  0.00    +0.000 F 
ENDBRANCH   83   84
TORSDOF 29
ENDMDL
MODEL 4
REMARK VINA RESULT:      -6.5     12.145     19.019
ROOT
ATOM    163  H58 UNL A   1      22.316  20.841   2.953  1.00  0.00    +0.000 H 
ATOM    164  H59 UNL A   1      22.964  18.718   4.321  1.00  0.00    +0.000 H 
ATOM    165  H60 UNL A   1      19.061  19.730   5.260  1.00  0.00    +0.000 H 
ATOM    166  H61 UNL A   1      13.765  18.680   8.683  1.00  0.00    +0.000 H 
ATOM    167  H62 UNL A   1      13.119  20.715   7.305  1.00  0.00    +0.000 H 
ATOM    168  H63 UNL A   1      17.024  19.695   6.310  1.00  0.00    +0.000 H 
ATOM    169  H64 UNL A   1      18.128  15.597   8.985  1.00  0.00    +0.000 H 
ATOM    170  H65 UNL A   1      20.497  15.778   8.037  1.00  0.00    +0.000 H 
ATOM    171  H66 UNL A   1      17.775  23.660   2.444  1.00  0.00    +0.000 H 
ATOM    172  H67 UNL A   1      15.603  23.845   3.789  1.00  0.00    +0.000 H 
ATOM     47  C38 UNL A   1      15.195  21.688   5.609  1.00  0.00    +0.000 C 
ATOM     48  C39 UNL A   1      16.414  21.969   4.772  1.00  0.00    +0.000 C 
ATOM     49  N5  UNL A   1      17.539  21.303   4.696  1.00  0.00    +0.000 N 
ATOM     50  C40 UNL A   1      18.305  21.964   3.745  1.00  0.00    +0.000 C 
ATOM     51  C41 UNL A   1      19.578  21.711   3.360  1.00  0.00    +0.000 C 
ATOM     63  C48 UNL A   1      20.388  20.653   3.902  1.00  0.00    +0.000 C 
ATOM     64  C49 UNL A   1      21.703  20.334   3.609  1.00  0.00    +0.000 C 
ATOM     65  C50 UNL A   1      22.056  19.206   4.357  1.00  0.00    +0.000 C 
ATOM     66  C51 UNL A   1      20.979  18.855   5.156  1.00  0.00    +0.000 C 
ATOM     67  N6  UNL A   1      19.958  19.743   4.857  1.00  0.00    +0.000 N 
ATOM     68  C52 UNL A   1      20.890  17.792   6.123  1.00  0.00    +0.000 C 
ATOM     80  C59 UNL A   1      19.786  17.489   6.849  1.00  0.00    +0.000 C 
ATOM     81  N7  UNL A   1      18.544  18.113   6.855  1.00  0.00    +0.000 N 
ATOM     82  C60 UNL A   1      17.812  17.449   7.716  1.00  0.00    +0.000 C 
ATOM     83  C61 UNL A   1      16.397  17.707   8.162  1.00  0.00    +0.000 C 
ATOM     95  C68 UNL A   1      15.734  18.762   7.653  1.00  0.00    +0.000 C 
ATOM     96  C69 UNL A   1      14.371  19.157   7.997  1.00  0.00    +0.000 C 
ATOM     97  C70 UNL A   1      14.034  20.238   7.276  1.00  0.00    +0.000 C 
ATOM     98  C71 UNL A   1      15.172  20.633   6.445  1.00  0.00    +0.000 C 
ATOM     99  N8  UNL A   1      16.133  19.696   6.729  1.00  0.00    +0.000 N 
ATOM    100  C72 UNL A   1      18.496  16.299   8.323  1.00  0.00    +0.000 C 
ATOM    101  C73 UNL A   1      19.709  16.399   7.799  1.00  0.00    +0.000 C 
ATOM    102  C74 UNL A   1      17.495  23.044   3.224  1.00  0.00    +0.000 C 
ATOM    103  C75 UNL A   1      16.349  23.137   3.879  1.00  0.00    +0.000 C 
ENDROOT
BRANCH   47   46
ATOM    161  H56 UNL A   1      11.181  22.921   3.681  1.00  0.00    +0.000 H 
ATOM    162  H57 UNL A   1      13.134  21.492   3.863  1.00  0.00    +0.000 H 
ATOM    104  C76 UNL A   1      13.816  23.621   6.369  1.00  0.00    +0.000 C 
ATOM    105  C77 UNL A   1      12.653  24.381   6.323  1.00  0.00    +0.000 C 
ATOM     43  C34 UNL A   1      11.711  24.153   5.314  1.00  0.00    +0.000 C 
ATOM     44  C35 UNL A   1      11.885  23.100   4.414  1.00  0.00    +0.000 C 
ATOM     45  C36 UNL A   1      13.017  22.290   4.509  1.00  0.00    +0.000 C 
ATOM    174  H69 UNL A   1      12.483  25.111   7.032  1.00  0.00    +0.000 H 
ATOM    173  H68 UNL A   1      14.549  23.844   7.062  1.00  0.00    +0.000 H 
ATOM     46  C37 UNL A   1      13.998  22.553   5.479  1.00  0.00    +0.000 C 
BRANCH   43   41
ATOM     41  C33 UNL A   1      10.500  24.990   5.206  1.00  0.00    +0.000 C 
ATOM     42  O4  UNL A   1       9.396  24.505   5.444  1.00  0.00    +0.000 O 
BRANCH   41   40
ATOM    160  H55 UNL A   1      10.834  26.929   5.571  1.00  0.00    +0.000 H 
ATOM     40  N4  UNL A   1      10.610  26.304   4.844  1.00  0.00    +0.000 N 
BRANCH   40   39
ATOM    159  H54 UNL A   1       9.733  26.320   2.984  1.00  0.00    +0.000 H 
ATOM    158  H53 UNL A   1      11.387  26.926   3.033  1.00  0.00    +0.000 H 
ATOM     39  C32 UNL A   1      10.440  26.906   3.531  1.00  0.00    +0.000 C 
BRANCH   39   38
ATOM    156  H51 UNL A   1       9.164  28.462   2.868  1.00  0.00    +0.000 H 
ATOM    157  H52 UNL A   1       9.508  28.442   4.616  1.00  0.00    +0.000 H 
ATOM     38  C31 UNL A   1       9.904  28.329   3.629  1.00  0.00    +0.000 C 
BRANCH   38   37
ATOM    154  H49 UNL A   1      10.573  30.335   3.827  1.00  0.00    +0.000 H 
ATOM    155  H50 UNL A   1      11.832  29.079   3.997  1.00  0.00    +0.000 H 
ATOM     37  C30 UNL A   1      10.972  29.413   3.457  1.00  0.00    +0.000 C 
BRANCH   37   36
ATOM    153  H48 UNL A   1      10.955  28.886   1.418  1.00  0.00    +0.000 H 
ATOM     36  C29 UNL A   1      11.431  29.638   2.010  1.00  0.00    +0.000 C 
ATOM    152  H47 UNL A   1      12.499  29.575   1.985  1.00  0.00    +0.000 H 
BRANCH   36   35
ATOM     35  C28 UNL A   1      11.017  30.988   1.421  1.00  0.00    +0.000 C 
ATOM    150  H45 UNL A   1      10.421  31.507   2.142  1.00  0.00    +0.000 H 
ATOM    151  H46 UNL A   1      11.911  31.525   1.185  1.00  0.00    +0.000 H 
BRANCH   35   34
ATOM     34  C27 UNL A   1      10.210  30.849   0.131  1.00  0.00    +0.000 C 
ATOM    148  H43 UNL A   1       9.853  29.845   0.047  1.00  0.00    +0.000 H 
ATOM    149  H44 UNL A   1       9.390  31.535   0.164  1.00  0.00    +0.000 H 
BRANCH   34   33
ATOM     33  N3  UNL A   1      11.034  31.161  -1.028  1.00  0.00    +0.000 N 
ATOM    147  H42 UNL A   1      11.124  32.122  -1.224  1.00  0.00    +0.000 H 
BRANCH   33   31
ATOM     31  C26 UNL A   1      11.705  30.334  -1.891  1.00  0.00    +0.000 C 
ATOM     32  O3  UNL A   1      11.247  29.202  -2.076  1.00  0.00    +0.000 O 
BRANCH   31    5
ATOM    115  H10 UNL A   1      13.569  30.162  -3.231  1.00  0.00    +0.000 H 
ATOM      5  C5  UNL A   1      12.983  30.810  -2.614  1.00  0.00    +0.000 C 
BRANCH    5    4
ATOM    113  H8  UNL A   1      12.165  32.691  -3.158  1.00  0.00    +0.000 H 
ATOM    114  H9  UNL A   1      13.399  31.932  -4.299  1.00  0.00    +0.000 H 
ATOM      4  C4  UNL A   1      12.524  31.836  -3.691  1.00  0.00    +0.000 C 
BRANCH    4    3
ATOM      3  C3  UNL A   1      11.452  31.497  -4.725  1.00  0.00    +0.000 C 
ATOM    111  H6  UNL A   1      11.950  31.247  -5.637  1.00  0.00    +0.000 H 
ATOM    112  H7  UNL A   1      10.885  30.701  -4.287  1.00  0.00    +0.000 H 
BRANCH    3    2
ATOM      2  C2  UNL A   1      10.425  32.582  -5.043  1.00  0.00    +0.000 C 
ATOM    109  H4  UNL A   1      10.944  33.503  -5.211  1.00  0.00    +0.000 H 
ATOM    110  H5  UNL A   1       9.883  32.264  -5.910  1.00  0.00    +0.000 H 
BRANCH    2    1
ATOM      1  C1  UNL A   1       9.415  32.794  -3.931  1.00  0.00    +0.000 C 
ATOM    106  H1  UNL A   1       8.476  33.087  -4.352  1.00  0.00    +0.000 H 
ATOM    107  H2  UNL A   1       9.765  33.560  -3.272  1.00  0.00    +0.000 H 
ATOM    108  H3  UNL A   1       9.290  31.882  -3.384  1.00  0.00    +0.000 H 
ENDBRANCH    2    1
ENDBRANCH    3    2
ENDBRANCH    4    3
ENDBRANCH    5    4
BRANCH    5    6
ATOM      6  S1  UNL A   1      14.125  31.215  -1.180  1.00  0.00    +0.000 S 
BRANCH    6    7
ATOM    131  H26 UNL A   1      17.862  27.954  -2.849  1.00  0.00    +0.000 H 
ATOM      7  C6  UNL A   1      15.290  29.895  -1.162  1.00  0.00    +0.000 C 
ATOM      8  N1  UNL A   1      16.568  30.225  -0.885  1.00  0.00    +0.000 N 
ATOM      9  C7  UNL A   1      17.507  29.436  -1.415  1.00  0.00    +0.000 C 
ATOM     19  C16 UNL A   1      17.160  28.415  -2.249  1.00  0.00    +0.000 C 
ATOM     20  C17 UNL A   1      15.855  28.023  -2.264  1.00  0.00    +0.000 C 
ATOM     30  N2  UNL A   1      14.894  28.755  -1.717  1.00  0.00    +0.000 N 
BRANCH    9   10
ATOM     10  O1  UNL A   1      18.804  29.714  -1.050  1.00  0.00    +0.000 O 
BRANCH   10   11
ATOM     11  C8  UNL A   1      19.209  29.449   0.300  1.00  0.00    +0.000 C 
ATOM    116  H11 UNL A   1      18.324  29.280   0.877  1.00  0.00    +0.000 H 
ATOM    117  H12 UNL A   1      19.780  30.305   0.596  1.00  0.00    +0.000 H 
BRANCH   11   12
ATOM     12  C9  UNL A   1      20.153  28.235   0.518  1.00  0.00    +0.000 C 
ATOM    118  H13 UNL A   1      19.830  27.453  -0.138  1.00  0.00    +0.000 H 
ATOM    119  H14 UNL A   1      20.078  28.005   1.560  1.00  0.00    +0.000 H 
BRANCH   12   13
ATOM    129  H24 UNL A   1      21.767  30.014   1.737  1.00  0.00    +0.000 H 
ATOM    130  H25 UNL A   1      21.756  30.595   0.090  1.00  0.00    +0.000 H 
ATOM     13  C10 UNL A   1      21.651  28.465   0.266  1.00  0.00    +0.000 C 
ATOM     14  C11 UNL A   1      22.091  28.262  -1.193  1.00  0.00    +0.000 C 
ATOM     15  C12 UNL A   1      23.621  28.310  -1.297  1.00  0.00    +0.000 C 
ATOM     16  C13 UNL A   1      24.245  29.532  -0.621  1.00  0.00    +0.000 C 
ATOM     17  C14 UNL A   1      23.654  29.869   0.748  1.00  0.00    +0.000 C 
ATOM     18  C15 UNL A   1      22.129  29.836   0.746  1.00  0.00    +0.000 C 
ATOM    120  H15 UNL A   1      22.120  27.702   0.852  1.00  0.00    +0.000 H 
ATOM    121  H16 UNL A   1      21.671  29.038  -1.799  1.00  0.00    +0.000 H 
ATOM    122  H17 UNL A   1      21.747  27.307  -1.530  1.00  0.00    +0.000 H 
ATOM    123  H18 UNL A   1      23.888  28.324  -2.334  1.00  0.00    +0.000 H 
ATOM    124  H19 UNL A   1      23.996  27.446  -0.791  1.00  0.00    +0.000 H 
ATOM    125  H20 UNL A   1      24.106  30.377  -1.262  1.00  0.00    +0.000 H 
ATOM    126  H21 UNL A   1      25.276  29.297  -0.459  1.00  0.00    +0.000 H 
ATOM    127  H22 UNL A   1      23.978  30.849   1.031  1.00  0.00    +0.000 H 
ATOM    128  H23 UNL A   1      23.996  29.130   1.442  1.00  0.00    +0.000 H 
ENDBRANCH   12   13
ENDBRANCH   11   12
ENDBRANCH   10   11
ENDBRANCH    9   10
BRANCH   20   21
ATOM     21  O2  UNL A   1      15.419  27.026  -3.093  1.00  0.00    +0.000 O 
BRANCH   21   22
ATOM    132  H27 UNL A   1      13.866  25.734  -3.445  1.00  0.00    +0.000 H 
ATOM    133  H28 UNL A   1      13.527  27.009  -2.301  1.00  0.00    +0.000 H 
ATOM     22  C18 UNL A   1      14.266  26.314  -2.640  1.00  0.00    +0.000 C 
BRANCH   22   23
ATOM    135  H30 UNL A   1      15.220  25.958  -0.769  1.00  0.00    +0.000 H 
ATOM    134  H29 UNL A   1      13.778  24.967  -1.044  1.00  0.00    +0.000 H 
ATOM     23  C19 UNL A   1      14.667  25.377  -1.476  1.00  0.00    +0.000 C 
BRANCH   23   24
ATOM    136  H31 UNL A   1      16.534  24.591  -1.649  1.00  0.00    +0.000 H 
ATOM    137  H32 UNL A   1      14.402  22.429  -1.741  1.00  0.00    +0.000 H 
ATOM    138  H33 UNL A   1      14.941  23.065  -0.223  1.00  0.00    +0.000 H 
ATOM    139  H34 UNL A   1      16.299  21.122  -0.746  1.00  0.00    +0.000 H 
ATOM    140  H35 UNL A   1      17.307  22.530  -0.929  1.00  0.00    +0.000 H 
ATOM    141  H36 UNL A   1      15.945  20.947  -3.082  1.00  0.00    +0.000 H 
ATOM    142  H37 UNL A   1      17.684  21.228  -2.838  1.00  0.00    +0.000 H 
ATOM    143  H38 UNL A   1      16.488  22.478  -4.725  1.00  0.00    +0.000 H 
ATOM    144  H39 UNL A   1      17.601  23.345  -3.620  1.00  0.00    +0.000 H 
ATOM    145  H40 UNL A   1      15.793  24.802  -3.975  1.00  0.00    +0.000 H 
ATOM    146  H41 UNL A   1      14.622  23.528  -3.717  1.00  0.00    +0.000 H 
ATOM     24  C20 UNL A   1      15.570  24.218  -1.929  1.00  0.00    +0.000 C 
ATOM     25  C21 UNL A   1      15.224  22.899  -1.242  1.00  0.00    +0.000 C 
ATOM     26  C22 UNL A   1      16.458  22.010  -1.321  1.00  0.00    +0.000 C 
ATOM     27  C23 UNL A   1      16.699  21.642  -2.779  1.00  0.00    +0.000 C 
ATOM     28  C24 UNL A   1      16.661  22.848  -3.736  1.00  0.00    +0.000 C 
ATOM     29  C25 UNL A   1      15.580  23.907  -3.429  1.00  0.00    +0.000 C 
ENDBRANCH   23   24
ENDBRANCH   22   23
ENDBRANCH   21   22
ENDBRANCH   20   21
ENDBRANCH    6    7
ENDBRANCH    5    6
ENDBRANCH   31    5
ENDBRANCH   33   31
ENDBRANCH   34   33
ENDBRANCH   35   34
ENDBRANCH   36   35
ENDBRANCH   37   36
ENDBRANCH   38   37
ENDBRANCH   39   38
ENDBRANCH   40   39
ENDBRANCH   41   40
ENDBRANCH   43   41
ENDBRANCH   47   46
BRANCH   51   52
ATOM     52  C42 UNL A   1      20.176  22.602   2.309  1.00  0.00    +0.000 C 
ATOM     53  C43 UNL A   1      21.018  23.674   2.647  1.00  0.00    +0.000 C 
ATOM     54  F1  UNL A   1      21.270  23.954   3.935  1.00  0.00    +0.000 F 
ATOM     55  C44 UNL A   1      21.571  24.489   1.663  1.00  0.00    +0.000 C 
ATOM     56  F2  UNL A   1      22.329  25.537   2.013  1.00  0.00    +0.000 F 
ATOM     57  C45 UNL A   1      21.326  24.228   0.324  1.00  0.00    +0.000 C 
ATOM     58  F3  UNL A   1      21.866  25.008  -0.622  1.00  0.00    +0.000 F 
ATOM     59  C46 UNL A   1      20.516  23.161  -0.034  1.00  0.00    +0.000 C 
ATOM     60  F4  UNL A   1      20.289  22.899  -1.329  1.00  0.00    +0.000 F 
ATOM     61  C47 UNL A   1      19.934  22.363   0.948  1.00  0.00    +0.000 C 
ATOM     62  F5  UNL A   1      19.141  21.349   0.569  1.00  0.00    +0.000 F 
ENDBRANCH   51   52
BRANCH   68   69
ATOM     69  C53 UNL A   1      22.122  16.972   6.371  1.00  0.00    +0.000 C 
ATOM     70  C54 UNL A   1      22.433  15.846   5.596  1.00  0.00    +0.000 C 
ATOM     71  F6  UNL A   1      21.598  15.443   4.626  1.00  0.00    +0.000 F 
ATOM     72  C55 UNL A   1      23.584  15.103   5.843  1.00  0.00    +0.000 C 
ATOM     73  F7  UNL A   1      23.833  14.000   5.124  1.00  0.00    +0.000 F 
ATOM     74  C56 UNL A   1      24.463  15.492   6.842  1.00  0.00    +0.000 C 
ATOM     75  F8  UNL A   1      25.573  14.778   7.075  1.00  0.00    +0.000 F 
ATOM     76  C57 UNL A   1      24.188  16.616   7.607  1.00  0.00    +0.000 C 
ATOM     77  F9  UNL A   1      25.044  17.003   8.562  1.00  0.00    +0.000 F 
ATOM     78  C58 UNL A   1      23.023  17.343   7.383  1.00  0.00    +0.000 C 
ATOM     79  F10 UNL A   1      22.776  18.416   8.149  1.00  0.00    +0.000 F 
ENDBRANCH   68   69
BRANCH   83   84
ATOM     84  C62 UNL A   1      15.748  16.835   9.175  1.00  0.00    +0.000 C 
ATOM     85  C63 UNL A   1      15.751  17.186  10.533  1.00  0.00    +0.000 C 
ATOM     86  F11 UNL A   1      16.345  18.322  10.929  1.00  0.00    +0.000 F 
ATOM     87  C64 UNL A   1      15.190  16.350  11.495  1.00  0.00    +0.000 C 
ATOM     88  F12 UNL A   1      15.257  16.683  12.791  1.00  0.00    +0.000 F 
ATOM     89  C65 UNL A   1      14.583  15.162  11.115  1.00  0.00    +0.000 C 
ATOM     90  F13 UNL A   1      14.046  14.356  12.040  1.00  0.00    +0.000 F 
ATOM     91  C66 UNL A   1      14.544  14.807   9.776  1.00  0.00    +0.000 C 
ATOM     92  F14 UNL A   1      13.946  13.666   9.403  1.00  0.00    +0.000 F 
ATOM     93  C67 UNL A   1      15.132  15.628   8.816  1.00  0.00    +0.000 C 
ATOM     94  F15 UNL A   1      15.095  15.249   7.530  1.00  0.00    +0.000 F 
ENDBRANCH   83   84
TORSDOF 29
ENDMDL
MODEL 5
REMARK VINA RESULT:      -6.4     17.200     24.231
ROOT
ATOM    163  H58 UNL A   1      24.592  14.330   9.428  1.00  0.00    +0.000 H 
ATOM    164  H59 UNL A   1      24.395  11.927   8.434  1.00  0.00    +0.000 H 
ATOM    165  H60 UNL A   1      21.017  14.063   7.353  1.00  0.00    +0.000 H 
ATOM    166  H61 UNL A   1      15.300  14.264   4.500  1.00  0.00    +0.000 H 
ATOM    167  H62 UNL A   1      15.524  16.621   5.421  1.00  0.00    +0.000 H 
ATOM    168  H63 UNL A   1      18.946  14.514   6.482  1.00  0.00    +0.000 H 
ATOM    169  H64 UNL A   1      18.446   9.935   4.495  1.00  0.00    +0.000 H 
ATOM    170  H65 UNL A   1      20.623   9.323   5.690  1.00  0.00    +0.000 H 
ATOM    171  H66 UNL A   1      21.540  18.732   9.072  1.00  0.00    +0.000 H 
ATOM    172  H67 UNL A   1      19.120  19.202   8.379  1.00  0.00    +0.000 H 
ATOM     47  C38 UNL A   1      17.921  17.080   6.898  1.00  0.00    +0.000 C 
ATOM     48  C39 UNL A   1      19.265  17.086   7.573  1.00  0.00    +0.000 C 
ATOM     49  N5  UNL A   1      20.166  16.138   7.636  1.00  0.00    +0.000 N 
ATOM     50  C40 UNL A   1      21.235  16.679   8.339  1.00  0.00    +0.000 C 
ATOM     51  C41 UNL A   1      22.380  16.074   8.733  1.00  0.00    +0.000 C 
ATOM     63  C48 UNL A   1      22.695  14.696   8.468  1.00  0.00    +0.000 C 
ATOM     64  C49 UNL A   1      23.811  13.974   8.856  1.00  0.00    +0.000 C 
ATOM     65  C50 UNL A   1      23.696  12.680   8.338  1.00  0.00    +0.000 C 
ATOM     66  C51 UNL A   1      22.483  12.579   7.674  1.00  0.00    +0.000 C 
ATOM     67  N6  UNL A   1      21.886  13.827   7.750  1.00  0.00    +0.000 N 
ATOM     68  C52 UNL A   1      21.911  11.429   7.023  1.00  0.00    +0.000 C 
ATOM     80  C59 UNL A   1      20.726  11.416   6.365  1.00  0.00    +0.000 C 
ATOM     81  N7  UNL A   1      19.812  12.446   6.187  1.00  0.00    +0.000 N 
ATOM     82  C60 UNL A   1      18.833  11.941   5.477  1.00  0.00    +0.000 C 
ATOM     83  C61 UNL A   1      17.551  12.589   5.026  1.00  0.00    +0.000 C 
ATOM     95  C68 UNL A   1      17.305  13.865   5.377  1.00  0.00    +0.000 C 
ATOM     96  C69 UNL A   1      16.105  14.625   5.037  1.00  0.00    +0.000 C 
ATOM     97  C70 UNL A   1      16.219  15.867   5.532  1.00  0.00    +0.000 C 
ATOM     98  C71 UNL A   1      17.486  15.979   6.256  1.00  0.00    +0.000 C 
ATOM     99  N8  UNL A   1      18.066  14.745   6.105  1.00  0.00    +0.000 N 
ATOM    100  C72 UNL A   1      19.037  10.539   5.087  1.00  0.00    +0.000 C 
ATOM    101  C73 UNL A   1      20.179  10.254   5.695  1.00  0.00    +0.000 C 
ATOM    102  C74 UNL A   1      20.899  18.056   8.627  1.00  0.00    +0.000 C 
ATOM    103  C75 UNL A   1      19.663  18.335   8.243  1.00  0.00    +0.000 C 
ENDROOT
BRANCH   47   46
ATOM    161  H56 UNL A   1      14.470  19.724   8.464  1.00  0.00    +0.000 H 
ATOM    162  H57 UNL A   1      15.807  17.699   8.474  1.00  0.00    +0.000 H 
ATOM    104  C76 UNL A   1      17.398  19.356   6.024  1.00  0.00    +0.000 C 
ATOM    105  C77 UNL A   1      16.690  20.551   6.084  1.00  0.00    +0.000 C 
ATOM     43  C34 UNL A   1      15.594  20.669   6.944  1.00  0.00    +0.000 C 
ATOM     44  C35 UNL A   1      15.268  19.629   7.817  1.00  0.00    +0.000 C 
ATOM     45  C36 UNL A   1      16.027  18.458   7.810  1.00  0.00    +0.000 C 
ATOM    174  H69 UNL A   1      16.972  21.350   5.495  1.00  0.00    +0.000 H 
ATOM    173  H68 UNL A   1      18.154  19.240   5.331  1.00  0.00    +0.000 H 
ATOM     46  C37 UNL A   1      17.089  18.308   6.903  1.00  0.00    +0.000 C 
BRANCH   43   41
ATOM     41  C33 UNL A   1      14.787  21.905   6.978  1.00  0.00    +0.000 C 
ATOM     42  O4  UNL A   1      14.884  22.676   7.930  1.00  0.00    +0.000 O 
BRANCH   41   40
ATOM    160  H55 UNL A   1      13.122  21.638   5.898  1.00  0.00    +0.000 H 
ATOM     40  N4  UNL A   1      13.935  22.191   5.945  1.00  0.00    +0.000 N 
BRANCH   40   39
ATOM    159  H54 UNL A   1      14.951  23.769   5.104  1.00  0.00    +0.000 H 
ATOM    158  H53 UNL A   1      13.199  23.825   4.918  1.00  0.00    +0.000 H 
ATOM     39  C32 UNL A   1      14.067  23.200   4.907  1.00  0.00    +0.000 C 
BRANCH   39   38
ATOM    156  H51 UNL A   1      13.411  21.867   3.396  1.00  0.00    +0.000 H 
ATOM    157  H52 UNL A   1      14.166  23.373   2.818  1.00  0.00    +0.000 H 
ATOM     38  C31 UNL A   1      14.205  22.572   3.525  1.00  0.00    +0.000 C 
BRANCH   38   37
ATOM    154  H49 UNL A   1      16.064  21.822   4.226  1.00  0.00    +0.000 H 
ATOM    155  H50 UNL A   1      15.288  20.875   2.926  1.00  0.00    +0.000 H 
ATOM     37  C30 UNL A   1      15.534  21.847   3.297  1.00  0.00    +0.000 C 
BRANCH   37   36
ATOM    153  H48 UNL A   1      17.298  22.871   2.770  1.00  0.00    +0.000 H 
ATOM     36  C29 UNL A   1      16.446  22.492   2.245  1.00  0.00    +0.000 C 
ATOM    152  H47 UNL A   1      15.890  23.258   1.745  1.00  0.00    +0.000 H 
BRANCH   36   35
ATOM     35  C28 UNL A   1      16.976  21.519   1.190  1.00  0.00    +0.000 C 
ATOM    150  H45 UNL A   1      16.337  20.662   1.163  1.00  0.00    +0.000 H 
ATOM    151  H46 UNL A   1      16.988  22.035   0.253  1.00  0.00    +0.000 H 
BRANCH   35   34
ATOM     34  C27 UNL A   1      18.403  21.054   1.477  1.00  0.00    +0.000 C 
ATOM    148  H43 UNL A   1      18.370  20.116   1.990  1.00  0.00    +0.000 H 
ATOM    149  H44 UNL A   1      18.925  20.952   0.549  1.00  0.00    +0.000 H 
BRANCH   34   33
ATOM     33  N3  UNL A   1      19.105  22.025   2.305  1.00  0.00    +0.000 N 
ATOM    147  H42 UNL A   1      18.710  22.927   2.307  1.00  0.00    +0.000 H 
BRANCH   33   31
ATOM     31  C26 UNL A   1      20.227  21.887   3.080  1.00  0.00    +0.000 C 
ATOM     32  O3  UNL A   1      20.393  22.692   4.001  1.00  0.00    +0.000 O 
BRANCH   31    5
ATOM    115  H10 UNL A   1      21.024  19.930   2.164  1.00  0.00    +0.000 H 
ATOM      5  C5  UNL A   1      21.239  20.752   2.814  1.00  0.00    +0.000 C 
BRANCH    5    4
ATOM    113  H8  UNL A   1      22.350  21.025   1.028  1.00  0.00    +0.000 H 
ATOM    114  H9  UNL A   1      22.278  22.434   2.215  1.00  0.00    +0.000 H 
ATOM      4  C4  UNL A   1      22.422  21.390   2.031  1.00  0.00    +0.000 C 
BRANCH    4    3
ATOM      3  C3  UNL A   1      23.876  21.187   2.455  1.00  0.00    +0.000 C 
ATOM    111  H6  UNL A   1      23.925  20.276   3.013  1.00  0.00    +0.000 H 
ATOM    112  H7  UNL A   1      24.434  21.189   1.542  1.00  0.00    +0.000 H 
BRANCH    3    2
ATOM      2  C2  UNL A   1      24.511  22.284   3.308  1.00  0.00    +0.000 C 
ATOM    109  H4  UNL A   1      24.310  22.074   4.338  1.00  0.00    +0.000 H 
ATOM    110  H5  UNL A   1      25.560  22.286   3.096  1.00  0.00    +0.000 H 
BRANCH    2    1
ATOM      1  C1  UNL A   1      23.983  23.670   2.988  1.00  0.00    +0.000 C 
ATOM    106  H1  UNL A   1      23.922  23.793   1.926  1.00  0.00    +0.000 H 
ATOM    107  H2  UNL A   1      24.644  24.406   3.393  1.00  0.00    +0.000 H 
ATOM    108  H3  UNL A   1      23.009  23.789   3.417  1.00  0.00    +0.000 H 
ENDBRANCH    2    1
ENDBRANCH    3    2
ENDBRANCH    4    3
ENDBRANCH    5    4
BRANCH    5    6
ATOM      6  S1  UNL A   1      21.394  19.951   4.506  1.00  0.00    +0.000 S 
BRANCH    6    7
ATOM    131  H26 UNL A   1      19.873  15.382   2.460  1.00  0.00    +0.000 H 
ATOM      7  C6  UNL A   1      20.542  18.420   4.345  1.00  0.00    +0.000 C 
ATOM      8  N1  UNL A   1      21.214  17.315   4.730  1.00  0.00    +0.000 N 
ATOM      9  C7  UNL A   1      20.879  16.179   4.112  1.00  0.00    +0.000 C 
ATOM     19  C16 UNL A   1      19.966  16.186   3.100  1.00  0.00    +0.000 C 
ATOM     20  C17 UNL A   1      19.182  17.292   2.960  1.00  0.00    +0.000 C 
ATOM     30  N2  UNL A   1      19.453  18.429   3.585  1.00  0.00    +0.000 N 
BRANCH    9   10
ATOM     10  O1  UNL A   1      21.493  15.038   4.575  1.00  0.00    +0.000 O 
BRANCH   10   11
ATOM     11  C8  UNL A   1      22.917  14.923   4.448  1.00  0.00    +0.000 C 
ATOM    116  H11 UNL A   1      23.293  14.521   5.365  1.00  0.00    +0.000 H 
ATOM    117  H12 UNL A   1      23.260  15.911   4.219  1.00  0.00    +0.000 H 
BRANCH   11   12
ATOM     12  C9  UNL A   1      23.443  14.031   3.291  1.00  0.00    +0.000 C 
ATOM    118  H13 UNL A   1      23.976  13.213   3.729  1.00  0.00    +0.000 H 
ATOM    119  H14 UNL A   1      24.039  14.681   2.685  1.00  0.00    +0.000 H 
BRANCH   12   13
ATOM    129  H24 UNL A   1      21.513  12.244   3.872  1.00  0.00    +0.000 H 
ATOM    130  H25 UNL A   1      22.520  11.349   2.760  1.00  0.00    +0.000 H 
ATOM     13  C10 UNL A   1      22.393  13.443   2.335  1.00  0.00    +0.000 C 
ATOM     14  C11 UNL A   1      22.887  13.241   0.893  1.00  0.00    +0.000 C 
ATOM     15  C12 UNL A   1      21.716  12.851  -0.018  1.00  0.00    +0.000 C 
ATOM     16  C13 UNL A   1      20.876  11.693   0.521  1.00  0.00    +0.000 C 
ATOM     17  C14 UNL A   1      20.564  11.779   2.016  1.00  0.00    +0.000 C 
ATOM     18  C15 UNL A   1      21.795  12.132   2.846  1.00  0.00    +0.000 C 
ATOM    120  H15 UNL A   1      21.632  14.194   2.311  1.00  0.00    +0.000 H 
ATOM    121  H16 UNL A   1      23.621  12.463   0.877  1.00  0.00    +0.000 H 
ATOM    122  H17 UNL A   1      23.315  14.156   0.540  1.00  0.00    +0.000 H 
ATOM    123  H18 UNL A   1      22.110  12.567  -0.972  1.00  0.00    +0.000 H 
ATOM    124  H19 UNL A   1      21.072  13.703  -0.082  1.00  0.00    +0.000 H 
ATOM    125  H20 UNL A   1      21.408  10.782   0.343  1.00  0.00    +0.000 H 
ATOM    126  H21 UNL A   1      19.936  11.733   0.011  1.00  0.00    +0.000 H 
ATOM    127  H22 UNL A   1      20.186  10.833   2.344  1.00  0.00    +0.000 H 
ATOM    128  H23 UNL A   1      19.843  12.557   2.154  1.00  0.00    +0.000 H 
ENDBRANCH   12   13
ENDBRANCH   11   12
ENDBRANCH   10   11
ENDBRANCH    9   10
BRANCH   20   21
ATOM     21  O2  UNL A   1      18.262  17.391   1.954  1.00  0.00    +0.000 O 
BRANCH   21   22
ATOM    132  H27 UNL A   1      16.651  18.544   2.481  1.00  0.00    +0.000 H 
ATOM    133  H28 UNL A   1      16.777  17.017   3.318  1.00  0.00    +0.000 H 
ATOM     22  C18 UNL A   1      16.903  17.510   2.377  1.00  0.00    +0.000 C 
BRANCH   22   23
ATOM    135  H30 UNL A   1      16.603  16.382   0.595  1.00  0.00    +0.000 H 
ATOM    134  H29 UNL A   1      15.340  16.153   1.815  1.00  0.00    +0.000 H 
ATOM     23  C19 UNL A   1      15.978  16.856   1.322  1.00  0.00    +0.000 C 
BRANCH   23   24
ATOM    136  H31 UNL A   1      14.394  17.233   0.106  1.00  0.00    +0.000 H 
ATOM    137  H32 UNL A   1      15.133  19.669   1.763  1.00  0.00    +0.000 H 
ATOM    138  H33 UNL A   1      14.157  18.411   2.442  1.00  0.00    +0.000 H 
ATOM    139  H34 UNL A   1      12.672  20.071   1.479  1.00  0.00    +0.000 H 
ATOM    140  H35 UNL A   1      12.602  18.657   0.466  1.00  0.00    +0.000 H 
ATOM    141  H36 UNL A   1      14.149  21.184  -0.002  1.00  0.00    +0.000 H 
ATOM    142  H37 UNL A   1      12.856  20.470  -0.993  1.00  0.00    +0.000 H 
ATOM    143  H38 UNL A   1      15.274  20.307  -1.820  1.00  0.00    +0.000 H 
ATOM    144  H39 UNL A   1      14.200  18.872  -1.856  1.00  0.00    +0.000 H 
ATOM    145  H40 UNL A   1      16.303  18.076  -1.178  1.00  0.00    +0.000 H 
ATOM    146  H41 UNL A   1      16.503  19.376  -0.025  1.00  0.00    +0.000 H 
ATOM     24  C20 UNL A   1      15.102  17.880   0.582  1.00  0.00    +0.000 C 
ATOM     25  C21 UNL A   1      14.446  18.884   1.527  1.00  0.00    +0.000 C 
ATOM     26  C22 UNL A   1      13.231  19.453   0.808  1.00  0.00    +0.000 C 
ATOM     27  C23 UNL A   1      13.710  20.283  -0.376  1.00  0.00    +0.000 C 
ATOM     28  C24 UNL A   1      14.751  19.564  -1.255  1.00  0.00    +0.000 C 
ATOM     29  C25 UNL A   1      15.797  18.723  -0.492  1.00  0.00    +0.000 C 
ENDBRANCH   23   24
ENDBRANCH   22   23
ENDBRANCH   21   22
ENDBRANCH   20   21
ENDBRANCH    6    7
ENDBRANCH    5    6
ENDBRANCH   31    5
ENDBRANCH   33   31
ENDBRANCH   34   33
ENDBRANCH   35   34
ENDBRANCH   36   35
ENDBRANCH   37   36
ENDBRANCH   38   37
ENDBRANCH   39   38
ENDBRANCH   40   39
ENDBRANCH   41   40
ENDBRANCH   43   41
ENDBRANCH   47   46
BRANCH   51   52
ATOM     52  C42 UNL A   1      23.371  16.899   9.503  1.00  0.00    +0.000 C 
ATOM     53  C43 UNL A   1      24.390  17.617   8.855  1.00  0.00    +0.000 C 
ATOM     54  F1  UNL A   1      24.525  17.542   7.522  1.00  0.00    +0.000 F 
ATOM     55  C44 UNL A   1      25.300  18.382   9.580  1.00  0.00    +0.000 C 
ATOM     56  F2  UNL A   1      26.294  19.016   8.944  1.00  0.00    +0.000 F 
ATOM     57  C45 UNL A   1      25.188  18.476  10.958  1.00  0.00    +0.000 C 
ATOM     58  F3  UNL A   1      26.060  19.220  11.653  1.00  0.00    +0.000 F 
ATOM     59  C46 UNL A   1      24.177  17.794  11.617  1.00  0.00    +0.000 C 
ATOM     60  F4  UNL A   1      24.060  17.894  12.949  1.00  0.00    +0.000 F 
ATOM     61  C47 UNL A   1      23.284  17.001  10.899  1.00  0.00    +0.000 C 
ATOM     62  F5  UNL A   1      22.328  16.339  11.568  1.00  0.00    +0.000 F 
ENDBRANCH   51   52
BRANCH   68   69
ATOM     69  C53 UNL A   1      22.668  10.135   7.104  1.00  0.00    +0.000 C 
ATOM     70  C54 UNL A   1      23.573   9.743   6.109  1.00  0.00    +0.000 C 
ATOM     71  F6  UNL A   1      23.753  10.506   5.020  1.00  0.00    +0.000 F 
ATOM     72  C55 UNL A   1      24.266   8.539   6.207  1.00  0.00    +0.000 C 
ATOM     73  F7  UNL A   1      25.086   8.158   5.218  1.00  0.00    +0.000 F 
ATOM     74  C56 UNL A   1      24.096   7.726   7.318  1.00  0.00    +0.000 C 
ATOM     75  F8  UNL A   1      24.768   6.571   7.413  1.00  0.00    +0.000 F 
ATOM     76  C57 UNL A   1      23.223   8.106   8.326  1.00  0.00    +0.000 C 
ATOM     77  F9  UNL A   1      23.070   7.330   9.407  1.00  0.00    +0.000 F 
ATOM     78  C58 UNL A   1      22.506   9.293   8.216  1.00  0.00    +0.000 C 
ATOM     79  F10 UNL A   1      21.657   9.626   9.200  1.00  0.00    +0.000 F 
ENDBRANCH   68   69
BRANCH   83   84
ATOM     84  C62 UNL A   1      16.551  11.826   4.234  1.00  0.00    +0.000 C 
ATOM     85  C63 UNL A   1      16.505  11.938   2.836  1.00  0.00    +0.000 C 
ATOM     86  F11 UNL A   1      17.371  12.741   2.200  1.00  0.00    +0.000 F 
ATOM     87  C64 UNL A   1      15.539  11.266   2.091  1.00  0.00    +0.000 C 
ATOM     88  F12 UNL A   1      15.482  11.435   0.763  1.00  0.00    +0.000 F 
ATOM     89  C65 UNL A   1      14.622  10.440   2.725  1.00  0.00    +0.000 C 
ATOM     90  F13 UNL A   1      13.691   9.796   2.008  1.00  0.00    +0.000 F 
ATOM     91  C66 UNL A   1      14.665  10.294   4.103  1.00  0.00    +0.000 C 
ATOM     92  F14 UNL A   1      13.789   9.486   4.717  1.00  0.00    +0.000 F 
ATOM     93  C67 UNL A   1      15.611  10.989   4.852  1.00  0.00    +0.000 C 
ATOM     94  F15 UNL A   1      15.617  10.842   6.185  1.00  0.00    +0.000 F 
ENDBRANCH   83   84
TORSDOF 29
ENDMDL
MODEL 6
REMARK VINA RESULT:      -6.4     63.476     70.209
ROOT
ATOM    163  H58 UNL A   1      52.877  13.526  51.298  1.00  0.00    +0.000 H 
ATOM    164  H59 UNL A   1      53.201  11.800  53.225  1.00  0.00    +0.000 H 
ATOM    165  H60 UNL A   1      49.736  10.828  51.178  1.00  0.00    +0.000 H 
ATOM    166  H61 UNL A   1      44.548   7.145  50.558  1.00  0.00    +0.000 H 
ATOM    167  H62 UNL A   1      44.268   8.794  48.646  1.00  0.00    +0.000 H 
ATOM    168  H63 UNL A   1      47.774   9.765  50.656  1.00  0.00    +0.000 H 
ATOM    169  H64 UNL A   1      48.286   6.364  54.308  1.00  0.00    +0.000 H 
ATOM    170  H65 UNL A   1      50.328   7.697  55.082  1.00  0.00    +0.000 H 
ATOM    171  H66 UNL A   1      49.273  14.013  47.348  1.00  0.00    +0.000 H 
ATOM    172  H67 UNL A   1      46.941  13.054  46.902  1.00  0.00    +0.000 H 
ATOM     47  C38 UNL A   1      46.317  10.772  48.494  1.00  0.00    +0.000 C 
ATOM     48  C39 UNL A   1      47.528  11.659  48.592  1.00  0.00    +0.000 C 
ATOM     49  N5  UNL A   1      48.544  11.588  49.415  1.00  0.00    +0.000 N 
ATOM     50  C40 UNL A   1      49.400  12.619  49.047  1.00  0.00    +0.000 C 
ATOM     51  C41 UNL A   1      50.552  13.012  49.639  1.00  0.00    +0.000 C 
ATOM     63  C48 UNL A   1      51.111  12.387  50.808  1.00  0.00    +0.000 C 
ATOM     64  C49 UNL A   1      52.254  12.731  51.510  1.00  0.00    +0.000 C 
ATOM     65  C50 UNL A   1      52.417  11.816  52.555  1.00  0.00    +0.000 C 
ATOM     66  C51 UNL A   1      51.348  10.935  52.537  1.00  0.00    +0.000 C 
ATOM     67  N6  UNL A   1      50.562  11.288  51.452  1.00  0.00    +0.000 N 
ATOM     68  C52 UNL A   1      51.063   9.854  53.445  1.00  0.00    +0.000 C 
ATOM     80  C59 UNL A   1      50.006   9.011  53.344  1.00  0.00    +0.000 C 
ATOM     81  N7  UNL A   1      48.982   8.999  52.407  1.00  0.00    +0.000 N 
ATOM     82  C60 UNL A   1      48.209   7.990  52.729  1.00  0.00    +0.000 C 
ATOM     83  C61 UNL A   1      46.925   7.531  52.091  1.00  0.00    +0.000 C 
ATOM     95  C68 UNL A   1      46.436   8.216  51.041  1.00  0.00    +0.000 C 
ATOM     96  C69 UNL A   1      45.199   7.912  50.328  1.00  0.00    +0.000 C 
ATOM     97  C70 UNL A   1      45.046   8.790  49.324  1.00  0.00    +0.000 C 
ATOM     98  C71 UNL A   1      46.158   9.742  49.346  1.00  0.00    +0.000 C 
ATOM     99  N8  UNL A   1      46.936   9.319  50.394  1.00  0.00    +0.000 N 
ATOM    100  C72 UNL A   1      48.682   7.220  53.888  1.00  0.00    +0.000 C 
ATOM    101  C73 UNL A   1      49.750   7.913  54.254  1.00  0.00    +0.000 C 
ATOM    102  C74 UNL A   1      48.818  13.261  47.889  1.00  0.00    +0.000 C 
ATOM    103  C75 UNL A   1      47.626  12.756  47.614  1.00  0.00    +0.000 C 
ENDROOT
BRANCH   47   46
ATOM    161  H56 UNL A   1      43.028  13.244  46.391  1.00  0.00    +0.000 H 
ATOM    162  H57 UNL A   1      44.652  12.882  48.157  1.00  0.00    +0.000 H 
ATOM    104  C76 UNL A   1      45.176  10.074  46.390  1.00  0.00    +0.000 C 
ATOM    105  C77 UNL A   1      44.313  10.328  45.331  1.00  0.00    +0.000 C 
ATOM     43  C34 UNL A   1      43.497  11.464  45.353  1.00  0.00    +0.000 C 
ATOM     44  C35 UNL A   1      43.618  12.397  46.385  1.00  0.00    +0.000 C 
ATOM     45  C36 UNL A   1      44.540  12.179  47.409  1.00  0.00    +0.000 C 
ATOM    174  H69 UNL A   1      44.273   9.680  44.528  1.00  0.00    +0.000 H 
ATOM    173  H68 UNL A   1      45.717   9.195  46.414  1.00  0.00    +0.000 H 
ATOM     46  C37 UNL A   1      45.316  11.008  47.426  1.00  0.00    +0.000 C 
BRANCH   43   41
ATOM     41  C33 UNL A   1      42.525  11.720  44.271  1.00  0.00    +0.000 C 
ATOM     42  O4  UNL A   1      42.229  10.822  43.486  1.00  0.00    +0.000 O 
BRANCH   41   40
ATOM    160  H55 UNL A   1      41.963  13.514  44.960  1.00  0.00    +0.000 H 
ATOM     40  N4  UNL A   1      41.954  12.957  44.148  1.00  0.00    +0.000 N 
BRANCH   40   39
ATOM    159  H54 UNL A   1      40.520  14.173  43.313  1.00  0.00    +0.000 H 
ATOM    158  H53 UNL A   1      40.990  12.788  42.328  1.00  0.00    +0.000 H 
ATOM     39  C32 UNL A   1      41.334  13.563  42.981  1.00  0.00    +0.000 C 
BRANCH   39   38
ATOM    156  H51 UNL A   1      42.335  15.409  42.694  1.00  0.00    +0.000 H 
ATOM    157  H52 UNL A   1      43.260  13.955  42.244  1.00  0.00    +0.000 H 
ATOM     38  C31 UNL A   1      42.312  14.450  42.220  1.00  0.00    +0.000 C 
BRANCH   38   37
ATOM    154  H49 UNL A   1      41.968  13.694  40.265  1.00  0.00    +0.000 H 
ATOM    155  H50 UNL A   1      40.996  15.120  40.726  1.00  0.00    +0.000 H 
ATOM     37  C30 UNL A   1      41.957  14.651  40.744  1.00  0.00    +0.000 C 
BRANCH   37   36
ATOM    153  H48 UNL A   1      42.306  16.111  39.266  1.00  0.00    +0.000 H 
ATOM     36  C29 UNL A   1      42.906  15.580  39.975  1.00  0.00    +0.000 C 
ATOM    152  H47 UNL A   1      43.662  14.980  39.515  1.00  0.00    +0.000 H 
BRANCH   36   35
ATOM     35  C28 UNL A   1      43.594  16.635  40.844  1.00  0.00    +0.000 C 
ATOM    150  H45 UNL A   1      43.307  17.605  40.495  1.00  0.00    +0.000 H 
ATOM    151  H46 UNL A   1      43.287  16.470  41.855  1.00  0.00    +0.000 H 
BRANCH   35   34
ATOM     34  C27 UNL A   1      45.118  16.533  40.804  1.00  0.00    +0.000 C 
ATOM    148  H43 UNL A   1      45.409  15.531  41.037  1.00  0.00    +0.000 H 
ATOM    149  H44 UNL A   1      45.454  16.800  39.825  1.00  0.00    +0.000 H 
BRANCH   34   33
ATOM     33  N3  UNL A   1      45.720  17.441  41.769  1.00  0.00    +0.000 N 
ATOM    147  H42 UNL A   1      45.772  18.380  41.476  1.00  0.00    +0.000 H 
BRANCH   33   31
ATOM     31  C26 UNL A   1      46.228  17.201  43.020  1.00  0.00    +0.000 C 
ATOM     32  O3  UNL A   1      47.448  17.049  43.126  1.00  0.00    +0.000 O 
BRANCH   31    5
ATOM    115  H10 UNL A   1      44.320  17.563  44.257  1.00  0.00    +0.000 H 
ATOM      5  C5  UNL A   1      45.301  17.136  44.253  1.00  0.00    +0.000 C 
BRANCH    5    4
ATOM    113  H8  UNL A   1      44.215  15.607  45.244  1.00  0.00    +0.000 H 
ATOM    114  H9  UNL A   1      44.611  15.357  43.460  1.00  0.00    +0.000 H 
ATOM      4  C4  UNL A   1      44.924  15.639  44.444  1.00  0.00    +0.000 C 
BRANCH    4    3
ATOM      3  C3  UNL A   1      45.974  14.576  44.761  1.00  0.00    +0.000 C 
ATOM    111  H6  UNL A   1      46.917  15.072  44.856  1.00  0.00    +0.000 H 
ATOM    112  H7  UNL A   1      45.624  14.097  45.653  1.00  0.00    +0.000 H 
BRANCH    3    2
ATOM      2  C2  UNL A   1      46.148  13.445  43.749  1.00  0.00    +0.000 C 
ATOM    109  H4  UNL A   1      45.181  13.067  43.491  1.00  0.00    +0.000 H 
ATOM    110  H5  UNL A   1      46.658  13.852  42.900  1.00  0.00    +0.000 H 
BRANCH    2    1
ATOM      1  C1  UNL A   1      46.990  12.297  44.275  1.00  0.00    +0.000 C 
ATOM    106  H1  UNL A   1      46.677  12.051  45.269  1.00  0.00    +0.000 H 
ATOM    107  H2  UNL A   1      48.019  12.586  44.286  1.00  0.00    +0.000 H 
ATOM    108  H3  UNL A   1      46.865  11.443  43.641  1.00  0.00    +0.000 H 
ENDBRANCH    2    1
ENDBRANCH    3    2
ENDBRANCH    4    3
ENDBRANCH    5    4
BRANCH    5    6
ATOM      6  S1  UNL A   1      46.240  18.165  45.512  1.00  0.00    +0.000 S 
BRANCH    6    7
ATOM    131  H26 UNL A   1      44.015  19.718  49.986  1.00  0.00    +0.000 H 
ATOM      7  C6  UNL A   1      45.001  18.729  46.627  1.00  0.00    +0.000 C 
ATOM      8  N1  UNL A   1      44.978  20.055  46.880  1.00  0.00    +0.000 N 
ATOM      9  C7  UNL A   1      44.505  20.417  48.076  1.00  0.00    +0.000 C 
ATOM     19  C16 UNL A   1      44.151  19.472  48.993  1.00  0.00    +0.000 C 
ATOM     20  C17 UNL A   1      43.982  18.193  48.555  1.00  0.00    +0.000 C 
ATOM     30  N2  UNL A   1      44.401  17.798  47.360  1.00  0.00    +0.000 N 
BRANCH    9   10
ATOM     10  O1  UNL A   1      44.389  21.770  48.293  1.00  0.00    +0.000 O 
BRANCH   10   11
ATOM     11  C8  UNL A   1      45.565  22.585  48.198  1.00  0.00    +0.000 C 
ATOM    116  H11 UNL A   1      45.352  23.518  48.674  1.00  0.00    +0.000 H 
ATOM    117  H12 UNL A   1      45.777  22.654  47.152  1.00  0.00    +0.000 H 
BRANCH   11   12
ATOM     12  C9  UNL A   1      46.860  22.014  48.839  1.00  0.00    +0.000 C 
ATOM    118  H13 UNL A   1      46.592  21.128  49.375  1.00  0.00    +0.000 H 
ATOM    119  H14 UNL A   1      47.244  22.807  49.447  1.00  0.00    +0.000 H 
BRANCH   12   13
ATOM    129  H24 UNL A   1      48.625  19.995  49.087  1.00  0.00    +0.000 H 
ATOM    130  H25 UNL A   1      49.652  21.401  49.229  1.00  0.00    +0.000 H 
ATOM     13  C10 UNL A   1      48.007  21.652  47.883  1.00  0.00    +0.000 C 
ATOM     14  C11 UNL A   1      48.672  22.857  47.199  1.00  0.00    +0.000 C 
ATOM     15  C12 UNL A   1      49.652  22.380  46.120  1.00  0.00    +0.000 C 
ATOM     16  C13 UNL A   1      50.639  21.319  46.611  1.00  0.00    +0.000 C 
ATOM     17  C14 UNL A   1      50.013  20.227  47.481  1.00  0.00    +0.000 C 
ATOM     18  C15 UNL A   1      49.086  20.798  48.550  1.00  0.00    +0.000 C 
ATOM    120  H15 UNL A   1      47.522  21.078  47.121  1.00  0.00    +0.000 H 
ATOM    121  H16 UNL A   1      49.203  23.429  47.931  1.00  0.00    +0.000 H 
ATOM    122  H17 UNL A   1      47.915  23.459  46.742  1.00  0.00    +0.000 H 
ATOM    123  H18 UNL A   1      50.210  23.225  45.773  1.00  0.00    +0.000 H 
ATOM    124  H19 UNL A   1      49.069  21.931  45.344  1.00  0.00    +0.000 H 
ATOM    125  H20 UNL A   1      51.399  21.807  47.184  1.00  0.00    +0.000 H 
ATOM    126  H21 UNL A   1      51.022  20.832  45.739  1.00  0.00    +0.000 H 
ATOM    127  H22 UNL A   1      50.797  19.679  47.960  1.00  0.00    +0.000 H 
ATOM    128  H23 UNL A   1      49.429  19.598  46.843  1.00  0.00    +0.000 H 
ENDBRANCH   12   13
ENDBRANCH   11   12
ENDBRANCH   10   11
ENDBRANCH    9   10
BRANCH   20   21
ATOM     21  O2  UNL A   1      43.655  17.181  49.415  1.00  0.00    +0.000 O 
BRANCH   21   22
ATOM    132  H27 UNL A   1      45.048  15.678  49.364  1.00  0.00    +0.000 H 
ATOM    133  H28 UNL A   1      44.052  15.816  47.937  1.00  0.00    +0.000 H 
ATOM     22  C18 UNL A   1      44.060  15.875  49.005  1.00  0.00    +0.000 C 
BRANCH   22   23
ATOM    135  H30 UNL A   1      42.293  15.361  50.078  1.00  0.00    +0.000 H 
ATOM    134  H29 UNL A   1      42.709  14.223  48.787  1.00  0.00    +0.000 H 
ATOM     23  C19 UNL A   1      43.080  14.828  49.587  1.00  0.00    +0.000 C 
BRANCH   23   24
ATOM    136  H31 UNL A   1      43.503  14.431  51.536  1.00  0.00    +0.000 H 
ATOM    137  H32 UNL A   1      43.659  11.924  49.828  1.00  0.00    +0.000 H 
ATOM    138  H33 UNL A   1      42.130  12.499  50.402  1.00  0.00    +0.000 H 
ATOM    139  H34 UNL A   1      42.988  10.909  52.023  1.00  0.00    +0.000 H 
ATOM    140  H35 UNL A   1      43.094  12.493  52.737  1.00  0.00    +0.000 H 
ATOM    141  H36 UNL A   1      45.289  10.898  51.461  1.00  0.00    +0.000 H 
ATOM    142  H37 UNL A   1      45.165  11.479  53.138  1.00  0.00    +0.000 H 
ATOM    143  H38 UNL A   1      46.786  12.657  51.544  1.00  0.00    +0.000 H 
ATOM    144  H39 UNL A   1      45.688  13.608  52.594  1.00  0.00    +0.000 H 
ATOM    145  H40 UNL A   1      45.716  14.723  50.527  1.00  0.00    +0.000 H 
ATOM    146  H41 UNL A   1      45.507  13.231  49.638  1.00  0.00    +0.000 H 
ATOM     24  C20 UNL A   1      43.740  13.911  50.630  1.00  0.00    +0.000 C 
ATOM     25  C21 UNL A   1      43.182  12.490  50.600  1.00  0.00    +0.000 C 
ATOM     26  C22 UNL A   1      43.469  11.863  51.958  1.00  0.00    +0.000 C 
ATOM     27  C23 UNL A   1      44.974  11.691  52.106  1.00  0.00    +0.000 C 
ATOM     28  C24 UNL A   1      45.779  12.955  51.752  1.00  0.00    +0.000 C 
ATOM     29  C25 UNL A   1      45.260  13.755  50.537  1.00  0.00    +0.000 C 
ENDBRANCH   23   24
ENDBRANCH   22   23
ENDBRANCH   21   22
ENDBRANCH   20   21
ENDBRANCH    6    7
ENDBRANCH    5    6
ENDBRANCH   31    5
ENDBRANCH   33   31
ENDBRANCH   34   33
ENDBRANCH   35   34
ENDBRANCH   36   35
ENDBRANCH   37   36
ENDBRANCH   38   37
ENDBRANCH   39   38
ENDBRANCH   40   39
ENDBRANCH   41   40
ENDBRANCH   43   41
ENDBRANCH   47   46
BRANCH   51   52
ATOM     52  C42 UNL A   1      51.279  14.180  49.037  1.00  0.00    +0.000 C 
ATOM     53  C43 UNL A   1      51.025  15.497  49.452  1.00  0.00    +0.000 C 
ATOM     54  F1  UNL A   1      50.084  15.744  50.375  1.00  0.00    +0.000 F 
ATOM     55  C44 UNL A   1      51.710  16.571  48.889  1.00  0.00    +0.000 C 
ATOM     56  F2  UNL A   1      51.414  17.823  49.265  1.00  0.00    +0.000 F 
ATOM     57  C45 UNL A   1      52.687  16.348  47.931  1.00  0.00    +0.000 C 
ATOM     58  F3  UNL A   1      53.351  17.383  47.397  1.00  0.00    +0.000 F 
ATOM     59  C46 UNL A   1      52.970  15.055  47.521  1.00  0.00    +0.000 C 
ATOM     60  F4  UNL A   1      53.923  14.837  46.604  1.00  0.00    +0.000 F 
ATOM     61  C47 UNL A   1      52.264  13.980  48.058  1.00  0.00    +0.000 C 
ATOM     62  F5  UNL A   1      52.550  12.742  47.628  1.00  0.00    +0.000 F 
ENDBRANCH   51   52
BRANCH   68   69
ATOM     69  C53 UNL A   1      51.988   9.662  54.611  1.00  0.00    +0.000 C 
ATOM     70  C54 UNL A   1      51.804  10.342  55.822  1.00  0.00    +0.000 C 
ATOM     71  F6  UNL A   1      50.807  11.229  55.955  1.00  0.00    +0.000 F 
ATOM     72  C55 UNL A   1      52.674  10.145  56.892  1.00  0.00    +0.000 C 
ATOM     73  F7  UNL A   1      52.511  10.846  58.022  1.00  0.00    +0.000 F 
ATOM     74  C56 UNL A   1      53.718   9.238  56.784  1.00  0.00    +0.000 C 
ATOM     75  F8  UNL A   1      54.550   9.046  57.816  1.00  0.00    +0.000 F 
ATOM     76  C57 UNL A   1      53.905   8.537  55.602  1.00  0.00    +0.000 C 
ATOM     77  F9  UNL A   1      54.903   7.649  55.500  1.00  0.00    +0.000 F 
ATOM     78  C58 UNL A   1      53.056   8.755  54.521  1.00  0.00    +0.000 C 
ATOM     79  F10 UNL A   1      53.272   8.073  53.386  1.00  0.00    +0.000 F 
ENDBRANCH   68   69
BRANCH   83   84
ATOM     84  C62 UNL A   1      46.184   6.360  52.629  1.00  0.00    +0.000 C 
ATOM     85  C63 UNL A   1      46.471   5.062  52.182  1.00  0.00    +0.000 C 
ATOM     86  F11 UNL A   1      47.424   4.867  51.259  1.00  0.00    +0.000 F 
ATOM     87  C64 UNL A   1      45.747   3.965  52.644  1.00  0.00    +0.000 C 
ATOM     88  F12 UNL A   1      46.004   2.743  52.159  1.00  0.00    +0.000 F 
ATOM     89  C65 UNL A   1      44.746   4.140  53.588  1.00  0.00    +0.000 C 
ATOM     90  F13 UNL A   1      44.047   3.085  54.030  1.00  0.00    +0.000 F 
ATOM     91  C66 UNL A   1      44.463   5.411  54.064  1.00  0.00    +0.000 C 
ATOM     92  F14 UNL A   1      43.505   5.582  54.986  1.00  0.00    +0.000 F 
ATOM     93  C67 UNL A   1      45.165   6.513  53.580  1.00  0.00    +0.000 C 
ATOM     94  F15 UNL A   1      44.857   7.732  54.045  1.00  0.00    +0.000 F 
ENDBRANCH   83   84
TORSDOF 29
ENDMDL
MODEL 7
REMARK VINA RESULT:      -6.4     52.809     57.902
ROOT
ATOM    163  H58 UNL A   1      31.397  41.898  46.688  1.00  0.00    +0.000 H 
ATOM    164  H59 UNL A   1      33.074  43.878  46.942  1.00  0.00    +0.000 H 
ATOM    165  H60 UNL A   1      29.242  45.334  47.526  1.00  0.00    +0.000 H 
ATOM    166  H61 UNL A   1      25.324  50.271  48.596  1.00  0.00    +0.000 H 
ATOM    167  H62 UNL A   1      23.700  48.327  48.405  1.00  0.00    +0.000 H 
ATOM    168  H63 UNL A   1      27.539  46.831  47.859  1.00  0.00    +0.000 H 
ATOM    169  H64 UNL A   1      30.652  50.727  48.394  1.00  0.00    +0.000 H 
ATOM    170  H65 UNL A   1      32.546  49.132  47.751  1.00  0.00    +0.000 H 
ATOM    171  H66 UNL A   1      26.077  41.469  47.269  1.00  0.00    +0.000 H 
ATOM    172  H67 UNL A   1      24.128  43.129  47.343  1.00  0.00    +0.000 H 
ATOM     47  C38 UNL A   1      24.933  45.819  47.835  1.00  0.00    +0.000 C 
ATOM     48  C39 UNL A   1      25.815  44.625  47.593  1.00  0.00    +0.000 C 
ATOM     49  N5  UNL A   1      27.122  44.553  47.550  1.00  0.00    +0.000 N 
ATOM     50  C40 UNL A   1      27.419  43.213  47.340  1.00  0.00    +0.000 C 
ATOM     51  C41 UNL A   1      28.628  42.636  47.146  1.00  0.00    +0.000 C 
ATOM     63  C48 UNL A   1      29.872  43.358  47.131  1.00  0.00    +0.000 C 
ATOM     64  C49 UNL A   1      31.150  42.875  46.906  1.00  0.00    +0.000 C 
ATOM     65  C50 UNL A   1      32.047  43.942  47.024  1.00  0.00    +0.000 C 
ATOM     66  C51 UNL A   1      31.324  45.098  47.269  1.00  0.00    +0.000 C 
ATOM     67  N6  UNL A   1      29.992  44.723  47.346  1.00  0.00    +0.000 N 
ATOM     68  C52 UNL A   1      31.812  46.445  47.417  1.00  0.00    +0.000 C 
ATOM     80  C59 UNL A   1      31.041  47.527  47.687  1.00  0.00    +0.000 C 
ATOM     81  N7  UNL A   1      29.664  47.602  47.853  1.00  0.00    +0.000 N 
ATOM     82  C60 UNL A   1      29.399  48.860  48.104  1.00  0.00    +0.000 C 
ATOM     83  C61 UNL A   1      28.067  49.528  48.323  1.00  0.00    +0.000 C 
ATOM     95  C68 UNL A   1      26.946  48.788  48.252  1.00  0.00    +0.000 C 
ATOM     96  C69 UNL A   1      25.584  49.288  48.420  1.00  0.00    +0.000 C 
ATOM     97  C70 UNL A   1      24.725  48.262  48.309  1.00  0.00    +0.000 C 
ATOM     98  C71 UNL A   1      25.475  47.037  48.027  1.00  0.00    +0.000 C 
ATOM     99  N8  UNL A   1      26.785  47.444  48.018  1.00  0.00    +0.000 N 
ATOM    100  C72 UNL A   1      30.587  49.722  48.167  1.00  0.00    +0.000 C 
ATOM    101  C73 UNL A   1      31.554  48.871  47.857  1.00  0.00    +0.000 C 
ATOM    102  C74 UNL A   1      26.163  42.496  47.328  1.00  0.00    +0.000 C 
ATOM    103  C75 UNL A   1      25.138  43.331  47.403  1.00  0.00    +0.000 C 
ENDROOT
BRANCH   47   46
ATOM    161  H56 UNL A   1      20.966  45.089  50.088  1.00  0.00    +0.000 H 
ATOM    162  H57 UNL A   1      23.376  45.360  50.002  1.00  0.00    +0.000 H 
ATOM    104  C76 UNL A   1      22.695  45.759  46.738  1.00  0.00    +0.000 C 
ATOM    105  C77 UNL A   1      21.308  45.697  46.803  1.00  0.00    +0.000 C 
ATOM     43  C34 UNL A   1      20.680  45.410  48.018  1.00  0.00    +0.000 C 
ATOM     44  C35 UNL A   1      21.432  45.284  49.188  1.00  0.00    +0.000 C 
ATOM     45  C36 UNL A   1      22.819  45.422  49.135  1.00  0.00    +0.000 C 
ATOM    174  H69 UNL A   1      20.742  45.864  45.956  1.00  0.00    +0.000 H 
ATOM    173  H68 UNL A   1      23.163  45.888  45.826  1.00  0.00    +0.000 H 
ATOM     46  C37 UNL A   1      23.463  45.647  47.906  1.00  0.00    +0.000 C 
BRANCH   43   41
ATOM     41  C33 UNL A   1      19.211  45.274  48.099  1.00  0.00    +0.000 C 
ATOM     42  O4  UNL A   1      18.499  46.274  48.040  1.00  0.00    +0.000 O 
BRANCH   41   40
ATOM    160  H55 UNL A   1      18.669  43.467  47.430  1.00  0.00    +0.000 H 
ATOM     40  N4  UNL A   1      18.648  44.035  48.234  1.00  0.00    +0.000 N 
BRANCH   40   39
ATOM    159  H54 UNL A   1      16.997  43.239  49.167  1.00  0.00    +0.000 H 
ATOM    158  H53 UNL A   1      18.096  44.125  50.223  1.00  0.00    +0.000 H 
ATOM     39  C32 UNL A   1      18.021  43.441  49.404  1.00  0.00    +0.000 C 
BRANCH   39   38
ATOM    156  H51 UNL A   1      19.136  42.253  50.758  1.00  0.00    +0.000 H 
ATOM    157  H52 UNL A   1      17.921  41.381  49.790  1.00  0.00    +0.000 H 
ATOM     38  C31 UNL A   1      18.687  42.128  49.795  1.00  0.00    +0.000 C 
BRANCH   38   37
ATOM    154  H49 UNL A   1      19.492  41.983  47.835  1.00  0.00    +0.000 H 
ATOM    155  H50 UNL A   1      20.688  42.081  49.158  1.00  0.00    +0.000 H 
ATOM     37  C30 UNL A   1      19.767  41.658  48.817  1.00  0.00    +0.000 C 
BRANCH   37   36
ATOM    153  H48 UNL A   1      21.022  39.971  48.945  1.00  0.00    +0.000 H 
ATOM     36  C29 UNL A   1      19.979  40.139  48.774  1.00  0.00    +0.000 C 
ATOM    152  H47 UNL A   1      19.650  39.782  47.821  1.00  0.00    +0.000 H 
BRANCH   36   35
ATOM     35  C28 UNL A   1      19.227  39.368  49.861  1.00  0.00    +0.000 C 
ATOM    150  H45 UNL A   1      19.928  39.056  50.606  1.00  0.00    +0.000 H 
ATOM    151  H46 UNL A   1      18.483  40.023  50.265  1.00  0.00    +0.000 H 
BRANCH   35   34
ATOM     34  C27 UNL A   1      18.507  38.134  49.322  1.00  0.00    +0.000 C 
ATOM    148  H43 UNL A   1      18.611  37.333  50.023  1.00  0.00    +0.000 H 
ATOM    149  H44 UNL A   1      17.474  38.372  49.180  1.00  0.00    +0.000 H 
BRANCH   34   33
ATOM     33  N3  UNL A   1      19.072  37.725  48.043  1.00  0.00    +0.000 N 
ATOM    147  H42 UNL A   1      20.049  37.824  47.974  1.00  0.00    +0.000 H 
BRANCH   33   31
ATOM     31  C26 UNL A   1      18.463  37.226  46.921  1.00  0.00    +0.000 C 
ATOM     32  O3  UNL A   1      18.709  37.772  45.841  1.00  0.00    +0.000 O 
BRANCH   31    5
ATOM    115  H10 UNL A   1      17.570  35.293  47.797  1.00  0.00    +0.000 H 
ATOM      5  C5  UNL A   1      17.511  36.014  47.008  1.00  0.00    +0.000 C 
BRANCH    5    4
ATOM    113  H8  UNL A   1      16.184  37.651  47.251  1.00  0.00    +0.000 H 
ATOM    114  H9  UNL A   1      15.496  36.086  46.559  1.00  0.00    +0.000 H 
ATOM      4  C4  UNL A   1      16.092  36.586  47.293  1.00  0.00    +0.000 C 
BRANCH    4    3
ATOM      3  C3  UNL A   1      15.340  36.273  48.585  1.00  0.00    +0.000 C 
ATOM    111  H6  UNL A   1      14.513  35.644  48.333  1.00  0.00    +0.000 H 
ATOM    112  H7  UNL A   1      16.068  35.825  49.229  1.00  0.00    +0.000 H 
BRANCH    3    2
ATOM      2  C2  UNL A   1      14.792  37.460  49.376  1.00  0.00    +0.000 C 
ATOM    109  H4  UNL A   1      15.267  37.479  50.334  1.00  0.00    +0.000 H 
ATOM    110  H5  UNL A   1      14.998  38.344  48.808  1.00  0.00    +0.000 H 
BRANCH    2    1
ATOM      1  C1  UNL A   1      13.290  37.396  49.584  1.00  0.00    +0.000 C 
ATOM    106  H1  UNL A   1      13.014  36.410  49.896  1.00  0.00    +0.000 H 
ATOM    107  H2  UNL A   1      12.793  37.631  48.667  1.00  0.00    +0.000 H 
ATOM    108  H3  UNL A   1      13.004  38.102  50.336  1.00  0.00    +0.000 H 
ENDBRANCH    2    1
ENDBRANCH    3    2
ENDBRANCH    4    3
ENDBRANCH    5    4
BRANCH    5    6
ATOM      6  S1  UNL A   1      17.973  35.033  45.475  1.00  0.00    +0.000 S 
BRANCH    6    7
ATOM    131  H26 UNL A   1      22.947  34.455  46.992  1.00  0.00    +0.000 H 
ATOM      7  C6  UNL A   1      19.484  34.238  45.902  1.00  0.00    +0.000 C 
ATOM      8  N1  UNL A   1      19.712  34.046  47.218  1.00  0.00    +0.000 N 
ATOM      9  C7  UNL A   1      20.993  34.011  47.593  1.00  0.00    +0.000 C 
ATOM     19  C16 UNL A   1      21.985  34.241  46.686  1.00  0.00    +0.000 C 
ATOM     20  C17 UNL A   1      21.663  34.180  45.364  1.00  0.00    +0.000 C 
ATOM     30  N2  UNL A   1      20.405  34.173  44.946  1.00  0.00    +0.000 N 
BRANCH    9   10
ATOM     10  O1  UNL A   1      21.225  33.716  48.917  1.00  0.00    +0.000 O 
BRANCH   10   11
ATOM     11  C8  UNL A   1      20.979  34.730  49.900  1.00  0.00    +0.000 C 
ATOM    116  H11 UNL A   1      21.220  34.318  50.858  1.00  0.00    +0.000 H 
ATOM    117  H12 UNL A   1      19.951  35.001  49.775  1.00  0.00    +0.000 H 
BRANCH   11   12
ATOM     12  C9  UNL A   1      21.772  36.056  49.746  1.00  0.00    +0.000 C 
ATOM    118  H13 UNL A   1      21.228  36.820  50.261  1.00  0.00    +0.000 H 
ATOM    119  H14 UNL A   1      21.863  36.206  48.690  1.00  0.00    +0.000 H 
BRANCH   12   13
ATOM    129  H24 UNL A   1      22.895  37.871  51.389  1.00  0.00    +0.000 H 
ATOM    130  H25 UNL A   1      23.806  38.095  49.916  1.00  0.00    +0.000 H 
ATOM     13  C10 UNL A   1      23.213  36.071  50.278  1.00  0.00    +0.000 C 
ATOM     14  C11 UNL A   1      24.261  35.525  49.295  1.00  0.00    +0.000 C 
ATOM     15  C12 UNL A   1      25.621  35.389  49.992  1.00  0.00    +0.000 C 
ATOM     16  C13 UNL A   1      26.061  36.652  50.734  1.00  0.00    +0.000 C 
ATOM     17  C14 UNL A   1      24.954  37.327  51.546  1.00  0.00    +0.000 C 
ATOM     18  C15 UNL A   1      23.653  37.454  50.759  1.00  0.00    +0.000 C 
ATOM    120  H15 UNL A   1      23.175  35.401  51.112  1.00  0.00    +0.000 H 
ATOM    121  H16 UNL A   1      24.353  36.197  48.468  1.00  0.00    +0.000 H 
ATOM    122  H17 UNL A   1      23.947  34.562  48.951  1.00  0.00    +0.000 H 
ATOM    123  H18 UNL A   1      26.359  35.159  49.250  1.00  0.00    +0.000 H 
ATOM    124  H19 UNL A   1      25.523  34.614  50.722  1.00  0.00    +0.000 H 
ATOM    125  H20 UNL A   1      26.422  37.356  50.013  1.00  0.00    +0.000 H 
ATOM    126  H21 UNL A   1      26.811  36.350  51.434  1.00  0.00    +0.000 H 
ATOM    127  H22 UNL A   1      25.283  38.305  51.830  1.00  0.00    +0.000 H 
ATOM    128  H23 UNL A   1      24.760  36.716  52.403  1.00  0.00    +0.000 H 
ENDBRANCH   12   13
ENDBRANCH   11   12
ENDBRANCH   10   11
ENDBRANCH    9   10
BRANCH   20   21
ATOM     21  O2  UNL A   1      22.592  34.425  44.391  1.00  0.00    +0.000 O 
BRANCH   21   22
ATOM    132  H27 UNL A   1      22.240  36.432  44.615  1.00  0.00    +0.000 H 
ATOM    133  H28 UNL A   1      23.264  36.004  43.267  1.00  0.00    +0.000 H 
ATOM     22  C18 UNL A   1      23.023  35.782  44.286  1.00  0.00    +0.000 C 
BRANCH   22   23
ATOM    135  H30 UNL A   1      24.460  35.077  45.692  1.00  0.00    +0.000 H 
ATOM    134  H29 UNL A   1      25.098  36.263  44.542  1.00  0.00    +0.000 H 
ATOM     23  C19 UNL A   1      24.276  35.993  45.170  1.00  0.00    +0.000 C 
BRANCH   23   24
ATOM    136  H31 UNL A   1      24.156  36.526  47.129  1.00  0.00    +0.000 H 
ATOM    137  H32 UNL A   1      24.866  38.898  45.370  1.00  0.00    +0.000 H 
ATOM    138  H33 UNL A   1      26.091  37.782  45.873  1.00  0.00    +0.000 H 
ATOM    139  H34 UNL A   1      26.006  39.583  47.498  1.00  0.00    +0.000 H 
ATOM    140  H35 UNL A   1      25.346  38.161  48.257  1.00  0.00    +0.000 H 
ATOM    141  H36 UNL A   1      23.854  40.473  47.064  1.00  0.00    +0.000 H 
ATOM    142  H37 UNL A   1      23.849  39.893  48.745  1.00  0.00    +0.000 H 
ATOM    143  H38 UNL A   1      21.806  39.422  47.274  1.00  0.00    +0.000 H 
ATOM    144  H39 UNL A   1      22.520  38.125  48.285  1.00  0.00    +0.000 H 
ATOM    145  H40 UNL A   1      21.942  37.102  46.252  1.00  0.00    +0.000 H 
ATOM    146  H41 UNL A   1      22.651  38.398  45.315  1.00  0.00    +0.000 H 
ATOM     24  C20 UNL A   1      24.081  37.095  46.225  1.00  0.00    +0.000 C 
ATOM     25  C21 UNL A   1      25.137  38.193  46.129  1.00  0.00    +0.000 C 
ATOM     26  C22 UNL A   1      25.194  38.885  47.484  1.00  0.00    +0.000 C 
ATOM     27  C23 UNL A   1      23.881  39.621  47.710  1.00  0.00    +0.000 C 
ATOM     28  C24 UNL A   1      22.634  38.762  47.433  1.00  0.00    +0.000 C 
ATOM     29  C25 UNL A   1      22.733  37.821  46.212  1.00  0.00    +0.000 C 
ENDBRANCH   23   24
ENDBRANCH   22   23
ENDBRANCH   21   22
ENDBRANCH   20   21
ENDBRANCH    6    7
ENDBRANCH    5    6
ENDBRANCH   31    5
ENDBRANCH   33   31
ENDBRANCH   34   33
ENDBRANCH   35   34
ENDBRANCH   36   35
ENDBRANCH   37   36
ENDBRANCH   38   37
ENDBRANCH   39   38
ENDBRANCH   40   39
ENDBRANCH   41   40
ENDBRANCH   43   41
ENDBRANCH   47   46
BRANCH   51   52
ATOM     52  C42 UNL A   1      28.662  41.151  46.925  1.00  0.00    +0.000 C 
ATOM     53  C43 UNL A   1      28.648  40.600  45.633  1.00  0.00    +0.000 C 
ATOM     54  F1  UNL A   1      28.558  41.400  44.560  1.00  0.00    +0.000 F 
ATOM     55  C44 UNL A   1      28.685  39.221  45.441  1.00  0.00    +0.000 C 
ATOM     56  F2  UNL A   1      28.619  38.718  44.201  1.00  0.00    +0.000 F 
ATOM     57  C45 UNL A   1      28.776  38.369  46.530  1.00  0.00    +0.000 C 
ATOM     58  F3  UNL A   1      28.821  37.042  46.343  1.00  0.00    +0.000 F 
ATOM     59  C46 UNL A   1      28.814  38.891  47.814  1.00  0.00    +0.000 C 
ATOM     60  F4  UNL A   1      28.914  38.068  48.868  1.00  0.00    +0.000 F 
ATOM     61  C47 UNL A   1      28.743  40.268  48.012  1.00  0.00    +0.000 C 
ATOM     62  F5  UNL A   1      28.764  40.740  49.268  1.00  0.00    +0.000 F 
ENDBRANCH   51   52
BRANCH   68   69
ATOM     69  C53 UNL A   1      33.282  46.678  47.228  1.00  0.00    +0.000 C 
ATOM     70  C54 UNL A   1      33.810  47.136  46.013  1.00  0.00    +0.000 C 
ATOM     71  F6  UNL A   1      33.005  47.336  44.959  1.00  0.00    +0.000 F 
ATOM     72  C55 UNL A   1      35.178  47.347  45.863  1.00  0.00    +0.000 C 
ATOM     73  F7  UNL A   1      35.667  47.734  44.676  1.00  0.00    +0.000 F 
ATOM     74  C56 UNL A   1      36.037  47.143  46.932  1.00  0.00    +0.000 C 
ATOM     75  F8  UNL A   1      37.352  47.353  46.787  1.00  0.00    +0.000 F 
ATOM     76  C57 UNL A   1      35.534  46.713  48.151  1.00  0.00    +0.000 C 
ATOM     77  F9  UNL A   1      36.359  46.530  49.190  1.00  0.00    +0.000 F 
ATOM     78  C58 UNL A   1      34.171  46.470  48.295  1.00  0.00    +0.000 C 
ATOM     79  F10 UNL A   1      33.716  46.040  49.481  1.00  0.00    +0.000 F 
ENDBRANCH   68   69
BRANCH   83   84
ATOM     84  C62 UNL A   1      27.982  50.990  48.579  1.00  0.00    +0.000 C 
ATOM     85  C63 UNL A   1      27.753  51.480  49.873  1.00  0.00    +0.000 C 
ATOM     86  F11 UNL A   1      27.609  50.626  50.897  1.00  0.00    +0.000 F 
ATOM     87  C64 UNL A   1      27.622  52.847  50.113  1.00  0.00    +0.000 C 
ATOM     88  F12 UNL A   1      27.347  53.284  51.349  1.00  0.00    +0.000 F 
ATOM     89  C65 UNL A   1      27.752  53.751  49.069  1.00  0.00    +0.000 C 
ATOM     90  F13 UNL A   1      27.622  55.065  49.300  1.00  0.00    +0.000 F 
ATOM     91  C66 UNL A   1      28.004  53.291  47.786  1.00  0.00    +0.000 C 
ATOM     92  F14 UNL A   1      28.144  54.163  46.778  1.00  0.00    +0.000 F 
ATOM     93  C67 UNL A   1      28.105  51.923  47.540  1.00  0.00    +0.000 C 
ATOM     94  F15 UNL A   1      28.332  51.507  46.286  1.00  0.00    +0.000 F 
ENDBRANCH   83   84
TORSDOF 29
ENDMDL
MODEL 8
REMARK VINA RESULT:      -6.3     45.801     51.188
ROOT
ATOM    163  H58 UNL A   1      37.973  34.807  32.634  1.00  0.00    +0.000 H 
ATOM    164  H59 UNL A   1      40.096  35.529  33.965  1.00  0.00    +0.000 H 
ATOM    165  H60 UNL A   1      40.919  31.955  32.045  1.00  0.00    +0.000 H 
ATOM    166  H61 UNL A   1      44.932  27.117  30.886  1.00  0.00    +0.000 H 
ATOM    167  H62 UNL A   1      42.882  26.447  29.544  1.00  0.00    +0.000 H 
ATOM    168  H63 UNL A   1      42.044  30.058  31.424  1.00  0.00    +0.000 H 
ATOM    169  H64 UNL A   1      46.203  31.338  33.920  1.00  0.00    +0.000 H 
ATOM    170  H65 UNL A   1      44.877  33.318  34.849  1.00  0.00    +0.000 H 
ATOM    171  H66 UNL A   1      36.912  30.723  29.314  1.00  0.00    +0.000 H 
ATOM    172  H67 UNL A   1      38.006  28.459  28.828  1.00  0.00    +0.000 H 
ATOM     47  C38 UNL A   1      40.691  28.259  29.768  1.00  0.00    +0.000 C 
ATOM     48  C39 UNL A   1      39.715  29.380  30.002  1.00  0.00    +0.000 C 
ATOM     49  N5  UNL A   1      39.873  30.490  30.678  1.00  0.00    +0.000 N 
ATOM     50  C40 UNL A   1      38.682  31.189  30.538  1.00  0.00    +0.000 C 
ATOM     51  C41 UNL A   1      38.317  32.360  31.111  1.00  0.00    +0.000 C 
ATOM     63  C48 UNL A   1      39.155  33.115  32.004  1.00  0.00    +0.000 C 
ATOM     64  C49 UNL A   1      38.868  34.295  32.669  1.00  0.00    +0.000 C 
ATOM     65  C50 UNL A   1      40.001  34.673  33.398  1.00  0.00    +0.000 C 
ATOM     66  C51 UNL A   1      40.974  33.701  33.230  1.00  0.00    +0.000 C 
ATOM     67  N6  UNL A   1      40.447  32.758  32.362  1.00  0.00    +0.000 N 
ATOM     68  C52 UNL A   1      42.286  33.635  33.821  1.00  0.00    +0.000 C 
ATOM     80  C59 UNL A   1      43.199  32.662  33.584  1.00  0.00    +0.000 C 
ATOM     81  N7  UNL A   1      43.090  31.537  32.776  1.00  0.00    +0.000 N 
ATOM     82  C60 UNL A   1      44.238  30.912  32.872  1.00  0.00    +0.000 C 
ATOM     83  C61 UNL A   1      44.670  29.611  32.247  1.00  0.00    +0.000 C 
ATOM     95  C68 UNL A   1      43.797  28.935  31.479  1.00  0.00    +0.000 C 
ATOM     96  C69 UNL A   1      44.055  27.656  30.822  1.00  0.00    +0.000 C 
ATOM     97  C70 UNL A   1      42.968  27.297  30.121  1.00  0.00    +0.000 C 
ATOM     98  C71 UNL A   1      41.923  28.305  30.309  1.00  0.00    +0.000 C 
ATOM     99  N8  UNL A   1      42.507  29.242  31.123  1.00  0.00    +0.000 N 
ATOM    100  C72 UNL A   1      45.223  31.595  33.722  1.00  0.00    +0.000 C 
ATOM    101  C73 UNL A   1      44.523  32.626  34.170  1.00  0.00    +0.000 C 
ATOM    102  C74 UNL A   1      37.833  30.412  29.662  1.00  0.00    +0.000 C 
ATOM    103  C75 UNL A   1      38.394  29.250  29.365  1.00  0.00    +0.000 C 
ENDROOT
BRANCH   47   46
ATOM    161  H56 UNL A   1      38.549  24.252  28.925  1.00  0.00    +0.000 H 
ATOM    162  H57 UNL A   1      39.166  26.102  30.369  1.00  0.00    +0.000 H 
ATOM    104  C76 UNL A   1      40.722  27.096  27.563  1.00  0.00    +0.000 C 
ATOM    105  C77 UNL A   1      40.290  26.084  26.714  1.00  0.00    +0.000 C 
ATOM     43  C34 UNL A   1      39.533  25.023  27.221  1.00  0.00    +0.000 C 
ATOM     44  C35 UNL A   1      39.122  25.027  28.556  1.00  0.00    +0.000 C 
ATOM     45  C36 UNL A   1      39.493  26.082  29.389  1.00  0.00    +0.000 C 
ATOM    174  H69 UNL A   1      40.527  26.115  25.709  1.00  0.00    +0.000 H 
ATOM    173  H68 UNL A   1      41.350  27.834  27.207  1.00  0.00    +0.000 H 
ATOM     46  C37 UNL A   1      40.307  27.118  28.903  1.00  0.00    +0.000 C 
BRANCH   43   41
ATOM     41  C33 UNL A   1      39.118  23.904  26.352  1.00  0.00    +0.000 C 
ATOM     42  O4  UNL A   1      38.030  23.941  25.781  1.00  0.00    +0.000 O 
BRANCH   41   40
ATOM    160  H55 UNL A   1      40.316  22.715  25.275  1.00  0.00    +0.000 H 
ATOM     40  N4  UNL A   1      39.949  22.830  26.181  1.00  0.00    +0.000 N 
BRANCH   40   39
ATOM    159  H54 UNL A   1      40.170  20.865  26.746  1.00  0.00    +0.000 H 
ATOM    158  H53 UNL A   1      39.812  21.983  28.061  1.00  0.00    +0.000 H 
ATOM     39  C32 UNL A   1      40.363  21.834  27.156  1.00  0.00    +0.000 C 
BRANCH   39   38
ATOM    156  H51 UNL A   1      42.210  20.953  27.704  1.00  0.00    +0.000 H 
ATOM    157  H52 UNL A   1      42.320  22.341  26.593  1.00  0.00    +0.000 H 
ATOM     38  C31 UNL A   1      41.852  21.932  27.464  1.00  0.00    +0.000 C 
BRANCH   38   37
ATOM    154  H49 UNL A   1      41.275  23.156  29.101  1.00  0.00    +0.000 H 
ATOM    155  H50 UNL A   1      42.845  22.322  29.273  1.00  0.00    +0.000 H 
ATOM     37  C30 UNL A   1      42.190  22.868  28.627  1.00  0.00    +0.000 C 
BRANCH   37   36
ATOM    153  H48 UNL A   1      42.537  24.936  28.821  1.00  0.00    +0.000 H 
ATOM     36  C29 UNL A   1      42.943  24.144  28.228  1.00  0.00    +0.000 C 
ATOM    152  H47 UNL A   1      42.808  24.297  27.178  1.00  0.00    +0.000 H 
BRANCH   36   35
ATOM     35  C28 UNL A   1      44.445  24.105  28.517  1.00  0.00    +0.000 C 
ATOM    150  H45 UNL A   1      44.717  25.004  29.030  1.00  0.00    +0.000 H 
ATOM    151  H46 UNL A   1      44.636  23.236  29.111  1.00  0.00    +0.000 H 
BRANCH   35   34
ATOM     34  C27 UNL A   1      45.290  23.992  27.250  1.00  0.00    +0.000 C 
ATOM    148  H43 UNL A   1      46.100  23.317  27.427  1.00  0.00    +0.000 H 
ATOM    149  H44 UNL A   1      44.672  23.630  26.456  1.00  0.00    +0.000 H 
BRANCH   34   33
ATOM     33  N3  UNL A   1      45.826  25.291  26.870  1.00  0.00    +0.000 N 
ATOM    147  H42 UNL A   1      45.178  25.894  26.438  1.00  0.00    +0.000 H 
BRANCH   33   31
ATOM     31  C26 UNL A   1      47.086  25.810  27.016  1.00  0.00    +0.000 C 
ATOM     32  O3  UNL A   1      47.956  25.444  26.220  1.00  0.00    +0.000 O 
BRANCH   31    5
ATOM    115  H10 UNL A   1      48.149  27.585  28.027  1.00  0.00    +0.000 H 
ATOM      5  C5  UNL A   1      47.400  26.828  28.133  1.00  0.00    +0.000 C 
BRANCH    5    4
ATOM    113  H8  UNL A   1      45.308  27.077  28.391  1.00  0.00    +0.000 H 
ATOM    114  H9  UNL A   1      46.417  28.382  29.077  1.00  0.00    +0.000 H 
ATOM      4  C4  UNL A   1      46.143  27.736  28.269  1.00  0.00    +0.000 C 
BRANCH    4    3
ATOM      3  C3  UNL A   1      45.744  28.733  27.183  1.00  0.00    +0.000 C 
ATOM    111  H6  UNL A   1      46.027  29.707  27.520  1.00  0.00    +0.000 H 
ATOM    112  H7  UNL A   1      46.247  28.396  26.299  1.00  0.00    +0.000 H 
BRANCH    3    2
ATOM      2  C2  UNL A   1      44.267  28.789  26.798  1.00  0.00    +0.000 C 
ATOM    109  H4  UNL A   1      44.195  28.861  25.733  1.00  0.00    +0.000 H 
ATOM    110  H5  UNL A   1      43.805  27.898  27.172  1.00  0.00    +0.000 H 
BRANCH    2    1
ATOM      1  C1  UNL A   1      43.535  29.968  27.412  1.00  0.00    +0.000 C 
ATOM    106  H1  UNL A   1      44.195  30.496  28.069  1.00  0.00    +0.000 H 
ATOM    107  H2  UNL A   1      42.690  29.615  27.965  1.00  0.00    +0.000 H 
ATOM    108  H3  UNL A   1      43.204  30.626  26.635  1.00  0.00    +0.000 H 
ENDBRANCH    2    1
ENDBRANCH    3    2
ENDBRANCH    4    3
ENDBRANCH    5    4
BRANCH    5    6
ATOM      6  S1  UNL A   1      48.069  25.728  29.500  1.00  0.00    +0.000 S 
BRANCH    6    7
ATOM    131  H26 UNL A   1      52.761  27.863  30.395  1.00  0.00    +0.000 H 
ATOM      7  C6  UNL A   1      49.811  25.962  29.437  1.00  0.00    +0.000 C 
ATOM      8  N1  UNL A   1      50.521  25.483  30.480  1.00  0.00    +0.000 N 
ATOM      9  C7  UNL A   1      51.664  26.117  30.754  1.00  0.00    +0.000 C 
ATOM     19  C16 UNL A   1      52.022  27.230  30.051  1.00  0.00    +0.000 C 
ATOM     20  C17 UNL A   1      51.371  27.478  28.880  1.00  0.00    +0.000 C 
ATOM     30  N2  UNL A   1      50.255  26.845  28.548  1.00  0.00    +0.000 N 
BRANCH    9   10
ATOM     10  O1  UNL A   1      52.434  25.567  31.752  1.00  0.00    +0.000 O 
BRANCH   10   11
ATOM     11  C8  UNL A   1      51.945  24.404  32.435  1.00  0.00    +0.000 C 
ATOM    116  H11 UNL A   1      51.141  24.002  31.855  1.00  0.00    +0.000 H 
ATOM    117  H12 UNL A   1      51.666  24.746  33.410  1.00  0.00    +0.000 H 
BRANCH   11   12
ATOM     12  C9  UNL A   1      52.967  23.260  32.681  1.00  0.00    +0.000 C 
ATOM    118  H13 UNL A   1      53.610  23.568  33.478  1.00  0.00    +0.000 H 
ATOM    119  H14 UNL A   1      53.456  23.115  31.740  1.00  0.00    +0.000 H 
BRANCH   12   13
ATOM    129  H24 UNL A   1      50.399  22.640  33.205  1.00  0.00    +0.000 H 
ATOM    130  H25 UNL A   1      51.169  22.345  34.744  1.00  0.00    +0.000 H 
ATOM     13  C10 UNL A   1      52.393  21.883  33.050  1.00  0.00    +0.000 C 
ATOM     14  C11 UNL A   1      53.334  21.006  33.892  1.00  0.00    +0.000 C 
ATOM     15  C12 UNL A   1      52.758  19.591  34.027  1.00  0.00    +0.000 C 
ATOM     16  C13 UNL A   1      51.299  19.561  34.486  1.00  0.00    +0.000 C 
ATOM     17  C14 UNL A   1      50.399  20.589  33.800  1.00  0.00    +0.000 C 
ATOM     18  C15 UNL A   1      51.036  21.975  33.748  1.00  0.00    +0.000 C 
ATOM    120  H15 UNL A   1      52.272  21.404  32.101  1.00  0.00    +0.000 H 
ATOM    121  H16 UNL A   1      53.442  21.438  34.865  1.00  0.00    +0.000 H 
ATOM    122  H17 UNL A   1      54.286  20.952  33.407  1.00  0.00    +0.000 H 
ATOM    123  H18 UNL A   1      53.348  19.053  34.741  1.00  0.00    +0.000 H 
ATOM    124  H19 UNL A   1      52.790  19.145  33.055  1.00  0.00    +0.000 H 
ATOM    125  H20 UNL A   1      51.276  19.746  35.540  1.00  0.00    +0.000 H 
ATOM    126  H21 UNL A   1      50.916  18.597  34.223  1.00  0.00    +0.000 H 
ATOM    127  H22 UNL A   1      49.477  20.654  34.340  1.00  0.00    +0.000 H 
ATOM    128  H23 UNL A   1      50.240  20.264  32.794  1.00  0.00    +0.000 H 
ENDBRANCH   12   13
ENDBRANCH   11   12
ENDBRANCH   10   11
ENDBRANCH    9   10
BRANCH   20   21
ATOM     21  O2  UNL A   1      51.651  28.587  28.130  1.00  0.00    +0.000 O 
BRANCH   21   22
ATOM    132  H27 UNL A   1      53.621  28.259  28.592  1.00  0.00    +0.000 H 
ATOM    133  H28 UNL A   1      53.240  29.881  28.069  1.00  0.00    +0.000 H 
ATOM     22  C18 UNL A   1      53.038  28.843  27.910  1.00  0.00    +0.000 C 
BRANCH   22   23
ATOM    135  H30 UNL A   1      52.625  28.819  25.821  1.00  0.00    +0.000 H 
ATOM    134  H29 UNL A   1      54.350  28.903  26.214  1.00  0.00    +0.000 H 
ATOM     23  C19 UNL A   1      53.406  28.461  26.457  1.00  0.00    +0.000 C 
BRANCH   23   24
ATOM    136  H31 UNL A   1      53.532  26.599  27.264  1.00  0.00    +0.000 H 
ATOM    137  H32 UNL A   1      52.496  26.509  24.409  1.00  0.00    +0.000 H 
ATOM    138  H33 UNL A   1      51.425  26.874  25.720  1.00  0.00    +0.000 H 
ATOM    139  H34 UNL A   1      51.360  24.477  25.345  1.00  0.00    +0.000 H 
ATOM    140  H35 UNL A   1      52.202  24.749  26.844  1.00  0.00    +0.000 H 
ATOM    141  H36 UNL A   1      53.380  24.158  24.149  1.00  0.00    +0.000 H 
ATOM    142  H37 UNL A   1      53.509  23.215  25.652  1.00  0.00    +0.000 H 
ATOM    143  H38 UNL A   1      55.540  24.562  24.866  1.00  0.00    +0.000 H 
ATOM    144  H39 UNL A   1      55.014  24.622  26.579  1.00  0.00    +0.000 H 
ATOM    145  H40 UNL A   1      55.634  26.819  26.026  1.00  0.00    +0.000 H 
ATOM    146  H41 UNL A   1      54.751  26.766  24.517  1.00  0.00    +0.000 H 
ATOM     24  C20 UNL A   1      53.510  26.940  26.249  1.00  0.00    +0.000 C 
ATOM     25  C21 UNL A   1      52.334  26.374  25.459  1.00  0.00    +0.000 C 
ATOM     26  C22 UNL A   1      52.244  24.889  25.783  1.00  0.00    +0.000 C 
ATOM     27  C23 UNL A   1      53.473  24.191  25.215  1.00  0.00    +0.000 C 
ATOM     28  C24 UNL A   1      54.799  24.890  25.566  1.00  0.00    +0.000 C 
ATOM     29  C25 UNL A   1      54.766  26.434  25.533  1.00  0.00    +0.000 C 
ENDBRANCH   23   24
ENDBRANCH   22   23
ENDBRANCH   21   22
ENDBRANCH   20   21
ENDBRANCH    6    7
ENDBRANCH    5    6
ENDBRANCH   31    5
ENDBRANCH   33   31
ENDBRANCH   34   33
ENDBRANCH   35   34
ENDBRANCH   36   35
ENDBRANCH   37   36
ENDBRANCH   38   37
ENDBRANCH   39   38
ENDBRANCH   40   39
ENDBRANCH   41   40
ENDBRANCH   43   41
ENDBRANCH   47   46
BRANCH   51   52
ATOM     52  C42 UNL A   1      36.948  32.891  30.796  1.00  0.00    +0.000 C 
ATOM     53  C43 UNL A   1      35.876  32.735  31.690  1.00  0.00    +0.000 C 
ATOM     54  F1  UNL A   1      36.047  32.060  32.837  1.00  0.00    +0.000 F 
ATOM     55  C44 UNL A   1      34.613  33.237  31.389  1.00  0.00    +0.000 C 
ATOM     56  F2  UNL A   1      33.593  33.030  32.234  1.00  0.00    +0.000 F 
ATOM     57  C45 UNL A   1      34.404  33.936  30.211  1.00  0.00    +0.000 C 
ATOM     58  F3  UNL A   1      33.189  34.426  29.927  1.00  0.00    +0.000 F 
ATOM     59  C46 UNL A   1      35.453  34.123  29.324  1.00  0.00    +0.000 C 
ATOM     60  F4  UNL A   1      35.256  34.810  28.190  1.00  0.00    +0.000 F 
ATOM     61  C47 UNL A   1      36.711  33.594  29.605  1.00  0.00    +0.000 C 
ATOM     62  F5  UNL A   1      37.700  33.776  28.718  1.00  0.00    +0.000 F 
ENDBRANCH   51   52
BRANCH   68   69
ATOM     69  C53 UNL A   1      42.663  34.708  34.800  1.00  0.00    +0.000 C 
ATOM     70  C54 UNL A   1      42.470  34.554  36.180  1.00  0.00    +0.000 C 
ATOM     71  F6  UNL A   1      41.894  33.443  36.662  1.00  0.00    +0.000 F 
ATOM     72  C55 UNL A   1      42.831  35.563  37.069  1.00  0.00    +0.000 C 
ATOM     73  F7  UNL A   1      42.589  35.416  38.379  1.00  0.00    +0.000 F 
ATOM     74  C56 UNL A   1      43.424  36.726  36.601  1.00  0.00    +0.000 C 
ATOM     75  F8  UNL A   1      43.776  37.693  37.459  1.00  0.00    +0.000 F 
ATOM     76  C57 UNL A   1      43.646  36.890  35.242  1.00  0.00    +0.000 C 
ATOM     77  F9  UNL A   1      44.233  38.006  34.789  1.00  0.00    +0.000 F 
ATOM     78  C58 UNL A   1      43.257  35.897  34.348  1.00  0.00    +0.000 C 
ATOM     79  F10 UNL A   1      43.470  36.092  33.038  1.00  0.00    +0.000 F 
ENDBRANCH   68   69
BRANCH   83   84
ATOM     84  C62 UNL A   1      46.027  29.060  32.501  1.00  0.00    +0.000 C 
ATOM     85  C63 UNL A   1      47.084  29.318  31.616  1.00  0.00    +0.000 C 
ATOM     86  F11 UNL A   1      46.876  30.072  30.526  1.00  0.00    +0.000 F 
ATOM     87  C64 UNL A   1      48.345  28.763  31.819  1.00  0.00    +0.000 C 
ATOM     88  F12 UNL A   1      49.322  28.980  30.928  1.00  0.00    +0.000 F 
ATOM     89  C65 UNL A   1      48.584  27.968  32.930  1.00  0.00    +0.000 C 
ATOM     90  F13 UNL A   1      49.797  27.431  33.124  1.00  0.00    +0.000 F 
ATOM     91  C66 UNL A   1      47.561  27.720  33.832  1.00  0.00    +0.000 C 
ATOM     92  F14 UNL A   1      47.792  26.963  34.914  1.00  0.00    +0.000 F 
ATOM     93  C67 UNL A   1      46.291  28.250  33.614  1.00  0.00    +0.000 C 
ATOM     94  F15 UNL A   1      45.317  27.978  34.494  1.00  0.00    +0.000 F 
ENDBRANCH   83   84
TORSDOF 29
ENDMDL
MODEL 9
REMARK VINA RESULT:      -6.2     51.723     57.366
ROOT
ATOM    163  H58 UNL A   1      33.645  29.357  50.535  1.00  0.00    +0.000 H 
ATOM    164  H59 UNL A   1      35.558  30.468  49.157  1.00  0.00    +0.000 H 
ATOM    165  H60 UNL A   1      31.935  31.726  47.599  1.00  0.00    +0.000 H 
ATOM    166  H61 UNL A   1      28.671  35.025  43.203  1.00  0.00    +0.000 H 
ATOM    167  H62 UNL A   1      26.810  33.986  44.586  1.00  0.00    +0.000 H 
ATOM    168  H63 UNL A   1      30.434  32.743  46.197  1.00  0.00    +0.000 H 
ATOM    169  H64 UNL A   1      34.015  34.964  43.475  1.00  0.00    +0.000 H 
ATOM    170  H65 UNL A   1      35.706  33.624  44.849  1.00  0.00    +0.000 H 
ATOM    171  H66 UNL A   1      28.293  29.766  50.414  1.00  0.00    +0.000 H 
ATOM    172  H67 UNL A   1      26.585  30.634  48.714  1.00  0.00    +0.000 H 
ATOM     47  C38 UNL A   1      27.721  32.299  46.698  1.00  0.00    +0.000 C 
ATOM     48  C39 UNL A   1      28.444  31.517  47.760  1.00  0.00    +0.000 C 
ATOM     49  N5  UNL A   1      29.729  31.423  47.991  1.00  0.00    +0.000 N 
ATOM     50  C40 UNL A   1      29.853  30.612  49.112  1.00  0.00    +0.000 C 
ATOM     51  C41 UNL A   1      30.981  30.152  49.702  1.00  0.00    +0.000 C 
ATOM     63  C48 UNL A   1      32.311  30.451  49.240  1.00  0.00    +0.000 C 
ATOM     64  C49 UNL A   1      33.521  30.006  49.743  1.00  0.00    +0.000 C 
ATOM     65  C50 UNL A   1      34.547  30.588  48.991  1.00  0.00    +0.000 C 
ATOM     66  C51 UNL A   1      33.976  31.352  47.987  1.00  0.00    +0.000 C 
ATOM     67  N6  UNL A   1      32.603  31.271  48.160  1.00  0.00    +0.000 N 
ATOM     68  C52 UNL A   1      34.633  32.098  46.945  1.00  0.00    +0.000 C 
ATOM     80  C59 UNL A   1      34.003  32.851  46.010  1.00  0.00    +0.000 C 
ATOM     81  N7  UNL A   1      32.642  33.057  45.823  1.00  0.00    +0.000 N 
ATOM     82  C60 UNL A   1      32.537  33.866  44.798  1.00  0.00    +0.000 C 
ATOM     83  C61 UNL A   1      31.298  34.392  44.122  1.00  0.00    +0.000 C 
ATOM     95  C68 UNL A   1      30.092  34.006  44.577  1.00  0.00    +0.000 C 
ATOM     96  C69 UNL A   1      28.803  34.410  44.021  1.00  0.00    +0.000 C 
ATOM     97  C70 UNL A   1      27.820  33.852  44.745  1.00  0.00    +0.000 C 
ATOM     98  C71 UNL A   1      28.411  33.023  45.797  1.00  0.00    +0.000 C 
ATOM     99  N8  UNL A   1      29.763  33.181  45.624  1.00  0.00    +0.000 N 
ATOM    100  C72 UNL A   1      33.826  34.300  44.242  1.00  0.00    +0.000 C 
ATOM    101  C73 UNL A   1      34.683  33.614  44.984  1.00  0.00    +0.000 C 
ATOM    102  C74 UNL A   1      28.513  30.292  49.553  1.00  0.00    +0.000 C 
ATOM    103  C75 UNL A   1      27.609  30.763  48.709  1.00  0.00    +0.000 C 
ENDROOT
BRANCH   47   46
ATOM    161  H56 UNL A   1      23.599  30.494  45.648  1.00  0.00    +0.000 H 
ATOM    162  H57 UNL A   1      26.025  30.455  45.669  1.00  0.00    +0.000 H 
ATOM    104  C76 UNL A   1      25.542  33.366  47.273  1.00  0.00    +0.000 C 
ATOM    105  C77 UNL A   1      24.154  33.340  47.342  1.00  0.00    +0.000 C 
ATOM     43  C34 UNL A   1      23.443  32.314  46.711  1.00  0.00    +0.000 C 
ATOM     44  C35 UNL A   1      24.124  31.260  46.098  1.00  0.00    +0.000 C 
ATOM     45  C36 UNL A   1      25.519  31.248  46.096  1.00  0.00    +0.000 C 
ATOM    174  H69 UNL A   1      23.647  34.077  47.859  1.00  0.00    +0.000 H 
ATOM    173  H68 UNL A   1      26.062  34.166  47.667  1.00  0.00    +0.000 H 
ATOM     46  C37 UNL A   1      26.238  32.308  46.671  1.00  0.00    +0.000 C 
BRANCH   43   41
ATOM     41  C33 UNL A   1      21.967  32.301  46.715  1.00  0.00    +0.000 C 
ATOM     42  O4  UNL A   1      21.352  32.677  47.711  1.00  0.00    +0.000 O 
BRANCH   41   40
ATOM    160  H55 UNL A   1      20.877  30.981  45.677  1.00  0.00    +0.000 H 
ATOM     40  N4  UNL A   1      21.286  31.874  45.608  1.00  0.00    +0.000 N 
BRANCH   40   39
ATOM    159  H54 UNL A   1      20.607  31.879  43.666  1.00  0.00    +0.000 H 
ATOM    158  H53 UNL A   1      22.036  32.869  43.960  1.00  0.00    +0.000 H 
ATOM     39  C32 UNL A   1      21.086  32.558  44.341  1.00  0.00    +0.000 C 
BRANCH   39   38
ATOM    156  H51 UNL A   1      19.497  33.797  43.682  1.00  0.00    +0.000 H 
ATOM    157  H52 UNL A   1      19.711  33.693  45.448  1.00  0.00    +0.000 H 
ATOM     38  C31 UNL A   1      20.192  33.782  44.496  1.00  0.00    +0.000 C 
BRANCH   38   37
ATOM    154  H49 UNL A   1      20.603  35.701  43.682  1.00  0.00    +0.000 H 
ATOM    155  H50 UNL A   1      20.753  35.564  45.457  1.00  0.00    +0.000 H 
ATOM     37  C30 UNL A   1      20.949  35.113  44.507  1.00  0.00    +0.000 C 
BRANCH   37   36
ATOM    153  H48 UNL A   1      22.672  34.483  43.473  1.00  0.00    +0.000 H 
ATOM     36  C29 UNL A   1      22.474  34.985  44.396  1.00  0.00    +0.000 C 
ATOM    152  H47 UNL A   1      22.827  34.445  45.249  1.00  0.00    +0.000 H 
BRANCH   36   35
ATOM     35  C28 UNL A   1      23.214  36.323  44.336  1.00  0.00    +0.000 C 
ATOM    150  H45 UNL A   1      23.378  36.577  43.310  1.00  0.00    +0.000 H 
ATOM    151  H46 UNL A   1      22.608  37.050  44.833  1.00  0.00    +0.000 H 
BRANCH   35   34
ATOM     34  C27 UNL A   1      24.565  36.285  45.049  1.00  0.00    +0.000 C 
ATOM    148  H43 UNL A   1      24.778  35.280  45.345  1.00  0.00    +0.000 H 
ATOM    149  H44 UNL A   1      25.317  36.644  44.379  1.00  0.00    +0.000 H 
BRANCH   34   33
ATOM     33  N3  UNL A   1      24.547  37.136  46.231  1.00  0.00    +0.000 N 
ATOM    147  H42 UNL A   1      23.752  37.711  46.314  1.00  0.00    +0.000 H 
BRANCH   33   31
ATOM     31  C26 UNL A   1      25.459  37.267  47.246  1.00  0.00    +0.000 C 
ATOM     32  O3  UNL A   1      25.198  36.730  48.327  1.00  0.00    +0.000 O 
BRANCH   31    5
ATOM    115  H10 UNL A   1      27.357  38.421  47.852  1.00  0.00    +0.000 H 
ATOM      5  C5  UNL A   1      26.772  38.050  47.036  1.00  0.00    +0.000 C 
BRANCH    5    4
ATOM    113  H8  UNL A   1      27.420  36.067  46.651  1.00  0.00    +0.000 H 
ATOM    114  H9  UNL A   1      27.847  37.363  45.411  1.00  0.00    +0.000 H 
ATOM      4  C4  UNL A   1      27.794  37.045  46.431  1.00  0.00    +0.000 C 
BRANCH    4    3
ATOM      3  C3  UNL A   1      29.265  37.042  46.842  1.00  0.00    +0.000 C 
ATOM    111  H6  UNL A   1      29.849  36.930  45.952  1.00  0.00    +0.000 H 
ATOM    112  H7  UNL A   1      29.409  37.965  47.364  1.00  0.00    +0.000 H 
BRANCH    3    2
ATOM      2  C2  UNL A   1      29.711  35.959  47.824  1.00  0.00    +0.000 C 
ATOM    109  H4  UNL A   1      29.385  36.235  48.805  1.00  0.00    +0.000 H 
ATOM    110  H5  UNL A   1      29.274  35.037  47.501  1.00  0.00    +0.000 H 
BRANCH    2    1
ATOM      1  C1  UNL A   1      31.215  35.762  47.852  1.00  0.00    +0.000 C 
ATOM    106  H1  UNL A   1      31.641  36.372  48.622  1.00  0.00    +0.000 H 
ATOM    107  H2  UNL A   1      31.629  36.041  46.907  1.00  0.00    +0.000 H 
ATOM    108  H3  UNL A   1      31.436  34.733  48.049  1.00  0.00    +0.000 H 
ENDBRANCH    2    1
ENDBRANCH    3    2
ENDBRANCH    4    3
ENDBRANCH    5    4
BRANCH    5    6
ATOM      6  S1  UNL A   1      26.174  39.607  46.173  1.00  0.00    +0.000 S 
BRANCH    6    7
ATOM    131  H26 UNL A   1      29.314  43.793  46.197  1.00  0.00    +0.000 H 
ATOM      7  C6  UNL A   1      27.218  40.881  46.794  1.00  0.00    +0.000 C 
ATOM      8  N1  UNL A   1      26.643  42.085  46.995  1.00  0.00    +0.000 N 
ATOM      9  C7  UNL A   1      27.448  43.145  46.888  1.00  0.00    +0.000 C 
ATOM     19  C16 UNL A   1      28.750  42.989  46.515  1.00  0.00    +0.000 C 
ATOM     20  C17 UNL A   1      29.282  41.736  46.577  1.00  0.00    +0.000 C 
ATOM     30  N2  UNL A   1      28.525  40.657  46.722  1.00  0.00    +0.000 N 
BRANCH    9   10
ATOM     10  O1  UNL A   1      26.884  44.363  47.191  1.00  0.00    +0.000 O 
BRANCH   10   11
ATOM     11  C8  UNL A   1      26.113  44.482  48.394  1.00  0.00    +0.000 C 
ATOM    116  H11 UNL A   1      26.415  45.383  48.885  1.00  0.00    +0.000 H 
ATOM    117  H12 UNL A   1      26.309  43.586  48.945  1.00  0.00    +0.000 H 
BRANCH   11   12
ATOM     12  C9  UNL A   1      24.569  44.530  48.230  1.00  0.00    +0.000 C 
ATOM    118  H13 UNL A   1      24.143  43.911  48.992  1.00  0.00    +0.000 H 
ATOM    119  H14 UNL A   1      24.384  44.200  47.229  1.00  0.00    +0.000 H 
BRANCH   12   13
ATOM    129  H24 UNL A   1      22.635  45.302  49.939  1.00  0.00    +0.000 H 
ATOM    130  H25 UNL A   1      21.824  45.404  48.395  1.00  0.00    +0.000 H 
ATOM     13  C10 UNL A   1      23.902  45.911  48.326  1.00  0.00    +0.000 C 
ATOM     14  C11 UNL A   1      23.743  46.637  46.981  1.00  0.00    +0.000 C 
ATOM     15  C12 UNL A   1      23.264  48.076  47.208  1.00  0.00    +0.000 C 
ATOM     16  C13 UNL A   1      22.042  48.181  48.122  1.00  0.00    +0.000 C 
ATOM     17  C14 UNL A   1      22.101  47.289  49.363  1.00  0.00    +0.000 C 
ATOM     18  C15 UNL A   1      22.548  45.867  49.034  1.00  0.00    +0.000 C 
ATOM    120  H15 UNL A   1      24.592  46.478  48.916  1.00  0.00    +0.000 H 
ATOM    121  H16 UNL A   1      23.024  46.116  46.382  1.00  0.00    +0.000 H 
ATOM    122  H17 UNL A   1      24.689  46.657  46.482  1.00  0.00    +0.000 H 
ATOM    123  H18 UNL A   1      23.013  48.503  46.259  1.00  0.00    +0.000 H 
ATOM    124  H19 UNL A   1      24.063  48.599  47.691  1.00  0.00    +0.000 H 
ATOM    125  H20 UNL A   1      21.176  47.909  47.557  1.00  0.00    +0.000 H 
ATOM    126  H21 UNL A   1      22.010  49.191  48.475  1.00  0.00    +0.000 H 
ATOM    127  H22 UNL A   1      21.128  47.251  49.806  1.00  0.00    +0.000 H 
ATOM    128  H23 UNL A   1      22.820  47.710  50.034  1.00  0.00    +0.000 H 
ENDBRANCH   12   13
ENDBRANCH   11   12
ENDBRANCH   10   11
ENDBRANCH    9   10
BRANCH   20   21
ATOM     21  O2  UNL A   1      30.572  41.489  46.194  1.00  0.00    +0.000 O 
BRANCH   21   22
ATOM    132  H27 UNL A   1      31.651  42.487  47.623  1.00  0.00    +0.000 H 
ATOM    133  H28 UNL A   1      31.166  43.450  46.250  1.00  0.00    +0.000 H 
ATOM     22  C18 UNL A   1      31.521  42.491  46.561  1.00  0.00    +0.000 C 
BRANCH   22   23
ATOM    135  H30 UNL A   1      33.503  41.710  46.593  1.00  0.00    +0.000 H 
ATOM    134  H29 UNL A   1      32.696  41.567  45.023  1.00  0.00    +0.000 H 
ATOM     23  C19 UNL A   1      32.874  42.191  45.873  1.00  0.00    +0.000 C 
BRANCH   23   24
ATOM    136  H31 UNL A   1      33.018  43.720  44.540  1.00  0.00    +0.000 H 
ATOM    137  H32 UNL A   1      34.388  44.397  47.165  1.00  0.00    +0.000 H 
ATOM    138  H33 UNL A   1      32.674  44.574  47.000  1.00  0.00    +0.000 H 
ATOM    139  H34 UNL A   1      33.704  46.696  46.430  1.00  0.00    +0.000 H 
ATOM    140  H35 UNL A   1      33.097  45.997  44.956  1.00  0.00    +0.000 H 
ATOM    141  H36 UNL A   1      35.921  46.005  45.965  1.00  0.00    +0.000 H 
ATOM    142  H37 UNL A   1      35.272  46.713  44.469  1.00  0.00    +0.000 H 
ATOM    143  H38 UNL A   1      36.648  44.560  44.314  1.00  0.00    +0.000 H 
ATOM    144  H39 UNL A   1      35.100  44.718  43.424  1.00  0.00    +0.000 H 
ATOM    145  H40 UNL A   1      35.136  42.521  44.254  1.00  0.00    +0.000 H 
ATOM    146  H41 UNL A   1      35.650  43.051  45.840  1.00  0.00    +0.000 H 
ATOM     24  C20 UNL A   1      33.598  43.464  45.403  1.00  0.00    +0.000 C 
ATOM     25  C21 UNL A   1      33.599  44.564  46.462  1.00  0.00    +0.000 C 
ATOM     26  C22 UNL A   1      33.817  45.886  45.740  1.00  0.00    +0.000 C 
ATOM     27  C23 UNL A   1      35.225  45.898  45.160  1.00  0.00    +0.000 C 
ATOM     28  C24 UNL A   1      35.581  44.623  44.375  1.00  0.00    +0.000 C 
ATOM     29  C25 UNL A   1      35.061  43.301  44.982  1.00  0.00    +0.000 C 
ENDBRANCH   23   24
ENDBRANCH   22   23
ENDBRANCH   21   22
ENDBRANCH   20   21
ENDBRANCH    6    7
ENDBRANCH    5    6
ENDBRANCH   31    5
ENDBRANCH   33   31
ENDBRANCH   34   33
ENDBRANCH   35   34
ENDBRANCH   36   35
ENDBRANCH   37   36
ENDBRANCH   38   37
ENDBRANCH   39   38
ENDBRANCH   40   39
ENDBRANCH   41   40
ENDBRANCH   43   41
ENDBRANCH   47   46
BRANCH   51   52
ATOM     52  C42 UNL A   1      30.825  29.269  50.906  1.00  0.00    +0.000 C 
ATOM     53  C43 UNL A   1      30.803  29.797  52.207  1.00  0.00    +0.000 C 
ATOM     54  F1  UNL A   1      30.969  31.114  52.403  1.00  0.00    +0.000 F 
ATOM     55  C44 UNL A   1      30.652  28.967  53.315  1.00  0.00    +0.000 C 
ATOM     56  F2  UNL A   1      30.686  29.489  54.549  1.00  0.00    +0.000 F 
ATOM     57  C45 UNL A   1      30.482  27.603  53.144  1.00  0.00    +0.000 C 
ATOM     58  F3  UNL A   1      30.328  26.806  54.212  1.00  0.00    +0.000 F 
ATOM     59  C46 UNL A   1      30.478  27.061  51.868  1.00  0.00    +0.000 C 
ATOM     60  F4  UNL A   1      30.300  25.743  51.701  1.00  0.00    +0.000 F 
ATOM     61  C47 UNL A   1      30.661  27.883  50.759  1.00  0.00    +0.000 C 
ATOM     62  F5  UNL A   1      30.670  27.326  49.538  1.00  0.00    +0.000 F 
ENDBRANCH   51   52
BRANCH   68   69
ATOM     69  C53 UNL A   1      36.129  32.013  46.865  1.00  0.00    +0.000 C 
ATOM     70  C54 UNL A   1      36.776  31.014  46.124  1.00  0.00    +0.000 C 
ATOM     71  F6  UNL A   1      36.061  30.070  45.494  1.00  0.00    +0.000 F 
ATOM     72  C55 UNL A   1      38.166  30.958  46.062  1.00  0.00    +0.000 C 
ATOM     73  F7  UNL A   1      38.764  29.963  45.391  1.00  0.00    +0.000 F 
ATOM     74  C56 UNL A   1      38.932  31.917  46.707  1.00  0.00    +0.000 C 
ATOM     75  F8  UNL A   1      40.269  31.863  46.641  1.00  0.00    +0.000 F 
ATOM     76  C57 UNL A   1      38.313  32.927  47.427  1.00  0.00    +0.000 C 
ATOM     77  F9  UNL A   1      39.050  33.864  48.037  1.00  0.00    +0.000 F 
ATOM     78  C58 UNL A   1      36.925  32.969  47.517  1.00  0.00    +0.000 C 
ATOM     79  F10 UNL A   1      36.355  33.949  48.233  1.00  0.00    +0.000 F 
ENDBRANCH   68   69
BRANCH   83   84
ATOM     84  C62 UNL A   1      31.399  35.296  42.947  1.00  0.00    +0.000 C 
ATOM     85  C63 UNL A   1      31.655  34.783  41.666  1.00  0.00    +0.000 C 
ATOM     86  F11 UNL A   1      31.812  33.462  41.493  1.00  0.00    +0.000 F 
ATOM     87  C64 UNL A   1      31.802  35.628  40.568  1.00  0.00    +0.000 C 
ATOM     88  F12 UNL A   1      32.103  35.116  39.367  1.00  0.00    +0.000 F 
ATOM     89  C65 UNL A   1      31.659  36.999  40.722  1.00  0.00    +0.000 C 
ATOM     90  F13 UNL A   1      31.803  37.812  39.666  1.00  0.00    +0.000 F 
ATOM     91  C66 UNL A   1      31.379  37.527  41.973  1.00  0.00    +0.000 C 
ATOM     92  F14 UNL A   1      31.228  38.850  42.122  1.00  0.00    +0.000 F 
ATOM     93  C67 UNL A   1      31.263  36.685  43.077  1.00  0.00    +0.000 C 
ATOM     94  F15 UNL A   1      31.010  37.226  44.278  1.00  0.00    +0.000 F 
ENDBRANCH   83   84
TORSDOF 29
ENDMDL
MODEL 10
REMARK VINA RESULT:      -6.2     55.867     62.344
ROOT
ATOM    163  H58 UNL A   1      23.316  -8.867  32.217  1.00  0.00    +0.000 H 
ATOM    164  H59 UNL A   1      24.985  -8.721  30.220  1.00  0.00    +0.000 H 
ATOM    165  H60 UNL A   1      26.194 -11.806  32.703  1.00  0.00    +0.000 H 
ATOM    166  H61 UNL A   1      30.404 -16.395  34.144  1.00  0.00    +0.000 H 
ATOM    167  H62 UNL A   1      28.741 -16.571  36.057  1.00  0.00    +0.000 H 
ATOM    168  H63 UNL A   1      27.480 -13.498  33.558  1.00  0.00    +0.000 H 
ATOM    169  H64 UNL A   1      30.756 -13.344  29.762  1.00  0.00    +0.000 H 
ATOM    170  H65 UNL A   1      29.497 -11.276  28.934  1.00  0.00    +0.000 H 
ATOM    171  H66 UNL A   1      22.838 -12.211  36.391  1.00  0.00    +0.000 H 
ATOM    172  H67 UNL A   1      24.384 -13.898  37.541  1.00  0.00    +0.000 H 
ATOM     47  C38 UNL A   1      26.634 -14.651  35.960  1.00  0.00    +0.000 C 
ATOM     48  C39 UNL A   1      25.611 -13.591  35.657  1.00  0.00    +0.000 C 
ATOM     49  N5  UNL A   1      25.526 -12.791  34.625  1.00  0.00    +0.000 N 
ATOM     50  C40 UNL A   1      24.372 -12.043  34.821  1.00  0.00    +0.000 C 
ATOM     51  C41 UNL A   1      23.887 -11.026  34.071  1.00  0.00    +0.000 C 
ATOM     63  C48 UNL A   1      24.521 -10.529  32.879  1.00  0.00    +0.000 C 
ATOM     64  C49 UNL A   1      24.133  -9.478  32.066  1.00  0.00    +0.000 C 
ATOM     65  C50 UNL A   1      25.039  -9.389  31.005  1.00  0.00    +0.000 C 
ATOM     66  C51 UNL A   1      26.022 -10.348  31.185  1.00  0.00    +0.000 C 
ATOM     67  N6  UNL A   1      25.685 -11.050  32.332  1.00  0.00    +0.000 N 
ATOM     68  C52 UNL A   1      27.185 -10.603  30.375  1.00  0.00    +0.000 C 
ATOM     80  C59 UNL A   1      28.091 -11.586  30.600  1.00  0.00    +0.000 C 
ATOM     81  N7  UNL A   1      28.132 -12.521  31.626  1.00  0.00    +0.000 N 
ATOM     82  C60 UNL A   1      29.193 -13.256  31.403  1.00  0.00    +0.000 C 
ATOM     83  C61 UNL A   1      29.756 -14.391  32.218  1.00  0.00    +0.000 C 
ATOM     95  C68 UNL A   1      29.136 -14.746  33.358  1.00  0.00    +0.000 C 
ATOM     96  C69 UNL A   1      29.565 -15.807  34.265  1.00  0.00    +0.000 C 
ATOM     97  C70 UNL A   1      28.692 -15.892  35.282  1.00  0.00    +0.000 C 
ATOM     98  C71 UNL A   1      27.660 -14.868  35.115  1.00  0.00    +0.000 C 
ATOM     99  N8  UNL A   1      28.001 -14.240  33.943  1.00  0.00    +0.000 N 
ATOM    100  C72 UNL A   1      29.926 -12.895  30.181  1.00  0.00    +0.000 C 
ATOM    101  C73 UNL A   1      29.242 -11.842  29.759  1.00  0.00    +0.000 C 
ATOM    102  C74 UNL A   1      23.754 -12.527  36.035  1.00  0.00    +0.000 C 
ATOM    103  C75 UNL A   1      24.518 -13.430  36.630  1.00  0.00    +0.000 C 
ENDROOT
BRANCH   47   46
ATOM    161  H56 UNL A   1      27.407 -15.658  40.403  1.00  0.00    +0.000 H 
ATOM    162  H57 UNL A   1      27.672 -14.268  38.431  1.00  0.00    +0.000 H 
ATOM    104  C76 UNL A   1      25.687 -16.641  37.126  1.00  0.00    +0.000 C 
ATOM    105  C77 UNL A   1      25.462 -17.384  38.278  1.00  0.00    +0.000 C 
ATOM     43  C34 UNL A   1      26.124 -17.050  39.464  1.00  0.00    +0.000 C 
ATOM     44  C35 UNL A   1      26.933 -15.913  39.522  1.00  0.00    +0.000 C 
ATOM     45  C36 UNL A   1      27.099 -15.125  38.384  1.00  0.00    +0.000 C 
ATOM    174  H69 UNL A   1      24.806 -18.181  38.261  1.00  0.00    +0.000 H 
ATOM    173  H68 UNL A   1      25.264 -16.937  36.231  1.00  0.00    +0.000 H 
ATOM     46  C37 UNL A   1      26.488 -15.491  37.173  1.00  0.00    +0.000 C 
BRANCH   43   41
ATOM     41  C33 UNL A   1      25.950 -17.864  40.684  1.00  0.00    +0.000 C 
ATOM     42  O4  UNL A   1      26.110 -17.353  41.790  1.00  0.00    +0.000 O 
BRANCH   41   40
ATOM    160  H55 UNL A   1      26.233 -19.748  40.069  1.00  0.00    +0.000 H 
ATOM     40  N4  UNL A   1      25.607 -19.184  40.579  1.00  0.00    +0.000 N 
BRANCH   40   39
ATOM    159  H54 UNL A   1      24.237 -19.468  42.087  1.00  0.00    +0.000 H 
ATOM    158  H53 UNL A   1      24.653 -20.917  41.174  1.00  0.00    +0.000 H 
ATOM     39  C32 UNL A   1      24.443 -19.870  41.117  1.00  0.00    +0.000 C 
BRANCH   39   38
ATOM    156  H51 UNL A   1      22.375 -20.115  40.729  1.00  0.00    +0.000 H 
ATOM    157  H52 UNL A   1      23.096 -18.604  40.124  1.00  0.00    +0.000 H 
ATOM     38  C31 UNL A   1      23.212 -19.660  40.244  1.00  0.00    +0.000 C 
BRANCH   38   37
ATOM    154  H49 UNL A   1      24.140 -19.758  38.335  1.00  0.00    +0.000 H 
ATOM    155  H50 UNL A   1      23.498 -21.302  38.965  1.00  0.00    +0.000 H 
ATOM     37  C30 UNL A   1      23.334 -20.253  38.837  1.00  0.00    +0.000 C 
BRANCH   37   36
ATOM    153  H48 UNL A   1      21.356 -19.586  38.559  1.00  0.00    +0.000 H 
ATOM     36  C29 UNL A   1      22.076 -20.114  37.970  1.00  0.00    +0.000 C 
ATOM    152  H47 UNL A   1      21.750 -21.095  37.694  1.00  0.00    +0.000 H 
BRANCH   36   35
ATOM     35  C28 UNL A   1      22.280 -19.299  36.691  1.00  0.00    +0.000 C 
ATOM    150  H45 UNL A   1      21.476 -19.512  36.019  1.00  0.00    +0.000 H 
ATOM    151  H46 UNL A   1      22.303 -18.266  36.968  1.00  0.00    +0.000 H 
BRANCH   35   34
ATOM     34  C27 UNL A   1      23.599 -19.617  35.990  1.00  0.00    +0.000 C 
ATOM    148  H43 UNL A   1      24.410 -19.250  36.583  1.00  0.00    +0.000 H 
ATOM    149  H44 UNL A   1      23.677 -20.677  35.868  1.00  0.00    +0.000 H 
BRANCH   34   33
ATOM     33  N3  UNL A   1      23.648 -18.990  34.676  1.00  0.00    +0.000 N 
ATOM    147  H42 UNL A   1      24.520 -19.051  34.223  1.00  0.00    +0.000 H 
BRANCH   33   31
ATOM     31  C26 UNL A   1      22.677 -18.329  33.970  1.00  0.00    +0.000 C 
ATOM     32  O3  UNL A   1      21.978 -18.989  33.196  1.00  0.00    +0.000 O 
BRANCH   31    5
ATOM    115  H10 UNL A   1      22.108 -16.385  35.064  1.00  0.00    +0.000 H 
ATOM      5  C5  UNL A   1      22.462 -16.811  34.149  1.00  0.00    +0.000 C 
BRANCH    5    4
ATOM    113  H8  UNL A   1      23.811 -15.263  34.682  1.00  0.00    +0.000 H 
ATOM    114  H9  UNL A   1      24.505 -16.953  34.423  1.00  0.00    +0.000 H 
ATOM      4  C4  UNL A   1      23.872 -16.155  34.094  1.00  0.00    +0.000 C 
BRANCH    4    3
ATOM      3  C3  UNL A   1      24.525 -15.752  32.773  1.00  0.00    +0.000 C 
ATOM    111  H6  UNL A   1      23.763 -15.755  32.022  1.00  0.00    +0.000 H 
ATOM    112  H7  UNL A   1      24.969 -14.797  32.963  1.00  0.00    +0.000 H 
BRANCH    3    2
ATOM      2  C2  UNL A   1      25.672 -16.627  32.269  1.00  0.00    +0.000 C 
ATOM    109  H4  UNL A   1      26.322 -16.843  33.091  1.00  0.00    +0.000 H 
ATOM    110  H5  UNL A   1      25.238 -17.515  31.857  1.00  0.00    +0.000 H 
BRANCH    2    1
ATOM      1  C1  UNL A   1      26.485 -15.969  31.170  1.00  0.00    +0.000 C 
ATOM    106  H1  UNL A   1      27.473 -16.382  31.161  1.00  0.00    +0.000 H 
ATOM    107  H2  UNL A   1      26.540 -14.917  31.348  1.00  0.00    +0.000 H 
ATOM    108  H3  UNL A   1      26.017 -16.148  30.224  1.00  0.00    +0.000 H 
ENDBRANCH    2    1
ENDBRANCH    3    2
ENDBRANCH    4    3
ENDBRANCH    5    4
BRANCH    5    6
ATOM      6  S1  UNL A   1      21.078 -16.458  32.929  1.00  0.00    +0.000 S 
BRANCH    6    7
ATOM    131  H26 UNL A   1      17.884 -13.314  35.630  1.00  0.00    +0.000 H 
ATOM      7  C6  UNL A   1      20.340 -14.975  33.522  1.00  0.00    +0.000 C 
ATOM      8  N1  UNL A   1      20.782 -14.515  34.711  1.00  0.00    +0.000 N 
ATOM      9  C7  UNL A   1      19.908 -13.806  35.429  1.00  0.00    +0.000 C 
ATOM     19  C16 UNL A   1      18.626 -13.644  34.993  1.00  0.00    +0.000 C 
ATOM     20  C17 UNL A   1      18.358 -13.932  33.689  1.00  0.00    +0.000 C 
ATOM     30  N2  UNL A   1      19.213 -14.600  32.926  1.00  0.00    +0.000 N 
BRANCH    9   10
ATOM     10  O1  UNL A   1      20.392 -13.255  36.593  1.00  0.00    +0.000 O 
BRANCH   10   11
ATOM     11  C8  UNL A   1      19.924 -13.774  37.846  1.00  0.00    +0.000 C 
ATOM    116  H11 UNL A   1      18.858 -13.838  37.791  1.00  0.00    +0.000 H 
ATOM    117  H12 UNL A   1      20.294 -13.097  38.587  1.00  0.00    +0.000 H 
BRANCH   11   12
ATOM     12  C9  UNL A   1      20.460 -15.170  38.265  1.00  0.00    +0.000 C 
ATOM    118  H13 UNL A   1      20.682 -15.713  37.370  1.00  0.00    +0.000 H 
ATOM    119  H14 UNL A   1      19.686 -15.597  38.868  1.00  0.00    +0.000 H 
BRANCH   12   13
ATOM    129  H24 UNL A   1      21.002 -16.854  40.295  1.00  0.00    +0.000 H 
ATOM    130  H25 UNL A   1      20.881 -15.317  41.115  1.00  0.00    +0.000 H 
ATOM     13  C10 UNL A   1      21.717 -15.195  39.149  1.00  0.00    +0.000 C 
ATOM     14  C11 UNL A   1      22.327 -13.813  39.428  1.00  0.00    +0.000 C 
ATOM     15  C12 UNL A   1      23.680 -13.964  40.136  1.00  0.00    +0.000 C 
ATOM     16  C13 UNL A   1      23.636 -14.885  41.357  1.00  0.00    +0.000 C 
ATOM     17  C14 UNL A   1      22.838 -16.173  41.149  1.00  0.00    +0.000 C 
ATOM     18  C15 UNL A   1      21.492 -15.920  40.476  1.00  0.00    +0.000 C 
ATOM    120  H15 UNL A   1      22.421 -15.745  38.560  1.00  0.00    +0.000 H 
ATOM    121  H16 UNL A   1      21.663 -13.253  40.052  1.00  0.00    +0.000 H 
ATOM    122  H17 UNL A   1      22.474 -13.303  38.499  1.00  0.00    +0.000 H 
ATOM    123  H18 UNL A   1      24.004 -12.995  40.456  1.00  0.00    +0.000 H 
ATOM    124  H19 UNL A   1      24.353 -14.408  39.433  1.00  0.00    +0.000 H 
ATOM    125  H20 UNL A   1      23.193 -14.345  42.168  1.00  0.00    +0.000 H 
ATOM    126  H21 UNL A   1      24.645 -15.180  41.554  1.00  0.00    +0.000 H 
ATOM    127  H22 UNL A   1      22.667 -16.629  42.102  1.00  0.00    +0.000 H 
ATOM    128  H23 UNL A   1      23.409 -16.811  40.508  1.00  0.00    +0.000 H 
ENDBRANCH   12   13
ENDBRANCH   11   12
ENDBRANCH   10   11
ENDBRANCH    9   10
BRANCH   20   21
ATOM     21  O2  UNL A   1      17.094 -13.823  33.180  1.00  0.00    +0.000 O 
BRANCH   21   22
ATOM    132  H27 UNL A   1      16.822 -15.704  32.409  1.00  0.00    +0.000 H 
ATOM    133  H28 UNL A   1      17.531 -14.546  31.311  1.00  0.00    +0.000 H 
ATOM     22  C18 UNL A   1      16.801 -14.686  32.080  1.00  0.00    +0.000 C 
BRANCH   22   23
ATOM    135  H30 UNL A   1      14.841 -13.885  32.313  1.00  0.00    +0.000 H 
ATOM    134  H29 UNL A   1      15.505 -13.704  30.681  1.00  0.00    +0.000 H 
ATOM     23  C19 UNL A   1      15.395 -14.351  31.526  1.00  0.00    +0.000 C 
BRANCH   23   24
ATOM    136  H31 UNL A   1      14.958 -16.316  31.807  1.00  0.00    +0.000 H 
ATOM    137  H32 UNL A   1      12.772 -14.901  30.245  1.00  0.00    +0.000 H 
ATOM    138  H33 UNL A   1      12.827 -14.790  31.972  1.00  0.00    +0.000 H 
ATOM    139  H34 UNL A   1      11.408 -16.671  31.388  1.00  0.00    +0.000 H 
ATOM    140  H35 UNL A   1      12.883 -17.315  32.053  1.00  0.00    +0.000 H 
ATOM    141  H36 UNL A   1      12.112 -17.085  29.164  1.00  0.00    +0.000 H 
ATOM    142  H37 UNL A   1      12.474 -18.549  30.107  1.00  0.00    +0.000 H 
ATOM    143  H38 UNL A   1      14.212 -17.707  28.425  1.00  0.00    +0.000 H 
ATOM    144  H39 UNL A   1      14.704 -18.193  30.078  1.00  0.00    +0.000 H 
ATOM    145  H40 UNL A   1      15.967 -16.277  29.574  1.00  0.00    +0.000 H 
ATOM    146  H41 UNL A   1      14.567 -15.429  28.958  1.00  0.00    +0.000 H 
ATOM     24  C20 UNL A   1      14.614 -15.602  31.088  1.00  0.00    +0.000 C 
ATOM     25  C21 UNL A   1      13.102 -15.396  31.134  1.00  0.00    +0.000 C 
ATOM     26  C22 UNL A   1      12.462 -16.774  31.231  1.00  0.00    +0.000 C 
ATOM     27  C23 UNL A   1      12.717 -17.522  29.930  1.00  0.00    +0.000 C 
ATOM     28  C24 UNL A   1      14.186 -17.481  29.471  1.00  0.00    +0.000 C 
ATOM     29  C25 UNL A   1      14.912 -16.135  29.683  1.00  0.00    +0.000 C 
ENDBRANCH   23   24
ENDBRANCH   22   23
ENDBRANCH   21   22
ENDBRANCH   20   21
ENDBRANCH    6    7
ENDBRANCH    5    6
ENDBRANCH   31    5
ENDBRANCH   33   31
ENDBRANCH   34   33
ENDBRANCH   35   34
ENDBRANCH   36   35
ENDBRANCH   37   36
ENDBRANCH   38   37
ENDBRANCH   39   38
ENDBRANCH   40   39
ENDBRANCH   41   40
ENDBRANCH   43   41
ENDBRANCH   47   46
BRANCH   51   52
ATOM     52  C42 UNL A   1      22.612 -10.375  34.526  1.00  0.00    +0.000 C 
ATOM     53  C43 UNL A   1      21.362 -10.787  34.037  1.00  0.00    +0.000 C 
ATOM     54  F1  UNL A   1      21.285 -11.753  33.110  1.00  0.00    +0.000 F 
ATOM     55  C44 UNL A   1      20.186 -10.179  34.471  1.00  0.00    +0.000 C 
ATOM     56  F2  UNL A   1      19.009 -10.555  33.952  1.00  0.00    +0.000 F 
ATOM     57  C45 UNL A   1      20.233  -9.176  35.426  1.00  0.00    +0.000 C 
ATOM     58  F3  UNL A   1      19.100  -8.597  35.849  1.00  0.00    +0.000 F 
ATOM     59  C46 UNL A   1      21.455  -8.767  35.939  1.00  0.00    +0.000 C 
ATOM     60  F4  UNL A   1      21.501  -7.806  36.873  1.00  0.00    +0.000 F 
ATOM     61  C47 UNL A   1      22.635  -9.350  35.484  1.00  0.00    +0.000 C 
ATOM     62  F5  UNL A   1      23.802  -8.920  35.988  1.00  0.00    +0.000 F 
ENDBRANCH   51   52
BRANCH   68   69
ATOM     69  C53 UNL A   1      27.433  -9.693  29.208  1.00  0.00    +0.000 C 
ATOM     70  C54 UNL A   1      26.883  -9.944  27.943  1.00  0.00    +0.000 C 
ATOM     71  F6  UNL A   1      26.147 -11.045  27.732  1.00  0.00    +0.000 F 
ATOM     72  C55 UNL A   1      27.124  -9.083  26.875  1.00  0.00    +0.000 C 
ATOM     73  F7  UNL A   1      26.633  -9.370  25.662  1.00  0.00    +0.000 F 
ATOM     74  C56 UNL A   1      27.886  -7.939  27.060  1.00  0.00    +0.000 C 
ATOM     75  F8  UNL A   1      28.112  -7.109  26.033  1.00  0.00    +0.000 F 
ATOM     76  C57 UNL A   1      28.421  -7.659  28.309  1.00  0.00    +0.000 C 
ATOM     77  F9  UNL A   1      29.144  -6.547  28.494  1.00  0.00    +0.000 F 
ATOM     78  C58 UNL A   1      28.208  -8.534  29.370  1.00  0.00    +0.000 C 
ATOM     79  F10 UNL A   1      28.751  -8.244  30.562  1.00  0.00    +0.000 F 
ENDBRANCH   68   69
BRANCH   83   84
ATOM     84  C62 UNL A   1      30.997 -15.090  31.793  1.00  0.00    +0.000 C 
ATOM     85  C63 UNL A   1      30.939 -16.206  30.945  1.00  0.00    +0.000 C 
ATOM     86  F11 UNL A   1      29.752 -16.653  30.507  1.00  0.00    +0.000 F 
ATOM     87  C64 UNL A   1      32.093 -16.897  30.584  1.00  0.00    +0.000 C 
ATOM     88  F12 UNL A   1      32.003 -17.993  29.818  1.00  0.00    +0.000 F 
ATOM     89  C65 UNL A   1      33.332 -16.465  31.034  1.00  0.00    +0.000 C 
ATOM     90  F13 UNL A   1      34.441 -17.132  30.689  1.00  0.00    +0.000 F 
ATOM     91  C66 UNL A   1      33.416 -15.349  31.852  1.00  0.00    +0.000 C 
ATOM     92  F14 UNL A   1      34.613 -14.921  32.278  1.00  0.00    +0.000 F 
ATOM     93  C67 UNL A   1      32.260 -14.675  32.239  1.00  0.00    +0.000 C 
ATOM     94  F15 UNL A   1      32.371 -13.610  33.046  1.00  0.00    +0.000 F 
ENDBRANCH   83   84
TORSDOF 29
ENDMDL
