MODEL 1
REMARK VINA RESULT:     -12.1      0.000      0.000
ROOT
ATOM    129  H33 UNL A   1       0.966  13.117  37.678  1.00  0.00    +0.000 H 
ATOM     25  C20 UNL A   1       3.054  11.259  38.233  1.00  0.00    +0.000 C 
ATOM     26  C21 UNL A   1       1.708  10.974  37.627  1.00  0.00    +0.000 C 
ATOM     27  N3  UNL A   1       1.205   9.834  37.223  1.00  0.00    +0.000 N 
ATOM     28  C22 UNL A   1      -0.081  10.121  36.789  1.00  0.00    +0.000 C 
ATOM     29  C23 UNL A   1      -0.989   9.287  36.228  1.00  0.00    +0.000 C 
ATOM     41  C30 UNL A   1      -0.757   7.890  35.970  1.00  0.00    +0.000 C 
ATOM     42  C31 UNL A   1      -1.588   6.977  35.343  1.00  0.00    +0.000 C 
ATOM     43  C32 UNL A   1      -0.958   5.728  35.360  1.00  0.00    +0.000 C 
ATOM     44  C33 UNL A   1       0.284   5.871  35.956  1.00  0.00    +0.000 C 
ATOM     45  N4  UNL A   1       0.394   7.202  36.328  1.00  0.00    +0.000 N 
ATOM     46  C34 UNL A   1       1.297   4.870  36.172  1.00  0.00    +0.000 C 
ATOM     58  C41 UNL A   1       2.503   5.096  36.749  1.00  0.00    +0.000 C 
ATOM     59  N5  UNL A   1       3.024   6.284  37.246  1.00  0.00    +0.000 N 
ATOM     60  C42 UNL A   1       4.211   5.988  37.715  1.00  0.00    +0.000 C 
ATOM     61  C43 UNL A   1       5.234   6.891  38.347  1.00  0.00    +0.000 C 
ATOM     73  C50 UNL A   1       4.968   8.205  38.465  1.00  0.00    +0.000 C 
ATOM     74  C51 UNL A   1       5.864   9.202  39.046  1.00  0.00    +0.000 C 
ATOM     75  C52 UNL A   1       5.255  10.398  39.035  1.00  0.00    +0.000 C 
ATOM     76  C53 UNL A   1       3.937  10.258  38.414  1.00  0.00    +0.000 C 
ATOM     77  N6  UNL A   1       3.855   8.924  38.103  1.00  0.00    +0.000 N 
ATOM     78  C54 UNL A   1       4.569   4.568  37.590  1.00  0.00    +0.000 C 
ATOM     79  C55 UNL A   1       3.510   4.078  36.960  1.00  0.00    +0.000 C 
ATOM     80  C56 UNL A   1      -0.301  11.532  37.022  1.00  0.00    +0.000 C 
ATOM     81  C57 UNL A   1       0.796  12.119  37.478  1.00  0.00    +0.000 C 
ATOM    120  H24 UNL A   1      -2.514   7.183  34.935  1.00  0.00    +0.000 H 
ATOM    121  H25 UNL A   1      -1.353   4.848  34.990  1.00  0.00    +0.000 H 
ATOM    122  H26 UNL A   1       1.172   7.600  36.780  1.00  0.00    +0.000 H 
ATOM    123  H27 UNL A   1       6.813   9.015  39.408  1.00  0.00    +0.000 H 
ATOM    124  H28 UNL A   1       5.653  11.275  39.405  1.00  0.00    +0.000 H 
ATOM    125  H29 UNL A   1       3.073   8.520  37.663  1.00  0.00    +0.000 H 
ATOM    126  H30 UNL A   1       5.420   4.080  37.909  1.00  0.00    +0.000 H 
ATOM    127  H31 UNL A   1       3.416   3.095  36.659  1.00  0.00    +0.000 H 
ATOM    128  H32 UNL A   1      -1.196  12.018  36.855  1.00  0.00    +0.000 H 
ENDROOT
BRANCH   25   24
ATOM    130  H34 UNL A   1       2.824  12.275  40.703  1.00  0.00    +0.000 H 
ATOM    131  H35 UNL A   1       3.302  14.526  41.467  1.00  0.00    +0.000 H 
ATOM     82  C58 UNL A   1       3.200  12.974  40.043  1.00  0.00    +0.000 C 
ATOM     83  C59 UNL A   1       3.511  14.254  40.494  1.00  0.00    +0.000 C 
ATOM     21  C16 UNL A   1       4.110  15.173  39.626  1.00  0.00    +0.000 C 
ATOM     22  C17 UNL A   1       4.281  14.849  38.276  1.00  0.00    +0.000 C 
ATOM    118  H22 UNL A   1       4.683  15.542  37.625  1.00  0.00    +0.000 H 
ATOM     23  C18 UNL A   1       3.909  13.587  37.811  1.00  0.00    +0.000 C 
ATOM    119  H23 UNL A   1       4.012  13.357  36.810  1.00  0.00    +0.000 H 
ATOM     24  C19 UNL A   1       3.392  12.628  38.697  1.00  0.00    +0.000 C 
BRANCH   21   19
ATOM     19  C15 UNL A   1       4.544  16.505  40.100  1.00  0.00    +0.000 C 
ATOM     20  O3  UNL A   1       3.729  17.420  40.165  1.00  0.00    +0.000 O 
BRANCH   19   18
ATOM     18  N2  UNL A   1       5.852  16.722  40.452  1.00  0.00    +0.000 N 
ATOM    117  H21 UNL A   1       6.077  17.653  40.677  1.00  0.00    +0.000 H 
BRANCH   18   17
ATOM     17  C14 UNL A   1       6.956  15.777  40.540  1.00  0.00    +0.000 C 
ATOM    115  H19 UNL A   1       7.154  15.577  41.573  1.00  0.00    +0.000 H 
ATOM    116  H20 UNL A   1       6.668  14.888  40.018  1.00  0.00    +0.000 H 
BRANCH   17   16
ATOM    113  H17 UNL A   1       8.934  15.511  39.835  1.00  0.00    +0.000 H 
ATOM    114  H18 UNL A   1       7.940  16.689  38.932  1.00  0.00    +0.000 H 
ATOM     16  C13 UNL A   1       8.228  16.312  39.891  1.00  0.00    +0.000 C 
BRANCH   16   15
ATOM    111  H15 UNL A   1       8.270  18.342  40.504  1.00  0.00    +0.000 H 
ATOM     15  C12 UNL A   1       8.888  17.478  40.631  1.00  0.00    +0.000 C 
ATOM    112  H16 UNL A   1       8.984  17.165  41.650  1.00  0.00    +0.000 H 
BRANCH   15   14
ATOM    110  H14 UNL A   1      10.247  17.928  39.099  1.00  0.00    +0.000 H 
ATOM    109  H13 UNL A   1      10.965  17.062  40.493  1.00  0.00    +0.000 H 
ATOM     14  C11 UNL A   1      10.303  17.836  40.163  1.00  0.00    +0.000 C 
BRANCH   14   13
ATOM    107  H11 UNL A   1      10.626  19.929  39.949  1.00  0.00    +0.000 H 
ATOM    108  H12 UNL A   1      10.382  19.357  41.620  1.00  0.00    +0.000 H 
ATOM     13  C10 UNL A   1      10.850  19.175  40.675  1.00  0.00    +0.000 C 
BRANCH   13   12
ATOM    105  H9  UNL A   1      12.542  18.864  41.928  1.00  0.00    +0.000 H 
ATOM    106  H10 UNL A   1      12.811  18.517  40.218  1.00  0.00    +0.000 H 
ATOM     12  C9  UNL A   1      12.357  19.181  40.923  1.00  0.00    +0.000 C 
BRANCH   12   11
ATOM     11  N1  UNL A   1      12.933  20.494  40.734  1.00  0.00    +0.000 N 
ATOM    104  H8  UNL A   1      13.097  20.746  39.797  1.00  0.00    +0.000 H 
BRANCH   11    9
ATOM      9  C8  UNL A   1      13.282  21.437  41.657  1.00  0.00    +0.000 C 
ATOM     10  O2  UNL A   1      12.442  21.701  42.523  1.00  0.00    +0.000 O 
BRANCH    9    8
ATOM    102  H6  UNL A   1      14.836  22.575  42.525  1.00  0.00    +0.000 H 
ATOM    103  H7  UNL A   1      15.286  21.562  41.108  1.00  0.00    +0.000 H 
ATOM      8  C7  UNL A   1      14.576  22.233  41.545  1.00  0.00    +0.000 C 
BRANCH    8    7
ATOM      3  C2  UNL A   1      14.832  23.970  36.460  1.00  0.00    +0.000 C 
ATOM    100  H4  UNL A   1      14.978  21.886  36.205  1.00  0.00    +0.000 H 
ATOM      4  C3  UNL A   1      14.873  22.647  36.893  1.00  0.00    +0.000 C 
ATOM      5  C4  UNL A   1      14.775  22.345  38.257  1.00  0.00    +0.000 C 
ATOM    101  H5  UNL A   1      14.796  21.363  38.571  1.00  0.00    +0.000 H 
ATOM      6  C5  UNL A   1      14.645  23.387  39.200  1.00  0.00    +0.000 C 
ATOM      7  C6  UNL A   1      14.546  23.434  40.633  1.00  0.00    +0.000 C 
ATOM    138  H42 UNL A   1      14.515  26.495  39.804  1.00  0.00    +0.000 H 
ATOM    139  H43 UNL A   1      14.749  26.005  37.064  1.00  0.00    +0.000 H 
ATOM     84  C60 UNL A   1      14.354  24.770  40.990  1.00  0.00    +0.000 C 
ATOM     94  N8  UNL A   1      14.503  25.510  39.835  1.00  0.00    +0.000 N 
ATOM     95  C68 UNL A   1      14.631  24.697  38.737  1.00  0.00    +0.000 C 
ATOM     96  C69 UNL A   1      14.739  25.021  37.378  1.00  0.00    +0.000 C 
BRANCH    3    2
ATOM      2  O1  UNL A   1      14.931  24.338  35.144  1.00  0.00    +0.000 O 
BRANCH    2    1
ATOM      1  C1  UNL A   1      16.129  23.891  34.511  1.00  0.00    +0.000 C 
ATOM     98  H2  UNL A   1      16.725  24.737  34.238  1.00  0.00    +0.000 H 
ATOM     99  H3  UNL A   1      15.882  23.330  33.635  1.00  0.00    +0.000 H 
ATOM     97  H1  UNL A   1      16.680  23.272  35.188  1.00  0.00    +0.000 H 
ENDBRANCH    2    1
ENDBRANCH    3    2
BRANCH   84   85
ATOM     85  C61 UNL A   1      14.076  25.319  42.314  1.00  0.00    +0.000 C 
ATOM     86  O4  UNL A   1      13.023  25.123  42.915  1.00  0.00    +0.000 O 
BRANCH   85   87
ATOM    132  H36 UNL A   1      14.489  27.954  41.924  1.00  0.00    +0.000 H 
ATOM    136  H40 UNL A   1      17.574  28.361  44.767  1.00  0.00    +0.000 H 
ATOM    137  H41 UNL A   1      17.363  26.020  45.245  1.00  0.00    +0.000 H 
ATOM     87  C62 UNL A   1      15.080  26.208  42.961  1.00  0.00    +0.000 C 
ATOM     88  C63 UNL A   1      15.128  27.560  42.632  1.00  0.00    +0.000 C 
ATOM     89  C64 UNL A   1      16.064  28.367  43.283  1.00  0.00    +0.000 C 
ATOM     91  C66 UNL A   1      16.884  27.788  44.255  1.00  0.00    +0.000 C 
ATOM     92  C67 UNL A   1      16.758  26.433  44.518  1.00  0.00    +0.000 C 
ATOM     93  N7  UNL A   1      15.889  25.625  43.881  1.00  0.00    +0.000 N 
BRANCH   89   90
ATOM     90  C65 UNL A   1      16.175  29.831  42.980  1.00  0.00    +0.000 C 
ATOM    133  H37 UNL A   1      17.186  30.150  43.127  1.00  0.00    +0.000 H 
ATOM    134  H38 UNL A   1      15.530  30.380  43.632  1.00  0.00    +0.000 H 
ATOM    135  H39 UNL A   1      15.890  30.008  41.964  1.00  0.00    +0.000 H 
ENDBRANCH   89   90
ENDBRANCH   85   87
ENDBRANCH   84   85
ENDBRANCH    8    7
ENDBRANCH    9    8
ENDBRANCH   11    9
ENDBRANCH   12   11
ENDBRANCH   13   12
ENDBRANCH   14   13
ENDBRANCH   15   14
ENDBRANCH   16   15
ENDBRANCH   17   16
ENDBRANCH   18   17
ENDBRANCH   19   18
ENDBRANCH   21   19
ENDBRANCH   25   24
BRANCH   29   30
ATOM     33  C26 UNL A   1      -3.878  10.693  34.170  1.00  0.00    +0.000 C 
ATOM     34  F2  UNL A   1      -4.142  11.012  32.895  1.00  0.00    +0.000 F 
ATOM     35  C27 UNL A   1      -4.837  10.906  35.150  1.00  0.00    +0.000 C 
ATOM     36  F3  UNL A   1      -6.033  11.411  34.819  1.00  0.00    +0.000 F 
ATOM     37  C28 UNL A   1      -4.553  10.601  36.472  1.00  0.00    +0.000 C 
ATOM     38  F4  UNL A   1      -5.483  10.795  37.417  1.00  0.00    +0.000 F 
ATOM     39  C29 UNL A   1      -3.302  10.097  36.820  1.00  0.00    +0.000 C 
ATOM     40  F5  UNL A   1      -3.053   9.826  38.110  1.00  0.00    +0.000 F 
ATOM     30  C24 UNL A   1      -2.320   9.866  35.846  1.00  0.00    +0.000 C 
ATOM     31  C25 UNL A   1      -2.637  10.162  34.511  1.00  0.00    +0.000 C 
ATOM     32  F1  UNL A   1      -1.729   9.970  33.542  1.00  0.00    +0.000 F 
ENDBRANCH   29   30
BRANCH   46   47
ATOM     47  C35 UNL A   1       1.012   3.473  35.706  1.00  0.00    +0.000 C 
ATOM     48  C36 UNL A   1       0.398   2.531  36.544  1.00  0.00    +0.000 C 
ATOM     49  F6  UNL A   1       0.094   2.851  37.811  1.00  0.00    +0.000 F 
ATOM     50  C37 UNL A   1       0.132   1.240  36.095  1.00  0.00    +0.000 C 
ATOM     51  F7  UNL A   1      -0.414   0.343  36.926  1.00  0.00    +0.000 F 
ATOM     52  C38 UNL A   1       0.441   0.879  34.791  1.00  0.00    +0.000 C 
ATOM     53  F8  UNL A   1       0.178  -0.362  34.359  1.00  0.00    +0.000 F 
ATOM     54  C39 UNL A   1       1.032   1.801  33.940  1.00  0.00    +0.000 C 
ATOM     55  F9  UNL A   1       1.321   1.457  32.678  1.00  0.00    +0.000 F 
ATOM     56  C40 UNL A   1       1.326   3.083  34.395  1.00  0.00    +0.000 C 
ATOM     57  F10 UNL A   1       1.909   3.949  33.552  1.00  0.00    +0.000 F 
ENDBRANCH   46   47
BRANCH   61   62
ATOM     65  C46 UNL A   1       8.952   6.165  38.568  1.00  0.00    +0.000 C 
ATOM     66  F12 UNL A   1      10.068   6.458  37.886  1.00  0.00    +0.000 F 
ATOM     67  C47 UNL A   1       9.013   5.340  39.681  1.00  0.00    +0.000 C 
ATOM     68  F13 UNL A   1      10.192   4.848  40.087  1.00  0.00    +0.000 F 
ATOM     69  C48 UNL A   1       7.852   5.019  40.367  1.00  0.00    +0.000 C 
ATOM     70  F14 UNL A   1       7.910   4.232  41.450  1.00  0.00    +0.000 F 
ATOM     71  C49 UNL A   1       6.623   5.511  39.931  1.00  0.00    +0.000 C 
ATOM     72  F15 UNL A   1       5.515   5.174  40.605  1.00  0.00    +0.000 F 
ATOM     62  C44 UNL A   1       6.537   6.354  38.815  1.00  0.00    +0.000 C 
ATOM     63  C45 UNL A   1       7.727   6.680  38.147  1.00  0.00    +0.000 C 
ATOM     64  F11 UNL A   1       7.692   7.466  37.061  1.00  0.00    +0.000 F 
ENDBRANCH   61   62
TORSDOF 21
ENDMDL
MODEL 2
REMARK VINA RESULT:     -12.0     33.531     40.601
ROOT
ATOM    129  H33 UNL A   1      38.128  28.825  27.408  1.00  0.00    +0.000 H 
ATOM     25  C20 UNL A   1      38.075  30.078  29.966  1.00  0.00    +0.000 C 
ATOM     26  C21 UNL A   1      39.149  29.191  29.400  1.00  0.00    +0.000 C 
ATOM     27  N3  UNL A   1      40.278  28.806  29.941  1.00  0.00    +0.000 N 
ATOM     28  C22 UNL A   1      40.873  27.962  29.014  1.00  0.00    +0.000 C 
ATOM     29  C23 UNL A   1      42.081  27.353  29.080  1.00  0.00    +0.000 C 
ATOM     41  C30 UNL A   1      42.999  27.489  30.181  1.00  0.00    +0.000 C 
ATOM     42  C31 UNL A   1      44.275  26.965  30.312  1.00  0.00    +0.000 C 
ATOM     43  C32 UNL A   1      44.768  27.325  31.570  1.00  0.00    +0.000 C 
ATOM     44  C33 UNL A   1      43.819  28.109  32.206  1.00  0.00    +0.000 C 
ATOM     45  N4  UNL A   1      42.738  28.199  31.343  1.00  0.00    +0.000 N 
ATOM     46  C34 UNL A   1      43.891  28.730  33.503  1.00  0.00    +0.000 C 
ATOM     58  C41 UNL A   1      42.921  29.504  34.050  1.00  0.00    +0.000 C 
ATOM     59  N5  UNL A   1      41.689  29.864  33.518  1.00  0.00    +0.000 N 
ATOM     60  C42 UNL A   1      41.107  30.604  34.430  1.00  0.00    +0.000 C 
ATOM     61  C43 UNL A   1      39.768  31.286  34.384  1.00  0.00    +0.000 C 
ATOM     73  C50 UNL A   1      39.012  31.181  33.275  1.00  0.00    +0.000 C 
ATOM     74  C51 UNL A   1      37.701  31.793  33.082  1.00  0.00    +0.000 C 
ATOM     75  C52 UNL A   1      37.226  31.441  31.876  1.00  0.00    +0.000 C 
ATOM     76  C53 UNL A   1      38.217  30.606  31.197  1.00  0.00    +0.000 C 
ATOM     77  N6  UNL A   1      39.246  30.508  32.100  1.00  0.00    +0.000 N 
ATOM     78  C54 UNL A   1      41.897  30.778  35.656  1.00  0.00    +0.000 C 
ATOM     79  C55 UNL A   1      43.008  30.120  35.356  1.00  0.00    +0.000 C 
ATOM     80  C56 UNL A   1      39.961  27.851  27.896  1.00  0.00    +0.000 C 
ATOM     81  C57 UNL A   1      38.910  28.642  28.056  1.00  0.00    +0.000 C 
ATOM    120  H24 UNL A   1      44.774  26.406  29.602  1.00  0.00    +0.000 H 
ATOM    121  H25 UNL A   1      45.685  27.052  31.959  1.00  0.00    +0.000 H 
ATOM    122  H26 UNL A   1      41.907  28.693  31.528  1.00  0.00    +0.000 H 
ATOM    123  H27 UNL A   1      37.216  32.398  33.764  1.00  0.00    +0.000 H 
ATOM    124  H28 UNL A   1      36.309  31.717  31.491  1.00  0.00    +0.000 H 
ATOM    125  H29 UNL A   1      40.072  30.004  31.923  1.00  0.00    +0.000 H 
ATOM    126  H30 UNL A   1      41.651  31.280  36.524  1.00  0.00    +0.000 H 
ATOM    127  H31 UNL A   1      43.831  30.056  35.976  1.00  0.00    +0.000 H 
ATOM    128  H32 UNL A   1      40.110  27.236  27.081  1.00  0.00    +0.000 H 
ENDROOT
BRANCH   25   24
ATOM    130  H34 UNL A   1      37.332  32.306  28.673  1.00  0.00    +0.000 H 
ATOM    131  H35 UNL A   1      35.267  32.750  27.484  1.00  0.00    +0.000 H 
ATOM     82  C58 UNL A   1      36.616  31.567  28.590  1.00  0.00    +0.000 C 
ATOM     83  C59 UNL A   1      35.448  31.812  27.872  1.00  0.00    +0.000 C 
ATOM     21  C16 UNL A   1      34.521  30.784  27.677  1.00  0.00    +0.000 C 
ATOM     22  C17 UNL A   1      34.705  29.548  28.305  1.00  0.00    +0.000 C 
ATOM    118  H22 UNL A   1      33.999  28.803  28.197  1.00  0.00    +0.000 H 
ATOM     23  C18 UNL A   1      35.845  29.324  29.079  1.00  0.00    +0.000 C 
ATOM    119  H23 UNL A   1      35.969  28.421  29.563  1.00  0.00    +0.000 H 
ATOM     24  C19 UNL A   1      36.826  30.322  29.203  1.00  0.00    +0.000 C 
BRANCH   21   19
ATOM     19  C15 UNL A   1      33.320  30.983  26.836  1.00  0.00    +0.000 C 
ATOM     20  O3  UNL A   1      32.611  31.968  27.016  1.00  0.00    +0.000 O 
BRANCH   19   18
ATOM     18  N2  UNL A   1      32.994  30.067  25.868  1.00  0.00    +0.000 N 
ATOM    117  H21 UNL A   1      33.488  30.157  25.022  1.00  0.00    +0.000 H 
BRANCH   18   17
ATOM     17  C14 UNL A   1      32.024  28.983  25.910  1.00  0.00    +0.000 C 
ATOM    115  H19 UNL A   1      31.457  29.064  26.814  1.00  0.00    +0.000 H 
ATOM    116  H20 UNL A   1      31.398  29.070  25.047  1.00  0.00    +0.000 H 
BRANCH   17   16
ATOM    113  H17 UNL A   1      32.849  27.348  24.846  1.00  0.00    +0.000 H 
ATOM    114  H18 UNL A   1      33.598  27.701  26.429  1.00  0.00    +0.000 H 
ATOM     16  C13 UNL A   1      32.690  27.610  25.870  1.00  0.00    +0.000 C 
BRANCH   16   15
ATOM    111  H15 UNL A   1      31.867  26.671  27.585  1.00  0.00    +0.000 H 
ATOM     15  C12 UNL A   1      31.888  26.486  26.532  1.00  0.00    +0.000 C 
ATOM    112  H16 UNL A   1      30.921  26.504  26.073  1.00  0.00    +0.000 H 
BRANCH   15   14
ATOM    110  H14 UNL A   1      33.302  24.991  26.934  1.00  0.00    +0.000 H 
ATOM    109  H13 UNL A   1      32.646  24.959  25.267  1.00  0.00    +0.000 H 
ATOM     14  C11 UNL A   1      32.436  25.072  26.311  1.00  0.00    +0.000 C 
BRANCH   14   13
ATOM    107  H11 UNL A   1      31.240  24.071  27.759  1.00  0.00    +0.000 H 
ATOM    108  H12 UNL A   1      30.659  23.965  26.078  1.00  0.00    +0.000 H 
ATOM     13  C10 UNL A   1      31.504  23.929  26.732  1.00  0.00    +0.000 C 
BRANCH   13   12
ATOM    105  H9  UNL A   1      33.155  22.640  26.351  1.00  0.00    +0.000 H 
ATOM    106  H10 UNL A   1      31.976  22.014  27.506  1.00  0.00    +0.000 H 
ATOM     12  C9  UNL A   1      32.116  22.537  26.584  1.00  0.00    +0.000 C 
BRANCH   12   11
ATOM     11  N1  UNL A   1      31.477  21.773  25.535  1.00  0.00    +0.000 N 
ATOM    104  H8  UNL A   1      30.493  21.809  25.534  1.00  0.00    +0.000 H 
BRANCH   11    9
ATOM      9  C8  UNL A   1      32.029  21.010  24.547  1.00  0.00    +0.000 C 
ATOM     10  O2  UNL A   1      32.139  19.802  24.779  1.00  0.00    +0.000 O 
BRANCH    9    8
ATOM    102  H6  UNL A   1      33.015  20.835  22.688  1.00  0.00    +0.000 H 
ATOM    103  H7  UNL A   1      31.811  22.165  22.829  1.00  0.00    +0.000 H 
ATOM      8  C7  UNL A   1      32.616  21.628  23.285  1.00  0.00    +0.000 C 
BRANCH    8    7
ATOM      3  C2  UNL A   1      37.394  22.635  25.543  1.00  0.00    +0.000 C 
ATOM    100  H4  UNL A   1      37.071  20.633  26.108  1.00  0.00    +0.000 H 
ATOM      4  C3  UNL A   1      36.686  21.437  25.587  1.00  0.00    +0.000 C 
ATOM      5  C4  UNL A   1      35.456  21.317  24.930  1.00  0.00    +0.000 C 
ATOM    101  H5  UNL A   1      34.940  20.424  24.958  1.00  0.00    +0.000 H 
ATOM      6  C5  UNL A   1      34.922  22.420  24.229  1.00  0.00    +0.000 C 
ATOM      7  C6  UNL A   1      33.712  22.645  23.487  1.00  0.00    +0.000 C 
ATOM    138  H42 UNL A   1      35.172  25.458  23.363  1.00  0.00    +0.000 H 
ATOM    139  H43 UNL A   1      37.373  24.654  24.884  1.00  0.00    +0.000 H 
ATOM     84  C60 UNL A   1      33.791  23.932  22.951  1.00  0.00    +0.000 C 
ATOM     94  N8  UNL A   1      34.919  24.514  23.490  1.00  0.00    +0.000 N 
ATOM     95  C68 UNL A   1      35.642  23.608  24.225  1.00  0.00    +0.000 C 
ATOM     96  C69 UNL A   1      36.871  23.752  24.884  1.00  0.00    +0.000 C 
BRANCH    3    2
ATOM      2  O1  UNL A   1      38.598  22.826  26.169  1.00  0.00    +0.000 O 
BRANCH    2    1
ATOM      1  C1  UNL A   1      38.749  24.125  26.741  1.00  0.00    +0.000 C 
ATOM     98  H2  UNL A   1      39.057  24.031  27.761  1.00  0.00    +0.000 H 
ATOM     99  H3  UNL A   1      37.815  24.644  26.697  1.00  0.00    +0.000 H 
ATOM     97  H1  UNL A   1      39.488  24.671  26.195  1.00  0.00    +0.000 H 
ENDBRANCH    2    1
ENDBRANCH    3    2
BRANCH   84   85
ATOM     85  C61 UNL A   1      32.868  24.580  22.022  1.00  0.00    +0.000 C 
ATOM     86  O4  UNL A   1      32.984  24.510  20.802  1.00  0.00    +0.000 O 
BRANCH   85   87
ATOM    132  H36 UNL A   1      32.456  27.227  21.717  1.00  0.00    +0.000 H 
ATOM    136  H40 UNL A   1      28.837  27.379  23.871  1.00  0.00    +0.000 H 
ATOM    137  H41 UNL A   1      29.036  25.021  24.261  1.00  0.00    +0.000 H 
ATOM     87  C62 UNL A   1      31.760  25.416  22.560  1.00  0.00    +0.000 C 
ATOM     88  C63 UNL A   1      31.716  26.779  22.278  1.00  0.00    +0.000 C 
ATOM     89  C64 UNL A   1      30.644  27.523  22.776  1.00  0.00    +0.000 C 
ATOM     91  C66 UNL A   1      29.651  26.862  23.505  1.00  0.00    +0.000 C 
ATOM     92  C67 UNL A   1      29.780  25.499  23.729  1.00  0.00    +0.000 C 
ATOM     93  N7  UNL A   1      30.821  24.765  23.291  1.00  0.00    +0.000 N 
BRANCH   89   90
ATOM     90  C65 UNL A   1      30.528  28.995  22.514  1.00  0.00    +0.000 C 
ATOM    133  H37 UNL A   1      30.608  29.530  23.437  1.00  0.00    +0.000 H 
ATOM    134  H38 UNL A   1      29.582  29.204  22.062  1.00  0.00    +0.000 H 
ATOM    135  H39 UNL A   1      31.314  29.303  21.855  1.00  0.00    +0.000 H 
ENDBRANCH   89   90
ENDBRANCH   85   87
ENDBRANCH   84   85
ENDBRANCH    8    7
ENDBRANCH    9    8
ENDBRANCH   11    9
ENDBRANCH   12   11
ENDBRANCH   13   12
ENDBRANCH   14   13
ENDBRANCH   15   14
ENDBRANCH   16   15
ENDBRANCH   17   16
ENDBRANCH   18   17
ENDBRANCH   19   18
ENDBRANCH   21   19
ENDBRANCH   25   24
BRANCH   29   30
ATOM     33  C26 UNL A   1      42.482  24.343  26.770  1.00  0.00    +0.000 C 
ATOM     34  F2  UNL A   1      42.151  23.044  26.746  1.00  0.00    +0.000 F 
ATOM     35  C27 UNL A   1      43.210  24.891  25.725  1.00  0.00    +0.000 C 
ATOM     36  F3  UNL A   1      43.565  24.129  24.682  1.00  0.00    +0.000 F 
ATOM     37  C28 UNL A   1      43.576  26.228  25.765  1.00  0.00    +0.000 C 
ATOM     38  F4  UNL A   1      44.269  26.762  24.751  1.00  0.00    +0.000 F 
ATOM     39  C29 UNL A   1      43.227  27.015  26.859  1.00  0.00    +0.000 C 
ATOM     40  F5  UNL A   1      43.608  28.302  26.875  1.00  0.00    +0.000 F 
ATOM     30  C24 UNL A   1      42.484  26.485  27.924  1.00  0.00    +0.000 C 
ATOM     31  C25 UNL A   1      42.107  25.134  27.852  1.00  0.00    +0.000 C 
ATOM     32  F1  UNL A   1      41.405  24.575  28.850  1.00  0.00    +0.000 F 
ENDBRANCH   29   30
BRANCH   46   47
ATOM     47  C35 UNL A   1      45.140  28.528  34.309  1.00  0.00    +0.000 C 
ATOM     48  C36 UNL A   1      45.278  27.446  35.190  1.00  0.00    +0.000 C 
ATOM     49  F6  UNL A   1      44.263  26.586  35.368  1.00  0.00    +0.000 F 
ATOM     50  C37 UNL A   1      46.448  27.266  35.924  1.00  0.00    +0.000 C 
ATOM     51  F7  UNL A   1      46.541  26.251  36.794  1.00  0.00    +0.000 F 
ATOM     52  C38 UNL A   1      47.511  28.143  35.765  1.00  0.00    +0.000 C 
ATOM     53  F8  UNL A   1      48.638  27.964  36.469  1.00  0.00    +0.000 F 
ATOM     54  C39 UNL A   1      47.402  29.209  34.886  1.00  0.00    +0.000 C 
ATOM     55  F9  UNL A   1      48.433  30.050  34.723  1.00  0.00    +0.000 F 
ATOM     56  C40 UNL A   1      46.225  29.408  34.172  1.00  0.00    +0.000 C 
ATOM     57  F10 UNL A   1      46.145  30.456  33.337  1.00  0.00    +0.000 F 
ENDBRANCH   46   47
BRANCH   61   62
ATOM     65  C46 UNL A   1      37.991  32.281  37.586  1.00  0.00    +0.000 C 
ATOM     66  F12 UNL A   1      37.172  31.724  38.487  1.00  0.00    +0.000 F 
ATOM     67  C47 UNL A   1      38.358  33.614  37.711  1.00  0.00    +0.000 C 
ATOM     68  F13 UNL A   1      37.906  34.340  38.743  1.00  0.00    +0.000 F 
ATOM     69  C48 UNL A   1      39.184  34.193  36.760  1.00  0.00    +0.000 C 
ATOM     70  F14 UNL A   1      39.550  35.476  36.885  1.00  0.00    +0.000 F 
ATOM     71  C49 UNL A   1      39.635  33.445  35.675  1.00  0.00    +0.000 C 
ATOM     72  F15 UNL A   1      40.423  34.034  34.765  1.00  0.00    +0.000 F 
ATOM     62  C44 UNL A   1      39.286  32.095  35.533  1.00  0.00    +0.000 C 
ATOM     63  C45 UNL A   1      38.463  31.525  36.515  1.00  0.00    +0.000 C 
ATOM     64  F11 UNL A   1      38.086  30.242  36.411  1.00  0.00    +0.000 F 
ENDBRANCH   61   62
TORSDOF 21
ENDMDL
MODEL 3
REMARK VINA RESULT:     -11.9     33.027     40.339
ROOT
ATOM    129  H33 UNL A   1      37.964  28.859  27.368  1.00  0.00    +0.000 H 
ATOM     25  C20 UNL A   1      37.985  30.104  29.930  1.00  0.00    +0.000 C 
ATOM     26  C21 UNL A   1      39.011  29.168  29.355  1.00  0.00    +0.000 C 
ATOM     27  N3  UNL A   1      40.123  28.728  29.889  1.00  0.00    +0.000 N 
ATOM     28  C22 UNL A   1      40.673  27.859  28.956  1.00  0.00    +0.000 C 
ATOM     29  C23 UNL A   1      41.850  27.192  29.014  1.00  0.00    +0.000 C 
ATOM     41  C30 UNL A   1      42.780  27.280  30.110  1.00  0.00    +0.000 C 
ATOM     42  C31 UNL A   1      44.029  26.695  30.233  1.00  0.00    +0.000 C 
ATOM     43  C32 UNL A   1      44.545  27.026  31.490  1.00  0.00    +0.000 C 
ATOM     44  C33 UNL A   1      43.639  27.853  32.133  1.00  0.00    +0.000 C 
ATOM     45  N4  UNL A   1      42.558  27.998  31.277  1.00  0.00    +0.000 N 
ATOM     46  C34 UNL A   1      43.747  28.465  33.432  1.00  0.00    +0.000 C 
ATOM     58  C41 UNL A   1      42.818  29.283  33.986  1.00  0.00    +0.000 C 
ATOM     59  N5  UNL A   1      41.603  29.704  33.463  1.00  0.00    +0.000 N 
ATOM     60  C42 UNL A   1      41.061  30.467  34.380  1.00  0.00    +0.000 C 
ATOM     61  C43 UNL A   1      39.757  31.214  34.343  1.00  0.00    +0.000 C 
ATOM     73  C50 UNL A   1      38.991  31.149  33.238  1.00  0.00    +0.000 C 
ATOM     74  C51 UNL A   1      37.710  31.824  33.054  1.00  0.00    +0.000 C 
ATOM     75  C52 UNL A   1      37.213  31.500  31.850  1.00  0.00    +0.000 C 
ATOM     76  C53 UNL A   1      38.159  30.620  31.163  1.00  0.00    +0.000 C 
ATOM     77  N6  UNL A   1      39.186  30.470  32.060  1.00  0.00    +0.000 N 
ATOM     78  C54 UNL A   1      41.865  30.599  35.602  1.00  0.00    +0.000 C 
ATOM     79  C55 UNL A   1      42.942  29.890  35.295  1.00  0.00    +0.000 C 
ATOM     80  C56 UNL A   1      39.751  27.796  27.843  1.00  0.00    +0.000 C 
ATOM     81  C57 UNL A   1      38.739  28.636  28.011  1.00  0.00    +0.000 C 
ATOM    120  H24 UNL A   1      44.497  26.115  29.519  1.00  0.00    +0.000 H 
ATOM    121  H25 UNL A   1      45.450  26.708  31.873  1.00  0.00    +0.000 H 
ATOM    122  H26 UNL A   1      41.754  28.531  31.467  1.00  0.00    +0.000 H 
ATOM    123  H27 UNL A   1      37.258  32.449  33.740  1.00  0.00    +0.000 H 
ATOM    124  H28 UNL A   1      36.308  31.821  31.470  1.00  0.00    +0.000 H 
ATOM    125  H29 UNL A   1      39.986  29.927  31.877  1.00  0.00    +0.000 H 
ATOM    126  H30 UNL A   1      41.649  31.110  36.473  1.00  0.00    +0.000 H 
ATOM    127  H31 UNL A   1      43.764  29.783  35.910  1.00  0.00    +0.000 H 
ATOM    128  H32 UNL A   1      39.865  27.177  27.025  1.00  0.00    +0.000 H 
ENDROOT
BRANCH   25   24
ATOM    130  H34 UNL A   1      37.259  32.430  28.813  1.00  0.00    +0.000 H 
ATOM    131  H35 UNL A   1      35.208  32.972  27.639  1.00  0.00    +0.000 H 
ATOM     82  C58 UNL A   1      36.543  31.702  28.662  1.00  0.00    +0.000 C 
ATOM     83  C59 UNL A   1      35.384  32.006  27.952  1.00  0.00    +0.000 C 
ATOM     21  C16 UNL A   1      34.459  30.998  27.664  1.00  0.00    +0.000 C 
ATOM     22  C17 UNL A   1      34.634  29.715  28.192  1.00  0.00    +0.000 C 
ATOM    118  H22 UNL A   1      33.929  28.982  28.016  1.00  0.00    +0.000 H 
ATOM     23  C18 UNL A   1      35.765  29.428  28.959  1.00  0.00    +0.000 C 
ATOM    119  H23 UNL A   1      35.882  28.489  29.370  1.00  0.00    +0.000 H 
ATOM     24  C19 UNL A   1      36.745  30.411  29.175  1.00  0.00    +0.000 C 
BRANCH   21   19
ATOM     19  C15 UNL A   1      33.268  31.266  26.827  1.00  0.00    +0.000 C 
ATOM     20  O3  UNL A   1      32.573  32.251  27.060  1.00  0.00    +0.000 O 
BRANCH   19   18
ATOM     18  N2  UNL A   1      32.935  30.414  25.805  1.00  0.00    +0.000 N 
ATOM    117  H21 UNL A   1      33.534  30.442  25.024  1.00  0.00    +0.000 H 
BRANCH   18   17
ATOM     17  C14 UNL A   1      31.827  29.477  25.705  1.00  0.00    +0.000 C 
ATOM    115  H19 UNL A   1      31.041  29.803  26.355  1.00  0.00    +0.000 H 
ATOM    116  H20 UNL A   1      31.506  29.456  24.685  1.00  0.00    +0.000 H 
BRANCH   17   16
ATOM    113  H17 UNL A   1      32.506  28.067  27.132  1.00  0.00    +0.000 H 
ATOM    114  H18 UNL A   1      31.386  27.438  25.891  1.00  0.00    +0.000 H 
ATOM     16  C13 UNL A   1      32.232  28.059  26.098  1.00  0.00    +0.000 C 
BRANCH   16   15
ATOM    111  H15 UNL A   1      33.161  27.557  24.258  1.00  0.00    +0.000 H 
ATOM     15  C12 UNL A   1      33.400  27.477  25.298  1.00  0.00    +0.000 C 
ATOM    112  H16 UNL A   1      34.264  28.040  25.585  1.00  0.00    +0.000 H 
BRANCH   15   14
ATOM    110  H14 UNL A   1      34.695  26.016  26.063  1.00  0.00    +0.000 H 
ATOM    109  H13 UNL A   1      33.706  25.473  24.671  1.00  0.00    +0.000 H 
ATOM     14  C11 UNL A   1      33.732  26.011  25.596  1.00  0.00    +0.000 C 
BRANCH   14   13
ATOM    107  H11 UNL A   1      32.834  25.822  27.516  1.00  0.00    +0.000 H 
ATOM    108  H12 UNL A   1      31.815  25.327  26.141  1.00  0.00    +0.000 H 
ATOM     13  C10 UNL A   1      32.790  25.306  26.580  1.00  0.00    +0.000 C 
BRANCH   13   12
ATOM    105  H9  UNL A   1      33.739  23.484  26.022  1.00  0.00    +0.000 H 
ATOM    106  H10 UNL A   1      33.645  23.769  27.761  1.00  0.00    +0.000 H 
ATOM     12  C9  UNL A   1      33.129  23.837  26.827  1.00  0.00    +0.000 C 
BRANCH   12   11
ATOM     11  N1  UNL A   1      31.943  23.013  26.909  1.00  0.00    +0.000 N 
ATOM    104  H8  UNL A   1      32.036  22.204  27.463  1.00  0.00    +0.000 H 
BRANCH   11    9
ATOM      9  C8  UNL A   1      30.716  23.186  26.337  1.00  0.00    +0.000 C 
ATOM     10  O2  UNL A   1      29.797  23.524  27.090  1.00  0.00    +0.000 O 
BRANCH    9    8
ATOM    102  H6  UNL A   1      30.863  21.867  24.694  1.00  0.00    +0.000 H 
ATOM    103  H7  UNL A   1      29.391  22.899  24.757  1.00  0.00    +0.000 H 
ATOM      8  C7  UNL A   1      30.452  22.838  24.878  1.00  0.00    +0.000 C 
BRANCH    8    7
ATOM      3  C2  UNL A   1      30.309  27.808  22.824  1.00  0.00    +0.000 C 
ATOM    100  H4  UNL A   1      28.876  27.941  24.361  1.00  0.00    +0.000 H 
ATOM      4  C3  UNL A   1      29.556  27.324  23.891  1.00  0.00    +0.000 C 
ATOM      5  C4  UNL A   1      29.718  26.004  24.330  1.00  0.00    +0.000 C 
ATOM    101  H5  UNL A   1      29.165  25.654  25.128  1.00  0.00    +0.000 H 
ATOM      6  C5  UNL A   1      30.639  25.155  23.681  1.00  0.00    +0.000 C 
ATOM      7  C6  UNL A   1      31.027  23.781  23.851  1.00  0.00    +0.000 C 
ATOM    138  H42 UNL A   1      32.753  24.719  21.361  1.00  0.00    +0.000 H 
ATOM    139  H43 UNL A   1      31.732  27.319  21.326  1.00  0.00    +0.000 H 
ATOM     84  C60 UNL A   1      32.060  23.529  22.945  1.00  0.00    +0.000 C 
ATOM     94  N8  UNL A   1      32.168  24.652  22.151  1.00  0.00    +0.000 N 
ATOM     95  C68 UNL A   1      31.357  25.661  22.604  1.00  0.00    +0.000 C 
ATOM     96  C69 UNL A   1      31.203  26.976  22.143  1.00  0.00    +0.000 C 
BRANCH    3    2
ATOM      2  O1  UNL A   1      30.197  29.084  22.337  1.00  0.00    +0.000 O 
BRANCH    2    1
ATOM      1  C1  UNL A   1      29.127  29.828  22.918  1.00  0.00    +0.000 C 
ATOM     98  H2  UNL A   1      29.303  29.946  23.968  1.00  0.00    +0.000 H 
ATOM     99  H3  UNL A   1      28.206  29.306  22.768  1.00  0.00    +0.000 H 
ATOM     97  H1  UNL A   1      29.070  30.792  22.457  1.00  0.00    +0.000 H 
ENDBRANCH    2    1
ENDBRANCH    3    2
BRANCH   84   85
ATOM     85  C61 UNL A   1      32.870  22.321  22.815  1.00  0.00    +0.000 C 
ATOM     86  O4  UNL A   1      32.655  21.455  21.973  1.00  0.00    +0.000 O 
BRANCH   85   87
ATOM    132  H36 UNL A   1      35.046  23.842  23.287  1.00  0.00    +0.000 H 
ATOM    136  H40 UNL A   1      36.647  21.418  26.340  1.00  0.00    +0.000 H 
ATOM    137  H41 UNL A   1      34.786  19.932  26.057  1.00  0.00    +0.000 H 
ATOM     87  C62 UNL A   1      33.981  22.082  23.777  1.00  0.00    +0.000 C 
ATOM     88  C63 UNL A   1      35.020  23.001  23.884  1.00  0.00    +0.000 C 
ATOM     89  C64 UNL A   1      36.028  22.756  24.820  1.00  0.00    +0.000 C 
ATOM     91  C66 UNL A   1      35.929  21.618  25.626  1.00  0.00    +0.000 C 
ATOM     92  C67 UNL A   1      34.852  20.763  25.449  1.00  0.00    +0.000 C 
ATOM     93  N7  UNL A   1      33.886  20.957  24.531  1.00  0.00    +0.000 N 
BRANCH   89   90
ATOM     90  C65 UNL A   1      37.180  23.701  24.992  1.00  0.00    +0.000 C 
ATOM    133  H37 UNL A   1      37.401  24.169  24.056  1.00  0.00    +0.000 H 
ATOM    134  H38 UNL A   1      38.037  23.159  25.332  1.00  0.00    +0.000 H 
ATOM    135  H39 UNL A   1      36.922  24.450  25.712  1.00  0.00    +0.000 H 
ENDBRANCH   89   90
ENDBRANCH   85   87
ENDBRANCH   84   85
ENDBRANCH    8    7
ENDBRANCH    9    8
ENDBRANCH   11    9
ENDBRANCH   12   11
ENDBRANCH   13   12
ENDBRANCH   14   13
ENDBRANCH   15   14
ENDBRANCH   16   15
ENDBRANCH   17   16
ENDBRANCH   18   17
ENDBRANCH   19   18
ENDBRANCH   21   19
ENDBRANCH   25   24
BRANCH   29   30
ATOM     33  C26 UNL A   1      42.015  24.207  26.644  1.00  0.00    +0.000 C 
ATOM     34  F2  UNL A   1      41.543  22.954  26.571  1.00  0.00    +0.000 F 
ATOM     35  C27 UNL A   1      42.846  24.693  25.645  1.00  0.00    +0.000 C 
ATOM     36  F3  UNL A   1      43.160  23.918  24.598  1.00  0.00    +0.000 F 
ATOM     37  C28 UNL A   1      43.355  25.979  25.736  1.00  0.00    +0.000 C 
ATOM     38  F4  UNL A   1      44.148  26.454  24.765  1.00  0.00    +0.000 F 
ATOM     39  C29 UNL A   1      43.048  26.776  26.835  1.00  0.00    +0.000 C 
ATOM     40  F5  UNL A   1      43.569  28.012  26.901  1.00  0.00    +0.000 F 
ATOM     30  C24 UNL A   1      42.204  26.310  27.854  1.00  0.00    +0.000 C 
ATOM     31  C25 UNL A   1      41.683  25.012  27.730  1.00  0.00    +0.000 C 
ATOM     32  F1  UNL A   1      40.880  24.514  28.682  1.00  0.00    +0.000 F 
ENDBRANCH   29   30
BRANCH   46   47
ATOM     47  C35 UNL A   1      44.989  28.200  34.230  1.00  0.00    +0.000 C 
ATOM     48  C36 UNL A   1      46.106  29.045  34.154  1.00  0.00    +0.000 C 
ATOM     49  F6  UNL A   1      46.103  30.094  33.317  1.00  0.00    +0.000 F 
ATOM     50  C37 UNL A   1      47.248  28.790  34.909  1.00  0.00    +0.000 C 
ATOM     51  F7  UNL A   1      48.320  29.584  34.786  1.00  0.00    +0.000 F 
ATOM     52  C38 UNL A   1      47.282  27.709  35.777  1.00  0.00    +0.000 C 
ATOM     53  F8  UNL A   1      48.380  27.469  36.507  1.00  0.00    +0.000 F 
ATOM     54  C39 UNL A   1      46.182  26.871  35.881  1.00  0.00    +0.000 C 
ATOM     55  F9  UNL A   1      46.209  25.833  36.728  1.00  0.00    +0.000 F 
ATOM     56  C40 UNL A   1      45.050  27.106  35.107  1.00  0.00    +0.000 C 
ATOM     57  F10 UNL A   1      44.005  26.271  35.221  1.00  0.00    +0.000 F 
ENDBRANCH   46   47
BRANCH   61   62
ATOM     65  C46 UNL A   1      38.043  32.284  37.556  1.00  0.00    +0.000 C 
ATOM     66  F12 UNL A   1      37.199  31.764  38.458  1.00  0.00    +0.000 F 
ATOM     67  C47 UNL A   1      38.477  33.595  37.685  1.00  0.00    +0.000 C 
ATOM     68  F13 UNL A   1      38.067  34.338  38.722  1.00  0.00    +0.000 F 
ATOM     69  C48 UNL A   1      39.329  34.136  36.734  1.00  0.00    +0.000 C 
ATOM     70  F14 UNL A   1      39.760  35.398  36.863  1.00  0.00    +0.000 F 
ATOM     71  C49 UNL A   1      39.738  33.370  35.644  1.00  0.00    +0.000 C 
ATOM     72  F15 UNL A   1      40.552  33.923  34.734  1.00  0.00    +0.000 F 
ATOM     62  C44 UNL A   1      39.320  32.040  35.497  1.00  0.00    +0.000 C 
ATOM     63  C45 UNL A   1      38.473  31.509  36.480  1.00  0.00    +0.000 C 
ATOM     64  F11 UNL A   1      38.030  30.248  36.371  1.00  0.00    +0.000 F 
ENDBRANCH   61   62
TORSDOF 21
ENDMDL
MODEL 4
REMARK VINA RESULT:     -11.5     14.257     20.946
ROOT
ATOM    129  H33 UNL A   1       4.763   2.801  24.198  1.00  0.00    +0.000 H 
ATOM     25  C20 UNL A   1       7.010   2.887  25.947  1.00  0.00    +0.000 C 
ATOM     26  C21 UNL A   1       6.301   4.047  25.306  1.00  0.00    +0.000 C 
ATOM     27  N3  UNL A   1       6.548   5.329  25.408  1.00  0.00    +0.000 N 
ATOM     28  C22 UNL A   1       5.627   5.958  24.581  1.00  0.00    +0.000 C 
ATOM     29  C23 UNL A   1       5.437   7.285  24.386  1.00  0.00    +0.000 C 
ATOM     41  C30 UNL A   1       6.195   8.319  25.040  1.00  0.00    +0.000 C 
ATOM     42  C31 UNL A   1       6.033   9.692  24.960  1.00  0.00    +0.000 C 
ATOM     43  C32 UNL A   1       7.029  10.296  25.735  1.00  0.00    +0.000 C 
ATOM     44  C33 UNL A   1       7.783   9.301  26.333  1.00  0.00    +0.000 C 
ATOM     45  N4  UNL A   1       7.263   8.092  25.896  1.00  0.00    +0.000 N 
ATOM     46  C34 UNL A   1       8.897   9.439  27.236  1.00  0.00    +0.000 C 
ATOM     58  C41 UNL A   1       9.575   8.408  27.797  1.00  0.00    +0.000 C 
ATOM     59  N5  UNL A   1       9.371   7.043  27.645  1.00  0.00    +0.000 N 
ATOM     60  C42 UNL A   1      10.288   6.458  28.375  1.00  0.00    +0.000 C 
ATOM     61  C43 UNL A   1      10.525   4.991  28.605  1.00  0.00    +0.000 C 
ATOM     73  C50 UNL A   1       9.707   4.092  28.024  1.00  0.00    +0.000 C 
ATOM     74  C51 UNL A   1       9.808   2.642  28.161  1.00  0.00    +0.000 C 
ATOM     75  C52 UNL A   1       8.855   2.065  27.412  1.00  0.00    +0.000 C 
ATOM     76  C53 UNL A   1       8.055   3.106  26.768  1.00  0.00    +0.000 C 
ATOM     77  N6  UNL A   1       8.630   4.278  27.192  1.00  0.00    +0.000 N 
ATOM     78  C54 UNL A   1      11.197   7.389  29.057  1.00  0.00    +0.000 C 
ATOM     79  C55 UNL A   1      10.694   8.564  28.702  1.00  0.00    +0.000 C 
ATOM     80  C56 UNL A   1       4.846   4.917  23.948  1.00  0.00    +0.000 C 
ATOM     81  C57 UNL A   1       5.180   3.721  24.411  1.00  0.00    +0.000 C 
ATOM    120  H24 UNL A   1       5.302  10.184  24.421  1.00  0.00    +0.000 H 
ATOM    121  H25 UNL A   1       7.176  11.313  25.841  1.00  0.00    +0.000 H 
ATOM    122  H26 UNL A   1       7.601   7.205  26.154  1.00  0.00    +0.000 H 
ATOM    123  H27 UNL A   1      10.500   2.142  28.741  1.00  0.00    +0.000 H 
ATOM    124  H28 UNL A   1       8.711   1.048  27.309  1.00  0.00    +0.000 H 
ATOM    125  H29 UNL A   1       8.302   5.167  26.925  1.00  0.00    +0.000 H 
ATOM    126  H30 UNL A   1      12.013   7.184  29.655  1.00  0.00    +0.000 H 
ATOM    127  H31 UNL A   1      11.055   9.474  29.030  1.00  0.00    +0.000 H 
ATOM    128  H32 UNL A   1       4.125   5.085  23.229  1.00  0.00    +0.000 H 
ENDROOT
BRANCH   25   24
ATOM    130  H34 UNL A   1       7.813   1.360  23.895  1.00  0.00    +0.000 H 
ATOM    131  H35 UNL A   1       7.117  -0.889  23.316  1.00  0.00    +0.000 H 
ATOM     82  C58 UNL A   1       7.144   0.856  24.498  1.00  0.00    +0.000 C 
ATOM     83  C59 UNL A   1       6.777  -0.450  24.185  1.00  0.00    +0.000 C 
ATOM     21  C16 UNL A   1       5.946  -1.167  25.051  1.00  0.00    +0.000 C 
ATOM     22  C17 UNL A   1       5.384  -0.535  26.165  1.00  0.00    +0.000 C 
ATOM    118  H22 UNL A   1       4.736  -1.051  26.781  1.00  0.00    +0.000 H 
ATOM     23  C18 UNL A   1       5.702   0.796  26.443  1.00  0.00    +0.000 C 
ATOM    119  H23 UNL A   1       5.268   1.270  27.250  1.00  0.00    +0.000 H 
ATOM     24  C19 UNL A   1       6.609   1.494  25.628  1.00  0.00    +0.000 C 
BRANCH   21   19
ATOM     19  C15 UNL A   1       5.618  -2.588  24.799  1.00  0.00    +0.000 C 
ATOM     20  O3  UNL A   1       5.194  -2.926  23.698  1.00  0.00    +0.000 O 
BRANCH   19   18
ATOM     18  N2  UNL A   1       5.775  -3.521  25.792  1.00  0.00    +0.000 N 
ATOM    117  H21 UNL A   1       4.947  -3.969  26.081  1.00  0.00    +0.000 H 
BRANCH   18   17
ATOM     17  C14 UNL A   1       6.983  -3.945  26.482  1.00  0.00    +0.000 C 
ATOM    115  H19 UNL A   1       7.172  -3.269  27.291  1.00  0.00    +0.000 H 
ATOM    116  H20 UNL A   1       6.826  -4.942  26.835  1.00  0.00    +0.000 H 
BRANCH   17   16
ATOM    113  H17 UNL A   1       8.428  -4.978  25.330  1.00  0.00    +0.000 H 
ATOM    114  H18 UNL A   1       7.933  -3.380  24.703  1.00  0.00    +0.000 H 
ATOM     16  C13 UNL A   1       8.200  -3.960  25.562  1.00  0.00    +0.000 C 
BRANCH   16   15
ATOM    111  H15 UNL A   1       9.677  -3.791  27.075  1.00  0.00    +0.000 H 
ATOM     15  C12 UNL A   1       9.457  -3.310  26.145  1.00  0.00    +0.000 C 
ATOM    112  H16 UNL A   1      10.223  -3.433  25.406  1.00  0.00    +0.000 H 
BRANCH   15   14
ATOM    110  H14 UNL A   1       8.603  -1.682  27.153  1.00  0.00    +0.000 H 
ATOM    109  H13 UNL A   1       9.121  -1.324  25.476  1.00  0.00    +0.000 H 
ATOM     14  C11 UNL A   1       9.357  -1.803  26.404  1.00  0.00    +0.000 C 
BRANCH   14   13
ATOM    107  H11 UNL A   1      10.994  -0.452  26.242  1.00  0.00    +0.000 H 
ATOM    108  H12 UNL A   1      10.340  -0.671  27.885  1.00  0.00    +0.000 H 
ATOM     13  C10 UNL A   1      10.622  -1.144  26.969  1.00  0.00    +0.000 C 
BRANCH   13   12
ATOM    105  H9  UNL A   1      12.172  -1.849  28.247  1.00  0.00    +0.000 H 
ATOM    106  H10 UNL A   1      11.315  -3.109  27.356  1.00  0.00    +0.000 H 
ATOM     12  C9  UNL A   1      11.740  -2.128  27.309  1.00  0.00    +0.000 C 
BRANCH   12   11
ATOM     11  N1  UNL A   1      12.778  -2.139  26.301  1.00  0.00    +0.000 N 
ATOM    104  H8  UNL A   1      13.130  -3.031  26.076  1.00  0.00    +0.000 H 
BRANCH   11    9
ATOM      9  C8  UNL A   1      13.344  -1.103  25.617  1.00  0.00    +0.000 C 
ATOM     10  O2  UNL A   1      13.853  -0.205  26.295  1.00  0.00    +0.000 O 
BRANCH    9    8
ATOM    102  H6  UNL A   1      13.592  -0.012  23.826  1.00  0.00    +0.000 H 
ATOM    103  H7  UNL A   1      13.793  -1.796  23.706  1.00  0.00    +0.000 H 
ATOM      8  C7  UNL A   1      13.227  -0.979  24.103  1.00  0.00    +0.000 C 
BRANCH    8    7
ATOM      3  C2  UNL A   1       9.586  -4.403  22.114  1.00  0.00    +0.000 C 
ATOM    100  H4  UNL A   1      11.167  -5.702  22.604  1.00  0.00    +0.000 H 
ATOM      4  C3  UNL A   1      10.847  -4.722  22.610  1.00  0.00    +0.000 C 
ATOM      5  C4  UNL A   1      11.682  -3.719  23.118  1.00  0.00    +0.000 C 
ATOM    101  H5  UNL A   1      12.612  -3.962  23.494  1.00  0.00    +0.000 H 
ATOM      6  C5  UNL A   1      11.250  -2.375  23.115  1.00  0.00    +0.000 C 
ATOM      7  C6  UNL A   1      11.843  -1.132  23.524  1.00  0.00    +0.000 C 
ATOM    138  H42 UNL A   1       9.031  -0.244  22.356  1.00  0.00    +0.000 H 
ATOM    139  H43 UNL A   1       8.232  -2.829  21.663  1.00  0.00    +0.000 H 
ATOM     84  C60 UNL A   1      10.880  -0.136  23.345  1.00  0.00    +0.000 C 
ATOM     94  N8  UNL A   1       9.817  -0.731  22.698  1.00  0.00    +0.000 N 
ATOM     95  C68 UNL A   1       9.996  -2.088  22.590  1.00  0.00    +0.000 C 
ATOM     96  C69 UNL A   1       9.149  -3.075  22.069  1.00  0.00    +0.000 C 
BRANCH    3    2
ATOM      2  O1  UNL A   1       8.720  -5.330  21.595  1.00  0.00    +0.000 O 
BRANCH    2    1
ATOM      1  C1  UNL A   1       7.345  -5.015  21.810  1.00  0.00    +0.000 C 
ATOM     98  H2  UNL A   1       6.743  -5.550  21.105  1.00  0.00    +0.000 H 
ATOM     99  H3  UNL A   1       7.195  -3.964  21.683  1.00  0.00    +0.000 H 
ATOM     97  H1  UNL A   1       7.066  -5.299  22.803  1.00  0.00    +0.000 H 
ENDBRANCH    2    1
ENDBRANCH    3    2
BRANCH   84   85
ATOM     85  C61 UNL A   1      10.954   1.270  23.730  1.00  0.00    +0.000 C 
ATOM     86  O4  UNL A   1      11.238   1.643  24.864  1.00  0.00    +0.000 O 
BRANCH   85   87
ATOM    132  H36 UNL A   1       9.222   3.324  23.958  1.00  0.00    +0.000 H 
ATOM    136  H40 UNL A   1       9.964   4.975  20.152  1.00  0.00    +0.000 H 
ATOM    137  H41 UNL A   1      11.540   3.211  19.757  1.00  0.00    +0.000 H 
ATOM     87  C62 UNL A   1      10.618   2.319  22.727  1.00  0.00    +0.000 C 
ATOM     88  C63 UNL A   1       9.697   3.314  23.042  1.00  0.00    +0.000 C 
ATOM     89  C64 UNL A   1       9.431   4.297  22.086  1.00  0.00    +0.000 C 
ATOM     91  C66 UNL A   1      10.124   4.254  20.873  1.00  0.00    +0.000 C 
ATOM     92  C67 UNL A   1      11.028   3.226  20.653  1.00  0.00    +0.000 C 
ATOM     93  N7  UNL A   1      11.276   2.246  21.543  1.00  0.00    +0.000 N 
BRANCH   89   90
ATOM     90  C65 UNL A   1       8.451   5.399  22.353  1.00  0.00    +0.000 C 
ATOM    133  H37 UNL A   1       8.439   6.075  21.523  1.00  0.00    +0.000 H 
ATOM    134  H38 UNL A   1       8.738   5.925  23.238  1.00  0.00    +0.000 H 
ATOM    135  H39 UNL A   1       7.473   4.983  22.486  1.00  0.00    +0.000 H 
ENDBRANCH   89   90
ENDBRANCH   85   87
ENDBRANCH   84   85
ENDBRANCH    8    7
ENDBRANCH    9    8
ENDBRANCH   11    9
ENDBRANCH   12   11
ENDBRANCH   13   12
ENDBRANCH   14   13
ENDBRANCH   15   14
ENDBRANCH   16   15
ENDBRANCH   17   16
ENDBRANCH   18   17
ENDBRANCH   19   18
ENDBRANCH   21   19
ENDBRANCH   25   24
BRANCH   29   30
ATOM     33  C26 UNL A   1       2.090   8.450  22.972  1.00  0.00    +0.000 C 
ATOM     34  F2  UNL A   1       0.861   8.750  23.417  1.00  0.00    +0.000 F 
ATOM     35  C27 UNL A   1       2.369   8.510  21.615  1.00  0.00    +0.000 C 
ATOM     36  F3  UNL A   1       1.417   8.888  20.750  1.00  0.00    +0.000 F 
ATOM     37  C28 UNL A   1       3.632   8.172  21.154  1.00  0.00    +0.000 C 
ATOM     38  F4  UNL A   1       3.906   8.242  19.844  1.00  0.00    +0.000 F 
ATOM     39  C29 UNL A   1       4.615   7.758  22.049  1.00  0.00    +0.000 C 
ATOM     40  F5  UNL A   1       5.823   7.423  21.570  1.00  0.00    +0.000 F 
ATOM     30  C24 UNL A   1       4.358   7.696  23.427  1.00  0.00    +0.000 C 
ATOM     31  C25 UNL A   1       3.079   8.063  23.872  1.00  0.00    +0.000 C 
ATOM     32  F1  UNL A   1       2.778   8.012  25.179  1.00  0.00    +0.000 F 
ENDBRANCH   29   30
BRANCH   46   47
ATOM     47  C35 UNL A   1       9.333  10.826  27.604  1.00  0.00    +0.000 C 
ATOM     48  C36 UNL A   1       8.652  11.577  28.573  1.00  0.00    +0.000 C 
ATOM     49  F6  UNL A   1       7.555  11.080  29.164  1.00  0.00    +0.000 F 
ATOM     50  C37 UNL A   1       9.075  12.860  28.911  1.00  0.00    +0.000 C 
ATOM     51  F7  UNL A   1       8.383  13.577  29.807  1.00  0.00    +0.000 F 
ATOM     52  C38 UNL A   1      10.203  13.402  28.312  1.00  0.00    +0.000 C 
ATOM     53  F8  UNL A   1      10.612  14.635  28.643  1.00  0.00    +0.000 F 
ATOM     54  C39 UNL A   1      10.901  12.669  27.363  1.00  0.00    +0.000 C 
ATOM     55  F9  UNL A   1      11.998  13.187  26.793  1.00  0.00    +0.000 F 
ATOM     56  C40 UNL A   1      10.465  11.398  27.003  1.00  0.00    +0.000 C 
ATOM     57  F10 UNL A   1      11.154  10.719  26.074  1.00  0.00    +0.000 F 
ENDBRANCH   46   47
BRANCH   61   62
ATOM     65  C46 UNL A   1      12.562   4.206  31.709  1.00  0.00    +0.000 C 
ATOM     66  F12 UNL A   1      12.452   4.348  33.037  1.00  0.00    +0.000 F 
ATOM     67  C47 UNL A   1      13.713   3.659  31.161  1.00  0.00    +0.000 C 
ATOM     68  F13 UNL A   1      14.711   3.257  31.961  1.00  0.00    +0.000 F 
ATOM     69  C48 UNL A   1      13.833   3.540  29.785  1.00  0.00    +0.000 C 
ATOM     70  F14 UNL A   1      14.938   3.001  29.254  1.00  0.00    +0.000 F 
ATOM     71  C49 UNL A   1      12.805   3.979  28.952  1.00  0.00    +0.000 C 
ATOM     72  F15 UNL A   1      12.953   3.863  27.625  1.00  0.00    +0.000 F 
ATOM     62  C44 UNL A   1      11.629   4.526  29.483  1.00  0.00    +0.000 C 
ATOM     63  C45 UNL A   1      11.523   4.622  30.878  1.00  0.00    +0.000 C 
ATOM     64  F11 UNL A   1      10.425   5.157  31.431  1.00  0.00    +0.000 F 
ENDBRANCH   61   62
TORSDOF 21
ENDMDL
MODEL 5
REMARK VINA RESULT:     -11.5     19.728     35.231
ROOT
ATOM    129  H33 UNL A   1      26.559  33.676  43.432  1.00  0.00    +0.000 H 
ATOM     25  C20 UNL A   1      25.652  35.487  45.435  1.00  0.00    +0.000 C 
ATOM     26  C21 UNL A   1      26.995  35.462  44.759  1.00  0.00    +0.000 C 
ATOM     27  N3  UNL A   1      28.024  36.253  44.932  1.00  0.00    +0.000 N 
ATOM     28  C22 UNL A   1      29.019  35.767  44.094  1.00  0.00    +0.000 C 
ATOM     29  C23 UNL A   1      30.255  36.273  43.869  1.00  0.00    +0.000 C 
ATOM     41  C30 UNL A   1      30.770  37.465  44.491  1.00  0.00    +0.000 C 
ATOM     42  C31 UNL A   1      31.984  38.096  44.277  1.00  0.00    +0.000 C 
ATOM     43  C32 UNL A   1      32.064  39.195  45.139  1.00  0.00    +0.000 C 
ATOM     44  C33 UNL A   1      30.882  39.275  45.858  1.00  0.00    +0.000 C 
ATOM     45  N4  UNL A   1      30.098  38.206  45.453  1.00  0.00    +0.000 N 
ATOM     46  C34 UNL A   1      30.496  40.253  46.842  1.00  0.00    +0.000 C 
ATOM     58  C41 UNL A   1      29.306  40.273  47.491  1.00  0.00    +0.000 C 
ATOM     59  N5  UNL A   1      28.230  39.403  47.370  1.00  0.00    +0.000 N 
ATOM     60  C42 UNL A   1      27.325  39.830  48.216  1.00  0.00    +0.000 C 
ATOM     61  C43 UNL A   1      25.950  39.286  48.489  1.00  0.00    +0.000 C 
ATOM     73  C50 UNL A   1      25.513  38.219  47.793  1.00  0.00    +0.000 C 
ATOM     74  C51 UNL A   1      24.205  37.588  47.942  1.00  0.00    +0.000 C 
ATOM     75  C52 UNL A   1      24.133  36.530  47.119  1.00  0.00    +0.000 C 
ATOM     76  C53 UNL A   1      25.379  36.430  46.358  1.00  0.00    +0.000 C 
ATOM     77  N6  UNL A   1      26.138  37.475  46.821  1.00  0.00    +0.000 N 
ATOM     78  C54 UNL A   1      27.734  41.012  48.988  1.00  0.00    +0.000 C 
ATOM     79  C55 UNL A   1      28.932  41.263  48.480  1.00  0.00    +0.000 C 
ATOM     80  C56 UNL A   1      28.488  34.586  43.448  1.00  0.00    +0.000 C 
ATOM     81  C57 UNL A   1      27.218  34.392  43.776  1.00  0.00    +0.000 C 
ATOM    120  H24 UNL A   1      32.705  37.804  43.598  1.00  0.00    +0.000 H 
ATOM    121  H25 UNL A   1      32.868  39.837  45.224  1.00  0.00    +0.000 H 
ATOM    122  H26 UNL A   1      29.199  38.002  45.796  1.00  0.00    +0.000 H 
ATOM    123  H27 UNL A   1      23.457  37.904  48.579  1.00  0.00    +0.000 H 
ATOM    124  H28 UNL A   1      23.327  35.891  47.036  1.00  0.00    +0.000 H 
ATOM    125  H29 UNL A   1      27.042  37.674  46.489  1.00  0.00    +0.000 H 
ATOM    126  H30 UNL A   1      27.223  41.514  49.731  1.00  0.00    +0.000 H 
ATOM    127  H31 UNL A   1      29.525  42.063  48.754  1.00  0.00    +0.000 H 
ATOM    128  H32 UNL A   1      29.027  33.975  42.816  1.00  0.00    +0.000 H 
ENDROOT
BRANCH   25   24
ATOM    130  H34 UNL A   1      25.501  33.009  46.448  1.00  0.00    +0.000 H 
ATOM    131  H35 UNL A   1      23.911  31.255  45.929  1.00  0.00    +0.000 H 
ATOM     82  C58 UNL A   1      24.736  33.189  45.779  1.00  0.00    +0.000 C 
ATOM     83  C59 UNL A   1      23.800  32.192  45.514  1.00  0.00    +0.000 C 
ATOM     21  C16 UNL A   1      22.709  32.463  44.683  1.00  0.00    +0.000 C 
ATOM     22  C17 UNL A   1      22.623  33.692  44.021  1.00  0.00    +0.000 C 
ATOM    118  H22 UNL A   1      21.840  33.877  43.374  1.00  0.00    +0.000 H 
ATOM     23  C18 UNL A   1      23.597  34.668  44.237  1.00  0.00    +0.000 C 
ATOM    119  H23 UNL A   1      23.548  35.566  43.730  1.00  0.00    +0.000 H 
ATOM     24  C19 UNL A   1      24.646  34.435  45.142  1.00  0.00    +0.000 C 
BRANCH   21   19
ATOM     19  C15 UNL A   1      21.645  31.459  44.461  1.00  0.00    +0.000 C 
ATOM     20  O3  UNL A   1      21.882  30.272  44.660  1.00  0.00    +0.000 O 
BRANCH   19   18
ATOM     18  N2  UNL A   1      20.405  31.850  44.023  1.00  0.00    +0.000 N 
ATOM    117  H21 UNL A   1      20.407  32.451  43.243  1.00  0.00    +0.000 H 
BRANCH   18   17
ATOM     17  C14 UNL A   1      19.090  31.508  44.541  1.00  0.00    +0.000 C 
ATOM    115  H19 UNL A   1      19.212  30.887  45.405  1.00  0.00    +0.000 H 
ATOM    116  H20 UNL A   1      18.586  32.420  44.784  1.00  0.00    +0.000 H 
BRANCH   17   16
ATOM    113  H17 UNL A   1      17.823  31.480  42.845  1.00  0.00    +0.000 H 
ATOM    114  H18 UNL A   1      18.895  30.064  43.037  1.00  0.00    +0.000 H 
ATOM     16  C13 UNL A   1      18.241  30.761  43.517  1.00  0.00    +0.000 C 
BRANCH   16   15
ATOM    111  H15 UNL A   1      17.273  29.825  45.157  1.00  0.00    +0.000 H 
ATOM     15  C12 UNL A   1      17.093  29.938  44.108  1.00  0.00    +0.000 C 
ATOM    112  H16 UNL A   1      16.196  30.477  43.882  1.00  0.00    +0.000 H 
BRANCH   15   14
ATOM    110  H14 UNL A   1      17.742  27.961  43.850  1.00  0.00    +0.000 H 
ATOM    109  H13 UNL A   1      16.869  28.643  42.442  1.00  0.00    +0.000 H 
ATOM     14  C11 UNL A   1      16.911  28.540  43.506  1.00  0.00    +0.000 C 
BRANCH   14   13
ATOM    107  H11 UNL A   1      15.701  27.661  45.020  1.00  0.00    +0.000 H 
ATOM    108  H12 UNL A   1      14.815  28.369  43.645  1.00  0.00    +0.000 H 
ATOM     13  C10 UNL A   1      15.654  27.785  43.959  1.00  0.00    +0.000 C 
BRANCH   13   12
ATOM    105  H9  UNL A   1      15.927  26.424  42.345  1.00  0.00    +0.000 H 
ATOM    106  H10 UNL A   1      15.981  25.691  43.950  1.00  0.00    +0.000 H 
ATOM     12  C9  UNL A   1      15.492  26.406  43.322  1.00  0.00    +0.000 C 
BRANCH   12   11
ATOM     11  N1  UNL A   1      14.102  26.022  43.207  1.00  0.00    +0.000 N 
ATOM    104  H8  UNL A   1      13.460  26.664  43.589  1.00  0.00    +0.000 H 
BRANCH   11    9
ATOM      9  C8  UNL A   1      13.544  24.908  42.651  1.00  0.00    +0.000 C 
ATOM     10  O2  UNL A   1      12.311  24.872  42.603  1.00  0.00    +0.000 O 
BRANCH    9    8
ATOM    102  H6  UNL A   1      15.336  24.067  41.913  1.00  0.00    +0.000 H 
ATOM    103  H7  UNL A   1      14.428  23.080  43.113  1.00  0.00    +0.000 H 
ATOM      8  C7  UNL A   1      14.385  23.704  42.245  1.00  0.00    +0.000 C 
BRANCH    8    7
ATOM      3  C2  UNL A   1      11.163  19.559  41.075  1.00  0.00    +0.000 C 
ATOM    100  H4  UNL A   1      10.932  19.701  43.162  1.00  0.00    +0.000 H 
ATOM      4  C3  UNL A   1      11.394  20.107  42.334  1.00  0.00    +0.000 C 
ATOM      5  C4  UNL A   1      12.249  21.206  42.481  1.00  0.00    +0.000 C 
ATOM    101  H5  UNL A   1      12.408  21.614  43.415  1.00  0.00    +0.000 H 
ATOM      6  C5  UNL A   1      12.891  21.754  41.351  1.00  0.00    +0.000 C 
ATOM      7  C6  UNL A   1      13.821  22.832  41.152  1.00  0.00    +0.000 C 
ATOM    138  H42 UNL A   1      13.453  21.643  38.234  1.00  0.00    +0.000 H 
ATOM    139  H43 UNL A   1      11.678  19.633  39.015  1.00  0.00    +0.000 H 
ATOM     84  C60 UNL A   1      14.033  22.945  39.776  1.00  0.00    +0.000 C 
ATOM     94  N8  UNL A   1      13.392  21.873  39.190  1.00  0.00    +0.000 N 
ATOM     95  C68 UNL A   1      12.658  21.169  40.112  1.00  0.00    +0.000 C 
ATOM     96  C69 UNL A   1      11.814  20.063  39.944  1.00  0.00    +0.000 C 
BRANCH    3    2
ATOM      2  O1  UNL A   1      10.346  18.480  40.858  1.00  0.00    +0.000 O 
BRANCH    2    1
ATOM      1  C1  UNL A   1      10.607  17.801  39.630  1.00  0.00    +0.000 C 
ATOM     98  H2  UNL A   1      10.736  16.756  39.821  1.00  0.00    +0.000 H 
ATOM     99  H3  UNL A   1      11.496  18.195  39.185  1.00  0.00    +0.000 H 
ATOM     97  H1  UNL A   1       9.782  17.941  38.963  1.00  0.00    +0.000 H 
ENDBRANCH    2    1
ENDBRANCH    3    2
BRANCH   84   85
ATOM     85  C61 UNL A   1      14.796  23.965  39.062  1.00  0.00    +0.000 C 
ATOM     86  O4  UNL A   1      14.932  25.113  39.473  1.00  0.00    +0.000 O 
BRANCH   85   87
ATOM    132  H36 UNL A   1      14.027  24.779  36.609  1.00  0.00    +0.000 H 
ATOM    136  H40 UNL A   1      17.100  22.819  34.492  1.00  0.00    +0.000 H 
ATOM    137  H41 UNL A   1      17.929  21.984  36.582  1.00  0.00    +0.000 H 
ATOM     87  C62 UNL A   1      15.399  23.633  37.741  1.00  0.00    +0.000 C 
ATOM     88  C63 UNL A   1      14.859  24.169  36.575  1.00  0.00    +0.000 C 
ATOM     89  C64 UNL A   1      15.471  23.859  35.358  1.00  0.00    +0.000 C 
ATOM     91  C66 UNL A   1      16.613  23.052  35.371  1.00  0.00    +0.000 C 
ATOM     92  C67 UNL A   1      17.079  22.570  36.585  1.00  0.00    +0.000 C 
ATOM     93  N7  UNL A   1      16.488  22.825  37.768  1.00  0.00    +0.000 N 
BRANCH   89   90
ATOM     90  C65 UNL A   1      14.947  24.397  34.061  1.00  0.00    +0.000 C 
ATOM    133  H37 UNL A   1      15.024  23.645  33.305  1.00  0.00    +0.000 H 
ATOM    134  H38 UNL A   1      15.519  25.253  33.773  1.00  0.00    +0.000 H 
ATOM    135  H39 UNL A   1      13.921  24.678  34.181  1.00  0.00    +0.000 H 
ENDBRANCH   89   90
ENDBRANCH   85   87
ENDBRANCH   84   85
ENDBRANCH    8    7
ENDBRANCH    9    8
ENDBRANCH   11    9
ENDBRANCH   12   11
ENDBRANCH   13   12
ENDBRANCH   14   13
ENDBRANCH   15   14
ENDBRANCH   16   15
ENDBRANCH   17   16
ENDBRANCH   18   17
ENDBRANCH   19   18
ENDBRANCH   21   19
ENDBRANCH   25   24
BRANCH   29   30
ATOM     33  C26 UNL A   1      32.673  33.728  42.374  1.00  0.00    +0.000 C 
ATOM     34  F2  UNL A   1      33.393  32.671  42.775  1.00  0.00    +0.000 F 
ATOM     35  C27 UNL A   1      32.747  34.158  41.057  1.00  0.00    +0.000 C 
ATOM     36  F3  UNL A   1      33.523  33.505  40.182  1.00  0.00    +0.000 F 
ATOM     37  C28 UNL A   1      32.023  35.268  40.652  1.00  0.00    +0.000 C 
ATOM     38  F4  UNL A   1      32.085  35.677  39.377  1.00  0.00    +0.000 F 
ATOM     39  C29 UNL A   1      31.235  35.961  41.566  1.00  0.00    +0.000 C 
ATOM     40  F5  UNL A   1      30.557  37.041  41.146  1.00  0.00    +0.000 F 
ATOM     30  C24 UNL A   1      31.137  35.541  42.901  1.00  0.00    +0.000 C 
ATOM     31  C25 UNL A   1      31.863  34.402  43.284  1.00  0.00    +0.000 C 
ATOM     32  F1  UNL A   1      31.813  33.964  44.552  1.00  0.00    +0.000 F 
ENDBRANCH   29   30
BRANCH   46   47
ATOM     47  C35 UNL A   1      31.470  41.347  47.164  1.00  0.00    +0.000 C 
ATOM     48  C36 UNL A   1      32.595  41.115  47.969  1.00  0.00    +0.000 C 
ATOM     49  F6  UNL A   1      32.798  39.906  48.513  1.00  0.00    +0.000 F 
ATOM     50  C37 UNL A   1      33.496  42.139  48.251  1.00  0.00    +0.000 C 
ATOM     51  F7  UNL A   1      34.539  41.907  49.059  1.00  0.00    +0.000 F 
ATOM     52  C38 UNL A   1      33.307  43.401  47.707  1.00  0.00    +0.000 C 
ATOM     53  F8  UNL A   1      34.180  44.383  47.974  1.00  0.00    +0.000 F 
ATOM     54  C39 UNL A   1      32.212  43.647  46.893  1.00  0.00    +0.000 C 
ATOM     55  F9  UNL A   1      32.036  44.863  46.358  1.00  0.00    +0.000 F 
ATOM     56  C40 UNL A   1      31.294  42.634  46.633  1.00  0.00    +0.000 C 
ATOM     57  F10 UNL A   1      30.238  42.906  45.852  1.00  0.00    +0.000 F 
ENDBRANCH   46   47
BRANCH   61   62
ATOM     65  C46 UNL A   1      23.388  41.595  50.072  1.00  0.00    +0.000 C 
ATOM     66  F12 UNL A   1      22.612  42.624  49.707  1.00  0.00    +0.000 F 
ATOM     67  C47 UNL A   1      23.386  41.155  51.388  1.00  0.00    +0.000 C 
ATOM     68  F13 UNL A   1      22.593  41.748  52.292  1.00  0.00    +0.000 F 
ATOM     69  C48 UNL A   1      24.211  40.107  51.766  1.00  0.00    +0.000 C 
ATOM     70  F14 UNL A   1      24.201  39.672  53.033  1.00  0.00    +0.000 F 
ATOM     71  C49 UNL A   1      25.051  39.505  50.831  1.00  0.00    +0.000 C 
ATOM     72  F15 UNL A   1      25.847  38.502  51.228  1.00  0.00    +0.000 F 
ATOM     62  C44 UNL A   1      25.064  39.926  49.494  1.00  0.00    +0.000 C 
ATOM     63  C45 UNL A   1      24.209  40.976  49.130  1.00  0.00    +0.000 C 
ATOM     64  F11 UNL A   1      24.202  41.427  47.868  1.00  0.00    +0.000 F 
ENDBRANCH   61   62
TORSDOF 21
ENDMDL
MODEL 6
REMARK VINA RESULT:     -11.4     18.271     32.131
ROOT
ATOM    129  H33 UNL A   1      18.490  35.062  47.061  1.00  0.00    +0.000 H 
ATOM     25  C20 UNL A   1      21.237  34.604  46.461  1.00  0.00    +0.000 C 
ATOM     26  C21 UNL A   1      20.665  35.560  47.470  1.00  0.00    +0.000 C 
ATOM     27  N3  UNL A   1      21.286  36.375  48.286  1.00  0.00    +0.000 N 
ATOM     28  C22 UNL A   1      20.289  37.059  48.968  1.00  0.00    +0.000 C 
ATOM     29  C23 UNL A   1      20.418  37.971  49.960  1.00  0.00    +0.000 C 
ATOM     41  C30 UNL A   1      21.678  38.405  50.505  1.00  0.00    +0.000 C 
ATOM     42  C31 UNL A   1      21.912  39.275  51.557  1.00  0.00    +0.000 C 
ATOM     43  C32 UNL A   1      23.295  39.429  51.698  1.00  0.00    +0.000 C 
ATOM     44  C33 UNL A   1      23.924  38.623  50.764  1.00  0.00    +0.000 C 
ATOM     45  N4  UNL A   1      22.921  38.002  50.037  1.00  0.00    +0.000 N 
ATOM     46  C34 UNL A   1      25.335  38.431  50.550  1.00  0.00    +0.000 C 
ATOM     58  C41 UNL A   1      25.875  37.603  49.621  1.00  0.00    +0.000 C 
ATOM     59  N5  UNL A   1      25.231  36.784  48.702  1.00  0.00    +0.000 N 
ATOM     60  C42 UNL A   1      26.181  36.196  48.018  1.00  0.00    +0.000 C 
ATOM     61  C43 UNL A   1      26.065  35.186  46.910  1.00  0.00    +0.000 C 
ATOM     73  C50 UNL A   1      24.845  34.766  46.525  1.00  0.00    +0.000 C 
ATOM     74  C51 UNL A   1      24.577  33.788  45.475  1.00  0.00    +0.000 C 
ATOM     75  C52 UNL A   1      23.249  33.646  45.337  1.00  0.00    +0.000 C 
ATOM     76  C53 UNL A   1      22.573  34.499  46.314  1.00  0.00    +0.000 C 
ATOM     77  N6  UNL A   1      23.598  35.124  46.978  1.00  0.00    +0.000 N 
ATOM     78  C54 UNL A   1      27.539  36.594  48.411  1.00  0.00    +0.000 C 
ATOM     79  C55 UNL A   1      27.297  37.423  49.417  1.00  0.00    +0.000 C 
ATOM     80  C56 UNL A   1      19.022  36.599  48.440  1.00  0.00    +0.000 C 
ATOM     81  C57 UNL A   1      19.198  35.625  47.557  1.00  0.00    +0.000 C 
ATOM    120  H24 UNL A   1      21.189  39.730  52.136  1.00  0.00    +0.000 H 
ATOM    121  H25 UNL A   1      23.766  40.042  52.383  1.00  0.00    +0.000 H 
ATOM    122  H26 UNL A   1      23.067  37.369  49.298  1.00  0.00    +0.000 H 
ATOM    123  H27 UNL A   1      25.294  33.287  44.927  1.00  0.00    +0.000 H 
ATOM    124  H28 UNL A   1      22.782  33.032  44.652  1.00  0.00    +0.000 H 
ATOM    125  H29 UNL A   1      23.454  35.767  47.709  1.00  0.00    +0.000 H 
ATOM    126  H30 UNL A   1      28.445  36.305  48.009  1.00  0.00    +0.000 H 
ATOM    127  H31 UNL A   1      28.028  37.881  49.982  1.00  0.00    +0.000 H 
ATOM    128  H32 UNL A   1      18.103  36.980  48.713  1.00  0.00    +0.000 H 
ENDROOT
BRANCH   25   24
ATOM    130  H34 UNL A   1      20.199  32.169  46.885  1.00  0.00    +0.000 H 
ATOM    131  H35 UNL A   1      18.791  30.847  45.422  1.00  0.00    +0.000 H 
ATOM     82  C58 UNL A   1      19.897  32.553  45.976  1.00  0.00    +0.000 C 
ATOM     83  C59 UNL A   1      19.055  31.807  45.155  1.00  0.00    +0.000 C 
ATOM     21  C16 UNL A   1      18.567  32.362  43.968  1.00  0.00    +0.000 C 
ATOM     22  C17 UNL A   1      19.021  33.615  43.544  1.00  0.00    +0.000 C 
ATOM    118  H22 UNL A   1      18.695  34.007  42.646  1.00  0.00    +0.000 H 
ATOM     23  C18 UNL A   1      19.917  34.335  44.337  1.00  0.00    +0.000 C 
ATOM    119  H23 UNL A   1      20.272  35.248  44.012  1.00  0.00    +0.000 H 
ATOM     24  C19 UNL A   1      20.339  33.823  45.575  1.00  0.00    +0.000 C 
BRANCH   21   19
ATOM     19  C15 UNL A   1      17.593  31.635  43.125  1.00  0.00    +0.000 C 
ATOM     20  O3  UNL A   1      17.572  31.833  41.914  1.00  0.00    +0.000 O 
BRANCH   19   18
ATOM     18  N2  UNL A   1      16.708  30.754  43.694  1.00  0.00    +0.000 N 
ATOM    117  H21 UNL A   1      16.882  30.537  44.638  1.00  0.00    +0.000 H 
BRANCH   18   17
ATOM     17  C14 UNL A   1      15.552  30.094  43.107  1.00  0.00    +0.000 C 
ATOM    115  H19 UNL A   1      14.839  29.898  43.880  1.00  0.00    +0.000 H 
ATOM    116  H20 UNL A   1      15.149  30.744  42.359  1.00  0.00    +0.000 H 
BRANCH   17   16
ATOM    113  H17 UNL A   1      15.092  28.107  42.538  1.00  0.00    +0.000 H 
ATOM    114  H18 UNL A   1      16.146  29.012  41.414  1.00  0.00    +0.000 H 
ATOM     16  C13 UNL A   1      15.920  28.775  42.433  1.00  0.00    +0.000 C 
BRANCH   16   15
ATOM    111  H15 UNL A   1      17.553  27.434  42.246  1.00  0.00    +0.000 H 
ATOM     15  C12 UNL A   1      17.164  28.086  43.000  1.00  0.00    +0.000 C 
ATOM    112  H16 UNL A   1      17.836  28.872  43.277  1.00  0.00    +0.000 H 
BRANCH   15   14
ATOM    110  H14 UNL A   1      17.076  27.931  45.089  1.00  0.00    +0.000 H 
ATOM    109  H13 UNL A   1      17.625  26.441  44.259  1.00  0.00    +0.000 H 
ATOM     14  C11 UNL A   1      16.934  27.258  44.269  1.00  0.00    +0.000 C 
BRANCH   14   13
ATOM    107  H11 UNL A   1      15.409  26.357  45.448  1.00  0.00    +0.000 H 
ATOM    108  H12 UNL A   1      14.839  27.463  44.173  1.00  0.00    +0.000 H 
ATOM     13  C10 UNL A   1      15.522  26.683  44.436  1.00  0.00    +0.000 C 
BRANCH   13   12
ATOM    105  H9  UNL A   1      15.743  25.638  42.594  1.00  0.00    +0.000 H 
ATOM    106  H10 UNL A   1      15.527  24.607  44.011  1.00  0.00    +0.000 H 
ATOM     12  C9  UNL A   1      15.216  25.503  43.515  1.00  0.00    +0.000 C 
BRANCH   12   11
ATOM     11  N1  UNL A   1      13.802  25.388  43.232  1.00  0.00    +0.000 N 
ATOM    104  H8  UNL A   1      13.260  26.165  43.500  1.00  0.00    +0.000 H 
BRANCH   11    9
ATOM      9  C8  UNL A   1      13.106  24.369  42.649  1.00  0.00    +0.000 C 
ATOM     10  O2  UNL A   1      11.897  24.555  42.475  1.00  0.00    +0.000 O 
BRANCH    9    8
ATOM    102  H6  UNL A   1      14.753  23.050  42.724  1.00  0.00    +0.000 H 
ATOM    103  H7  UNL A   1      13.123  22.298  42.849  1.00  0.00    +0.000 H 
ATOM      8  C7  UNL A   1      13.746  23.018  42.362  1.00  0.00    +0.000 C 
BRANCH    8    7
ATOM      3  C2  UNL A   1      14.783  24.540  37.307  1.00  0.00    +0.000 C 
ATOM    100  H4  UNL A   1      15.222  26.298  38.379  1.00  0.00    +0.000 H 
ATOM      4  C3  UNL A   1      14.912  25.317  38.456  1.00  0.00    +0.000 C 
ATOM      5  C4  UNL A   1      14.623  24.773  39.714  1.00  0.00    +0.000 C 
ATOM    101  H5  UNL A   1      14.730  25.351  40.562  1.00  0.00    +0.000 H 
ATOM      6  C5  UNL A   1      14.186  23.436  39.819  1.00  0.00    +0.000 C 
ATOM      7  C6  UNL A   1      13.793  22.594  40.915  1.00  0.00    +0.000 C 
ATOM    138  H42 UNL A   1      13.378  20.729  38.383  1.00  0.00    +0.000 H 
ATOM    139  H43 UNL A   1      14.182  22.657  36.530  1.00  0.00    +0.000 H 
ATOM     84  C60 UNL A   1      13.537  21.325  40.390  1.00  0.00    +0.000 C 
ATOM     94  N8  UNL A   1      13.609  21.446  39.018  1.00  0.00    +0.000 N 
ATOM     95  C68 UNL A   1      14.045  22.695  38.652  1.00  0.00    +0.000 C 
ATOM     96  C69 UNL A   1      14.319  23.222  37.382  1.00  0.00    +0.000 C 
BRANCH    3    2
ATOM      2  O1  UNL A   1      15.040  25.008  36.045  1.00  0.00    +0.000 O 
BRANCH    2    1
ATOM      1  C1  UNL A   1      15.425  23.989  35.123  1.00  0.00    +0.000 C 
ATOM     98  H2  UNL A   1      14.767  24.005  34.279  1.00  0.00    +0.000 H 
ATOM     99  H3  UNL A   1      15.368  23.034  35.601  1.00  0.00    +0.000 H 
ATOM     97  H1  UNL A   1      16.428  24.165  34.795  1.00  0.00    +0.000 H 
ENDBRANCH    2    1
ENDBRANCH    3    2
BRANCH   84   85
ATOM     85  C61 UNL A   1      13.227  20.095  41.114  1.00  0.00    +0.000 C 
ATOM     86  O4  UNL A   1      13.931  19.650  42.015  1.00  0.00    +0.000 O 
BRANCH   85   87
ATOM    132  H36 UNL A   1      12.809  18.708  38.840  1.00  0.00    +0.000 H 
ATOM    136  H40 UNL A   1       9.015  17.214  39.904  1.00  0.00    +0.000 H 
ATOM    137  H41 UNL A   1       9.198  18.393  41.985  1.00  0.00    +0.000 H 
ATOM     87  C62 UNL A   1      12.034  19.297  40.717  1.00  0.00    +0.000 C 
ATOM     88  C63 UNL A   1      12.014  18.636  39.492  1.00  0.00    +0.000 C 
ATOM     89  C64 UNL A   1      10.889  17.873  39.170  1.00  0.00    +0.000 C 
ATOM     91  C66 UNL A   1       9.852  17.784  40.104  1.00  0.00    +0.000 C 
ATOM     92  C67 UNL A   1       9.966  18.475  41.300  1.00  0.00    +0.000 C 
ATOM     93  N7  UNL A   1      11.023  19.245  41.621  1.00  0.00    +0.000 N 
BRANCH   89   90
ATOM     90  C65 UNL A   1      10.795  17.133  37.870  1.00  0.00    +0.000 C 
ATOM    133  H37 UNL A   1      11.732  17.191  37.357  1.00  0.00    +0.000 H 
ATOM    134  H38 UNL A   1      10.029  17.572  37.265  1.00  0.00    +0.000 H 
ATOM    135  H39 UNL A   1      10.555  16.108  38.060  1.00  0.00    +0.000 H 
ENDBRANCH   89   90
ENDBRANCH   85   87
ENDBRANCH   84   85
ENDBRANCH    8    7
ENDBRANCH    9    8
ENDBRANCH   11    9
ENDBRANCH   12   11
ENDBRANCH   13   12
ENDBRANCH   14   13
ENDBRANCH   15   14
ENDBRANCH   16   15
ENDBRANCH   17   16
ENDBRANCH   18   17
ENDBRANCH   19   18
ENDBRANCH   21   19
ENDBRANCH   25   24
BRANCH   29   30
ATOM     33  C26 UNL A   1      17.432  40.273  50.546  1.00  0.00    +0.000 C 
ATOM     34  F2  UNL A   1      16.944  41.426  50.069  1.00  0.00    +0.000 F 
ATOM     35  C27 UNL A   1      16.777  39.619  51.579  1.00  0.00    +0.000 C 
ATOM     36  F3  UNL A   1      15.647  40.129  52.087  1.00  0.00    +0.000 F 
ATOM     37  C28 UNL A   1      17.298  38.440  52.090  1.00  0.00    +0.000 C 
ATOM     38  F4  UNL A   1      16.660  37.801  53.080  1.00  0.00    +0.000 F 
ATOM     39  C29 UNL A   1      18.485  37.921  51.579  1.00  0.00    +0.000 C 
ATOM     40  F5  UNL A   1      18.972  36.786  52.105  1.00  0.00    +0.000 F 
ATOM     30  C24 UNL A   1      19.161  38.561  50.529  1.00  0.00    +0.000 C 
ATOM     31  C25 UNL A   1      18.603  39.741  50.013  1.00  0.00    +0.000 C 
ATOM     32  F1  UNL A   1      19.216  40.398  49.016  1.00  0.00    +0.000 F 
ENDBRANCH   29   30
BRANCH   46   47
ATOM     47  C35 UNL A   1      26.287  39.186  51.430  1.00  0.00    +0.000 C 
ATOM     48  C36 UNL A   1      26.742  40.468  51.090  1.00  0.00    +0.000 C 
ATOM     49  F6  UNL A   1      26.366  41.033  49.932  1.00  0.00    +0.000 F 
ATOM     50  C37 UNL A   1      27.618  41.160  51.922  1.00  0.00    +0.000 C 
ATOM     51  F7  UNL A   1      28.075  42.365  51.557  1.00  0.00    +0.000 F 
ATOM     52  C38 UNL A   1      28.028  40.598  53.123  1.00  0.00    +0.000 C 
ATOM     53  F8  UNL A   1      28.866  41.269  53.925  1.00  0.00    +0.000 F 
ATOM     54  C39 UNL A   1      27.576  39.338  53.486  1.00  0.00    +0.000 C 
ATOM     55  F9  UNL A   1      27.962  38.799  54.651  1.00  0.00    +0.000 F 
ATOM     56  C40 UNL A   1      26.723  38.632  52.643  1.00  0.00    +0.000 C 
ATOM     57  F10 UNL A   1      26.313  37.411  53.017  1.00  0.00    +0.000 F 
ENDBRANCH   46   47
BRANCH   61   62
ATOM     65  C46 UNL A   1      29.098  33.012  46.219  1.00  0.00    +0.000 C 
ATOM     66  F12 UNL A   1      29.744  31.988  46.794  1.00  0.00    +0.000 F 
ATOM     67  C47 UNL A   1      29.581  33.565  45.042  1.00  0.00    +0.000 C 
ATOM     68  F13 UNL A   1      30.684  33.065  44.469  1.00  0.00    +0.000 F 
ATOM     69  C48 UNL A   1      28.924  34.642  44.466  1.00  0.00    +0.000 C 
ATOM     70  F14 UNL A   1      29.381  35.171  43.323  1.00  0.00    +0.000 F 
ATOM     71  C49 UNL A   1      27.790  35.177  45.074  1.00  0.00    +0.000 C 
ATOM     72  F15 UNL A   1      27.182  36.226  44.503  1.00  0.00    +0.000 F 
ATOM     62  C44 UNL A   1      27.278  34.628  46.259  1.00  0.00    +0.000 C 
ATOM     63  C45 UNL A   1      27.948  33.529  46.814  1.00  0.00    +0.000 C 
ATOM     64  F11 UNL A   1      27.508  32.983  47.957  1.00  0.00    +0.000 F 
ENDBRANCH   61   62
TORSDOF 21
ENDMDL
MODEL 7
REMARK VINA RESULT:     -11.4     28.609     35.517
ROOT
ATOM    129  H33 UNL A   1      27.288 -13.072  27.945  1.00  0.00    +0.000 H 
ATOM     25  C20 UNL A   1      25.374 -11.995  29.760  1.00  0.00    +0.000 C 
ATOM     26  C21 UNL A   1      26.530 -12.904  30.076  1.00  0.00    +0.000 C 
ATOM     27  N3  UNL A   1      26.910 -13.390  31.231  1.00  0.00    +0.000 N 
ATOM     28  C22 UNL A   1      28.002 -14.203  30.958  1.00  0.00    +0.000 C 
ATOM     29  C23 UNL A   1      28.784 -14.886  31.827  1.00  0.00    +0.000 C 
ATOM     41  C30 UNL A   1      28.608 -14.880  33.256  1.00  0.00    +0.000 C 
ATOM     42  C31 UNL A   1      29.389 -15.485  34.225  1.00  0.00    +0.000 C 
ATOM     43  C32 UNL A   1      28.805 -15.241  35.473  1.00  0.00    +0.000 C 
ATOM     44  C33 UNL A   1      27.685 -14.448  35.285  1.00  0.00    +0.000 C 
ATOM     45  N4  UNL A   1      27.574 -14.236  33.920  1.00  0.00    +0.000 N 
ATOM     46  C34 UNL A   1      26.782 -13.922  36.276  1.00  0.00    +0.000 C 
ATOM     58  C41 UNL A   1      25.712 -13.132  36.011  1.00  0.00    +0.000 C 
ATOM     59  N5  UNL A   1      25.254 -12.664  34.786  1.00  0.00    +0.000 N 
ATOM     60  C42 UNL A   1      24.184 -11.955  35.049  1.00  0.00    +0.000 C 
ATOM     61  C43 UNL A   1      23.296 -11.193  34.105  1.00  0.00    +0.000 C 
ATOM     73  C50 UNL A   1      23.589 -11.178  32.791  1.00  0.00    +0.000 C 
ATOM     74  C51 UNL A   1      22.828 -10.478  31.761  1.00  0.00    +0.000 C 
ATOM     75  C52 UNL A   1      23.387 -10.718  30.564  1.00  0.00    +0.000 C 
ATOM     76  C53 UNL A   1      24.568 -11.562  30.748  1.00  0.00    +0.000 C 
ATOM     77  N6  UNL A   1      24.613 -11.782  32.102  1.00  0.00    +0.000 N 
ATOM     78  C54 UNL A   1      23.828 -11.911  36.474  1.00  0.00    +0.000 C 
ATOM     79  C55 UNL A   1      24.812 -12.612  37.019  1.00  0.00    +0.000 C 
ATOM     80  C56 UNL A   1      28.195 -14.183  29.523  1.00  0.00    +0.000 C 
ATOM     81  C57 UNL A   1      27.352 -13.344  28.939  1.00  0.00    +0.000 C 
ATOM    120  H24 UNL A   1      30.254 -16.023  34.056  1.00  0.00    +0.000 H 
ATOM    121  H25 UNL A   1      29.150 -15.594  36.379  1.00  0.00    +0.000 H 
ATOM    122  H26 UNL A   1      26.867 -13.707  33.486  1.00  0.00    +0.000 H 
ATOM    123  H27 UNL A   1      21.994  -9.893  31.927  1.00  0.00    +0.000 H 
ATOM    124  H28 UNL A   1      23.039 -10.362  29.660  1.00  0.00    +0.000 H 
ATOM    125  H29 UNL A   1      25.312 -12.320  32.538  1.00  0.00    +0.000 H 
ATOM    126  H30 UNL A   1      23.022 -11.456  36.930  1.00  0.00    +0.000 H 
ATOM    127  H31 UNL A   1      24.923 -12.767  38.034  1.00  0.00    +0.000 H 
ATOM    128  H32 UNL A   1      28.897 -14.749  29.022  1.00  0.00    +0.000 H 
ENDROOT
BRANCH   25   24
ATOM    130  H34 UNL A   1      26.235  -9.859  28.388  1.00  0.00    +0.000 H 
ATOM    131  H35 UNL A   1      25.699  -9.200  26.118  1.00  0.00    +0.000 H 
ATOM     82  C58 UNL A   1      25.624 -10.456  27.809  1.00  0.00    +0.000 C 
ATOM     83  C59 UNL A   1      25.351 -10.096  26.491  1.00  0.00    +0.000 C 
ATOM     21  C16 UNL A   1      24.604 -10.951  25.675  1.00  0.00    +0.000 C 
ATOM     22  C17 UNL A   1      24.028 -12.105  26.214  1.00  0.00    +0.000 C 
ATOM    118  H22 UNL A   1      23.440 -12.714  25.623  1.00  0.00    +0.000 H 
ATOM     23  C18 UNL A   1      24.249 -12.433  27.553  1.00  0.00    +0.000 C 
ATOM    119  H23 UNL A   1      23.803 -13.271  27.957  1.00  0.00    +0.000 H 
ATOM     24  C19 UNL A   1      25.074 -11.626  28.354  1.00  0.00    +0.000 C 
BRANCH   21   19
ATOM     19  C15 UNL A   1      24.382 -10.645  24.245  1.00  0.00    +0.000 C 
ATOM     20  O3  UNL A   1      23.364 -10.050  23.903  1.00  0.00    +0.000 O 
BRANCH   19   18
ATOM     18  N2  UNL A   1      25.301 -11.033  23.303  1.00  0.00    +0.000 N 
ATOM    117  H21 UNL A   1      25.197 -10.614  22.418  1.00  0.00    +0.000 H 
BRANCH   18   17
ATOM     17  C14 UNL A   1      26.405 -11.973  23.420  1.00  0.00    +0.000 C 
ATOM    115  H19 UNL A   1      26.639 -12.102  24.457  1.00  0.00    +0.000 H 
ATOM    116  H20 UNL A   1      26.099 -12.895  22.972  1.00  0.00    +0.000 H 
BRANCH   17   16
ATOM    113  H17 UNL A   1      27.981 -12.271  22.037  1.00  0.00    +0.000 H 
ATOM    114  H18 UNL A   1      27.375 -10.596  22.176  1.00  0.00    +0.000 H 
ATOM     16  C13 UNL A   1      27.655 -11.490  22.692  1.00  0.00    +0.000 C 
BRANCH   16   15
ATOM    111  H15 UNL A   1      29.605 -11.831  23.456  1.00  0.00    +0.000 H 
ATOM     15  C12 UNL A   1      28.826 -11.112  23.603  1.00  0.00    +0.000 C 
ATOM    112  H16 UNL A   1      29.104 -10.115  23.327  1.00  0.00    +0.000 H 
BRANCH   15   14
ATOM    110  H14 UNL A   1      28.315 -12.074  25.394  1.00  0.00    +0.000 H 
ATOM    109  H13 UNL A   1      27.664 -10.413  25.235  1.00  0.00    +0.000 H 
ATOM     14  C11 UNL A   1      28.503 -11.063  25.100  1.00  0.00    +0.000 C 
BRANCH   14   13
ATOM    107  H11 UNL A   1      29.208 -10.199  26.913  1.00  0.00    +0.000 H 
ATOM    108  H12 UNL A   1      30.294 -11.395  26.161  1.00  0.00    +0.000 H 
ATOM     13  C10 UNL A   1      29.638 -10.564  26.005  1.00  0.00    +0.000 C 
BRANCH   13   12
ATOM    105  H9  UNL A   1      31.395  -9.364  25.941  1.00  0.00    +0.000 H 
ATOM    106  H10 UNL A   1      30.667  -9.698  24.367  1.00  0.00    +0.000 H 
ATOM     12  C9  UNL A   1      30.481  -9.448  25.391  1.00  0.00    +0.000 C 
BRANCH   12   11
ATOM     11  N1  UNL A   1      29.798  -8.173  25.422  1.00  0.00    +0.000 N 
ATOM    104  H8  UNL A   1      29.881  -7.637  24.600  1.00  0.00    +0.000 H 
BRANCH   11    9
ATOM      9  C8  UNL A   1      29.058  -7.601  26.415  1.00  0.00    +0.000 C 
ATOM     10  O2  UNL A   1      27.833  -7.601  26.261  1.00  0.00    +0.000 O 
BRANCH    9    8
ATOM    102  H6  UNL A   1      30.638  -6.467  27.239  1.00  0.00    +0.000 H 
ATOM    103  H7  UNL A   1      28.994  -6.131  27.888  1.00  0.00    +0.000 H 
ATOM      8  C7  UNL A   1      29.707  -6.868  27.582  1.00  0.00    +0.000 C 
BRANCH    8    7
ATOM      3  C2  UNL A   1      27.581  -9.395  31.829  1.00  0.00    +0.000 C 
ATOM    100  H4  UNL A   1      25.859  -8.665  30.862  1.00  0.00    +0.000 H 
ATOM      4  C3  UNL A   1      26.889  -8.723  30.824  1.00  0.00    +0.000 C 
ATOM      5  C4  UNL A   1      27.581  -8.127  29.763  1.00  0.00    +0.000 C 
ATOM    101  H5  UNL A   1      27.063  -7.640  29.017  1.00  0.00    +0.000 H 
ATOM      6  C5  UNL A   1      28.990  -8.195  29.717  1.00  0.00    +0.000 C 
ATOM      7  C6  UNL A   1      29.989  -7.689  28.815  1.00  0.00    +0.000 C 
ATOM    138  H42 UNL A   1      31.704  -9.115  31.070  1.00  0.00    +0.000 H 
ATOM    139  H43 UNL A   1      29.498  -9.906  32.588  1.00  0.00    +0.000 H 
ATOM     84  C60 UNL A   1      31.225  -8.158  29.263  1.00  0.00    +0.000 C 
ATOM     94  N8  UNL A   1      30.996  -8.774  30.476  1.00  0.00    +0.000 N 
ATOM     95  C68 UNL A   1      29.652  -8.851  30.748  1.00  0.00    +0.000 C 
ATOM     96  C69 UNL A   1      28.979  -9.446  31.823  1.00  0.00    +0.000 C 
BRANCH    3    2
ATOM      2  O1  UNL A   1      26.969  -9.993  32.899  1.00  0.00    +0.000 O 
BRANCH    2    1
ATOM      1  C1  UNL A   1      26.428  -9.068  33.841  1.00  0.00    +0.000 C 
ATOM     98  H2  UNL A   1      26.172  -8.158  33.340  1.00  0.00    +0.000 H 
ATOM     99  H3  UNL A   1      27.154  -8.866  34.600  1.00  0.00    +0.000 H 
ATOM     97  H1  UNL A   1      25.551  -9.486  34.288  1.00  0.00    +0.000 H 
ENDBRANCH    2    1
ENDBRANCH    3    2
BRANCH   84   85
ATOM     85  C61 UNL A   1      32.529  -8.021  28.619  1.00  0.00    +0.000 C 
ATOM     86  O4  UNL A   1      33.195  -6.991  28.663  1.00  0.00    +0.000 O 
BRANCH   85   87
ATOM    132  H36 UNL A   1      31.978 -10.651  28.840  1.00  0.00    +0.000 H 
ATOM    136  H40 UNL A   1      34.411 -11.900  25.632  1.00  0.00    +0.000 H 
ATOM    137  H41 UNL A   1      35.033  -9.609  25.288  1.00  0.00    +0.000 H 
ATOM     87  C62 UNL A   1      33.068  -9.154  27.818  1.00  0.00    +0.000 C 
ATOM     88  C63 UNL A   1      32.647 -10.455  28.079  1.00  0.00    +0.000 C 
ATOM     89  C64 UNL A   1      33.153 -11.487  27.286  1.00  0.00    +0.000 C 
ATOM     91  C66 UNL A   1      34.033 -11.163  26.249  1.00  0.00    +0.000 C 
ATOM     92  C67 UNL A   1      34.390  -9.836  26.063  1.00  0.00    +0.000 C 
ATOM     93  N7  UNL A   1      33.944  -8.827  26.835  1.00  0.00    +0.000 N 
BRANCH   89   90
ATOM     90  C65 UNL A   1      32.746 -12.913  27.507  1.00  0.00    +0.000 C 
ATOM    133  H37 UNL A   1      32.194 -12.989  28.420  1.00  0.00    +0.000 H 
ATOM    134  H38 UNL A   1      33.619 -13.528  27.565  1.00  0.00    +0.000 H 
ATOM    135  H39 UNL A   1      32.133 -13.239  26.692  1.00  0.00    +0.000 H 
ENDBRANCH   89   90
ENDBRANCH   85   87
ENDBRANCH   84   85
ENDBRANCH    8    7
ENDBRANCH    9    8
ENDBRANCH   11    9
ENDBRANCH   12   11
ENDBRANCH   13   12
ENDBRANCH   14   13
ENDBRANCH   15   14
ENDBRANCH   16   15
ENDBRANCH   17   16
ENDBRANCH   18   17
ENDBRANCH   19   18
ENDBRANCH   21   19
ENDBRANCH   25   24
BRANCH   29   30
ATOM     33  C26 UNL A   1      32.204 -15.888  30.464  1.00  0.00    +0.000 C 
ATOM     34  F2  UNL A   1      33.378 -15.310  30.171  1.00  0.00    +0.000 F 
ATOM     35  C27 UNL A   1      32.023 -17.243  30.231  1.00  0.00    +0.000 C 
ATOM     36  F3  UNL A   1      33.026 -17.979  29.732  1.00  0.00    +0.000 F 
ATOM     37  C28 UNL A   1      30.800 -17.834  30.508  1.00  0.00    +0.000 C 
ATOM     38  F4  UNL A   1      30.627 -19.145  30.295  1.00  0.00    +0.000 F 
ATOM     39  C29 UNL A   1      29.749 -17.066  31.005  1.00  0.00    +0.000 C 
ATOM     40  F5  UNL A   1      28.573 -17.664  31.249  1.00  0.00    +0.000 F 
ATOM     30  C24 UNL A   1      29.912 -15.695  31.255  1.00  0.00    +0.000 C 
ATOM     31  C25 UNL A   1      31.165 -15.124  30.987  1.00  0.00    +0.000 C 
ATOM     32  F1  UNL A   1      31.369 -13.814  31.199  1.00  0.00    +0.000 F 
ENDBRANCH   29   30
BRANCH   46   47
ATOM     47  C35 UNL A   1      27.050 -14.253  37.714  1.00  0.00    +0.000 C 
ATOM     48  C36 UNL A   1      28.094 -13.643  38.426  1.00  0.00    +0.000 C 
ATOM     49  F6  UNL A   1      28.914 -12.777  37.812  1.00  0.00    +0.000 F 
ATOM     50  C37 UNL A   1      28.323 -13.954  39.764  1.00  0.00    +0.000 C 
ATOM     51  F7  UNL A   1      29.354 -13.394  40.411  1.00  0.00    +0.000 F 
ATOM     52  C38 UNL A   1      27.495 -14.851  40.422  1.00  0.00    +0.000 C 
ATOM     53  F8  UNL A   1      27.715 -15.143  41.712  1.00  0.00    +0.000 F 
ATOM     54  C39 UNL A   1      26.446 -15.451  39.743  1.00  0.00    +0.000 C 
ATOM     55  F9  UNL A   1      25.638 -16.309  40.381  1.00  0.00    +0.000 F 
ATOM     56  C40 UNL A   1      26.231 -15.165  38.398  1.00  0.00    +0.000 C 
ATOM     57  F10 UNL A   1      25.215 -15.770  37.764  1.00  0.00    +0.000 F 
ENDBRANCH   46   47
BRANCH   61   62
ATOM     65  C46 UNL A   1      19.721 -10.278  34.992  1.00  0.00    +0.000 C 
ATOM     66  F12 UNL A   1      18.497 -10.808  34.874  1.00  0.00    +0.000 F 
ATOM     67  C47 UNL A   1      19.882  -9.018  35.550  1.00  0.00    +0.000 C 
ATOM     68  F13 UNL A   1      18.814  -8.337  35.989  1.00  0.00    +0.000 F 
ATOM     69  C48 UNL A   1      21.149  -8.462  35.645  1.00  0.00    +0.000 C 
ATOM     70  F14 UNL A   1      21.309  -7.251  36.195  1.00  0.00    +0.000 F 
ATOM     71  C49 UNL A   1      22.257  -9.160  35.168  1.00  0.00    +0.000 C 
ATOM     72  F15 UNL A   1      23.468  -8.593  35.261  1.00  0.00    +0.000 F 
ATOM     62  C44 UNL A   1      22.120 -10.438  34.609  1.00  0.00    +0.000 C 
ATOM     63  C45 UNL A   1      20.832 -10.988  34.539  1.00  0.00    +0.000 C 
ATOM     64  F11 UNL A   1      20.649 -12.199  33.993  1.00  0.00    +0.000 F 
ENDBRANCH   61   62
TORSDOF 21
ENDMDL
MODEL 8
REMARK VINA RESULT:     -11.4     33.327     40.766
ROOT
ATOM    129  H33 UNL A   1      40.485  27.530  27.738  1.00  0.00    +0.000 H 
ATOM     25  C20 UNL A   1      42.276  27.541  29.954  1.00  0.00    +0.000 C 
ATOM     26  C21 UNL A   1      41.010  28.336  29.792  1.00  0.00    +0.000 C 
ATOM     27  N3  UNL A   1      40.456  29.189  30.616  1.00  0.00    +0.000 N 
ATOM     28  C22 UNL A   1      39.329  29.669  29.962  1.00  0.00    +0.000 C 
ATOM     29  C23 UNL A   1      38.390  30.531  30.420  1.00  0.00    +0.000 C 
ATOM     41  C30 UNL A   1      38.403  31.124  31.732  1.00  0.00    +0.000 C 
ATOM     42  C31 UNL A   1      37.462  31.957  32.313  1.00  0.00    +0.000 C 
ATOM     43  C32 UNL A   1      37.922  32.317  33.584  1.00  0.00    +0.000 C 
ATOM     44  C33 UNL A   1      39.127  31.673  33.813  1.00  0.00    +0.000 C 
ATOM     45  N4  UNL A   1      39.412  30.947  32.668  1.00  0.00    +0.000 N 
ATOM     46  C34 UNL A   1      39.958  31.717  34.988  1.00  0.00    +0.000 C 
ATOM     58  C41 UNL A   1      41.122  31.038  35.143  1.00  0.00    +0.000 C 
ATOM     59  N5  UNL A   1      41.759  30.183  34.253  1.00  0.00    +0.000 N 
ATOM     60  C42 UNL A   1      42.855  29.791  34.852  1.00  0.00    +0.000 C 
ATOM     61  C43 UNL A   1      43.915  28.841  34.367  1.00  0.00    +0.000 C 
ATOM     73  C50 UNL A   1      43.775  28.260  33.160  1.00  0.00    +0.000 C 
ATOM     74  C51 UNL A   1      44.712  27.314  32.562  1.00  0.00    +0.000 C 
ATOM     75  C52 UNL A   1      44.273  26.975  31.340  1.00  0.00    +0.000 C 
ATOM     76  C53 UNL A   1      43.003  27.654  31.083  1.00  0.00    +0.000 C 
ATOM     77  N6  UNL A   1      42.783  28.392  32.219  1.00  0.00    +0.000 N 
ATOM     78  C54 UNL A   1      43.051  30.372  36.188  1.00  0.00    +0.000 C 
ATOM     79  C55 UNL A   1      41.947  31.093  36.331  1.00  0.00    +0.000 C 
ATOM     80  C56 UNL A   1      39.302  29.048  28.655  1.00  0.00    +0.000 C 
ATOM     81  C57 UNL A   1      40.283  28.167  28.524  1.00  0.00    +0.000 C 
ATOM    120  H24 UNL A   1      36.574  32.260  31.882  1.00  0.00    +0.000 H 
ATOM    121  H25 UNL A   1      37.443  32.954  34.240  1.00  0.00    +0.000 H 
ATOM    122  H26 UNL A   1      40.212  30.389  32.537  1.00  0.00    +0.000 H 
ATOM    123  H27 UNL A   1      45.575  26.963  33.007  1.00  0.00    +0.000 H 
ATOM    124  H28 UNL A   1      44.754  26.336  30.687  1.00  0.00    +0.000 H 
ATOM    125  H29 UNL A   1      41.991  28.961  32.348  1.00  0.00    +0.000 H 
ATOM    126  H30 UNL A   1      43.839  30.252  36.842  1.00  0.00    +0.000 H 
ATOM    127  H31 UNL A   1      41.707  31.627  37.181  1.00  0.00    +0.000 H 
ATOM    128  H32 UNL A   1      38.610  29.265  27.921  1.00  0.00    +0.000 H 
ENDROOT
BRANCH   25   24
ATOM    130  H34 UNL A   1      42.187  24.868  29.767  1.00  0.00    +0.000 H 
ATOM    131  H35 UNL A   1      43.048  23.443  28.006  1.00  0.00    +0.000 H 
ATOM     82  C58 UNL A   1      42.629  25.288  28.935  1.00  0.00    +0.000 C 
ATOM     83  C59 UNL A   1      43.087  24.469  27.906  1.00  0.00    +0.000 C 
ATOM     21  C16 UNL A   1      43.600  25.038  26.737  1.00  0.00    +0.000 C 
ATOM     22  C17 UNL A   1      43.768  26.424  26.649  1.00  0.00    +0.000 C 
ATOM    118  H22 UNL A   1      44.186  26.841  25.803  1.00  0.00    +0.000 H 
ATOM     23  C18 UNL A   1      43.368  27.241  27.708  1.00  0.00    +0.000 C 
ATOM    119  H23 UNL A   1      43.516  28.261  27.654  1.00  0.00    +0.000 H 
ATOM     24  C19 UNL A   1      42.768  26.682  28.848  1.00  0.00    +0.000 C 
BRANCH   21   19
ATOM     19  C15 UNL A   1      44.001  24.198  25.587  1.00  0.00    +0.000 C 
ATOM     20  O3  UNL A   1      45.025  24.468  24.967  1.00  0.00    +0.000 O 
BRANCH   19   18
ATOM     18  N2  UNL A   1      43.227  23.131  25.206  1.00  0.00    +0.000 N 
ATOM    117  H21 UNL A   1      42.460  23.354  24.631  1.00  0.00    +0.000 H 
BRANCH   18   17
ATOM     17  C14 UNL A   1      43.372  21.720  25.529  1.00  0.00    +0.000 C 
ATOM    115  H19 UNL A   1      43.206  21.146  24.641  1.00  0.00    +0.000 H 
ATOM    116  H20 UNL A   1      44.361  21.571  25.911  1.00  0.00    +0.000 H 
BRANCH   17   16
ATOM    113  H17 UNL A   1      42.526  20.218  26.759  1.00  0.00    +0.000 H 
ATOM    114  H18 UNL A   1      42.587  21.858  27.466  1.00  0.00    +0.000 H 
ATOM     16  C13 UNL A   1      42.384  21.265  26.598  1.00  0.00    +0.000 C 
BRANCH   16   15
ATOM    111  H15 UNL A   1      40.864  21.939  25.280  1.00  0.00    +0.000 H 
ATOM     15  C12 UNL A   1      40.910  21.499  26.255  1.00  0.00    +0.000 C 
ATOM    112  H16 UNL A   1      40.437  20.541  26.316  1.00  0.00    +0.000 H 
BRANCH   15   14
ATOM    110  H14 UNL A   1      40.783  22.534  28.074  1.00  0.00    +0.000 H 
ATOM    109  H13 UNL A   1      39.212  21.943  27.448  1.00  0.00    +0.000 H 
ATOM     14  C11 UNL A   1      40.148  22.411  27.222  1.00  0.00    +0.000 C 
BRANCH   14   13
ATOM    107  H11 UNL A   1      40.353  24.526  27.344  1.00  0.00    +0.000 H 
ATOM    108  H12 UNL A   1      40.210  23.864  25.696  1.00  0.00    +0.000 H 
ATOM     13  C10 UNL A   1      39.857  23.827  26.705  1.00  0.00    +0.000 C 
BRANCH   13   12
ATOM    105  H9  UNL A   1      37.989  24.179  27.663  1.00  0.00    +0.000 H 
ATOM    106  H10 UNL A   1      38.276  25.150  26.217  1.00  0.00    +0.000 H 
ATOM     12  C9  UNL A   1      38.372  24.183  26.664  1.00  0.00    +0.000 C 
BRANCH   12   11
ATOM     11  N1  UNL A   1      37.611  23.246  25.868  1.00  0.00    +0.000 N 
ATOM    104  H8  UNL A   1      37.761  22.297  26.086  1.00  0.00    +0.000 H 
BRANCH   11    9
ATOM      9  C8  UNL A   1      36.718  23.475  24.862  1.00  0.00    +0.000 C 
ATOM     10  O2  UNL A   1      37.144  23.361  23.708  1.00  0.00    +0.000 O 
BRANCH    9    8
ATOM    102  H6  UNL A   1      35.106  23.841  26.175  1.00  0.00    +0.000 H 
ATOM    103  H7  UNL A   1      35.316  25.013  24.827  1.00  0.00    +0.000 H 
ATOM      8  C7  UNL A   1      35.311  23.989  25.136  1.00  0.00    +0.000 C 
BRANCH    8    7
ATOM      3  C2  UNL A   1      32.817  19.377  23.931  1.00  0.00    +0.000 C 
ATOM    100  H4  UNL A   1      34.284  18.724  25.292  1.00  0.00    +0.000 H 
ATOM      4  C3  UNL A   1      33.885  19.543  24.808  1.00  0.00    +0.000 C 
ATOM      5  C4  UNL A   1      34.420  20.817  25.039  1.00  0.00    +0.000 C 
ATOM    101  H5  UNL A   1      35.205  20.936  25.698  1.00  0.00    +0.000 H 
ATOM      6  C5  UNL A   1      33.884  21.937  24.368  1.00  0.00    +0.000 C 
ATOM      7  C6  UNL A   1      34.197  23.340  24.352  1.00  0.00    +0.000 C 
ATOM    138  H42 UNL A   1      31.818  23.104  22.268  1.00  0.00    +0.000 H 
ATOM    139  H43 UNL A   1      31.527  20.341  22.546  1.00  0.00    +0.000 H 
ATOM     84  C60 UNL A   1      33.247  23.966  23.543  1.00  0.00    +0.000 C 
ATOM     94  N8  UNL A   1      32.501  22.960  22.963  1.00  0.00    +0.000 N 
ATOM     95  C68 UNL A   1      32.834  21.733  23.481  1.00  0.00    +0.000 C 
ATOM     96  C69 UNL A   1      32.291  20.466  23.229  1.00  0.00    +0.000 C 
BRANCH    3    2
ATOM      2  O1  UNL A   1      32.250  18.161  23.652  1.00  0.00    +0.000 O 
BRANCH    2    1
ATOM      1  C1  UNL A   1      33.198  17.151  23.306  1.00  0.00    +0.000 C 
ATOM     98  H2  UNL A   1      33.202  16.393  24.062  1.00  0.00    +0.000 H 
ATOM     99  H3  UNL A   1      34.172  17.587  23.232  1.00  0.00    +0.000 H 
ATOM     97  H1  UNL A   1      32.928  16.716  22.368  1.00  0.00    +0.000 H 
ENDBRANCH    2    1
ENDBRANCH    3    2
BRANCH   84   85
ATOM     85  C61 UNL A   1      33.062  25.395  23.309  1.00  0.00    +0.000 C 
ATOM     86  O4  UNL A   1      33.427  25.961  22.283  1.00  0.00    +0.000 O 
BRANCH   85   87
ATOM    132  H36 UNL A   1      33.214  28.067  23.637  1.00  0.00    +0.000 H 
ATOM    136  H40 UNL A   1      30.762  28.249  27.060  1.00  0.00    +0.000 H 
ATOM    137  H41 UNL A   1      30.518  25.865  26.942  1.00  0.00    +0.000 H 
ATOM     87  C62 UNL A   1      32.457  26.236  24.378  1.00  0.00    +0.000 C 
ATOM     88  C63 UNL A   1      32.641  27.616  24.367  1.00  0.00    +0.000 C 
ATOM     89  C64 UNL A   1      32.032  28.374  25.370  1.00  0.00    +0.000 C 
ATOM     91  C66 UNL A   1      31.241  27.716  26.317  1.00  0.00    +0.000 C 
ATOM     92  C67 UNL A   1      31.112  26.338  26.242  1.00  0.00    +0.000 C 
ATOM     93  N7  UNL A   1      31.718  25.580  25.307  1.00  0.00    +0.000 N 
BRANCH   89   90
ATOM     90  C65 UNL A   1      32.185  29.864  25.424  1.00  0.00    +0.000 C 
ATOM    133  H37 UNL A   1      32.386  30.239  24.442  1.00  0.00    +0.000 H 
ATOM    134  H38 UNL A   1      32.996  30.115  26.075  1.00  0.00    +0.000 H 
ATOM    135  H39 UNL A   1      31.282  30.302  25.795  1.00  0.00    +0.000 H 
ENDBRANCH   89   90
ENDBRANCH   85   87
ENDBRANCH   84   85
ENDBRANCH    8    7
ENDBRANCH    9    8
ENDBRANCH   11    9
ENDBRANCH   12   11
ENDBRANCH   13   12
ENDBRANCH   14   13
ENDBRANCH   15   14
ENDBRANCH   16   15
ENDBRANCH   17   16
ENDBRANCH   18   17
ENDBRANCH   19   18
ENDBRANCH   21   19
ENDBRANCH   25   24
BRANCH   29   30
ATOM     33  C26 UNL A   1      35.181  30.321  28.367  1.00  0.00    +0.000 C 
ATOM     34  F2  UNL A   1      34.226  29.423  28.085  1.00  0.00    +0.000 F 
ATOM     35  C27 UNL A   1      35.135  31.583  27.795  1.00  0.00    +0.000 C 
ATOM     36  F3  UNL A   1      34.127  31.913  26.977  1.00  0.00    +0.000 F 
ATOM     37  C28 UNL A   1      36.138  32.501  28.066  1.00  0.00    +0.000 C 
ATOM     38  F4  UNL A   1      36.089  33.725  27.524  1.00  0.00    +0.000 F 
ATOM     39  C29 UNL A   1      37.199  32.152  28.898  1.00  0.00    +0.000 C 
ATOM     40  F5  UNL A   1      38.162  33.057  29.130  1.00  0.00    +0.000 F 
ATOM     30  C24 UNL A   1      37.262  30.883  29.495  1.00  0.00    +0.000 C 
ATOM     31  C25 UNL A   1      36.225  29.978  29.222  1.00  0.00    +0.000 C 
ATOM     32  F1  UNL A   1      36.244  28.748  29.758  1.00  0.00    +0.000 F 
ENDBRANCH   29   30
BRANCH   46   47
ATOM     47  C35 UNL A   1      39.498  32.558  36.142  1.00  0.00    +0.000 C 
ATOM     48  C36 UNL A   1      38.564  32.081  37.073  1.00  0.00    +0.000 C 
ATOM     49  F6  UNL A   1      38.021  30.863  36.921  1.00  0.00    +0.000 F 
ATOM     50  C37 UNL A   1      38.154  32.871  38.144  1.00  0.00    +0.000 C 
ATOM     51  F7  UNL A   1      37.227  32.412  38.996  1.00  0.00    +0.000 F 
ATOM     52  C38 UNL A   1      38.694  34.136  38.322  1.00  0.00    +0.000 C 
ATOM     53  F8  UNL A   1      38.303  34.892  39.358  1.00  0.00    +0.000 F 
ATOM     54  C39 UNL A   1      39.632  34.621  37.423  1.00  0.00    +0.000 C 
ATOM     55  F9  UNL A   1      40.163  35.838  37.602  1.00  0.00    +0.000 F 
ATOM     56  C40 UNL A   1      40.023  33.845  36.336  1.00  0.00    +0.000 C 
ATOM     57  F10 UNL A   1      40.924  34.346  35.477  1.00  0.00    +0.000 F 
ENDBRANCH   46   47
BRANCH   61   62
ATOM     65  C46 UNL A   1      47.386  28.965  35.894  1.00  0.00    +0.000 C 
ATOM     66  F12 UNL A   1      48.513  29.676  35.755  1.00  0.00    +0.000 F 
ATOM     67  C47 UNL A   1      47.336  27.913  36.797  1.00  0.00    +0.000 C 
ATOM     68  F13 UNL A   1      48.408  27.619  37.545  1.00  0.00    +0.000 F 
ATOM     69  C48 UNL A   1      46.176  27.163  36.918  1.00  0.00    +0.000 C 
ATOM     70  F14 UNL A   1      46.120  26.154  37.798  1.00  0.00    +0.000 F 
ATOM     71  C49 UNL A   1      45.068  27.454  36.124  1.00  0.00    +0.000 C 
ATOM     72  F15 UNL A   1      43.965  26.704  36.252  1.00  0.00    +0.000 F 
ATOM     62  C44 UNL A   1      45.093  28.518  35.211  1.00  0.00    +0.000 C 
ATOM     63  C45 UNL A   1      46.270  29.274  35.118  1.00  0.00    +0.000 C 
ATOM     64  F11 UNL A   1      46.348  30.288  34.245  1.00  0.00    +0.000 F 
ENDBRANCH   61   62
TORSDOF 21
ENDMDL
MODEL 9
REMARK VINA RESULT:     -11.4     28.931     35.947
ROOT
ATOM    129  H33 UNL A   1      30.826 -15.149  32.460  1.00  0.00    +0.000 H 
ATOM     25  C20 UNL A   1      29.135 -13.874  30.554  1.00  0.00    +0.000 C 
ATOM     26  C21 UNL A   1      28.898 -14.033  32.030  1.00  0.00    +0.000 C 
ATOM     27  N3  UNL A   1      27.887 -13.628  32.756  1.00  0.00    +0.000 N 
ATOM     28  C22 UNL A   1      28.145 -14.071  34.046  1.00  0.00    +0.000 C 
ATOM     29  C23 UNL A   1      27.425 -13.856  35.173  1.00  0.00    +0.000 C 
ATOM     41  C30 UNL A   1      26.208 -13.088  35.225  1.00  0.00    +0.000 C 
ATOM     42  C31 UNL A   1      25.442 -12.757  36.329  1.00  0.00    +0.000 C 
ATOM     43  C32 UNL A   1      24.327 -12.037  35.888  1.00  0.00    +0.000 C 
ATOM     44  C33 UNL A   1      24.421 -11.880  34.515  1.00  0.00    +0.000 C 
ATOM     45  N4  UNL A   1      25.579 -12.533  34.120  1.00  0.00    +0.000 N 
ATOM     46  C34 UNL A   1      23.523 -11.188  33.627  1.00  0.00    +0.000 C 
ATOM     58  C41 UNL A   1      23.697 -11.063  32.288  1.00  0.00    +0.000 C 
ATOM     59  N5  UNL A   1      24.727 -11.546  31.493  1.00  0.00    +0.000 N 
ATOM     60  C42 UNL A   1      24.438 -11.182  30.268  1.00  0.00    +0.000 C 
ATOM     61  C43 UNL A   1      25.215 -11.411  29.001  1.00  0.00    +0.000 C 
ATOM     73  C50 UNL A   1      26.393 -12.061  29.059  1.00  0.00    +0.000 C 
ATOM     74  C51 UNL A   1      27.259 -12.349  27.919  1.00  0.00    +0.000 C 
ATOM     75  C52 UNL A   1      28.324 -13.046  28.344  1.00  0.00    +0.000 C 
ATOM     76  C53 UNL A   1      28.233 -13.224  29.793  1.00  0.00    +0.000 C 
ATOM     77  N6  UNL A   1      27.057 -12.604  30.132  1.00  0.00    +0.000 N 
ATOM     78  C54 UNL A   1      23.174 -10.443  30.144  1.00  0.00    +0.000 C 
ATOM     79  C55 UNL A   1      22.783 -10.365  31.408  1.00  0.00    +0.000 C 
ATOM     80  C56 UNL A   1      29.384 -14.817  33.996  1.00  0.00    +0.000 C 
ATOM     81  C57 UNL A   1      29.924 -14.769  32.786  1.00  0.00    +0.000 C 
ATOM    120  H24 UNL A   1      25.657 -13.001  37.309  1.00  0.00    +0.000 H 
ATOM    121  H25 UNL A   1      23.563 -11.682  36.486  1.00  0.00    +0.000 H 
ATOM    122  H26 UNL A   1      25.905 -12.594  33.194  1.00  0.00    +0.000 H 
ATOM    123  H27 UNL A   1      27.079 -12.063  26.944  1.00  0.00    +0.000 H 
ATOM    124  H28 UNL A   1      29.087 -13.398  27.743  1.00  0.00    +0.000 H 
ATOM    125  H29 UNL A   1      26.721 -12.552  31.056  1.00  0.00    +0.000 H 
ATOM    126  H30 UNL A   1      22.712 -10.080  29.296  1.00  0.00    +0.000 H 
ATOM    127  H31 UNL A   1      21.935  -9.869  31.725  1.00  0.00    +0.000 H 
ATOM    128  H32 UNL A   1      29.794 -15.321  34.798  1.00  0.00    +0.000 H 
ENDROOT
BRANCH   25   24
ATOM    130  H34 UNL A   1      31.567 -12.800  30.206  1.00  0.00    +0.000 H 
ATOM    131  H35 UNL A   1      33.502 -13.756  29.103  1.00  0.00    +0.000 H 
ATOM     82  C58 UNL A   1      31.522 -13.759  29.827  1.00  0.00    +0.000 C 
ATOM     83  C59 UNL A   1      32.648 -14.320  29.230  1.00  0.00    +0.000 C 
ATOM     21  C16 UNL A   1      32.620 -15.651  28.802  1.00  0.00    +0.000 C 
ATOM     22  C17 UNL A   1      31.427 -16.379  28.860  1.00  0.00    +0.000 C 
ATOM    118  H22 UNL A   1      31.394 -17.347  28.504  1.00  0.00    +0.000 H 
ATOM     23  C18 UNL A   1      30.280 -15.793  29.399  1.00  0.00    +0.000 C 
ATOM    119  H23 UNL A   1      29.394 -16.321  29.419  1.00  0.00    +0.000 H 
ATOM     24  C19 UNL A   1      30.327 -14.487  29.915  1.00  0.00    +0.000 C 
BRANCH   21   19
ATOM     19  C15 UNL A   1      33.828 -16.307  28.256  1.00  0.00    +0.000 C 
ATOM     20  O3  UNL A   1      34.392 -17.179  28.909  1.00  0.00    +0.000 O 
BRANCH   19   18
ATOM     18  N2  UNL A   1      34.324 -15.934  27.032  1.00  0.00    +0.000 N 
ATOM    117  H21 UNL A   1      35.302 -15.994  26.940  1.00  0.00    +0.000 H 
BRANCH   18   17
ATOM     17  C14 UNL A   1      33.616 -15.463  25.851  1.00  0.00    +0.000 C 
ATOM    115  H19 UNL A   1      34.073 -15.893  24.983  1.00  0.00    +0.000 H 
ATOM    116  H20 UNL A   1      32.593 -15.761  25.942  1.00  0.00    +0.000 H 
BRANCH   17   16
ATOM    113  H17 UNL A   1      33.211 -13.679  24.786  1.00  0.00    +0.000 H 
ATOM    114  H18 UNL A   1      33.120 -13.558  26.566  1.00  0.00    +0.000 H 
ATOM     16  C13 UNL A   1      33.653 -13.944  25.722  1.00  0.00    +0.000 C 
BRANCH   16   15
ATOM    111  H15 UNL A   1      35.251 -13.051  26.796  1.00  0.00    +0.000 H 
ATOM     15  C12 UNL A   1      35.053 -13.325  25.781  1.00  0.00    +0.000 C 
ATOM    112  H16 UNL A   1      35.720 -14.070  25.399  1.00  0.00    +0.000 H 
BRANCH   15   14
ATOM    110  H14 UNL A   1      35.838 -12.408  24.067  1.00  0.00    +0.000 H 
ATOM    109  H13 UNL A   1      35.743 -11.338  25.501  1.00  0.00    +0.000 H 
ATOM     14  C11 UNL A   1      35.258 -12.084  24.906  1.00  0.00    +0.000 C 
BRANCH   14   13
ATOM    107  H11 UNL A   1      33.871 -11.810  23.315  1.00  0.00    +0.000 H 
ATOM    108  H12 UNL A   1      33.174 -11.775  24.955  1.00  0.00    +0.000 H 
ATOM     13  C10 UNL A   1      33.980 -11.468  24.322  1.00  0.00    +0.000 C 
BRANCH   13   12
ATOM    105  H9  UNL A   1      34.982  -9.590  24.343  1.00  0.00    +0.000 H 
ATOM    106  H10 UNL A   1      33.477  -9.617  23.421  1.00  0.00    +0.000 H 
ATOM     12  C9  UNL A   1      33.972  -9.940  24.313  1.00  0.00    +0.000 C 
BRANCH   12   11
ATOM     11  N1  UNL A   1      33.255  -9.395  25.445  1.00  0.00    +0.000 N 
ATOM    104  H8  UNL A   1      32.729  -8.585  25.253  1.00  0.00    +0.000 H 
BRANCH   11    9
ATOM      9  C8  UNL A   1      33.197  -9.831  26.737  1.00  0.00    +0.000 C 
ATOM     10  O2  UNL A   1      34.226  -9.709  27.408  1.00  0.00    +0.000 O 
BRANCH    9    8
ATOM    102  H6  UNL A   1      32.067 -11.595  27.005  1.00  0.00    +0.000 H 
ATOM    103  H7  UNL A   1      31.993 -10.391  28.340  1.00  0.00    +0.000 H 
ATOM      8  C7  UNL A   1      31.980 -10.566  27.284  1.00  0.00    +0.000 C 
BRANCH    8    7
ATOM      3  C2  UNL A   1      28.136 -11.017  23.549  1.00  0.00    +0.000 C 
ATOM    100  H4  UNL A   1      29.522 -12.467  22.910  1.00  0.00    +0.000 H 
ATOM      4  C3  UNL A   1      29.313 -11.756  23.628  1.00  0.00    +0.000 C 
ATOM      5  C4  UNL A   1      30.216 -11.540  24.677  1.00  0.00    +0.000 C 
ATOM    101  H5  UNL A   1      31.082 -12.098  24.736  1.00  0.00    +0.000 H 
ATOM      6  C5  UNL A   1      29.938 -10.559  25.652  1.00  0.00    +0.000 C 
ATOM      7  C6  UNL A   1      30.635 -10.075  26.813  1.00  0.00    +0.000 C 
ATOM    138  H42 UNL A   1      28.033  -8.263  26.720  1.00  0.00    +0.000 H 
ATOM    139  H43 UNL A   1      27.003  -9.438  24.405  1.00  0.00    +0.000 H 
ATOM     84  C60 UNL A   1      29.804  -9.138  27.431  1.00  0.00    +0.000 C 
ATOM     94  N8  UNL A   1      28.732  -8.944  26.585  1.00  0.00    +0.000 N 
ATOM     95  C68 UNL A   1      28.766  -9.822  25.531  1.00  0.00    +0.000 C 
ATOM     96  C69 UNL A   1      27.855 -10.016  24.484  1.00  0.00    +0.000 C 
BRANCH    3    2
ATOM      2  O1  UNL A   1      27.213 -11.170  22.547  1.00  0.00    +0.000 O 
BRANCH    2    1
ATOM      1  C1  UNL A   1      25.994 -11.774  22.977  1.00  0.00    +0.000 C 
ATOM     98  H2  UNL A   1      25.182 -11.390  22.395  1.00  0.00    +0.000 H 
ATOM     99  H3  UNL A   1      25.829 -11.549  24.010  1.00  0.00    +0.000 H 
ATOM     97  H1  UNL A   1      26.055 -12.833  22.847  1.00  0.00    +0.000 H 
ENDBRANCH    2    1
ENDBRANCH    3    2
BRANCH   84   85
ATOM     85  C61 UNL A   1      30.007  -8.456  28.707  1.00  0.00    +0.000 C 
ATOM     86  O4  UNL A   1      30.877  -7.609  28.885  1.00  0.00    +0.000 O 
BRANCH   85   87
ATOM    132  H36 UNL A   1      27.551  -7.562  29.371  1.00  0.00    +0.000 H 
ATOM    136  H40 UNL A   1      27.098  -9.973  32.798  1.00  0.00    +0.000 H 
ATOM    137  H41 UNL A   1      29.278 -10.880  32.379  1.00  0.00    +0.000 H 
ATOM     87  C62 UNL A   1      29.166  -8.833  29.876  1.00  0.00    +0.000 C 
ATOM     88  C63 UNL A   1      27.906  -8.263  30.040  1.00  0.00    +0.000 C 
ATOM     89  C64 UNL A   1      27.134  -8.665  31.133  1.00  0.00    +0.000 C 
ATOM     91  C66 UNL A   1      27.649  -9.641  31.992  1.00  0.00    +0.000 C 
ATOM     92  C67 UNL A   1      28.913 -10.153  31.743  1.00  0.00    +0.000 C 
ATOM     93  N7  UNL A   1      29.692  -9.758  30.717  1.00  0.00    +0.000 N 
BRANCH   89   90
ATOM     90  C65 UNL A   1      25.769  -8.096  31.376  1.00  0.00    +0.000 C 
ATOM    133  H37 UNL A   1      25.856  -7.071  31.670  1.00  0.00    +0.000 H 
ATOM    134  H38 UNL A   1      25.284  -8.651  32.151  1.00  0.00    +0.000 H 
ATOM    135  H39 UNL A   1      25.191  -8.161  30.477  1.00  0.00    +0.000 H 
ENDBRANCH   89   90
ENDBRANCH   85   87
ENDBRANCH   84   85
ENDBRANCH    8    7
ENDBRANCH    9    8
ENDBRANCH   11    9
ENDBRANCH   12   11
ENDBRANCH   13   12
ENDBRANCH   14   13
ENDBRANCH   15   14
ENDBRANCH   16   15
ENDBRANCH   17   16
ENDBRANCH   18   17
ENDBRANCH   19   18
ENDBRANCH   21   19
ENDBRANCH   25   24
BRANCH   29   30
ATOM     33  C26 UNL A   1      27.979 -16.251  38.090  1.00  0.00    +0.000 C 
ATOM     34  F2  UNL A   1      27.500 -17.422  38.534  1.00  0.00    +0.000 F 
ATOM     35  C27 UNL A   1      28.952 -15.582  38.817  1.00  0.00    +0.000 C 
ATOM     36  F3  UNL A   1      29.427 -16.113  39.951  1.00  0.00    +0.000 F 
ATOM     37  C28 UNL A   1      29.427 -14.358  38.371  1.00  0.00    +0.000 C 
ATOM     38  F4  UNL A   1      30.376 -13.716  39.066  1.00  0.00    +0.000 F 
ATOM     39  C29 UNL A   1      28.918 -13.794  37.204  1.00  0.00    +0.000 C 
ATOM     40  F5  UNL A   1      29.388 -12.601  36.807  1.00  0.00    +0.000 F 
ATOM     30  C24 UNL A   1      27.939 -14.456  36.448  1.00  0.00    +0.000 C 
ATOM     31  C25 UNL A   1      27.489 -15.704  36.908  1.00  0.00    +0.000 C 
ATOM     32  F1  UNL A   1      26.546 -16.373  36.228  1.00  0.00    +0.000 F 
ENDBRANCH   29   30
BRANCH   46   47
ATOM     47  C35 UNL A   1      22.311 -10.536  34.224  1.00  0.00    +0.000 C 
ATOM     48  C36 UNL A   1      22.385  -9.285  34.853  1.00  0.00    +0.000 C 
ATOM     49  F6  UNL A   1      23.566  -8.660  34.976  1.00  0.00    +0.000 F 
ATOM     50  C37 UNL A   1      21.249  -8.688  35.394  1.00  0.00    +0.000 C 
ATOM     51  F7  UNL A   1      21.351  -7.513  36.030  1.00  0.00    +0.000 F 
ATOM     52  C38 UNL A   1      20.016  -9.314  35.286  1.00  0.00    +0.000 C 
ATOM     53  F8  UNL A   1      18.923  -8.735  35.803  1.00  0.00    +0.000 F 
ATOM     54  C39 UNL A   1      19.917 -10.544  34.653  1.00  0.00    +0.000 C 
ATOM     55  F9  UNL A   1      18.725 -11.144  34.539  1.00  0.00    +0.000 F 
ATOM     56  C40 UNL A   1      21.055 -11.156  34.136  1.00  0.00    +0.000 C 
ATOM     57  F10 UNL A   1      20.930 -12.351  33.540  1.00  0.00    +0.000 F 
ENDBRANCH   46   47
BRANCH   61   62
ATOM     65  C46 UNL A   1      23.356 -11.207  25.699  1.00  0.00    +0.000 C 
ATOM     66  F12 UNL A   1      22.534 -11.972  24.967  1.00  0.00    +0.000 F 
ATOM     67  C47 UNL A   1      23.758  -9.967  25.224  1.00  0.00    +0.000 C 
ATOM     68  F13 UNL A   1      23.312  -9.526  24.040  1.00  0.00    +0.000 F 
ATOM     69  C48 UNL A   1      24.630  -9.192  25.973  1.00  0.00    +0.000 C 
ATOM     70  F14 UNL A   1      25.011  -7.989  25.522  1.00  0.00    +0.000 F 
ATOM     71  C49 UNL A   1      25.112  -9.661  27.193  1.00  0.00    +0.000 C 
ATOM     72  F15 UNL A   1      25.964  -8.895  27.890  1.00  0.00    +0.000 F 
ATOM     62  C44 UNL A   1      24.712 -10.906  27.698  1.00  0.00    +0.000 C 
ATOM     63  C45 UNL A   1      23.817 -11.666  26.932  1.00  0.00    +0.000 C 
ATOM     64  F11 UNL A   1      23.422 -12.872  27.364  1.00  0.00    +0.000 F 
ENDBRANCH   61   62
TORSDOF 21
ENDMDL
MODEL 10
REMARK VINA RESULT:     -11.4     46.767     56.390
ROOT
ATOM    129  H33 UNL A   1      50.399  21.697  12.476  1.00  0.00    +0.000 H 
ATOM     25  C20 UNL A   1      52.702  20.471  11.331  1.00  0.00    +0.000 C 
ATOM     26  C21 UNL A   1      52.557  21.044  12.714  1.00  0.00    +0.000 C 
ATOM     27  N3  UNL A   1      53.436  21.102  13.683  1.00  0.00    +0.000 N 
ATOM     28  C22 UNL A   1      52.805  21.766  14.726  1.00  0.00    +0.000 C 
ATOM     29  C23 UNL A   1      53.276  22.027  15.969  1.00  0.00    +0.000 C 
ATOM     41  C30 UNL A   1      54.578  21.634  16.443  1.00  0.00    +0.000 C 
ATOM     42  C31 UNL A   1      55.121  21.792  17.706  1.00  0.00    +0.000 C 
ATOM     43  C32 UNL A   1      56.429  21.296  17.685  1.00  0.00    +0.000 C 
ATOM     44  C33 UNL A   1      56.686  20.789  16.422  1.00  0.00    +0.000 C 
ATOM     45  N4  UNL A   1      55.542  21.005  15.668  1.00  0.00    +0.000 N 
ATOM     46  C34 UNL A   1      57.884  20.155  15.936  1.00  0.00    +0.000 C 
ATOM     58  C41 UNL A   1      58.050  19.665  14.682  1.00  0.00    +0.000 C 
ATOM     59  N5  UNL A   1      57.153  19.657  13.622  1.00  0.00    +0.000 N 
ATOM     60  C42 UNL A   1      57.783  19.090  12.623  1.00  0.00    +0.000 C 
ATOM     61  C43 UNL A   1      57.287  18.794  11.234  1.00  0.00    +0.000 C 
ATOM     73  C50 UNL A   1      56.021  19.114  10.905  1.00  0.00    +0.000 C 
ATOM     74  C51 UNL A   1      55.399  18.881   9.604  1.00  0.00    +0.000 C 
ATOM     75  C52 UNL A   1      54.147  19.363   9.625  1.00  0.00    +0.000 C 
ATOM     76  C53 UNL A   1      53.866  19.909  10.953  1.00  0.00    +0.000 C 
ATOM     77  N6  UNL A   1      55.034  19.714  11.647  1.00  0.00    +0.000 N 
ATOM     78  C54 UNL A   1      59.164  18.693  12.930  1.00  0.00    +0.000 C 
ATOM     79  C55 UNL A   1      59.262  19.030  14.209  1.00  0.00    +0.000 C 
ATOM     80  C56 UNL A   1      51.486  22.134  14.257  1.00  0.00    +0.000 C 
ATOM     81  C57 UNL A   1      51.260  21.654  13.043  1.00  0.00    +0.000 C 
ATOM    120  H24 UNL A   1      54.643  22.205  18.523  1.00  0.00    +0.000 H 
ATOM    121  H25 UNL A   1      57.091  21.307  18.478  1.00  0.00    +0.000 H 
ATOM    122  H26 UNL A   1      55.431  20.751  14.725  1.00  0.00    +0.000 H 
ATOM    123  H27 UNL A   1      55.851  18.420   8.799  1.00  0.00    +0.000 H 
ATOM    124  H28 UNL A   1      53.488  19.349   8.831  1.00  0.00    +0.000 H 
ATOM    125  H29 UNL A   1      55.152  19.979  12.588  1.00  0.00    +0.000 H 
ATOM    126  H30 UNL A   1      59.871  18.264  12.313  1.00  0.00    +0.000 H 
ATOM    127  H31 UNL A   1      60.097  18.863  14.792  1.00  0.00    +0.000 H 
ATOM    128  H32 UNL A   1      50.811  22.697  14.797  1.00  0.00    +0.000 H 
ENDROOT
BRANCH   25   24
ATOM    130  H34 UNL A   1      52.105  22.536   9.728  1.00  0.00    +0.000 H 
ATOM    131  H35 UNL A   1      50.255  22.766   8.179  1.00  0.00    +0.000 H 
ATOM     82  C58 UNL A   1      51.441  21.756   9.599  1.00  0.00    +0.000 C 
ATOM     83  C59 UNL A   1      50.403  21.876   8.679  1.00  0.00    +0.000 C 
ATOM     21  C16 UNL A   1      49.560  20.788   8.433  1.00  0.00    +0.000 C 
ATOM     22  C17 UNL A   1      49.681  19.623   9.198  1.00  0.00    +0.000 C 
ATOM    118  H22 UNL A   1      49.031  18.836   9.046  1.00  0.00    +0.000 H 
ATOM     23  C18 UNL A   1      50.682  19.528  10.166  1.00  0.00    +0.000 C 
ATOM    119  H23 UNL A   1      50.755  18.678  10.748  1.00  0.00    +0.000 H 
ATOM     24  C19 UNL A   1      51.590  20.583  10.354  1.00  0.00    +0.000 C 
BRANCH   21   19
ATOM     19  C15 UNL A   1      48.512  20.850   7.391  1.00  0.00    +0.000 C 
ATOM     20  O3  UNL A   1      48.177  21.938   6.932  1.00  0.00    +0.000 O 
BRANCH   19   18
ATOM     18  N2  UNL A   1      47.907  19.701   6.949  1.00  0.00    +0.000 N 
ATOM    117  H21 UNL A   1      47.532  19.126   7.655  1.00  0.00    +0.000 H 
BRANCH   18   17
ATOM     17  C14 UNL A   1      47.740  19.206   5.591  1.00  0.00    +0.000 C 
ATOM    115  H19 UNL A   1      48.614  19.453   5.025  1.00  0.00    +0.000 H 
ATOM    116  H20 UNL A   1      47.595  18.147   5.644  1.00  0.00    +0.000 H 
BRANCH   17   16
ATOM    113  H17 UNL A   1      45.862  20.182   5.656  1.00  0.00    +0.000 H 
ATOM    114  H18 UNL A   1      46.895  20.578   4.253  1.00  0.00    +0.000 H 
ATOM     16  C13 UNL A   1      46.522  19.812   4.900  1.00  0.00    +0.000 C 
BRANCH   16   15
ATOM    111  H15 UNL A   1      46.345  17.980   3.845  1.00  0.00    +0.000 H 
ATOM     15  C12 UNL A   1      45.736  18.844   4.013  1.00  0.00    +0.000 C 
ATOM    112  H16 UNL A   1      44.827  18.633   4.538  1.00  0.00    +0.000 H 
BRANCH   15   14
ATOM    110  H14 UNL A   1      45.648  18.685   1.924  1.00  0.00    +0.000 H 
ATOM    109  H13 UNL A   1      45.761  20.366   2.533  1.00  0.00    +0.000 H 
ATOM     14  C11 UNL A   1      45.316  19.399   2.647  1.00  0.00    +0.000 C 
BRANCH   14   13
ATOM    107  H11 UNL A   1      43.389  18.573   2.281  1.00  0.00    +0.000 H 
ATOM    108  H12 UNL A   1      43.415  20.035   3.300  1.00  0.00    +0.000 H 
ATOM     13  C10 UNL A   1      43.804  19.547   2.431  1.00  0.00    +0.000 C 
BRANCH   13   12
ATOM    105  H9  UNL A   1      42.945  21.304   1.591  1.00  0.00    +0.000 H 
ATOM    106  H10 UNL A   1      44.323  20.653   0.700  1.00  0.00    +0.000 H 
ATOM     12  C9  UNL A   1      43.426  20.418   1.234  1.00  0.00    +0.000 C 
BRANCH   12   11
ATOM     11  N1  UNL A   1      42.532  19.734   0.326  1.00  0.00    +0.000 N 
ATOM    104  H8  UNL A   1      42.922  18.958  -0.137  1.00  0.00    +0.000 H 
BRANCH   11    9
ATOM      9  C8  UNL A   1      41.230  20.000   0.014  1.00  0.00    +0.000 C 
ATOM     10  O2  UNL A   1      40.737  19.342  -0.908  1.00  0.00    +0.000 O 
BRANCH    9    8
ATOM    102  H6  UNL A   1      40.662  21.117   1.713  1.00  0.00    +0.000 H 
ATOM    103  H7  UNL A   1      40.810  22.032   0.171  1.00  0.00    +0.000 H 
ATOM      8  C7  UNL A   1      40.465  21.146   0.662  1.00  0.00    +0.000 C 
BRANCH    8    7
ATOM      3  C2  UNL A   1      36.395  22.164  -2.706  1.00  0.00    +0.000 C 
ATOM    100  H4  UNL A   1      38.064  22.621  -3.905  1.00  0.00    +0.000 H 
ATOM      4  C3  UNL A   1      37.755  22.289  -2.978  1.00  0.00    +0.000 C 
ATOM      5  C4  UNL A   1      38.705  21.965  -2.002  1.00  0.00    +0.000 C 
ATOM    101  H5  UNL A   1      39.712  22.050  -2.213  1.00  0.00    +0.000 H 
ATOM      6  C5  UNL A   1      38.284  21.523  -0.730  1.00  0.00    +0.000 C 
ATOM      7  C6  UNL A   1      38.969  21.141   0.476  1.00  0.00    +0.000 C 
ATOM    138  H42 UNL A   1      35.908  20.882   1.266  1.00  0.00    +0.000 H 
ATOM    139  H43 UNL A   1      34.945  21.706  -1.222  1.00  0.00    +0.000 H 
ATOM     84  C60 UNL A   1      37.997  20.715   1.384  1.00  0.00    +0.000 C 
ATOM     94  N8  UNL A   1      36.774  20.989   0.809  1.00  0.00    +0.000 N 
ATOM     95  C68 UNL A   1      36.920  21.432  -0.482  1.00  0.00    +0.000 C 
ATOM     96  C69 UNL A   1      35.952  21.760  -1.442  1.00  0.00    +0.000 C 
BRANCH    3    2
ATOM      2  O1  UNL A   1      35.411  22.470  -3.609  1.00  0.00    +0.000 O 
BRANCH    2    1
ATOM      1  C1  UNL A   1      34.090  22.317  -3.093  1.00  0.00    +0.000 C 
ATOM     98  H2  UNL A   1      33.522  21.689  -3.748  1.00  0.00    +0.000 H 
ATOM     99  H3  UNL A   1      33.621  23.275  -3.022  1.00  0.00    +0.000 H 
ATOM     97  H1  UNL A   1      34.136  21.869  -2.123  1.00  0.00    +0.000 H 
ENDBRANCH    2    1
ENDBRANCH    3    2
BRANCH   84   85
ATOM     85  C61 UNL A   1      38.196  20.116   2.701  1.00  0.00    +0.000 C 
ATOM     86  O4  UNL A   1      39.189  19.458   2.997  1.00  0.00    +0.000 O 
BRANCH   85   87
ATOM    132  H36 UNL A   1      36.556  18.214   3.682  1.00  0.00    +0.000 H 
ATOM    136  H40 UNL A   1      34.561  20.705   6.435  1.00  0.00    +0.000 H 
ATOM    137  H41 UNL A   1      35.921  22.531   5.681  1.00  0.00    +0.000 H 
ATOM     87  C62 UNL A   1      37.129  20.249   3.731  1.00  0.00    +0.000 C 
ATOM     88  C63 UNL A   1      36.390  19.135   4.118  1.00  0.00    +0.000 C 
ATOM     89  C64 UNL A   1      35.419  19.295   5.109  1.00  0.00    +0.000 C 
ATOM     91  C66 UNL A   1      35.257  20.557   5.687  1.00  0.00    +0.000 C 
ATOM     92  C67 UNL A   1      36.045  21.606   5.239  1.00  0.00    +0.000 C 
ATOM     93  N7  UNL A   1      36.963  21.487   4.261  1.00  0.00    +0.000 N 
BRANCH   89   90
ATOM     90  C65 UNL A   1      34.584  18.141   5.576  1.00  0.00    +0.000 C 
ATOM    133  H37 UNL A   1      35.115  17.226   5.414  1.00  0.00    +0.000 H 
ATOM    134  H38 UNL A   1      33.665  18.122   5.030  1.00  0.00    +0.000 H 
ATOM    135  H39 UNL A   1      34.376  18.252   6.620  1.00  0.00    +0.000 H 
ENDBRANCH   89   90
ENDBRANCH   85   87
ENDBRANCH   84   85
ENDBRANCH    8    7
ENDBRANCH    9    8
ENDBRANCH   11    9
ENDBRANCH   12   11
ENDBRANCH   13   12
ENDBRANCH   14   13
ENDBRANCH   15   14
ENDBRANCH   16   15
ENDBRANCH   17   16
ENDBRANCH   18   17
ENDBRANCH   19   18
ENDBRANCH   21   19
ENDBRANCH   25   24
BRANCH   29   30
ATOM     33  C26 UNL A   1      50.771  22.799  18.740  1.00  0.00    +0.000 C 
ATOM     34  F2  UNL A   1      50.003  22.134  19.615  1.00  0.00    +0.000 F 
ATOM     35  C27 UNL A   1      50.727  24.185  18.696  1.00  0.00    +0.000 C 
ATOM     36  F3  UNL A   1      49.934  24.859  19.540  1.00  0.00    +0.000 F 
ATOM     37  C28 UNL A   1      51.501  24.870  17.772  1.00  0.00    +0.000 C 
ATOM     38  F4  UNL A   1      51.469  26.210  17.736  1.00  0.00    +0.000 F 
ATOM     39  C29 UNL A   1      52.308  24.170  16.879  1.00  0.00    +0.000 C 
ATOM     40  F5  UNL A   1      53.034  24.862  15.987  1.00  0.00    +0.000 F 
ATOM     30  C24 UNL A   1      52.374  22.769  16.910  1.00  0.00    +0.000 C 
ATOM     31  C25 UNL A   1      51.598  22.098  17.868  1.00  0.00    +0.000 C 
ATOM     32  F1  UNL A   1      51.617  20.757  17.933  1.00  0.00    +0.000 F 
ENDBRANCH   29   30
BRANCH   46   47
ATOM     47  C35 UNL A   1      59.032  20.003  16.889  1.00  0.00    +0.000 C 
ATOM     48  C36 UNL A   1      59.873  21.080  17.204  1.00  0.00    +0.000 C 
ATOM     49  F6  UNL A   1      59.692  22.272  16.615  1.00  0.00    +0.000 F 
ATOM     50  C37 UNL A   1      60.929  20.925  18.097  1.00  0.00    +0.000 C 
ATOM     51  F7  UNL A   1      61.747  21.956  18.350  1.00  0.00    +0.000 F 
ATOM     52  C38 UNL A   1      61.144  19.702  18.717  1.00  0.00    +0.000 C 
ATOM     53  F8  UNL A   1      62.158  19.558  19.582  1.00  0.00    +0.000 F 
ATOM     54  C39 UNL A   1      60.314  18.629  18.433  1.00  0.00    +0.000 C 
ATOM     55  F9  UNL A   1      60.513  17.450  19.039  1.00  0.00    +0.000 F 
ATOM     56  C40 UNL A   1      59.274  18.772  17.519  1.00  0.00    +0.000 C 
ATOM     57  F10 UNL A   1      58.495  17.712  17.255  1.00  0.00    +0.000 F 
ENDBRANCH   46   47
BRANCH   61   62
ATOM     65  C46 UNL A   1      59.067  16.102   9.237  1.00  0.00    +0.000 C 
ATOM     66  F12 UNL A   1      59.143  14.765   9.211  1.00  0.00    +0.000 F 
ATOM     67  C47 UNL A   1      59.831  16.859   8.361  1.00  0.00    +0.000 C 
ATOM     68  F13 UNL A   1      60.632  16.253   7.474  1.00  0.00    +0.000 F 
ATOM     69  C48 UNL A   1      59.769  18.244   8.410  1.00  0.00    +0.000 C 
ATOM     70  F14 UNL A   1      60.496  18.977   7.557  1.00  0.00    +0.000 F 
ATOM     71  C49 UNL A   1      58.953  18.874   9.347  1.00  0.00    +0.000 C 
ATOM     72  F15 UNL A   1      58.923  20.214   9.382  1.00  0.00    +0.000 F 
ATOM     62  C44 UNL A   1      58.165  18.131  10.237  1.00  0.00    +0.000 C 
ATOM     63  C45 UNL A   1      58.231  16.732  10.158  1.00  0.00    +0.000 C 
ATOM     64  F11 UNL A   1      57.511  15.979  11.002  1.00  0.00    +0.000 F 
ENDBRANCH   61   62
TORSDOF 21
ENDMDL
