MODEL 1
REMARK VINA RESULT:      -6.1      0.000      0.000
ROOT
ATOM    149  H47 UNL A   1      24.691  -8.989  29.873  1.00  0.00    +0.000 H 
ATOM    150  H48 UNL A   1      23.179  -8.966  31.998  1.00  0.00    +0.000 H 
ATOM    151  H49 UNL A   1      26.267 -11.653  32.627  1.00  0.00    +0.000 H 
ATOM    152  H50 UNL A   1      29.135 -15.980  36.352  1.00  0.00    +0.000 H 
ATOM    153  H51 UNL A   1      30.608 -15.998  34.281  1.00  0.00    +0.000 H 
ATOM    154  H52 UNL A   1      27.540 -13.267  33.637  1.00  0.00    +0.000 H 
ATOM    155  H53 UNL A   1      24.751 -13.285  37.810  1.00  0.00    +0.000 H 
ATOM    156  H54 UNL A   1      23.168 -11.679  36.599  1.00  0.00    +0.000 H 
ATOM    157  H55 UNL A   1      29.238 -11.545  28.602  1.00  0.00    +0.000 H 
ATOM    158  H56 UNL A   1      30.542 -13.522  29.573  1.00  0.00    +0.000 H 
ATOM     44  C33 UNL A   1      29.733 -14.244  32.208  1.00  0.00    +0.000 C 
ATOM     45  C34 UNL A   1      29.108 -13.219  31.305  1.00  0.00    +0.000 C 
ATOM     46  N6  UNL A   1      28.072 -12.448  31.518  1.00  0.00    +0.000 N 
ATOM     47  C35 UNL A   1      27.943 -11.666  30.378  1.00  0.00    +0.000 C 
ATOM     48  C36 UNL A   1      26.982 -10.760  30.079  1.00  0.00    +0.000 C 
ATOM     60  C43 UNL A   1      25.882 -10.432  30.947  1.00  0.00    +0.000 C 
ATOM     61  C44 UNL A   1      24.840  -9.550  30.727  1.00  0.00    +0.000 C 
ATOM     62  C45 UNL A   1      24.022  -9.548  31.862  1.00  0.00    +0.000 C 
ATOM     63  C46 UNL A   1      24.532 -10.458  32.772  1.00  0.00    +0.000 C 
ATOM     64  N7  UNL A   1      25.680 -10.985  32.203  1.00  0.00    +0.000 N 
ATOM     65  C47 UNL A   1      24.012 -10.825  34.063  1.00  0.00    +0.000 C 
ATOM     77  C54 UNL A   1      24.586 -11.709  34.915  1.00  0.00    +0.000 C 
ATOM     78  N8  UNL A   1      25.749 -12.449  34.753  1.00  0.00    +0.000 N 
ATOM     79  C55 UNL A   1      25.890 -13.144  35.856  1.00  0.00    +0.000 C 
ATOM     80  C56 UNL A   1      26.955 -14.144  36.219  1.00  0.00    +0.000 C 
ATOM     92  C63 UNL A   1      27.911 -14.438  35.319  1.00  0.00    +0.000 C 
ATOM     93  C64 UNL A   1      28.990 -15.402  35.509  1.00  0.00    +0.000 C 
ATOM     94  C65 UNL A   1      29.764 -15.418  34.411  1.00  0.00    +0.000 C 
ATOM     95  C66 UNL A   1      29.218 -14.480  33.429  1.00  0.00    +0.000 C 
ATOM     96  N9  UNL A   1      28.121 -13.943  34.055  1.00  0.00    +0.000 N 
ATOM     97  C67 UNL A   1      24.844 -12.898  36.857  1.00  0.00    +0.000 C 
ATOM     98  C68 UNL A   1      24.052 -12.050  36.218  1.00  0.00    +0.000 C 
ATOM     99  C69 UNL A   1      29.038 -12.014  29.499  1.00  0.00    +0.000 C 
ATOM    100  C70 UNL A   1      29.747 -13.016  29.995  1.00  0.00    +0.000 C 
ENDROOT
BRANCH   44   43
ATOM    101  C71 UNL A   1      32.217 -14.455  32.068  1.00  0.00    +0.000 C 
ATOM    102  C72 UNL A   1      33.363 -15.097  31.607  1.00  0.00    +0.000 C 
ATOM     40  C29 UNL A   1      33.251 -16.313  30.926  1.00  0.00    +0.000 C 
ATOM     41  C30 UNL A   1      31.993 -16.836  30.617  1.00  0.00    +0.000 C 
ATOM     42  C31 UNL A   1      30.844 -16.158  31.024  1.00  0.00    +0.000 C 
ATOM     43  C32 UNL A   1      30.949 -14.972  31.769  1.00  0.00    +0.000 C 
ATOM    147  H45 UNL A   1      31.914 -17.719  30.089  1.00  0.00    +0.000 H 
ATOM    148  H46 UNL A   1      29.914 -16.530  30.777  1.00  0.00    +0.000 H 
ATOM    159  H57 UNL A   1      32.303 -13.595  32.633  1.00  0.00    +0.000 H 
ATOM    160  H58 UNL A   1      34.292 -14.678  31.768  1.00  0.00    +0.000 H 
BRANCH   40   38
ATOM     38  C28 UNL A   1      34.450 -17.070  30.510  1.00  0.00    +0.000 C 
ATOM     39  O6  UNL A   1      35.133 -17.646  31.351  1.00  0.00    +0.000 O 
BRANCH   38   37
ATOM    146  H44 UNL A   1      35.592 -16.546  28.948  1.00  0.00    +0.000 H 
ATOM     37  N5  UNL A   1      34.810 -17.094  29.187  1.00  0.00    +0.000 N 
BRANCH   37   36
ATOM    145  H43 UNL A   1      33.508 -18.521  28.518  1.00  0.00    +0.000 H 
ATOM     36  C27 UNL A   1      34.193 -17.817  28.093  1.00  0.00    +0.000 C 
ATOM    144  H42 UNL A   1      34.961 -18.303  27.529  1.00  0.00    +0.000 H 
BRANCH   36   35
ATOM     35  C26 UNL A   1      33.400 -16.912  27.161  1.00  0.00    +0.000 C 
ATOM    142  H40 UNL A   1      32.937 -17.527  26.418  1.00  0.00    +0.000 H 
ATOM    143  H41 UNL A   1      32.702 -16.387  27.779  1.00  0.00    +0.000 H 
BRANCH   35   34
ATOM     34  C25 UNL A   1      34.217 -15.836  26.440  1.00  0.00    +0.000 C 
ATOM    140  H38 UNL A   1      35.229 -15.913  26.776  1.00  0.00    +0.000 H 
ATOM    141  H39 UNL A   1      34.089 -16.024  25.396  1.00  0.00    +0.000 H 
BRANCH   34   33
ATOM     33  C24 UNL A   1      33.756 -14.391  26.663  1.00  0.00    +0.000 C 
ATOM    138  H36 UNL A   1      34.619 -13.759  26.612  1.00  0.00    +0.000 H 
ATOM    139  H37 UNL A   1      33.031 -14.194  25.902  1.00  0.00    +0.000 H 
BRANCH   33   32
ATOM    137  H35 UNL A   1      33.468 -14.803  28.705  1.00  0.00    +0.000 H 
ATOM    136  H34 UNL A   1      32.000 -14.255  27.851  1.00  0.00    +0.000 H 
ATOM     32  C23 UNL A   1      33.051 -14.119  27.995  1.00  0.00    +0.000 C 
BRANCH   32   31
ATOM    135  H33 UNL A   1      33.908 -12.802  29.413  1.00  0.00    +0.000 H 
ATOM    134  H32 UNL A   1      32.332 -12.293  28.810  1.00  0.00    +0.000 H 
ATOM     31  C22 UNL A   1      33.278 -12.722  28.552  1.00  0.00    +0.000 C 
BRANCH   31   30
ATOM    133  H31 UNL A   1      34.833 -12.151  27.304  1.00  0.00    +0.000 H 
ATOM     30  N4  UNL A   1      33.935 -11.866  27.590  1.00  0.00    +0.000 N 
BRANCH   30   28
ATOM     28  C21 UNL A   1      33.467 -10.717  27.030  1.00  0.00    +0.000 C 
ATOM     29  O5  UNL A   1      32.938  -9.882  27.768  1.00  0.00    +0.000 O 
BRANCH   28    5
ATOM      5  C5  UNL A   1      33.531 -10.491  25.507  1.00  0.00    +0.000 C 
ATOM    112  H10 UNL A   1      33.028 -11.323  25.062  1.00  0.00    +0.000 H 
BRANCH    5    4
ATOM      4  C4  UNL A   1      34.940 -10.571  24.907  1.00  0.00    +0.000 C 
ATOM    110  H8  UNL A   1      35.022  -9.804  24.166  1.00  0.00    +0.000 H 
ATOM    111  H9  UNL A   1      35.609 -10.461  25.734  1.00  0.00    +0.000 H 
BRANCH    4    2
ATOM      2  C2  UNL A   1      35.326 -11.916  24.240  1.00  0.00    +0.000 C 
ATOM    106  H4  UNL A   1      34.418 -12.481  24.217  1.00  0.00    +0.000 H 
BRANCH    2    1
ATOM      1  C1  UNL A   1      35.803 -11.828  22.788  1.00  0.00    +0.000 C 
ATOM    105  H3  UNL A   1      35.339 -12.601  22.212  1.00  0.00    +0.000 H 
ATOM    103  H1  UNL A   1      36.866 -11.947  22.754  1.00  0.00    +0.000 H 
ATOM    104  H2  UNL A   1      35.538 -10.874  22.382  1.00  0.00    +0.000 H 
ENDBRANCH    2    1
BRANCH    2    3
ATOM      3  C3  UNL A   1      36.430 -12.588  25.063  1.00  0.00    +0.000 C 
ATOM    108  H6  UNL A   1      37.383 -12.208  24.759  1.00  0.00    +0.000 H 
ATOM    109  H7  UNL A   1      36.400 -13.646  24.903  1.00  0.00    +0.000 H 
ATOM    107  H5  UNL A   1      36.278 -12.379  26.102  1.00  0.00    +0.000 H 
ENDBRANCH    2    3
ENDBRANCH    4    2
ENDBRANCH    5    4
BRANCH    5    6
ATOM    113  H11 UNL A   1      33.317  -8.441  25.208  1.00  0.00    +0.000 H 
ATOM      6  N1  UNL A   1      32.805  -9.278  25.126  1.00  0.00    +0.000 N 
BRANCH    6    7
ATOM      7  C6  UNL A   1      31.528  -9.132  24.675  1.00  0.00    +0.000 C 
ATOM      8  O1  UNL A   1      30.629  -9.291  25.509  1.00  0.00    +0.000 O 
BRANCH    7    9
ATOM      9  C7  UNL A   1      31.162  -8.834  23.209  1.00  0.00    +0.000 C 
ATOM    114  H12 UNL A   1      31.771  -9.465  22.596  1.00  0.00    +0.000 H 
ATOM    115  H13 UNL A   1      31.327  -7.782  23.104  1.00  0.00    +0.000 H 
BRANCH    9   10
ATOM     10  N2  UNL A   1      29.791  -9.027  22.795  1.00  0.00    +0.000 N 
ATOM    116  H14 UNL A   1      29.292  -8.182  22.699  1.00  0.00    +0.000 H 
BRANCH   10   11
ATOM     11  C8  UNL A   1      29.046 -10.122  22.510  1.00  0.00    +0.000 C 
ATOM     12  O2  UNL A   1      27.827  -9.969  22.669  1.00  0.00    +0.000 O 
BRANCH   11   13
ATOM    117  H15 UNL A   1      30.527 -11.338  21.587  1.00  0.00    +0.000 H 
ATOM     13  C9  UNL A   1      29.602 -11.523  22.093  1.00  0.00    +0.000 C 
BRANCH   13   14
ATOM    118  H16 UNL A   1      29.357 -12.663  23.806  1.00  0.00    +0.000 H 
ATOM     14  N3  UNL A   1      30.074 -12.357  23.206  1.00  0.00    +0.000 N 
BRANCH   14   15
ATOM     15  C10 UNL A   1      31.308 -12.789  23.564  1.00  0.00    +0.000 C 
ATOM     16  O3  UNL A   1      32.225 -12.780  22.754  1.00  0.00    +0.000 O 
BRANCH   15   17
ATOM     17  O4  UNL A   1      31.381 -13.274  24.819  1.00  0.00    +0.000 O 
BRANCH   17   18
ATOM     18  C11 UNL A   1      30.376 -12.779  25.716  1.00  0.00    +0.000 C 
ATOM    119  H17 UNL A   1      29.743 -12.106  25.176  1.00  0.00    +0.000 H 
ATOM    120  H18 UNL A   1      30.890 -12.299  26.524  1.00  0.00    +0.000 H 
BRANCH   18   19
ATOM     19  C12 UNL A   1      29.509 -13.866  26.328  1.00  0.00    +0.000 C 
ATOM     20  C13 UNL A   1      28.123 -13.670  26.414  1.00  0.00    +0.000 C 
ATOM     21  C14 UNL A   1      27.302 -14.608  27.046  1.00  0.00    +0.000 C 
ATOM     22  C15 UNL A   1      27.854 -15.755  27.611  1.00  0.00    +0.000 C 
ATOM     23  C16 UNL A   1      29.225 -15.967  27.540  1.00  0.00    +0.000 C 
ATOM     24  C17 UNL A   1      30.043 -15.029  26.907  1.00  0.00    +0.000 C 
ATOM    121  H19 UNL A   1      27.703 -12.819  26.004  1.00  0.00    +0.000 H 
ATOM    122  H20 UNL A   1      26.284 -14.451  27.094  1.00  0.00    +0.000 H 
ATOM    123  H21 UNL A   1      27.246 -16.446  28.080  1.00  0.00    +0.000 H 
ATOM    124  H22 UNL A   1      29.639 -16.816  27.957  1.00  0.00    +0.000 H 
ATOM    125  H23 UNL A   1      31.061 -15.194  26.865  1.00  0.00    +0.000 H 
ENDBRANCH   18   19
ENDBRANCH   17   18
ENDBRANCH   15   17
ENDBRANCH   14   15
ENDBRANCH   13   14
BRANCH   13   25
ATOM     25  C18 UNL A   1      28.744 -12.211  21.008  1.00  0.00    +0.000 C 
ATOM    126  H24 UNL A   1      27.891 -11.582  20.858  1.00  0.00    +0.000 H 
BRANCH   25   26
ATOM    129  H27 UNL A   1      29.403 -13.372  19.326  1.00  0.00    +0.000 H 
ATOM     26  C19 UNL A   1      29.516 -12.370  19.686  1.00  0.00    +0.000 C 
ATOM    127  H25 UNL A   1      30.552 -12.165  19.853  1.00  0.00    +0.000 H 
ATOM    128  H26 UNL A   1      29.128 -11.684  18.962  1.00  0.00    +0.000 H 
ENDBRANCH   25   26
BRANCH   25   27
ATOM    130  H28 UNL A   1      27.761 -14.088  20.672  1.00  0.00    +0.000 H 
ATOM     27  C20 UNL A   1      28.311 -13.615  21.459  1.00  0.00    +0.000 C 
ATOM    132  H30 UNL A   1      29.177 -14.198  21.689  1.00  0.00    +0.000 H 
ATOM    131  H29 UNL A   1      27.693 -13.535  22.328  1.00  0.00    +0.000 H 
ENDBRANCH   25   27
ENDBRANCH   13   25
ENDBRANCH   11   13
ENDBRANCH   10   11
ENDBRANCH    9   10
ENDBRANCH    7    9
ENDBRANCH    6    7
ENDBRANCH    5    6
ENDBRANCH   28    5
ENDBRANCH   30   28
ENDBRANCH   31   30
ENDBRANCH   32   31
ENDBRANCH   33   32
ENDBRANCH   34   33
ENDBRANCH   35   34
ENDBRANCH   36   35
ENDBRANCH   37   36
ENDBRANCH   38   37
ENDBRANCH   40   38
ENDBRANCH   44   43
BRANCH   48   49
ATOM     49  C37 UNL A   1      27.075 -10.069  28.751  1.00  0.00    +0.000 C 
ATOM     50  C38 UNL A   1      27.809  -8.882  28.595  1.00  0.00    +0.000 C 
ATOM     51  F1  UNL A   1      28.415  -8.319  29.651  1.00  0.00    +0.000 F 
ATOM     52  C39 UNL A   1      27.888  -8.246  27.359  1.00  0.00    +0.000 C 
ATOM     53  F2  UNL A   1      28.556  -7.090  27.244  1.00  0.00    +0.000 F 
ATOM     54  C40 UNL A   1      27.267  -8.801  26.250  1.00  0.00    +0.000 C 
ATOM     55  F3  UNL A   1      27.349  -8.190  25.059  1.00  0.00    +0.000 F 
ATOM     56  C41 UNL A   1      26.553  -9.983  26.377  1.00  0.00    +0.000 C 
ATOM     57  F4  UNL A   1      25.961 -10.525  25.303  1.00  0.00    +0.000 F 
ATOM     58  C42 UNL A   1      26.448 -10.607  27.618  1.00  0.00    +0.000 C 
ATOM     59  F5  UNL A   1      25.737 -11.741  27.712  1.00  0.00    +0.000 F 
ENDBRANCH   48   49
BRANCH   65   66
ATOM     66  C48 UNL A   1      22.720 -10.198  34.498  1.00  0.00    +0.000 C 
ATOM     67  C49 UNL A   1      21.480 -10.758  34.159  1.00  0.00    +0.000 C 
ATOM     68  F6  UNL A   1      21.422 -11.855  33.388  1.00  0.00    +0.000 F 
ATOM     69  C50 UNL A   1      20.291 -10.166  34.576  1.00  0.00    +0.000 C 
ATOM     70  F7  UNL A   1      19.116 -10.690  34.202  1.00  0.00    +0.000 F 
ATOM     71  C51 UNL A   1      20.322  -9.024  35.366  1.00  0.00    +0.000 C 
ATOM     72  F8  UNL A   1      19.177  -8.458  35.769  1.00  0.00    +0.000 F 
ATOM     73  C52 UNL A   1      21.538  -8.466  35.730  1.00  0.00    +0.000 C 
ATOM     74  F9  UNL A   1      21.568  -7.371  36.501  1.00  0.00    +0.000 F 
ATOM     75  C53 UNL A   1      22.727  -9.041  35.292  1.00  0.00    +0.000 C 
ATOM     76  F10 UNL A   1      23.890  -8.472  35.647  1.00  0.00    +0.000 F 
ENDBRANCH   65   66
BRANCH   80   81
ATOM     81  C57 UNL A   1      26.938 -14.828  37.537  1.00  0.00    +0.000 C 
ATOM     82  C58 UNL A   1      27.556 -14.252  38.655  1.00  0.00    +0.000 C 
ATOM     83  F11 UNL A   1      28.182 -13.071  38.538  1.00  0.00    +0.000 F 
ATOM     84  C59 UNL A   1      27.574 -14.905  39.885  1.00  0.00    +0.000 C 
ATOM     85  F12 UNL A   1      28.213 -14.353  40.925  1.00  0.00    +0.000 F 
ATOM     86  C60 UNL A   1      26.946 -16.133  40.028  1.00  0.00    +0.000 C 
ATOM     87  F13 UNL A   1      26.964 -16.763  41.211  1.00  0.00    +0.000 F 
ATOM     88  C61 UNL A   1      26.310 -16.713  38.941  1.00  0.00    +0.000 C 
ATOM     89  F14 UNL A   1      25.690 -17.894  39.079  1.00  0.00    +0.000 F 
ATOM     90  C62 UNL A   1      26.314 -16.072  37.704  1.00  0.00    +0.000 C 
ATOM     91  F15 UNL A   1      25.702 -16.662  36.667  1.00  0.00    +0.000 F 
ENDBRANCH   80   81
TORSDOF 33
ENDMDL
MODEL 2
REMARK VINA RESULT:      -6.0     61.934     67.417
ROOT
ATOM    149  H47 UNL A   1      44.557  51.376  15.718  1.00  0.00    +0.000 H 
ATOM    150  H48 UNL A   1      45.621  53.555  14.757  1.00  0.00    +0.000 H 
ATOM    151  H49 UNL A   1      47.973  52.234  17.900  1.00  0.00    +0.000 H 
ATOM    152  H50 UNL A   1      53.033  53.042  21.717  1.00  0.00    +0.000 H 
ATOM    153  H51 UNL A   1      51.994  50.918  22.649  1.00  0.00    +0.000 H 
ATOM    154  H52 UNL A   1      49.636  52.200  19.474  1.00  0.00    +0.000 H 
ATOM    155  H53 UNL A   1      51.823  56.351  17.693  1.00  0.00    +0.000 H 
ATOM    156  H54 UNL A   1      49.832  56.555  16.097  1.00  0.00    +0.000 H 
ATOM    157  H55 UNL A   1      45.995  47.965  19.607  1.00  0.00    +0.000 H 
ATOM    158  H56 UNL A   1      47.676  48.017  21.537  1.00  0.00    +0.000 H 
ATOM     44  C33 UNL A   1      49.604  50.104  21.321  1.00  0.00    +0.000 C 
ATOM     45  C34 UNL A   1      48.415  49.858  20.437  1.00  0.00    +0.000 C 
ATOM     46  N6  UNL A   1      48.003  50.535  19.394  1.00  0.00    +0.000 N 
ATOM     47  C35 UNL A   1      46.882  49.862  18.926  1.00  0.00    +0.000 C 
ATOM     48  C36 UNL A   1      46.055  50.203  17.909  1.00  0.00    +0.000 C 
ATOM     60  C43 UNL A   1      46.217  51.378  17.096  1.00  0.00    +0.000 C 
ATOM     61  C44 UNL A   1      45.419  51.829  16.059  1.00  0.00    +0.000 C 
ATOM     62  C45 UNL A   1      45.984  53.005  15.553  1.00  0.00    +0.000 C 
ATOM     63  C46 UNL A   1      47.110  53.307  16.299  1.00  0.00    +0.000 C 
ATOM     64  N7  UNL A   1      47.249  52.295  17.234  1.00  0.00    +0.000 N 
ATOM     65  C47 UNL A   1      47.993  54.437  16.173  1.00  0.00    +0.000 C 
ATOM     77  C54 UNL A   1      49.100  54.652  16.927  1.00  0.00    +0.000 C 
ATOM     78  N8  UNL A   1      49.616  53.882  17.960  1.00  0.00    +0.000 N 
ATOM     79  C55 UNL A   1      50.702  54.498  18.360  1.00  0.00    +0.000 C 
ATOM     80  C56 UNL A   1      51.645  54.133  19.475  1.00  0.00    +0.000 C 
ATOM     92  C63 UNL A   1      51.381  53.050  20.228  1.00  0.00    +0.000 C 
ATOM     93  C64 UNL A   1      52.180  52.585  21.358  1.00  0.00    +0.000 C 
ATOM     94  C65 UNL A   1      51.626  51.467  21.856  1.00  0.00    +0.000 C 
ATOM     95  C66 UNL A   1      50.417  51.151  21.093  1.00  0.00    +0.000 C 
ATOM     96  N9  UNL A   1      50.352  52.143  20.147  1.00  0.00    +0.000 N 
ATOM     97  C67 UNL A   1      51.014  55.717  17.602  1.00  0.00    +0.000 C 
ATOM     98  C68 UNL A   1      49.984  55.788  16.771  1.00  0.00    +0.000 C 
ATOM     99  C69 UNL A   1      46.710  48.693  19.761  1.00  0.00    +0.000 C 
ATOM    100  C70 UNL A   1      47.590  48.681  20.751  1.00  0.00    +0.000 C 
ENDROOT
BRANCH   44   43
ATOM    101  C71 UNL A   1      50.409  47.887  22.140  1.00  0.00    +0.000 C 
ATOM    102  C72 UNL A   1      50.638  46.976  23.167  1.00  0.00    +0.000 C 
ATOM     40  C29 UNL A   1      50.458  47.369  24.497  1.00  0.00    +0.000 C 
ATOM     41  C30 UNL A   1      49.953  48.635  24.797  1.00  0.00    +0.000 C 
ATOM     42  C31 UNL A   1      49.663  49.525  23.763  1.00  0.00    +0.000 C 
ATOM     43  C32 UNL A   1      49.907  49.164  22.428  1.00  0.00    +0.000 C 
ATOM    147  H45 UNL A   1      49.794  48.911  25.778  1.00  0.00    +0.000 H 
ATOM    148  H46 UNL A   1      49.268  50.454  23.980  1.00  0.00    +0.000 H 
ATOM    159  H57 UNL A   1      50.610  47.621  21.163  1.00  0.00    +0.000 H 
ATOM    160  H58 UNL A   1      50.941  46.013  22.948  1.00  0.00    +0.000 H 
BRANCH   40   38
ATOM     38  C28 UNL A   1      50.786  46.459  25.615  1.00  0.00    +0.000 C 
ATOM     39  O6  UNL A   1      51.901  46.494  26.126  1.00  0.00    +0.000 O 
BRANCH   38   37
ATOM    146  H44 UNL A   1      50.133  44.973  26.791  1.00  0.00    +0.000 H 
ATOM     37  N5  UNL A   1      49.850  45.555  26.049  1.00  0.00    +0.000 N 
BRANCH   37   36
ATOM    145  H43 UNL A   1      48.443  44.338  25.203  1.00  0.00    +0.000 H 
ATOM     36  C27 UNL A   1      48.502  45.344  25.563  1.00  0.00    +0.000 C 
ATOM    144  H42 UNL A   1      48.303  46.055  24.788  1.00  0.00    +0.000 H 
BRANCH   36   35
ATOM     35  C26 UNL A   1      47.451  45.504  26.652  1.00  0.00    +0.000 C 
ATOM    142  H40 UNL A   1      47.603  44.729  27.374  1.00  0.00    +0.000 H 
ATOM    143  H41 UNL A   1      47.581  46.490  27.048  1.00  0.00    +0.000 H 
BRANCH   35   34
ATOM     34  C25 UNL A   1      45.997  45.428  26.178  1.00  0.00    +0.000 C 
ATOM    140  H38 UNL A   1      45.451  46.207  26.666  1.00  0.00    +0.000 H 
ATOM    141  H39 UNL A   1      46.034  45.523  25.113  1.00  0.00    +0.000 H 
BRANCH   34   33
ATOM     33  C24 UNL A   1      45.276  44.104  26.453  1.00  0.00    +0.000 C 
ATOM    138  H36 UNL A   1      45.755  43.636  27.288  1.00  0.00    +0.000 H 
ATOM    139  H37 UNL A   1      44.252  44.359  26.630  1.00  0.00    +0.000 H 
BRANCH   33   32
ATOM    137  H35 UNL A   1      44.893  42.182  25.691  1.00  0.00    +0.000 H 
ATOM    136  H34 UNL A   1      46.260  43.024  24.912  1.00  0.00    +0.000 H 
ATOM     32  C23 UNL A   1      45.264  43.104  25.294  1.00  0.00    +0.000 C 
BRANCH   32   31
ATOM    135  H33 UNL A   1      43.912  44.438  24.362  1.00  0.00    +0.000 H 
ATOM    134  H32 UNL A   1      43.583  42.736  24.047  1.00  0.00    +0.000 H 
ATOM     31  C22 UNL A   1      44.342  43.484  24.145  1.00  0.00    +0.000 C 
BRANCH   31   30
ATOM    133  H31 UNL A   1      45.542  42.774  22.609  1.00  0.00    +0.000 H 
ATOM     30  N4  UNL A   1      45.064  43.585  22.897  1.00  0.00    +0.000 N 
BRANCH   30   28
ATOM     28  C21 UNL A   1      45.164  44.661  22.069  1.00  0.00    +0.000 C 
ATOM     29  O5  UNL A   1      45.142  45.788  22.571  1.00  0.00    +0.000 O 
BRANCH   28    5
ATOM      5  C5  UNL A   1      45.232  44.485  20.540  1.00  0.00    +0.000 C 
ATOM    112  H10 UNL A   1      44.968  45.434  20.120  1.00  0.00    +0.000 H 
BRANCH    5    4
ATOM      4  C4  UNL A   1      44.176  43.539  19.957  1.00  0.00    +0.000 C 
ATOM    110  H8  UNL A   1      44.690  42.711  19.515  1.00  0.00    +0.000 H 
ATOM    111  H9  UNL A   1      43.542  43.278  20.778  1.00  0.00    +0.000 H 
BRANCH    4    2
ATOM      2  C2  UNL A   1      43.233  44.139  18.883  1.00  0.00    +0.000 C 
ATOM    106  H4  UNL A   1      43.568  45.147  18.758  1.00  0.00    +0.000 H 
BRANCH    2    1
ATOM      1  C1  UNL A   1      43.308  43.496  17.495  1.00  0.00    +0.000 C 
ATOM    105  H3  UNL A   1      42.322  43.410  17.088  1.00  0.00    +0.000 H 
ATOM    103  H1  UNL A   1      43.746  42.523  17.576  1.00  0.00    +0.000 H 
ATOM    104  H2  UNL A   1      43.907  44.105  16.851  1.00  0.00    +0.000 H 
ENDBRANCH    2    1
BRANCH    2    3
ATOM      3  C3  UNL A   1      41.785  44.044  19.373  1.00  0.00    +0.000 C 
ATOM    108  H6  UNL A   1      41.255  44.930  19.095  1.00  0.00    +0.000 H 
ATOM    109  H7  UNL A   1      41.776  43.943  20.439  1.00  0.00    +0.000 H 
ATOM    107  H5  UNL A   1      41.313  43.192  18.930  1.00  0.00    +0.000 H 
ENDBRANCH    2    3
ENDBRANCH    4    2
ENDBRANCH    5    4
BRANCH    5    6
ATOM    113  H11 UNL A   1      46.745  43.236  19.844  1.00  0.00    +0.000 H 
ATOM      6  N1  UNL A   1      46.595  44.173  20.107  1.00  0.00    +0.000 N 
BRANCH    6    7
ATOM      7  C6  UNL A   1      47.687  44.981  20.014  1.00  0.00    +0.000 C 
ATOM      8  O1  UNL A   1      48.287  45.218  21.070  1.00  0.00    +0.000 O 
BRANCH    7    9
ATOM      9  C7  UNL A   1      48.168  45.631  18.704  1.00  0.00    +0.000 C 
ATOM    114  H12 UNL A   1      47.598  46.527  18.567  1.00  0.00    +0.000 H 
ATOM    115  H13 UNL A   1      48.026  44.870  17.964  1.00  0.00    +0.000 H 
BRANCH    9   10
ATOM     10  N2  UNL A   1      49.564  45.988  18.590  1.00  0.00    +0.000 N 
ATOM    116  H14 UNL A   1      49.734  46.946  18.747  1.00  0.00    +0.000 H 
BRANCH   10   11
ATOM     11  C8  UNL A   1      50.688  45.285  18.313  1.00  0.00    +0.000 C 
ATOM     12  O2  UNL A   1      50.493  44.230  17.693  1.00  0.00    +0.000 O 
BRANCH   11   13
ATOM    117  H15 UNL A   1      52.785  44.933  18.322  1.00  0.00    +0.000 H 
ATOM     13  C9  UNL A   1      52.136  45.655  18.773  1.00  0.00    +0.000 C 
BRANCH   13   14
ATOM    118  H16 UNL A   1      53.423  46.746  17.569  1.00  0.00    +0.000 H 
ATOM     14  N3  UNL A   1      52.673  46.892  18.190  1.00  0.00    +0.000 N 
BRANCH   14   15
ATOM     15  C10 UNL A   1      52.334  48.195  18.342  1.00  0.00    +0.000 C 
ATOM     16  O3  UNL A   1      52.388  48.723  19.444  1.00  0.00    +0.000 O 
BRANCH   15   17
ATOM     17  O4  UNL A   1      51.881  48.782  17.217  1.00  0.00    +0.000 O 
BRANCH   17   18
ATOM     18  C11 UNL A   1      50.967  49.867  17.429  1.00  0.00    +0.000 C 
ATOM    119  H17 UNL A   1      51.534  50.759  17.594  1.00  0.00    +0.000 H 
ATOM    120  H18 UNL A   1      50.362  49.604  18.273  1.00  0.00    +0.000 H 
BRANCH   18   19
ATOM     19  C12 UNL A   1      50.020  50.109  16.265  1.00  0.00    +0.000 C 
ATOM     20  C13 UNL A   1      49.037  49.153  15.972  1.00  0.00    +0.000 C 
ATOM     21  C14 UNL A   1      48.203  49.298  14.859  1.00  0.00    +0.000 C 
ATOM     22  C15 UNL A   1      48.344  50.398  14.016  1.00  0.00    +0.000 C 
ATOM     23  C16 UNL A   1      49.314  51.354  14.286  1.00  0.00    +0.000 C 
ATOM     24  C17 UNL A   1      50.144  51.208  15.399  1.00  0.00    +0.000 C 
ATOM    121  H19 UNL A   1      48.928  48.330  16.587  1.00  0.00    +0.000 H 
ATOM    122  H20 UNL A   1      47.481  48.588  14.662  1.00  0.00    +0.000 H 
ATOM    123  H21 UNL A   1      47.729  50.501  13.193  1.00  0.00    +0.000 H 
ATOM    124  H22 UNL A   1      49.421  52.171  13.665  1.00  0.00    +0.000 H 
ATOM    125  H23 UNL A   1      50.865  51.923  15.588  1.00  0.00    +0.000 H 
ENDBRANCH   18   19
ENDBRANCH   17   18
ENDBRANCH   15   17
ENDBRANCH   14   15
ENDBRANCH   13   14
BRANCH   13   25
ATOM     25  C18 UNL A   1      52.362  45.430  20.285  1.00  0.00    +0.000 C 
ATOM    126  H24 UNL A   1      51.983  46.301  20.777  1.00  0.00    +0.000 H 
BRANCH   25   26
ATOM    129  H27 UNL A   1      51.610  44.182  21.862  1.00  0.00    +0.000 H 
ATOM     26  C19 UNL A   1      51.623  44.179  20.792  1.00  0.00    +0.000 C 
ATOM    127  H25 UNL A   1      52.127  43.302  20.444  1.00  0.00    +0.000 H 
ATOM    128  H26 UNL A   1      50.618  44.184  20.423  1.00  0.00    +0.000 H 
ENDBRANCH   25   26
BRANCH   25   27
ATOM    130  H28 UNL A   1      54.064  44.193  20.707  1.00  0.00    +0.000 H 
ATOM     27  C20 UNL A   1      53.855  45.237  20.595  1.00  0.00    +0.000 C 
ATOM    132  H30 UNL A   1      54.439  45.633  19.792  1.00  0.00    +0.000 H 
ATOM    131  H29 UNL A   1      54.099  45.749  21.502  1.00  0.00    +0.000 H 
ENDBRANCH   25   27
ENDBRANCH   13   25
ENDBRANCH   11   13
ENDBRANCH   10   11
ENDBRANCH    9   10
ENDBRANCH    7    9
ENDBRANCH    6    7
ENDBRANCH    5    6
ENDBRANCH   28    5
ENDBRANCH   30   28
ENDBRANCH   31   30
ENDBRANCH   32   31
ENDBRANCH   33   32
ENDBRANCH   34   33
ENDBRANCH   35   34
ENDBRANCH   36   35
ENDBRANCH   37   36
ENDBRANCH   38   37
ENDBRANCH   40   38
ENDBRANCH   44   43
BRANCH   48   49
ATOM     49  C37 UNL A   1      44.894  49.295  17.632  1.00  0.00    +0.000 C 
ATOM     50  C38 UNL A   1      45.076  48.035  17.039  1.00  0.00    +0.000 C 
ATOM     51  F1  UNL A   1      46.303  47.634  16.671  1.00  0.00    +0.000 F 
ATOM     52  C39 UNL A   1      43.993  47.200  16.783  1.00  0.00    +0.000 C 
ATOM     53  F2  UNL A   1      44.186  46.022  16.173  1.00  0.00    +0.000 F 
ATOM     54  C40 UNL A   1      42.712  47.591  17.145  1.00  0.00    +0.000 C 
ATOM     55  F3  UNL A   1      41.670  46.783  16.903  1.00  0.00    +0.000 F 
ATOM     56  C41 UNL A   1      42.511  48.822  17.750  1.00  0.00    +0.000 C 
ATOM     57  F4  UNL A   1      41.275  49.196  18.110  1.00  0.00    +0.000 F 
ATOM     58  C42 UNL A   1      43.590  49.673  17.982  1.00  0.00    +0.000 C 
ATOM     59  F5  UNL A   1      43.361  50.865  18.554  1.00  0.00    +0.000 F 
ENDBRANCH   48   49
BRANCH   65   66
ATOM     66  C48 UNL A   1      47.658  55.473  15.142  1.00  0.00    +0.000 C 
ATOM     67  C49 UNL A   1      47.992  55.302  13.792  1.00  0.00    +0.000 C 
ATOM     68  F6  UNL A   1      48.669  54.213  13.396  1.00  0.00    +0.000 F 
ATOM     69  C50 UNL A   1      47.667  56.272  12.847  1.00  0.00    +0.000 C 
ATOM     70  F7  UNL A   1      48.038  56.111  11.569  1.00  0.00    +0.000 F 
ATOM     71  C51 UNL A   1      46.976  57.413  13.230  1.00  0.00    +0.000 C 
ATOM     72  F8  UNL A   1      46.662  58.344  12.319  1.00  0.00    +0.000 F 
ATOM     73  C52 UNL A   1      46.617  57.592  14.558  1.00  0.00    +0.000 C 
ATOM     74  F9  UNL A   1      45.941  58.688  14.926  1.00  0.00    +0.000 F 
ATOM     75  C53 UNL A   1      46.964  56.637  15.508  1.00  0.00    +0.000 C 
ATOM     76  F10 UNL A   1      46.617  56.842  16.788  1.00  0.00    +0.000 F 
ENDBRANCH   65   66
BRANCH   80   81
ATOM     81  C57 UNL A   1      52.836  54.971  19.768  1.00  0.00    +0.000 C 
ATOM     82  C58 UNL A   1      52.750  56.062  20.644  1.00  0.00    +0.000 C 
ATOM     83  F11 UNL A   1      51.577  56.365  21.221  1.00  0.00    +0.000 F 
ATOM     84  C59 UNL A   1      53.854  56.872  20.896  1.00  0.00    +0.000 C 
ATOM     85  F12 UNL A   1      53.732  57.937  21.700  1.00  0.00    +0.000 F 
ATOM     86  C60 UNL A   1      55.074  56.589  20.300  1.00  0.00    +0.000 C 
ATOM     87  F13 UNL A   1      56.137  57.369  20.541  1.00  0.00    +0.000 F 
ATOM     88  C61 UNL A   1      55.189  55.502  19.446  1.00  0.00    +0.000 C 
ATOM     89  F14 UNL A   1      56.369  55.217  18.880  1.00  0.00    +0.000 F 
ATOM     90  C62 UNL A   1      54.078  54.706  19.174  1.00  0.00    +0.000 C 
ATOM     91  F15 UNL A   1      54.214  53.670  18.335  1.00  0.00    +0.000 F 
ENDBRANCH   80   81
TORSDOF 33
ENDMDL
MODEL 3
REMARK VINA RESULT:      -6.0     40.777     45.247
ROOT
ATOM    149  H47 UNL A   1      56.868  21.432  20.667  1.00  0.00    +0.000 H 
ATOM    150  H48 UNL A   1      58.343  20.993  22.773  1.00  0.00    +0.000 H 
ATOM    151  H49 UNL A   1      59.820  18.710  19.649  1.00  0.00    +0.000 H 
ATOM    152  H50 UNL A   1      64.020  14.419  17.464  1.00  0.00    +0.000 H 
ATOM    153  H51 UNL A   1      62.582  14.852  15.414  1.00  0.00    +0.000 H 
ATOM    154  H52 UNL A   1      61.101  17.182  18.521  1.00  0.00    +0.000 H 
ATOM    155  H53 UNL A   1      64.054  16.283  22.478  1.00  0.00    +0.000 H 
ATOM    156  H54 UNL A   1      62.479  17.783  23.827  1.00  0.00    +0.000 H 
ATOM    157  H55 UNL A   1      57.072  19.706  15.587  1.00  0.00    +0.000 H 
ATOM    158  H56 UNL A   1      58.305  17.831  14.355  1.00  0.00    +0.000 H 
ATOM     44  C33 UNL A   1      60.451  16.698  15.847  1.00  0.00    +0.000 C 
ATOM     45  C34 UNL A   1      59.455  17.724  16.307  1.00  0.00    +0.000 C 
ATOM     46  N6  UNL A   1      59.349  18.312  17.472  1.00  0.00    +0.000 N 
ATOM     47  C35 UNL A   1      58.285  19.197  17.352  1.00  0.00    +0.000 C 
ATOM     48  C36 UNL A   1      57.734  19.988  18.303  1.00  0.00    +0.000 C 
ATOM     60  C43 UNL A   1      58.190  20.054  19.665  1.00  0.00    +0.000 C 
ATOM     61  C44 UNL A   1      57.683  20.802  20.713  1.00  0.00    +0.000 C 
ATOM     62  C45 UNL A   1      58.467  20.555  21.846  1.00  0.00    +0.000 C 
ATOM     63  C46 UNL A   1      59.437  19.624  21.513  1.00  0.00    +0.000 C 
ATOM     64  N7  UNL A   1      59.264  19.334  20.170  1.00  0.00    +0.000 N 
ATOM     65  C47 UNL A   1      60.445  19.039  22.358  1.00  0.00    +0.000 C 
ATOM     77  C54 UNL A   1      61.384  18.150  21.952  1.00  0.00    +0.000 C 
ATOM     78  N8  UNL A   1      61.584  17.604  20.692  1.00  0.00    +0.000 N 
ATOM     79  C55 UNL A   1      62.622  16.811  20.803  1.00  0.00    +0.000 C 
ATOM     80  C56 UNL A   1      63.264  15.935  19.761  1.00  0.00    +0.000 C 
ATOM     92  C63 UNL A   1      62.730  15.886  18.527  1.00  0.00    +0.000 C 
ATOM     93  C64 UNL A   1      63.217  15.066  17.422  1.00  0.00    +0.000 C 
ATOM     94  C65 UNL A   1      62.452  15.289  16.340  1.00  0.00    +0.000 C 
ATOM     95  C66 UNL A   1      61.403  16.250  16.686  1.00  0.00    +0.000 C 
ATOM     96  N9  UNL A   1      61.649  16.551  18.002  1.00  0.00    +0.000 N 
ATOM     97  C67 UNL A   1      63.218  16.788  22.145  1.00  0.00    +0.000 C 
ATOM     98  C68 UNL A   1      62.401  17.586  22.817  1.00  0.00    +0.000 C 
ATOM     99  C69 UNL A   1      57.814  19.111  15.988  1.00  0.00    +0.000 C 
ATOM    100  C70 UNL A   1      58.459  18.167  15.319  1.00  0.00    +0.000 C 
ENDROOT
BRANCH   44   43
ATOM    101  C71 UNL A   1      59.679  15.048  14.140  1.00  0.00    +0.000 C 
ATOM    102  C72 UNL A   1      59.685  14.541  12.843  1.00  0.00    +0.000 C 
ATOM     40  C29 UNL A   1      60.344  15.241  11.827  1.00  0.00    +0.000 C 
ATOM     41  C30 UNL A   1      61.080  16.390  12.124  1.00  0.00    +0.000 C 
ATOM     42  C31 UNL A   1      61.126  16.861  13.435  1.00  0.00    +0.000 C 
ATOM     43  C32 UNL A   1      60.410  16.204  14.449  1.00  0.00    +0.000 C 
ATOM    147  H45 UNL A   1      61.588  16.887  11.376  1.00  0.00    +0.000 H 
ATOM    148  H46 UNL A   1      61.688  17.696  13.662  1.00  0.00    +0.000 H 
ATOM    159  H57 UNL A   1      59.134  14.571  14.875  1.00  0.00    +0.000 H 
ATOM    160  H58 UNL A   1      59.204  13.652  12.632  1.00  0.00    +0.000 H 
BRANCH   40   38
ATOM     38  C28 UNL A   1      60.287  14.784  10.423  1.00  0.00    +0.000 C 
ATOM     39  O6  UNL A   1      61.310  14.754   9.747  1.00  0.00    +0.000 O 
BRANCH   38   37
ATOM    146  H44 UNL A   1      58.927  13.462   9.774  1.00  0.00    +0.000 H 
ATOM     37  N5  UNL A   1      59.081  14.428   9.875  1.00  0.00    +0.000 N 
BRANCH   37   36
ATOM    145  H43 UNL A   1      57.161  15.104  10.059  1.00  0.00    +0.000 H 
ATOM     36  C27 UNL A   1      58.003  15.286   9.425  1.00  0.00    +0.000 C 
ATOM    144  H42 UNL A   1      57.787  15.056   8.403  1.00  0.00    +0.000 H 
BRANCH   36   35
ATOM     35  C26 UNL A   1      58.345  16.766   9.531  1.00  0.00    +0.000 C 
ATOM    142  H40 UNL A   1      59.408  16.854   9.619  1.00  0.00    +0.000 H 
ATOM    143  H41 UNL A   1      57.949  17.226   8.650  1.00  0.00    +0.000 H 
BRANCH   35   34
ATOM     34  C25 UNL A   1      57.710  17.503  10.714  1.00  0.00    +0.000 C 
ATOM    140  H38 UNL A   1      58.492  17.998  11.250  1.00  0.00    +0.000 H 
ATOM    141  H39 UNL A   1      56.986  18.165  10.288  1.00  0.00    +0.000 H 
BRANCH   34   33
ATOM     33  C24 UNL A   1      56.940  16.627  11.708  1.00  0.00    +0.000 C 
ATOM    138  H36 UNL A   1      56.711  15.702  11.221  1.00  0.00    +0.000 H 
ATOM    139  H37 UNL A   1      57.578  16.520  12.559  1.00  0.00    +0.000 H 
BRANCH   33   32
ATOM    137  H35 UNL A   1      55.249  16.524  12.954  1.00  0.00    +0.000 H 
ATOM    136  H34 UNL A   1      54.972  17.367  11.406  1.00  0.00    +0.000 H 
ATOM     32  C23 UNL A   1      55.631  17.219  12.236  1.00  0.00    +0.000 C 
BRANCH   32   31
ATOM    135  H33 UNL A   1      56.834  18.769  13.032  1.00  0.00    +0.000 H 
ATOM    134  H32 UNL A   1      55.348  18.470  13.931  1.00  0.00    +0.000 H 
ATOM     31  C22 UNL A   1      55.790  18.548  12.959  1.00  0.00    +0.000 C 
BRANCH   31   30
ATOM    133  H31 UNL A   1      55.736  20.367  11.963  1.00  0.00    +0.000 H 
ATOM     30  N4  UNL A   1      55.149  19.625  12.239  1.00  0.00    +0.000 N 
BRANCH   30   28
ATOM     28  C21 UNL A   1      53.837  19.743  11.894  1.00  0.00    +0.000 C 
ATOM     29  O5  UNL A   1      53.055  20.213  12.725  1.00  0.00    +0.000 O 
BRANCH   28    5
ATOM      5  C5  UNL A   1      53.325  19.240  10.531  1.00  0.00    +0.000 C 
ATOM    112  H10 UNL A   1      53.931  18.395  10.280  1.00  0.00    +0.000 H 
BRANCH    5    4
ATOM      4  C4  UNL A   1      53.565  20.204   9.363  1.00  0.00    +0.000 C 
ATOM    110  H8  UNL A   1      52.622  20.635   9.098  1.00  0.00    +0.000 H 
ATOM    111  H9  UNL A   1      54.289  20.906   9.716  1.00  0.00    +0.000 H 
BRANCH    4    2
ATOM      2  C2  UNL A   1      54.179  19.587   8.080  1.00  0.00    +0.000 C 
ATOM    106  H4  UNL A   1      53.366  19.528   7.388  1.00  0.00    +0.000 H 
BRANCH    2    1
ATOM      1  C1  UNL A   1      55.260  20.424   7.390  1.00  0.00    +0.000 C 
ATOM    105  H3  UNL A   1      54.835  21.344   7.047  1.00  0.00    +0.000 H 
ATOM    103  H1  UNL A   1      55.653  19.881   6.555  1.00  0.00    +0.000 H 
ATOM    104  H2  UNL A   1      56.048  20.632   8.083  1.00  0.00    +0.000 H 
ENDBRANCH    2    1
BRANCH    2    3
ATOM      3  C3  UNL A   1      54.781  18.219   8.417  1.00  0.00    +0.000 C 
ATOM    108  H6  UNL A   1      54.385  17.875   9.350  1.00  0.00    +0.000 H 
ATOM    109  H7  UNL A   1      55.845  18.306   8.493  1.00  0.00    +0.000 H 
ATOM    107  H5  UNL A   1      54.534  17.520   7.646  1.00  0.00    +0.000 H 
ENDBRANCH    2    3
ENDBRANCH    4    2
ENDBRANCH    5    4
BRANCH    5    6
ATOM    113  H11 UNL A   1      51.819  17.910  11.078  1.00  0.00    +0.000 H 
ATOM      6  N1  UNL A   1      51.939  18.778  10.629  1.00  0.00    +0.000 N 
BRANCH    6    7
ATOM      7  C6  UNL A   1      50.791  19.366  10.194  1.00  0.00    +0.000 C 
ATOM      8  O1  UNL A   1      50.137  19.989  11.040  1.00  0.00    +0.000 O 
BRANCH    7    9
ATOM      9  C7  UNL A   1      50.259  19.254   8.753  1.00  0.00    +0.000 C 
ATOM    114  H12 UNL A   1      50.442  20.194   8.274  1.00  0.00    +0.000 H 
ATOM    115  H13 UNL A   1      49.231  18.982   8.871  1.00  0.00    +0.000 H 
BRANCH    9   10
ATOM     10  N2  UNL A   1      50.808  18.224   7.900  1.00  0.00    +0.000 N 
ATOM    116  H14 UNL A   1      51.289  17.522   8.398  1.00  0.00    +0.000 H 
BRANCH   10   11
ATOM     11  C8  UNL A   1      50.802  18.019   6.561  1.00  0.00    +0.000 C 
ATOM     12  O2  UNL A   1      51.459  18.845   5.913  1.00  0.00    +0.000 O 
BRANCH   11   13
ATOM    117  H15 UNL A   1      49.473  16.359   6.562  1.00  0.00    +0.000 H 
ATOM     13  C9  UNL A   1      49.993  16.913   5.809  1.00  0.00    +0.000 C 
BRANCH   13   14
ATOM    118  H16 UNL A   1      48.741  16.941   4.157  1.00  0.00    +0.000 H 
ATOM     14  N3  UNL A   1      48.859  17.406   5.016  1.00  0.00    +0.000 N 
BRANCH   14   15
ATOM     15  C10 UNL A   1      47.942  18.379   5.242  1.00  0.00    +0.000 C 
ATOM     16  O3  UNL A   1      48.214  19.550   5.015  1.00  0.00    +0.000 O 
BRANCH   15   17
ATOM     17  O4  UNL A   1      46.793  17.937   5.790  1.00  0.00    +0.000 O 
BRANCH   17   18
ATOM     18  C11 UNL A   1      45.853  17.385   4.856  1.00  0.00    +0.000 C 
ATOM    119  H17 UNL A   1      46.284  17.427   3.878  1.00  0.00    +0.000 H 
ATOM    120  H18 UNL A   1      44.958  17.966   4.936  1.00  0.00    +0.000 H 
BRANCH   18   19
ATOM     19  C12 UNL A   1      45.471  15.943   5.149  1.00  0.00    +0.000 C 
ATOM     20  C13 UNL A   1      44.227  15.671   5.737  1.00  0.00    +0.000 C 
ATOM     21  C14 UNL A   1      43.874  14.368   6.099  1.00  0.00    +0.000 C 
ATOM     22  C15 UNL A   1      44.762  13.316   5.888  1.00  0.00    +0.000 C 
ATOM     23  C16 UNL A   1      46.000  13.565   5.312  1.00  0.00    +0.000 C 
ATOM     24  C17 UNL A   1      46.351  14.867   4.949  1.00  0.00    +0.000 C 
ATOM    121  H19 UNL A   1      43.562  16.444   5.904  1.00  0.00    +0.000 H 
ATOM    122  H20 UNL A   1      42.952  14.184   6.525  1.00  0.00    +0.000 H 
ATOM    123  H21 UNL A   1      44.500  12.355   6.160  1.00  0.00    +0.000 H 
ATOM    124  H22 UNL A   1      46.662  12.789   5.153  1.00  0.00    +0.000 H 
ATOM    125  H23 UNL A   1      47.275  15.042   4.525  1.00  0.00    +0.000 H 
ENDBRANCH   18   19
ENDBRANCH   17   18
ENDBRANCH   15   17
ENDBRANCH   14   15
ENDBRANCH   13   14
BRANCH   13   25
ATOM     25  C18 UNL A   1      50.899  15.845   5.156  1.00  0.00    +0.000 C 
ATOM    126  H24 UNL A   1      51.552  16.372   4.492  1.00  0.00    +0.000 H 
BRANCH   25   26
ATOM    129  H27 UNL A   1      52.294  15.776   6.787  1.00  0.00    +0.000 H 
ATOM     26  C19 UNL A   1      51.726  15.081   6.205  1.00  0.00    +0.000 C 
ATOM    127  H25 UNL A   1      52.391  14.404   5.710  1.00  0.00    +0.000 H 
ATOM    128  H26 UNL A   1      51.069  14.531   6.846  1.00  0.00    +0.000 H 
ENDBRANCH   25   26
BRANCH   25   27
ATOM    130  H28 UNL A   1      49.084  14.753   4.817  1.00  0.00    +0.000 H 
ATOM     27  C20 UNL A   1      50.063  14.809   4.388  1.00  0.00    +0.000 C 
ATOM    132  H30 UNL A   1      49.988  15.102   3.362  1.00  0.00    +0.000 H 
ATOM    131  H29 UNL A   1      50.536  13.852   4.453  1.00  0.00    +0.000 H 
ENDBRANCH   25   27
ENDBRANCH   13   25
ENDBRANCH   11   13
ENDBRANCH   10   11
ENDBRANCH    9   10
ENDBRANCH    7    9
ENDBRANCH    6    7
ENDBRANCH    5    6
ENDBRANCH   28    5
ENDBRANCH   30   28
ENDBRANCH   31   30
ENDBRANCH   32   31
ENDBRANCH   33   32
ENDBRANCH   34   33
ENDBRANCH   35   34
ENDBRANCH   36   35
ENDBRANCH   37   36
ENDBRANCH   38   37
ENDBRANCH   40   38
ENDBRANCH   44   43
BRANCH   48   49
ATOM     49  C37 UNL A   1      56.564  20.837  17.899  1.00  0.00    +0.000 C 
ATOM     50  C38 UNL A   1      56.741  22.150  17.433  1.00  0.00    +0.000 C 
ATOM     51  F1  UNL A   1      57.969  22.686  17.376  1.00  0.00    +0.000 F 
ATOM     52  C39 UNL A   1      55.650  22.931  17.063  1.00  0.00    +0.000 C 
ATOM     53  F2  UNL A   1      55.839  24.197  16.665  1.00  0.00    +0.000 F 
ATOM     54  C40 UNL A   1      54.367  22.406  17.117  1.00  0.00    +0.000 C 
ATOM     55  F3  UNL A   1      53.319  23.158  16.755  1.00  0.00    +0.000 F 
ATOM     56  C41 UNL A   1      54.172  21.105  17.555  1.00  0.00    +0.000 C 
ATOM     57  F4  UNL A   1      52.933  20.594  17.599  1.00  0.00    +0.000 F 
ATOM     58  C42 UNL A   1      55.258  20.330  17.954  1.00  0.00    +0.000 C 
ATOM     59  F5  UNL A   1      55.035  19.081  18.389  1.00  0.00    +0.000 F 
ENDBRANCH   48   49
BRANCH   65   66
ATOM     66  C48 UNL A   1      60.450  19.423  23.808  1.00  0.00    +0.000 C 
ATOM     67  C49 UNL A   1      60.952  20.659  24.240  1.00  0.00    +0.000 C 
ATOM     68  F6  UNL A   1      61.488  21.515  23.357  1.00  0.00    +0.000 F 
ATOM     69  C50 UNL A   1      60.943  21.001  25.589  1.00  0.00    +0.000 C 
ATOM     70  F7  UNL A   1      61.471  22.167  25.987  1.00  0.00    +0.000 F 
ATOM     71  C51 UNL A   1      60.403  20.129  26.525  1.00  0.00    +0.000 C 
ATOM     72  F8  UNL A   1      60.393  20.461  27.823  1.00  0.00    +0.000 F 
ATOM     73  C52 UNL A   1      59.882  18.910  26.116  1.00  0.00    +0.000 C 
ATOM     74  F9  UNL A   1      59.351  18.073  27.017  1.00  0.00    +0.000 F 
ATOM     75  C53 UNL A   1      59.914  18.555  24.771  1.00  0.00    +0.000 C 
ATOM     76  F10 UNL A   1      59.416  17.364  24.406  1.00  0.00    +0.000 F 
ENDBRANCH   65   66
BRANCH   80   81
ATOM     81  C57 UNL A   1      64.450  15.104  20.092  1.00  0.00    +0.000 C 
ATOM     82  C58 UNL A   1      64.302  13.818  20.628  1.00  0.00    +0.000 C 
ATOM     83  F11 UNL A   1      63.075  13.327  20.856  1.00  0.00    +0.000 F 
ATOM     84  C59 UNL A   1      65.411  13.049  20.973  1.00  0.00    +0.000 C 
ATOM     85  F12 UNL A   1      65.240  11.842  21.527  1.00  0.00    +0.000 F 
ATOM     86  C60 UNL A   1      66.690  13.540  20.760  1.00  0.00    +0.000 C 
ATOM     87  F13 UNL A   1      67.757  12.800  21.092  1.00  0.00    +0.000 F 
ATOM     88  C61 UNL A   1      66.862  14.802  20.211  1.00  0.00    +0.000 C 
ATOM     89  F14 UNL A   1      68.097  15.274  19.991  1.00  0.00    +0.000 F 
ATOM     90  C62 UNL A   1      65.753  15.582  19.890  1.00  0.00    +0.000 C 
ATOM     91  F15 UNL A   1      65.948  16.803  19.373  1.00  0.00    +0.000 F 
ENDBRANCH   80   81
TORSDOF 33
ENDMDL
MODEL 4
REMARK VINA RESULT:      -6.0     28.656     35.217
ROOT
ATOM    149  H47 UNL A   1       6.264   9.014  39.594  1.00  0.00    +0.000 H 
ATOM    150  H48 UNL A   1       4.780  11.156  39.692  1.00  0.00    +0.000 H 
ATOM    151  H49 UNL A   1       2.686   8.213  37.665  1.00  0.00    +0.000 H 
ATOM    152  H50 UNL A   1      -2.530   6.369  34.468  1.00  0.00    +0.000 H 
ATOM    153  H51 UNL A   1      -1.082   4.282  34.377  1.00  0.00    +0.000 H 
ATOM    154  H52 UNL A   1       1.028   7.206  36.448  1.00  0.00    +0.000 H 
ATOM    155  H53 UNL A   1      -1.957  11.238  36.607  1.00  0.00    +0.000 H 
ATOM    156  H54 UNL A   1      -0.015  12.465  37.736  1.00  0.00    +0.000 H 
ATOM    157  H55 UNL A   1       5.493   4.071  37.645  1.00  0.00    +0.000 H 
ATOM    158  H56 UNL A   1       3.790   2.984  36.074  1.00  0.00    +0.000 H 
ATOM     44  C33 UNL A   1       1.463   4.568  35.635  1.00  0.00    +0.000 C 
ATOM     45  C34 UNL A   1       2.700   4.947  36.398  1.00  0.00    +0.000 C 
ATOM     46  N6  UNL A   1       2.984   6.066  37.015  1.00  0.00    +0.000 N 
ATOM     47  C35 UNL A   1       4.236   5.876  37.585  1.00  0.00    +0.000 C 
ATOM     48  C36 UNL A   1       4.996   6.764  38.269  1.00  0.00    +0.000 C 
ATOM     60  C43 UNL A   1       4.606   8.122  38.541  1.00  0.00    +0.000 C 
ATOM     61  C44 UNL A   1       5.315   9.110  39.200  1.00  0.00    +0.000 C 
ATOM     62  C45 UNL A   1       4.523  10.263  39.240  1.00  0.00    +0.000 C 
ATOM     63  C46 UNL A   1       3.338  10.005  38.572  1.00  0.00    +0.000 C 
ATOM     64  N7  UNL A   1       3.397   8.684  38.158  1.00  0.00    +0.000 N 
ATOM     65  C47 UNL A   1       2.236  10.896  38.324  1.00  0.00    +0.000 C 
ATOM     77  C54 UNL A   1       1.089  10.561  37.682  1.00  0.00    +0.000 C 
ATOM     78  N8  UNL A   1       0.724   9.344  37.124  1.00  0.00    +0.000 N 
ATOM     79  C55 UNL A   1      -0.480   9.519  36.635  1.00  0.00    +0.000 C 
ATOM     80  C56 UNL A   1      -1.352   8.547  35.887  1.00  0.00    +0.000 C 
ATOM     92  C63 UNL A   1      -0.880   7.316  35.619  1.00  0.00    +0.000 C 
ATOM     93  C64 UNL A   1      -1.589   6.275  34.882  1.00  0.00    +0.000 C 
ATOM     94  C65 UNL A   1      -0.820   5.175  34.827  1.00  0.00    +0.000 C 
ATOM     95  C66 UNL A   1       0.449   5.443  35.506  1.00  0.00    +0.000 C 
ATOM     96  N9  UNL A   1       0.323   6.737  35.946  1.00  0.00    +0.000 N 
ATOM     97  C67 UNL A   1      -1.027  10.864  36.856  1.00  0.00    +0.000 C 
ATOM     98  C68 UNL A   1      -0.016  11.471  37.459  1.00  0.00    +0.000 C 
ATOM     99  C69 UNL A   1       4.634   4.518  37.290  1.00  0.00    +0.000 C 
ATOM    100  C70 UNL A   1       3.751   3.922  36.502  1.00  0.00    +0.000 C 
ENDROOT
BRANCH   44   43
ATOM    101  C71 UNL A   1       0.702   2.195  35.785  1.00  0.00    +0.000 C 
ATOM    102  C72 UNL A   1       0.636   0.901  35.276  1.00  0.00    +0.000 C 
ATOM     40  C29 UNL A   1       1.124   0.633  33.993  1.00  0.00    +0.000 C 
ATOM     41  C30 UNL A   1       1.767   1.632  33.260  1.00  0.00    +0.000 C 
ATOM     42  C31 UNL A   1       1.889   2.913  33.797  1.00  0.00    +0.000 C 
ATOM     43  C32 UNL A   1       1.340   3.208  35.055  1.00  0.00    +0.000 C 
ATOM    147  H45 UNL A   1       2.151   1.423  32.325  1.00  0.00    +0.000 H 
ATOM    148  H46 UNL A   1       2.384   3.647  33.267  1.00  0.00    +0.000 H 
ATOM    159  H57 UNL A   1       0.278   2.409  36.701  1.00  0.00    +0.000 H 
ATOM    160  H58 UNL A   1       0.229   0.141  35.844  1.00  0.00    +0.000 H 
BRANCH   40   38
ATOM     38  C28 UNL A   1       0.981  -0.707  33.385  1.00  0.00    +0.000 C 
ATOM     39  O6  UNL A   1       0.093  -0.915  32.566  1.00  0.00    +0.000 O 
BRANCH   38   37
ATOM    146  H44 UNL A   1       2.208  -2.253  33.038  1.00  0.00    +0.000 H 
ATOM     37  N5  UNL A   1       1.825  -1.717  33.769  1.00  0.00    +0.000 N 
BRANCH   37   36
ATOM    145  H43 UNL A   1       2.109  -3.162  35.187  1.00  0.00    +0.000 H 
ATOM     36  C27 UNL A   1       2.227  -2.101  35.107  1.00  0.00    +0.000 C 
ATOM    144  H42 UNL A   1       1.614  -1.580  35.811  1.00  0.00    +0.000 H 
BRANCH   36   35
ATOM     35  C26 UNL A   1       3.686  -1.779  35.399  1.00  0.00    +0.000 C 
ATOM    142  H40 UNL A   1       4.046  -2.492  36.111  1.00  0.00    +0.000 H 
ATOM    143  H41 UNL A   1       4.193  -1.821  34.457  1.00  0.00    +0.000 H 
BRANCH   35   34
ATOM     34  C25 UNL A   1       3.950  -0.378  35.958  1.00  0.00    +0.000 C 
ATOM    140  H38 UNL A   1       5.005  -0.274  36.097  1.00  0.00    +0.000 H 
ATOM    141  H39 UNL A   1       3.535   0.302  35.244  1.00  0.00    +0.000 H 
BRANCH   34   33
ATOM     33  C24 UNL A   1       3.265  -0.055  37.290  1.00  0.00    +0.000 C 
ATOM    138  H36 UNL A   1       3.188   1.010  37.370  1.00  0.00    +0.000 H 
ATOM    139  H37 UNL A   1       2.320  -0.554  37.263  1.00  0.00    +0.000 H 
BRANCH   33   32
ATOM    137  H35 UNL A   1       5.027  -0.498  38.349  1.00  0.00    +0.000 H 
ATOM    136  H34 UNL A   1       3.655  -1.577  38.720  1.00  0.00    +0.000 H 
ATOM     32  C23 UNL A   1       3.977  -0.572  38.543  1.00  0.00    +0.000 C 
BRANCH   32   31
ATOM    135  H33 UNL A   1       4.587   0.219  40.409  1.00  0.00    +0.000 H 
ATOM    134  H32 UNL A   1       2.873  -0.183  40.317  1.00  0.00    +0.000 H 
ATOM     31  C22 UNL A   1       3.708   0.242  39.800  1.00  0.00    +0.000 C 
BRANCH   31   30
ATOM    133  H31 UNL A   1       3.587   1.898  38.557  1.00  0.00    +0.000 H 
ATOM     30  N4  UNL A   1       3.412   1.622  39.486  1.00  0.00    +0.000 N 
BRANCH   30   28
ATOM     28  C21 UNL A   1       2.922   2.586  40.313  1.00  0.00    +0.000 C 
ATOM     29  O5  UNL A   1       3.149   2.488  41.522  1.00  0.00    +0.000 O 
BRANCH   28    5
ATOM      5  C5  UNL A   1       2.048   3.732  39.769  1.00  0.00    +0.000 C 
ATOM    112  H10 UNL A   1       2.647   4.244  39.045  1.00  0.00    +0.000 H 
BRANCH    5    4
ATOM      4  C4  UNL A   1       1.721   4.827  40.791  1.00  0.00    +0.000 C 
ATOM    110  H8  UNL A   1       0.723   4.662  41.137  1.00  0.00    +0.000 H 
ATOM    111  H9  UNL A   1       2.472   4.744  41.548  1.00  0.00    +0.000 H 
BRANCH    4    2
ATOM      2  C2  UNL A   1       1.809   6.289  40.282  1.00  0.00    +0.000 C 
ATOM    106  H4  UNL A   1       2.562   6.270  39.522  1.00  0.00    +0.000 H 
BRANCH    2    1
ATOM      1  C1  UNL A   1       0.547   6.838  39.610  1.00  0.00    +0.000 C 
ATOM    105  H3  UNL A   1      -0.240   6.908  40.332  1.00  0.00    +0.000 H 
ATOM    103  H1  UNL A   1       0.249   6.182  38.819  1.00  0.00    +0.000 H 
ATOM    104  H2  UNL A   1       0.750   7.810  39.209  1.00  0.00    +0.000 H 
ENDBRANCH    2    1
BRANCH    2    3
ATOM      3  C3  UNL A   1       2.162   7.210  41.454  1.00  0.00    +0.000 C 
ATOM    108  H6  UNL A   1       3.003   7.816  41.191  1.00  0.00    +0.000 H 
ATOM    109  H7  UNL A   1       2.404   6.618  42.312  1.00  0.00    +0.000 H 
ATOM    107  H5  UNL A   1       1.326   7.839  41.678  1.00  0.00    +0.000 H 
ENDBRANCH    2    3
ENDBRANCH    4    2
ENDBRANCH    5    4
BRANCH    5    6
ATOM    113  H11 UNL A   1       0.765   3.506  38.145  1.00  0.00    +0.000 H 
ATOM      6  N1  UNL A   1       0.868   3.210  39.078  1.00  0.00    +0.000 N 
BRANCH    6    7
ATOM      7  C6  UNL A   1      -0.110   2.377  39.530  1.00  0.00    +0.000 C 
ATOM      8  O1  UNL A   1      -0.004   1.184  39.217  1.00  0.00    +0.000 O 
BRANCH    7    9
ATOM      9  C7  UNL A   1      -1.328   2.843  40.347  1.00  0.00    +0.000 C 
ATOM    114  H12 UNL A   1      -1.016   2.919  41.368  1.00  0.00    +0.000 H 
ATOM    115  H13 UNL A   1      -2.080   2.110  40.142  1.00  0.00    +0.000 H 
BRANCH    9   10
ATOM     10  N2  UNL A   1      -1.948   4.101  39.993  1.00  0.00    +0.000 N 
ATOM    116  H14 UNL A   1      -1.710   4.836  40.604  1.00  0.00    +0.000 H 
BRANCH   10   11
ATOM     11  C8  UNL A   1      -2.785   4.482  38.999  1.00  0.00    +0.000 C 
ATOM     12  O2  UNL A   1      -2.243   5.127  38.090  1.00  0.00    +0.000 O 
BRANCH   11   13
ATOM    117  H15 UNL A   1      -4.719   4.930  38.238  1.00  0.00    +0.000 H 
ATOM     13  C9  UNL A   1      -4.330   4.246  38.963  1.00  0.00    +0.000 C 
BRANCH   13   14
ATOM    118  H16 UNL A   1      -5.666   2.704  38.601  1.00  0.00    +0.000 H 
ATOM     14  N3  UNL A   1      -4.748   2.969  38.368  1.00  0.00    +0.000 N 
BRANCH   14   15
ATOM     15  C10 UNL A   1      -4.111   2.087  37.560  1.00  0.00    +0.000 C 
ATOM     16  O3  UNL A   1      -3.539   1.115  38.034  1.00  0.00    +0.000 O 
BRANCH   15   17
ATOM     17  O4  UNL A   1      -4.115   2.431  36.257  1.00  0.00    +0.000 O 
BRANCH   17   18
ATOM     18  C11 UNL A   1      -2.829   2.396  35.620  1.00  0.00    +0.000 C 
ATOM    119  H17 UNL A   1      -2.184   1.767  36.197  1.00  0.00    +0.000 H 
ATOM    120  H18 UNL A   1      -2.479   3.407  35.569  1.00  0.00    +0.000 H 
BRANCH   18   19
ATOM     19  C12 UNL A   1      -2.864   1.868  34.196  1.00  0.00    +0.000 C 
ATOM     20  C13 UNL A   1      -3.782   0.862  33.860  1.00  0.00    +0.000 C 
ATOM     21  C14 UNL A   1      -3.787   0.292  32.584  1.00  0.00    +0.000 C 
ATOM     22  C15 UNL A   1      -2.870   0.711  31.624  1.00  0.00    +0.000 C 
ATOM     23  C16 UNL A   1      -1.950   1.702  31.937  1.00  0.00    +0.000 C 
ATOM     24  C17 UNL A   1      -1.946   2.272  33.212  1.00  0.00    +0.000 C 
ATOM    121  H19 UNL A   1      -4.463   0.539  34.567  1.00  0.00    +0.000 H 
ATOM    122  H20 UNL A   1      -4.474  -0.443  32.353  1.00  0.00    +0.000 H 
ATOM    123  H21 UNL A   1      -2.874   0.285  30.683  1.00  0.00    +0.000 H 
ATOM    124  H22 UNL A   1      -1.268   2.017  31.229  1.00  0.00    +0.000 H 
ATOM    125  H23 UNL A   1      -1.255   3.006  33.435  1.00  0.00    +0.000 H 
ENDBRANCH   18   19
ENDBRANCH   17   18
ENDBRANCH   15   17
ENDBRANCH   14   15
ENDBRANCH   13   14
BRANCH   13   25
ATOM     25  C18 UNL A   1      -5.035   4.683  40.266  1.00  0.00    +0.000 C 
ATOM    126  H24 UNL A   1      -4.581   4.119  41.055  1.00  0.00    +0.000 H 
BRANCH   25   26
ATOM    129  H27 UNL A   1      -4.233   6.613  39.777  1.00  0.00    +0.000 H 
ATOM     26  C19 UNL A   1      -4.861   6.188  40.532  1.00  0.00    +0.000 C 
ATOM    127  H25 UNL A   1      -4.411   6.331  41.492  1.00  0.00    +0.000 H 
ATOM    128  H26 UNL A   1      -5.818   6.667  40.512  1.00  0.00    +0.000 H 
ENDBRANCH   25   26
BRANCH   25   27
ATOM    130  H28 UNL A   1      -6.707   3.439  39.754  1.00  0.00    +0.000 H 
ATOM     27  C20 UNL A   1      -6.544   4.401  40.196  1.00  0.00    +0.000 C 
ATOM    132  H30 UNL A   1      -6.956   4.414  41.183  1.00  0.00    +0.000 H 
ATOM    131  H29 UNL A   1      -7.019   5.152  39.600  1.00  0.00    +0.000 H 
ENDBRANCH   25   27
ENDBRANCH   13   25
ENDBRANCH   11   13
ENDBRANCH   10   11
ENDBRANCH    9   10
ENDBRANCH    7    9
ENDBRANCH    6    7
ENDBRANCH    5    6
ENDBRANCH   28    5
ENDBRANCH   30   28
ENDBRANCH   31   30
ENDBRANCH   32   31
ENDBRANCH   33   32
ENDBRANCH   34   33
ENDBRANCH   35   34
ENDBRANCH   36   35
ENDBRANCH   37   36
ENDBRANCH   38   37
ENDBRANCH   40   38
ENDBRANCH   44   43
BRANCH   48   49
ATOM     49  C37 UNL A   1       6.334   6.293  38.758  1.00  0.00    +0.000 C 
ATOM     50  C38 UNL A   1       6.446   5.437  39.865  1.00  0.00    +0.000 C 
ATOM     51  F1  UNL A   1       5.349   5.053  40.536  1.00  0.00    +0.000 F 
ATOM     52  C39 UNL A   1       7.691   5.006  40.314  1.00  0.00    +0.000 C 
ATOM     53  F2  UNL A   1       7.777   4.228  41.402  1.00  0.00    +0.000 F 
ATOM     54  C40 UNL A   1       8.844   5.392  39.646  1.00  0.00    +0.000 C 
ATOM     55  F3  UNL A   1      10.042   4.972  40.076  1.00  0.00    +0.000 F 
ATOM     56  C41 UNL A   1       8.754   6.221  38.537  1.00  0.00    +0.000 C 
ATOM     57  F4  UNL A   1       9.867   6.586  37.884  1.00  0.00    +0.000 F 
ATOM     58  C42 UNL A   1       7.512   6.677  38.103  1.00  0.00    +0.000 C 
ATOM     59  F5  UNL A   1       7.460   7.491  37.037  1.00  0.00    +0.000 F 
ENDBRANCH   48   49
BRANCH   65   66
ATOM     66  C48 UNL A   1       2.367  12.316  38.792  1.00  0.00    +0.000 C 
ATOM     67  C49 UNL A   1       1.867  12.729  40.035  1.00  0.00    +0.000 C 
ATOM     68  F6  UNL A   1       1.213  11.862  40.822  1.00  0.00    +0.000 F 
ATOM     69  C50 UNL A   1       2.003  14.049  40.455  1.00  0.00    +0.000 C 
ATOM     70  F7  UNL A   1       1.477  14.435  41.626  1.00  0.00    +0.000 F 
ATOM     71  C51 UNL A   1       2.668  14.969  39.656  1.00  0.00    +0.000 C 
ATOM     72  F8  UNL A   1       2.800  16.239  40.064  1.00  0.00    +0.000 F 
ATOM     73  C52 UNL A   1       3.188  14.576  38.432  1.00  0.00    +0.000 C 
ATOM     74  F9  UNL A   1       3.838  15.461  37.666  1.00  0.00    +0.000 F 
ATOM     75  C53 UNL A   1       3.030  13.263  37.998  1.00  0.00    +0.000 C 
ATOM     76  F10 UNL A   1       3.530  12.914  36.803  1.00  0.00    +0.000 F 
ENDBRANCH   65   66
BRANCH   80   81
ATOM     81  C57 UNL A   1      -2.703   8.945  35.415  1.00  0.00    +0.000 C 
ATOM     82  C58 UNL A   1      -2.870   9.622  34.199  1.00  0.00    +0.000 C 
ATOM     83  F11 UNL A   1      -1.799   9.927  33.451  1.00  0.00    +0.000 F 
ATOM     84  C59 UNL A   1      -4.131  10.028  33.769  1.00  0.00    +0.000 C 
ATOM     85  F12 UNL A   1      -4.257  10.716  32.626  1.00  0.00    +0.000 F 
ATOM     86  C60 UNL A   1      -5.253   9.738  34.531  1.00  0.00    +0.000 C 
ATOM     87  F13 UNL A   1      -6.466  10.129  34.118  1.00  0.00    +0.000 F 
ATOM     88  C61 UNL A   1      -5.114   9.050  35.728  1.00  0.00    +0.000 C 
ATOM     89  F14 UNL A   1      -6.197   8.755  36.460  1.00  0.00    +0.000 F 
ATOM     90  C62 UNL A   1      -3.850   8.666  36.171  1.00  0.00    +0.000 C 
ATOM     91  F15 UNL A   1      -3.743   8.014  37.338  1.00  0.00    +0.000 F 
ENDBRANCH   80   81
TORSDOF 33
ENDMDL
MODEL 5
REMARK VINA RESULT:      -6.0     46.992     52.285
ROOT
ATOM    149  H47 UNL A   1      18.826  33.785  47.489  1.00  0.00    +0.000 H 
ATOM    150  H48 UNL A   1      17.051  35.236  48.732  1.00  0.00    +0.000 H 
ATOM    151  H49 UNL A   1      20.497  37.490  48.292  1.00  0.00    +0.000 H 
ATOM    152  H50 UNL A   1      23.698  42.924  49.319  1.00  0.00    +0.000 H 
ATOM    153  H51 UNL A   1      25.425  41.508  48.105  1.00  0.00    +0.000 H 
ATOM    154  H52 UNL A   1      21.966  39.236  48.500  1.00  0.00    +0.000 H 
ATOM    155  H53 UNL A   1      18.630  42.159  50.850  1.00  0.00    +0.000 H 
ATOM    156  H54 UNL A   1      17.065  40.134  50.863  1.00  0.00    +0.000 H 
ATOM    157  H55 UNL A   1      23.818  34.736  45.757  1.00  0.00    +0.000 H 
ATOM    158  H56 UNL A   1      25.573  36.551  46.183  1.00  0.00    +0.000 H 
ATOM     44  C33 UNL A   1      24.526  38.884  47.439  1.00  0.00    +0.000 C 
ATOM     45  C34 UNL A   1      23.809  37.595  47.154  1.00  0.00    +0.000 C 
ATOM     46  N6  UNL A   1      22.571  37.259  47.417  1.00  0.00    +0.000 N 
ATOM     47  C35 UNL A   1      22.413  35.975  46.913  1.00  0.00    +0.000 C 
ATOM     48  C36 UNL A   1      21.334  35.162  46.997  1.00  0.00    +0.000 C 
ATOM     60  C43 UNL A   1      20.102  35.518  47.647  1.00  0.00    +0.000 C 
ATOM     61  C44 UNL A   1      18.958  34.757  47.812  1.00  0.00    +0.000 C 
ATOM     62  C45 UNL A   1      18.011  35.531  48.491  1.00  0.00    +0.000 C 
ATOM     63  C46 UNL A   1      18.578  36.760  48.783  1.00  0.00    +0.000 C 
ATOM     64  N7  UNL A   1      19.856  36.743  48.250  1.00  0.00    +0.000 N 
ATOM     65  C47 UNL A   1      18.000  37.867  49.499  1.00  0.00    +0.000 C 
ATOM     77  C54 UNL A   1      18.611  39.057  49.724  1.00  0.00    +0.000 C 
ATOM     78  N8  UNL A   1      19.881  39.471  49.350  1.00  0.00    +0.000 N 
ATOM     79  C55 UNL A   1      20.001  40.702  49.784  1.00  0.00    +0.000 C 
ATOM     80  C56 UNL A   1      21.181  41.632  49.691  1.00  0.00    +0.000 C 
ATOM     92  C63 UNL A   1      22.318  41.192  49.121  1.00  0.00    +0.000 C 
ATOM     93  C64 UNL A   1      23.552  41.959  48.983  1.00  0.00    +0.000 C 
ATOM     94  C65 UNL A   1      24.467  41.207  48.349  1.00  0.00    +0.000 C 
ATOM     95  C66 UNL A   1      23.890  39.894  48.058  1.00  0.00    +0.000 C 
ATOM     96  N9  UNL A   1      22.611  39.977  48.551  1.00  0.00    +0.000 N 
ATOM     97  C67 UNL A   1      18.803  41.219  50.458  1.00  0.00    +0.000 C 
ATOM     98  C68 UNL A   1      18.003  40.164  50.433  1.00  0.00    +0.000 C 
ATOM     99  C69 UNL A   1      23.662  35.612  46.280  1.00  0.00    +0.000 C 
ATOM    100  C70 UNL A   1      24.578  36.551  46.459  1.00  0.00    +0.000 C 
ENDROOT
BRANCH   44   43
ATOM    101  C71 UNL A   1      26.973  38.496  47.752  1.00  0.00    +0.000 C 
ATOM    102  C72 UNL A   1      28.298  38.707  47.382  1.00  0.00    +0.000 C 
ATOM     40  C29 UNL A   1      28.589  39.402  46.204  1.00  0.00    +0.000 C 
ATOM     41  C30 UNL A   1      27.562  39.973  45.450  1.00  0.00    +0.000 C 
ATOM     42  C31 UNL A   1      26.237  39.815  45.856  1.00  0.00    +0.000 C 
ATOM     43  C32 UNL A   1      25.932  39.059  46.999  1.00  0.00    +0.000 C 
ATOM    147  H45 UNL A   1      27.782  40.510  44.597  1.00  0.00    +0.000 H 
ATOM    148  H46 UNL A   1      25.478  40.255  45.313  1.00  0.00    +0.000 H 
ATOM    159  H57 UNL A   1      26.756  37.922  48.582  1.00  0.00    +0.000 H 
ATOM    160  H58 UNL A   1      29.065  38.351  47.976  1.00  0.00    +0.000 H 
BRANCH   40   38
ATOM     38  C28 UNL A   1      29.981  39.559  45.732  1.00  0.00    +0.000 C 
ATOM     39  O6  UNL A   1      30.301  40.555  45.092  1.00  0.00    +0.000 O 
BRANCH   38   37
ATOM    146  H44 UNL A   1      31.394  38.655  46.829  1.00  0.00    +0.000 H 
ATOM     37  N5  UNL A   1      30.896  38.570  45.984  1.00  0.00    +0.000 N 
BRANCH   37   36
ATOM    145  H43 UNL A   1      32.084  36.948  45.614  1.00  0.00    +0.000 H 
ATOM     36  C27 UNL A   1      31.228  37.416  45.173  1.00  0.00    +0.000 C 
ATOM    144  H42 UNL A   1      31.426  37.745  44.175  1.00  0.00    +0.000 H 
BRANCH   36   35
ATOM     35  C26 UNL A   1      30.111  36.383  45.133  1.00  0.00    +0.000 C 
ATOM    142  H40 UNL A   1      30.559  35.411  45.114  1.00  0.00    +0.000 H 
ATOM    143  H41 UNL A   1      29.511  36.561  46.001  1.00  0.00    +0.000 H 
BRANCH   35   34
ATOM     34  C25 UNL A   1      29.162  36.489  43.936  1.00  0.00    +0.000 C 
ATOM    140  H38 UNL A   1      28.660  37.431  43.997  1.00  0.00    +0.000 H 
ATOM    141  H39 UNL A   1      29.777  36.378  43.068  1.00  0.00    +0.000 H 
BRANCH   34   33
ATOM     33  C24 UNL A   1      28.095  35.393  43.834  1.00  0.00    +0.000 C 
ATOM    138  H36 UNL A   1      27.160  35.815  44.141  1.00  0.00    +0.000 H 
ATOM    139  H37 UNL A   1      28.107  35.066  42.816  1.00  0.00    +0.000 H 
BRANCH   33   32
ATOM    137  H35 UNL A   1      28.886  34.465  45.548  1.00  0.00    +0.000 H 
ATOM    136  H34 UNL A   1      28.895  33.442  44.086  1.00  0.00    +0.000 H 
ATOM     32  C23 UNL A   1      28.348  34.143  44.680  1.00  0.00    +0.000 C 
BRANCH   32   31
ATOM    135  H33 UNL A   1      26.407  33.360  44.361  1.00  0.00    +0.000 H 
ATOM    134  H32 UNL A   1      26.657  34.048  45.964  1.00  0.00    +0.000 H 
ATOM     31  C22 UNL A   1      27.086  33.457  45.182  1.00  0.00    +0.000 C 
BRANCH   31   30
ATOM    133  H31 UNL A   1      27.964  31.578  45.143  1.00  0.00    +0.000 H 
ATOM     30  N4  UNL A   1      27.367  32.135  45.694  1.00  0.00    +0.000 N 
BRANCH   30   28
ATOM     28  C21 UNL A   1      26.912  31.564  46.844  1.00  0.00    +0.000 C 
ATOM     29  O5  UNL A   1      25.727  31.223  46.896  1.00  0.00    +0.000 O 
BRANCH   28    5
ATOM      5  C5  UNL A   1      27.828  31.410  48.073  1.00  0.00    +0.000 C 
ATOM    112  H10 UNL A   1      27.179  31.372  48.923  1.00  0.00    +0.000 H 
BRANCH    5    4
ATOM      4  C4  UNL A   1      28.717  32.625  48.364  1.00  0.00    +0.000 C 
ATOM    110  H8  UNL A   1      29.609  32.269  48.835  1.00  0.00    +0.000 H 
ATOM    111  H9  UNL A   1      28.875  33.097  47.417  1.00  0.00    +0.000 H 
BRANCH    4    2
ATOM      2  C2  UNL A   1      28.105  33.720  49.274  1.00  0.00    +0.000 C 
ATOM    106  H4  UNL A   1      27.274  33.247  49.752  1.00  0.00    +0.000 H 
BRANCH    2    1
ATOM      1  C1  UNL A   1      29.006  34.229  50.403  1.00  0.00    +0.000 C 
ATOM    105  H3  UNL A   1      29.595  33.420  50.782  1.00  0.00    +0.000 H 
ATOM    103  H1  UNL A   1      28.401  34.629  51.190  1.00  0.00    +0.000 H 
ATOM    104  H2  UNL A   1      29.653  34.995  50.026  1.00  0.00    +0.000 H 
ENDBRANCH    2    1
BRANCH    2    3
ATOM      3  C3  UNL A   1      27.698  34.921  48.413  1.00  0.00    +0.000 C 
ATOM    108  H6  UNL A   1      26.665  35.145  48.579  1.00  0.00    +0.000 H 
ATOM    109  H7  UNL A   1      27.851  34.686  47.380  1.00  0.00    +0.000 H 
ATOM    107  H5  UNL A   1      28.294  35.769  48.679  1.00  0.00    +0.000 H 
ENDBRANCH    2    3
ENDBRANCH    4    2
ENDBRANCH    5    4
BRANCH    5    6
ATOM    113  H11 UNL A   1      29.544  30.238  47.939  1.00  0.00    +0.000 H 
ATOM      6  N1  UNL A   1      28.567  30.147  48.022  1.00  0.00    +0.000 N 
BRANCH    6    7
ATOM      7  C6  UNL A   1      28.108  28.866  48.072  1.00  0.00    +0.000 C 
ATOM      8  O1  UNL A   1      27.181  28.644  48.860  1.00  0.00    +0.000 O 
BRANCH    7    9
ATOM      9  C7  UNL A   1      28.705  27.706  47.255  1.00  0.00    +0.000 C 
ATOM    114  H12 UNL A   1      28.654  27.986  46.223  1.00  0.00    +0.000 H 
ATOM    115  H13 UNL A   1      28.121  26.855  47.538  1.00  0.00    +0.000 H 
BRANCH    9   10
ATOM     10  N2  UNL A   1      30.070  27.311  47.525  1.00  0.00    +0.000 N 
ATOM    116  H14 UNL A   1      30.142  26.613  48.217  1.00  0.00    +0.000 H 
BRANCH   10   11
ATOM     11  C8  UNL A   1      31.269  27.697  47.028  1.00  0.00    +0.000 C 
ATOM     12  O2  UNL A   1      31.477  27.346  45.857  1.00  0.00    +0.000 O 
BRANCH   11   13
ATOM    117  H15 UNL A   1      32.688  27.789  48.608  1.00  0.00    +0.000 H 
ATOM     13  C9  UNL A   1      32.389  28.448  47.819  1.00  0.00    +0.000 C 
BRANCH   13   14
ATOM    118  H16 UNL A   1      33.563  28.900  46.172  1.00  0.00    +0.000 H 
ATOM     14  N3  UNL A   1      33.663  28.593  47.102  1.00  0.00    +0.000 N 
BRANCH   14   15
ATOM     15  C10 UNL A   1      34.949  28.387  47.475  1.00  0.00    +0.000 C 
ATOM     16  O3  UNL A   1      35.205  27.883  48.560  1.00  0.00    +0.000 O 
BRANCH   15   17
ATOM     17  O4  UNL A   1      35.860  28.851  46.597  1.00  0.00    +0.000 O 
BRANCH   17   18
ATOM     18  C11 UNL A   1      35.461  30.029  45.880  1.00  0.00    +0.000 C 
ATOM    119  H17 UNL A   1      35.527  30.866  46.543  1.00  0.00    +0.000 H 
ATOM    120  H18 UNL A   1      34.463  29.858  45.532  1.00  0.00    +0.000 H 
BRANCH   18   19
ATOM     19  C12 UNL A   1      36.313  30.320  44.656  1.00  0.00    +0.000 C 
ATOM     20  C13 UNL A   1      35.828  31.201  43.678  1.00  0.00    +0.000 C 
ATOM     21  C14 UNL A   1      36.543  31.429  42.499  1.00  0.00    +0.000 C 
ATOM     22  C15 UNL A   1      37.751  30.774  42.273  1.00  0.00    +0.000 C 
ATOM     23  C16 UNL A   1      38.246  29.895  43.226  1.00  0.00    +0.000 C 
ATOM     24  C17 UNL A   1      37.532  29.670  44.404  1.00  0.00    +0.000 C 
ATOM    121  H19 UNL A   1      34.929  31.687  43.832  1.00  0.00    +0.000 H 
ATOM    122  H20 UNL A   1      36.174  32.085  41.792  1.00  0.00    +0.000 H 
ATOM    123  H21 UNL A   1      38.275  30.942  41.399  1.00  0.00    +0.000 H 
ATOM    124  H22 UNL A   1      39.142  29.407  43.064  1.00  0.00    +0.000 H 
ATOM    125  H23 UNL A   1      37.908  29.011  45.104  1.00  0.00    +0.000 H 
ENDBRANCH   18   19
ENDBRANCH   17   18
ENDBRANCH   15   17
ENDBRANCH   14   15
ENDBRANCH   13   14
BRANCH   13   25
ATOM     25  C18 UNL A   1      31.862  29.685  48.580  1.00  0.00    +0.000 C 
ATOM    126  H24 UNL A   1      30.806  29.543  48.686  1.00  0.00    +0.000 H 
BRANCH   25   26
ATOM    129  H27 UNL A   1      31.844  30.334  50.626  1.00  0.00    +0.000 H 
ATOM     26  C19 UNL A   1      32.513  29.822  49.967  1.00  0.00    +0.000 C 
ATOM    127  H25 UNL A   1      33.423  30.378  49.880  1.00  0.00    +0.000 H 
ATOM    128  H26 UNL A   1      32.726  28.849  50.359  1.00  0.00    +0.000 H 
ENDBRANCH   25   26
BRANCH   25   27
ATOM    130  H28 UNL A   1      31.358  31.670  47.941  1.00  0.00    +0.000 H 
ATOM     27  C20 UNL A   1      32.161  30.976  47.803  1.00  0.00    +0.000 C 
ATOM    132  H30 UNL A   1      33.071  31.407  48.165  1.00  0.00    +0.000 H 
ATOM    131  H29 UNL A   1      32.262  30.751  46.762  1.00  0.00    +0.000 H 
ENDBRANCH   25   27
ENDBRANCH   13   25
ENDBRANCH   11   13
ENDBRANCH   10   11
ENDBRANCH    9   10
ENDBRANCH    7    9
ENDBRANCH    6    7
ENDBRANCH    5    6
ENDBRANCH   28    5
ENDBRANCH   30   28
ENDBRANCH   31   30
ENDBRANCH   32   31
ENDBRANCH   33   32
ENDBRANCH   34   33
ENDBRANCH   35   34
ENDBRANCH   36   35
ENDBRANCH   37   36
ENDBRANCH   38   37
ENDBRANCH   40   38
ENDBRANCH   44   43
BRANCH   48   49
ATOM     49  C37 UNL A   1      21.447  33.800  46.377  1.00  0.00    +0.000 C 
ATOM     50  C38 UNL A   1      21.031  33.561  45.057  1.00  0.00    +0.000 C 
ATOM     51  F1  UNL A   1      20.482  34.549  44.334  1.00  0.00    +0.000 F 
ATOM     52  C39 UNL A   1      21.137  32.294  44.491  1.00  0.00    +0.000 C 
ATOM     53  F2  UNL A   1      20.690  32.079  43.246  1.00  0.00    +0.000 F 
ATOM     54  C40 UNL A   1      21.694  31.251  45.217  1.00  0.00    +0.000 C 
ATOM     55  F3  UNL A   1      21.801  30.034  44.668  1.00  0.00    +0.000 F 
ATOM     56  C41 UNL A   1      22.130  31.470  46.515  1.00  0.00    +0.000 C 
ATOM     57  F4  UNL A   1      22.677  30.466  47.214  1.00  0.00    +0.000 F 
ATOM     58  C42 UNL A   1      21.999  32.730  47.095  1.00  0.00    +0.000 C 
ATOM     59  F5  UNL A   1      22.415  32.905  48.358  1.00  0.00    +0.000 F 
ENDBRANCH   48   49
BRANCH   65   66
ATOM     66  C48 UNL A   1      16.621  37.690  50.063  1.00  0.00    +0.000 C 
ATOM     67  C49 UNL A   1      16.401  37.565  51.441  1.00  0.00    +0.000 C 
ATOM     68  F6  UNL A   1      17.438  37.554  52.293  1.00  0.00    +0.000 F 
ATOM     69  C50 UNL A   1      15.113  37.408  51.947  1.00  0.00    +0.000 C 
ATOM     70  F7  UNL A   1      14.928  37.242  53.264  1.00  0.00    +0.000 F 
ATOM     71  C51 UNL A   1      14.023  37.405  51.088  1.00  0.00    +0.000 C 
ATOM     72  F8  UNL A   1      12.784  37.257  51.577  1.00  0.00    +0.000 F 
ATOM     73  C52 UNL A   1      14.218  37.549  49.722  1.00  0.00    +0.000 C 
ATOM     74  F9  UNL A   1      13.165  37.557  48.893  1.00  0.00    +0.000 F 
ATOM     75  C53 UNL A   1      15.505  37.680  49.212  1.00  0.00    +0.000 C 
ATOM     76  F10 UNL A   1      15.666  37.803  47.885  1.00  0.00    +0.000 F 
ENDBRANCH   65   66
BRANCH   80   81
ATOM     81  C57 UNL A   1      21.112  43.006  50.249  1.00  0.00    +0.000 C 
ATOM     82  C58 UNL A   1      20.719  44.089  49.450  1.00  0.00    +0.000 C 
ATOM     83  F11 UNL A   1      20.409  43.889  48.161  1.00  0.00    +0.000 F 
ATOM     84  C59 UNL A   1      20.687  45.385  49.959  1.00  0.00    +0.000 C 
ATOM     85  F12 UNL A   1      20.354  46.408  49.161  1.00  0.00    +0.000 F 
ATOM     86  C60 UNL A   1      21.017  45.619  51.286  1.00  0.00    +0.000 C 
ATOM     87  F13 UNL A   1      20.986  46.866  51.775  1.00  0.00    +0.000 F 
ATOM     88  C61 UNL A   1      21.388  44.561  52.101  1.00  0.00    +0.000 C 
ATOM     89  F14 UNL A   1      21.694  44.782  53.387  1.00  0.00    +0.000 F 
ATOM     90  C62 UNL A   1      21.445  43.268  51.586  1.00  0.00    +0.000 C 
ATOM     91  F15 UNL A   1      21.821  42.265  52.393  1.00  0.00    +0.000 F 
ENDBRANCH   80   81
TORSDOF 33
ENDMDL
MODEL 6
REMARK VINA RESULT:      -5.9     35.288     38.828
ROOT
ATOM    149  H47 UNL A   1      45.056  14.070  42.999  1.00  0.00    +0.000 H 
ATOM    150  H48 UNL A   1      46.646  16.023  42.322  1.00  0.00    +0.000 H 
ATOM    151  H49 UNL A   1      45.005  16.903  46.021  1.00  0.00    +0.000 H 
ATOM    152  H50 UNL A   1      44.379  20.906  50.962  1.00  0.00    +0.000 H 
ATOM    153  H51 UNL A   1      42.833  18.999  51.619  1.00  0.00    +0.000 H 
ATOM    154  H52 UNL A   1      44.494  18.072  47.923  1.00  0.00    +0.000 H 
ATOM    155  H53 UNL A   1      47.561  21.875  46.773  1.00  0.00    +0.000 H 
ATOM    156  H54 UNL A   1      47.942  20.712  44.525  1.00  0.00    +0.000 H 
ATOM    157  H55 UNL A   1      42.094  13.059  47.362  1.00  0.00    +0.000 H 
ATOM    158  H56 UNL A   1      41.297  14.429  49.372  1.00  0.00    +0.000 H 
ATOM     44  C33 UNL A   1      42.675  16.902  49.692  1.00  0.00    +0.000 C 
ATOM     45  C34 UNL A   1      42.806  15.918  48.564  1.00  0.00    +0.000 C 
ATOM     46  N6  UNL A   1      43.561  15.976  47.497  1.00  0.00    +0.000 N 
ATOM     47  C35 UNL A   1      43.325  14.797  46.803  1.00  0.00    +0.000 C 
ATOM     48  C36 UNL A   1      43.814  14.412  45.600  1.00  0.00    +0.000 C 
ATOM     60  C43 UNL A   1      44.716  15.201  44.804  1.00  0.00    +0.000 C 
ATOM     61  C44 UNL A   1      45.248  14.915  43.559  1.00  0.00    +0.000 C 
ATOM     62  C45 UNL A   1      46.090  15.970  43.191  1.00  0.00    +0.000 C 
ATOM     63  C46 UNL A   1      46.052  16.930  44.188  1.00  0.00    +0.000 C 
ATOM     64  N7  UNL A   1      45.215  16.440  45.177  1.00  0.00    +0.000 N 
ATOM     65  C47 UNL A   1      46.725  18.201  44.235  1.00  0.00    +0.000 C 
ATOM     77  C54 UNL A   1      46.662  19.081  45.264  1.00  0.00    +0.000 C 
ATOM     78  N8  UNL A   1      45.957  18.983  46.456  1.00  0.00    +0.000 N 
ATOM     79  C55 UNL A   1      46.228  20.076  47.126  1.00  0.00    +0.000 C 
ATOM     80  C56 UNL A   1      45.713  20.520  48.468  1.00  0.00    +0.000 C 
ATOM     92  C63 UNL A   1      44.820  19.748  49.115  1.00  0.00    +0.000 C 
ATOM     93  C64 UNL A   1      44.207  20.054  50.404  1.00  0.00    +0.000 C 
ATOM     94  C65 UNL A   1      43.383  19.050  50.748  1.00  0.00    +0.000 C 
ATOM     95  C66 UNL A   1      43.392  18.040  49.688  1.00  0.00    +0.000 C 
ATOM     96  N9  UNL A   1      44.274  18.538  48.762  1.00  0.00    +0.000 N 
ATOM     97  C67 UNL A   1      47.163  20.981  46.445  1.00  0.00    +0.000 C 
ATOM     98  C68 UNL A   1      47.362  20.349  45.297  1.00  0.00    +0.000 C 
ATOM     99  C69 UNL A   1      42.400  14.016  47.595  1.00  0.00    +0.000 C 
ATOM    100  C70 UNL A   1      41.996  14.693  48.660  1.00  0.00    +0.000 C 
ENDROOT
BRANCH   44   43
ATOM    101  C71 UNL A   1      40.409  16.865  50.739  1.00  0.00    +0.000 C 
ATOM    102  C72 UNL A   1      39.573  16.642  51.829  1.00  0.00    +0.000 C 
ATOM     40  C29 UNL A   1      40.088  16.061  52.993  1.00  0.00    +0.000 C 
ATOM     41  C30 UNL A   1      41.454  15.796  53.104  1.00  0.00    +0.000 C 
ATOM     42  C31 UNL A   1      42.302  16.080  52.034  1.00  0.00    +0.000 C 
ATOM     43  C32 UNL A   1      41.782  16.598  50.837  1.00  0.00    +0.000 C 
ATOM    147  H45 UNL A   1      41.835  15.394  53.975  1.00  0.00    +0.000 H 
ATOM    148  H46 UNL A   1      43.316  15.906  52.122  1.00  0.00    +0.000 H 
ATOM    159  H57 UNL A   1      40.016  17.227  49.856  1.00  0.00    +0.000 H 
ATOM    160  H58 UNL A   1      38.576  16.905  51.780  1.00  0.00    +0.000 H 
BRANCH   40   38
ATOM     38  C28 UNL A   1      39.209  15.721  54.131  1.00  0.00    +0.000 C 
ATOM     39  O6  UNL A   1      39.106  16.494  55.078  1.00  0.00    +0.000 O 
BRANCH   38   37
ATOM    146  H44 UNL A   1      37.563  14.581  54.228  1.00  0.00    +0.000 H 
ATOM     37  N5  UNL A   1      38.541  14.523  54.136  1.00  0.00    +0.000 N 
BRANCH   37   36
ATOM    145  H43 UNL A   1      38.471  12.538  54.617  1.00  0.00    +0.000 H 
ATOM     36  C27 UNL A   1      39.083  13.184  54.023  1.00  0.00    +0.000 C 
ATOM    144  H42 UNL A   1      40.096  13.195  54.366  1.00  0.00    +0.000 H 
BRANCH   36   35
ATOM     35  C26 UNL A   1      39.057  12.656  52.596  1.00  0.00    +0.000 C 
ATOM    142  H40 UNL A   1      38.167  12.074  52.475  1.00  0.00    +0.000 H 
ATOM    143  H41 UNL A   1      39.096  13.516  51.961  1.00  0.00    +0.000 H 
BRANCH   35   34
ATOM     34  C25 UNL A   1      40.250  11.783  52.197  1.00  0.00    +0.000 C 
ATOM    140  H38 UNL A   1      40.694  11.405  53.094  1.00  0.00    +0.000 H 
ATOM    141  H39 UNL A   1      39.854  11.025  51.555  1.00  0.00    +0.000 H 
BRANCH   34   33
ATOM     33  C24 UNL A   1      41.347  12.485  51.388  1.00  0.00    +0.000 C 
ATOM    138  H36 UNL A   1      40.915  12.814  50.466  1.00  0.00    +0.000 H 
ATOM    139  H37 UNL A   1      41.703  13.281  52.006  1.00  0.00    +0.000 H 
BRANCH   33   32
ATOM    137  H35 UNL A   1      43.430  12.194  51.362  1.00  0.00    +0.000 H 
ATOM    136  H34 UNL A   1      42.562  11.422  50.007  1.00  0.00    +0.000 H 
ATOM     32  C23 UNL A   1      42.573  11.630  51.057  1.00  0.00    +0.000 C 
BRANCH   32   31
ATOM    135  H33 UNL A   1      41.883   9.659  51.407  1.00  0.00    +0.000 H 
ATOM    134  H32 UNL A   1      42.475  10.487  52.846  1.00  0.00    +0.000 H 
ATOM     31  C22 UNL A   1      42.637  10.306  51.804  1.00  0.00    +0.000 C 
BRANCH   31   30
ATOM    133  H31 UNL A   1      44.697  10.153  51.985  1.00  0.00    +0.000 H 
ATOM     30  N4  UNL A   1      43.920   9.662  51.634  1.00  0.00    +0.000 N 
BRANCH   30   28
ATOM     28  C21 UNL A   1      44.187   8.461  51.051  1.00  0.00    +0.000 C 
ATOM     29  O5  UNL A   1      44.740   8.458  49.948  1.00  0.00    +0.000 O 
BRANCH   28    5
ATOM      5  C5  UNL A   1      43.751   7.140  51.713  1.00  0.00    +0.000 C 
ATOM    112  H10 UNL A   1      44.478   6.933  52.470  1.00  0.00    +0.000 H 
BRANCH    5    4
ATOM      4  C4  UNL A   1      43.834   5.910  50.802  1.00  0.00    +0.000 C 
ATOM    110  H8  UNL A   1      42.948   5.330  50.957  1.00  0.00    +0.000 H 
ATOM    111  H9  UNL A   1      43.943   6.295  49.811  1.00  0.00    +0.000 H 
BRANCH    4    2
ATOM      2  C2  UNL A   1      45.053   4.977  51.018  1.00  0.00    +0.000 C 
ATOM    106  H4  UNL A   1      45.592   5.011  50.094  1.00  0.00    +0.000 H 
BRANCH    2    1
ATOM      1  C1  UNL A   1      46.045   5.414  52.100  1.00  0.00    +0.000 C 
ATOM    105  H3  UNL A   1      46.644   4.577  52.395  1.00  0.00    +0.000 H 
ATOM    103  H1  UNL A   1      45.508   5.784  52.948  1.00  0.00    +0.000 H 
ATOM    104  H2  UNL A   1      46.677   6.186  51.713  1.00  0.00    +0.000 H 
ENDBRANCH    2    1
BRANCH    2    3
ATOM      3  C3  UNL A   1      44.556   3.571  51.370  1.00  0.00    +0.000 C 
ATOM    108  H6  UNL A   1      43.681   3.645  51.982  1.00  0.00    +0.000 H 
ATOM    109  H7  UNL A   1      45.321   3.045  51.903  1.00  0.00    +0.000 H 
ATOM    107  H5  UNL A   1      44.318   3.041  50.471  1.00  0.00    +0.000 H 
ENDBRANCH    2    3
ENDBRANCH    4    2
ENDBRANCH    5    4
BRANCH    5    6
ATOM    113  H11 UNL A   1      41.674   7.277  51.772  1.00  0.00    +0.000 H 
ATOM      6  N1  UNL A   1      42.453   7.288  52.374  1.00  0.00    +0.000 N 
BRANCH    6    7
ATOM      7  C6  UNL A   1      42.159   7.438  53.695  1.00  0.00    +0.000 C 
ATOM      8  O1  UNL A   1      40.976   7.672  53.972  1.00  0.00    +0.000 O 
BRANCH    7    9
ATOM      9  C7  UNL A   1      43.206   7.380  54.822  1.00  0.00    +0.000 C 
ATOM    114  H12 UNL A   1      43.760   6.473  54.694  1.00  0.00    +0.000 H 
ATOM    115  H13 UNL A   1      42.631   7.453  55.721  1.00  0.00    +0.000 H 
BRANCH    9   10
ATOM     10  N2  UNL A   1      44.165   8.459  54.920  1.00  0.00    +0.000 N 
ATOM    116  H14 UNL A   1      45.088   8.177  54.721  1.00  0.00    +0.000 H 
BRANCH   10   11
ATOM     11  C8  UNL A   1      44.062   9.773  55.229  1.00  0.00    +0.000 C 
ATOM     12  O2  UNL A   1      42.915  10.145  55.517  1.00  0.00    +0.000 O 
BRANCH   11   13
ATOM    117  H15 UNL A   1      46.060  10.313  54.740  1.00  0.00    +0.000 H 
ATOM     13  C9  UNL A   1      45.221  10.821  55.168  1.00  0.00    +0.000 C 
BRANCH   13   14
ATOM    118  H16 UNL A   1      44.091  12.116  54.010  1.00  0.00    +0.000 H 
ATOM     14  N3  UNL A   1      45.034  11.895  54.182  1.00  0.00    +0.000 N 
BRANCH   14   15
ATOM     15  C10 UNL A   1      45.911  12.639  53.467  1.00  0.00    +0.000 C 
ATOM     16  O3  UNL A   1      46.801  13.260  54.033  1.00  0.00    +0.000 O 
BRANCH   15   17
ATOM     17  O4  UNL A   1      45.653  12.677  52.145  1.00  0.00    +0.000 O 
BRANCH   17   18
ATOM     18  C11 UNL A   1      45.071  13.904  51.679  1.00  0.00    +0.000 C 
ATOM    119  H17 UNL A   1      45.181  14.642  52.445  1.00  0.00    +0.000 H 
ATOM    120  H18 UNL A   1      44.045  13.695  51.454  1.00  0.00    +0.000 H 
BRANCH   18   19
ATOM     19  C12 UNL A   1      45.703  14.438  50.404  1.00  0.00    +0.000 C 
ATOM     20  C13 UNL A   1      45.902  13.568  49.322  1.00  0.00    +0.000 C 
ATOM     21  C14 UNL A   1      46.556  14.000  48.165  1.00  0.00    +0.000 C 
ATOM     22  C15 UNL A   1      47.030  15.306  48.073  1.00  0.00    +0.000 C 
ATOM     23  C16 UNL A   1      46.847  16.182  49.135  1.00  0.00    +0.000 C 
ATOM     24  C17 UNL A   1      46.192  15.750  50.289  1.00  0.00    +0.000 C 
ATOM    121  H19 UNL A   1      45.560  12.595  49.382  1.00  0.00    +0.000 H 
ATOM    122  H20 UNL A   1      46.689  13.349  47.375  1.00  0.00    +0.000 H 
ATOM    123  H21 UNL A   1      47.516  15.622  47.218  1.00  0.00    +0.000 H 
ATOM    124  H22 UNL A   1      47.196  17.151  49.072  1.00  0.00    +0.000 H 
ATOM    125  H23 UNL A   1      46.065  16.408  51.075  1.00  0.00    +0.000 H 
ENDBRANCH   18   19
ENDBRANCH   17   18
ENDBRANCH   15   17
ENDBRANCH   14   15
ENDBRANCH   13   14
BRANCH   13   25
ATOM     25  C18 UNL A   1      45.737  11.228  56.567  1.00  0.00    +0.000 C 
ATOM    126  H24 UNL A   1      46.749  11.547  56.431  1.00  0.00    +0.000 H 
BRANCH   25   26
ATOM    129  H27 UNL A   1      43.937  12.389  56.714  1.00  0.00    +0.000 H 
ATOM     26  C19 UNL A   1      44.905  12.373  57.170  1.00  0.00    +0.000 C 
ATOM    127  H25 UNL A   1      45.399  13.305  56.992  1.00  0.00    +0.000 H 
ATOM    128  H26 UNL A   1      44.800  12.221  58.224  1.00  0.00    +0.000 H 
ENDBRANCH   25   26
BRANCH   25   27
ATOM    130  H28 UNL A   1      45.914  10.382  58.530  1.00  0.00    +0.000 H 
ATOM     27  C20 UNL A   1      45.667  10.045  57.544  1.00  0.00    +0.000 C 
ATOM    132  H30 UNL A   1      44.677   9.640  57.544  1.00  0.00    +0.000 H 
ATOM    131  H29 UNL A   1      46.362   9.290  57.240  1.00  0.00    +0.000 H 
ENDBRANCH   25   27
ENDBRANCH   13   25
ENDBRANCH   11   13
ENDBRANCH   10   11
ENDBRANCH    9   10
ENDBRANCH    7    9
ENDBRANCH    6    7
ENDBRANCH    5    6
ENDBRANCH   28    5
ENDBRANCH   30   28
ENDBRANCH   31   30
ENDBRANCH   32   31
ENDBRANCH   33   32
ENDBRANCH   34   33
ENDBRANCH   35   34
ENDBRANCH   36   35
ENDBRANCH   37   36
ENDBRANCH   38   37
ENDBRANCH   40   38
ENDBRANCH   44   43
BRANCH   48   49
ATOM     49  C37 UNL A   1      43.369  13.081  45.069  1.00  0.00    +0.000 C 
ATOM     50  C38 UNL A   1      43.955  11.885  45.512  1.00  0.00    +0.000 C 
ATOM     51  F1  UNL A   1      44.960  11.914  46.400  1.00  0.00    +0.000 F 
ATOM     52  C39 UNL A   1      43.538  10.654  45.013  1.00  0.00    +0.000 C 
ATOM     53  F2  UNL A   1      44.144   9.529  45.416  1.00  0.00    +0.000 F 
ATOM     54  C40 UNL A   1      42.505  10.592  44.089  1.00  0.00    +0.000 C 
ATOM     55  F3  UNL A   1      42.100   9.406  43.613  1.00  0.00    +0.000 F 
ATOM     56  C41 UNL A   1      41.898  11.761  43.652  1.00  0.00    +0.000 C 
ATOM     57  F4  UNL A   1      40.893  11.701  42.767  1.00  0.00    +0.000 F 
ATOM     58  C42 UNL A   1      42.333  12.995  44.128  1.00  0.00    +0.000 C 
ATOM     59  F5  UNL A   1      41.737  14.108  43.674  1.00  0.00    +0.000 F 
ENDBRANCH   48   49
BRANCH   65   66
ATOM     66  C48 UNL A   1      47.548  18.600  43.045  1.00  0.00    +0.000 C 
ATOM     67  C49 UNL A   1      48.948  18.532  43.064  1.00  0.00    +0.000 C 
ATOM     68  F6  UNL A   1      49.591  18.149  44.177  1.00  0.00    +0.000 F 
ATOM     69  C50 UNL A   1      49.695  18.901  41.948  1.00  0.00    +0.000 C 
ATOM     70  F7  UNL A   1      51.033  18.875  42.002  1.00  0.00    +0.000 F 
ATOM     71  C51 UNL A   1      49.055  19.311  40.786  1.00  0.00    +0.000 C 
ATOM     72  F8  UNL A   1      49.776  19.663  39.713  1.00  0.00    +0.000 F 
ATOM     73  C52 UNL A   1      47.670  19.365  40.740  1.00  0.00    +0.000 C 
ATOM     74  F9  UNL A   1      47.052  19.750  39.616  1.00  0.00    +0.000 F 
ATOM     75  C53 UNL A   1      46.922  19.022  41.862  1.00  0.00    +0.000 C 
ATOM     76  F10 UNL A   1      45.584  19.097  41.795  1.00  0.00    +0.000 F 
ENDBRANCH   65   66
BRANCH   80   81
ATOM     81  C57 UNL A   1      46.151  21.808  49.063  1.00  0.00    +0.000 C 
ATOM     82  C58 UNL A   1      47.306  21.880  49.855  1.00  0.00    +0.000 C 
ATOM     83  F11 UNL A   1      48.025  20.772  50.089  1.00  0.00    +0.000 F 
ATOM     84  C59 UNL A   1      47.702  23.078  50.443  1.00  0.00    +0.000 C 
ATOM     85  F12 UNL A   1      48.784  23.108  51.234  1.00  0.00    +0.000 F 
ATOM     86  C60 UNL A   1      46.968  24.235  50.228  1.00  0.00    +0.000 C 
ATOM     87  F13 UNL A   1      47.349  25.387  50.795  1.00  0.00    +0.000 F 
ATOM     88  C61 UNL A   1      45.834  24.193  49.432  1.00  0.00    +0.000 C 
ATOM     89  F14 UNL A   1      45.129  25.311  49.210  1.00  0.00    +0.000 F 
ATOM     90  C62 UNL A   1      45.422  22.989  48.863  1.00  0.00    +0.000 C 
ATOM     91  F15 UNL A   1      44.314  22.975  48.109  1.00  0.00    +0.000 F 
ENDBRANCH   80   81
TORSDOF 33
ENDMDL
MODEL 7
REMARK VINA RESULT:      -5.9     35.110     38.379
ROOT
ATOM    149  H47 UNL A   1      45.097  14.258  42.577  1.00  0.00    +0.000 H 
ATOM    150  H48 UNL A   1      46.686  16.235  41.970  1.00  0.00    +0.000 H 
ATOM    151  H49 UNL A   1      45.108  16.943  45.732  1.00  0.00    +0.000 H 
ATOM    152  H50 UNL A   1      44.581  20.705  50.870  1.00  0.00    +0.000 H 
ATOM    153  H51 UNL A   1      43.035  18.775  51.460  1.00  0.00    +0.000 H 
ATOM    154  H52 UNL A   1      44.633  18.021  47.697  1.00  0.00    +0.000 H 
ATOM    155  H53 UNL A   1      47.702  21.861  46.683  1.00  0.00    +0.000 H 
ATOM    156  H54 UNL A   1      48.041  20.806  44.375  1.00  0.00    +0.000 H 
ATOM    157  H55 UNL A   1      42.199  13.051  46.933  1.00  0.00    +0.000 H 
ATOM    158  H56 UNL A   1      41.441  14.326  49.019  1.00  0.00    +0.000 H 
ATOM     44  C33 UNL A   1      42.837  16.774  49.436  1.00  0.00    +0.000 C 
ATOM     45  C34 UNL A   1      42.944  15.846  48.260  1.00  0.00    +0.000 C 
ATOM     46  N6  UNL A   1      43.683  15.952  47.185  1.00  0.00    +0.000 N 
ATOM     47  C35 UNL A   1      43.430  14.808  46.439  1.00  0.00    +0.000 C 
ATOM     48  C36 UNL A   1      43.898  14.480  45.211  1.00  0.00    +0.000 C 
ATOM     60  C43 UNL A   1      44.791  15.302  44.440  1.00  0.00    +0.000 C 
ATOM     61  C44 UNL A   1      45.302  15.074  43.174  1.00  0.00    +0.000 C 
ATOM     62  C45 UNL A   1      46.143  16.142  42.844  1.00  0.00    +0.000 C 
ATOM     63  C46 UNL A   1      46.127  17.053  43.887  1.00  0.00    +0.000 C 
ATOM     64  N7  UNL A   1      45.303  16.520  44.864  1.00  0.00    +0.000 N 
ATOM     65  C47 UNL A   1      46.807  18.318  43.984  1.00  0.00    +0.000 C 
ATOM     77  C54 UNL A   1      46.764  19.148  45.055  1.00  0.00    +0.000 C 
ATOM     78  N8  UNL A   1      46.078  18.995  46.252  1.00  0.00    +0.000 N 
ATOM     79  C55 UNL A   1      46.365  20.054  46.969  1.00  0.00    +0.000 C 
ATOM     80  C56 UNL A   1      45.873  20.434  48.340  1.00  0.00    +0.000 C 
ATOM     92  C63 UNL A   1      44.986  19.636  48.963  1.00  0.00    +0.000 C 
ATOM     93  C64 UNL A   1      44.396  19.882  50.275  1.00  0.00    +0.000 C 
ATOM     94  C65 UNL A   1      43.572  18.866  50.583  1.00  0.00    +0.000 C 
ATOM     95  C66 UNL A   1      43.559  17.909  49.475  1.00  0.00    +0.000 C 
ATOM     96  N9  UNL A   1      44.429  18.447  48.560  1.00  0.00    +0.000 N 
ATOM     97  C67 UNL A   1      47.294  20.986  46.318  1.00  0.00    +0.000 C 
ATOM     98  C68 UNL A   1      47.471  20.409  45.138  1.00  0.00    +0.000 C 
ATOM     99  C69 UNL A   1      42.514  13.995  47.207  1.00  0.00    +0.000 C 
ATOM    100  C70 UNL A   1      42.130  14.621  48.310  1.00  0.00    +0.000 C 
ENDROOT
BRANCH   44   43
ATOM    101  C71 UNL A   1      40.582  16.667  50.503  1.00  0.00    +0.000 C 
ATOM    102  C72 UNL A   1      39.760  16.395  51.593  1.00  0.00    +0.000 C 
ATOM     40  C29 UNL A   1      40.296  15.786  52.733  1.00  0.00    +0.000 C 
ATOM     41  C30 UNL A   1      41.668  15.541  52.823  1.00  0.00    +0.000 C 
ATOM     42  C31 UNL A   1      42.500  15.872  51.754  1.00  0.00    +0.000 C 
ATOM     43  C32 UNL A   1      41.960  16.420  50.579  1.00  0.00    +0.000 C 
ATOM    147  H45 UNL A   1      42.064  15.118  53.677  1.00  0.00    +0.000 H 
ATOM    148  H46 UNL A   1      43.518  15.714  51.827  1.00  0.00    +0.000 H 
ATOM    159  H57 UNL A   1      40.174  17.050  49.636  1.00  0.00    +0.000 H 
ATOM    160  H58 UNL A   1      38.759  16.642  51.562  1.00  0.00    +0.000 H 
BRANCH   40   38
ATOM     38  C28 UNL A   1      39.435  15.396  53.868  1.00  0.00    +0.000 C 
ATOM     39  O6  UNL A   1      39.364  16.115  54.859  1.00  0.00    +0.000 O 
BRANCH   38   37
ATOM    146  H44 UNL A   1      37.772  14.288  53.707  1.00  0.00    +0.000 H 
ATOM     37  N5  UNL A   1      38.746  14.210  53.819  1.00  0.00    +0.000 N 
BRANCH   37   36
ATOM    145  H43 UNL A   1      38.484  12.242  54.305  1.00  0.00    +0.000 H 
ATOM     36  C27 UNL A   1      39.263  12.859  53.908  1.00  0.00    +0.000 C 
ATOM    144  H42 UNL A   1      40.125  12.864  54.540  1.00  0.00    +0.000 H 
BRANCH   36   35
ATOM     35  C26 UNL A   1      39.654  12.288  52.552  1.00  0.00    +0.000 C 
ATOM    142  H40 UNL A   1      39.074  11.405  52.385  1.00  0.00    +0.000 H 
ATOM    143  H41 UNL A   1      39.469  13.063  51.838  1.00  0.00    +0.000 H 
BRANCH   35   34
ATOM     34  C25 UNL A   1      41.132  11.918  52.399  1.00  0.00    +0.000 C 
ATOM    140  H38 UNL A   1      41.672  12.384  53.196  1.00  0.00    +0.000 H 
ATOM    141  H39 UNL A   1      41.167  10.849  52.415  1.00  0.00    +0.000 H 
BRANCH   34   33
ATOM     33  C24 UNL A   1      41.789  12.336  51.078  1.00  0.00    +0.000 C 
ATOM    138  H36 UNL A   1      41.131  12.058  50.281  1.00  0.00    +0.000 H 
ATOM    139  H37 UNL A   1      41.954  13.390  51.154  1.00  0.00    +0.000 H 
BRANCH   33   32
ATOM    137  H35 UNL A   1      43.218  11.572  49.737  1.00  0.00    +0.000 H 
ATOM    136  H34 UNL A   1      43.234  10.802  51.347  1.00  0.00    +0.000 H 
ATOM     32  C23 UNL A   1      43.160  11.716  50.796  1.00  0.00    +0.000 C 
BRANCH   32   31
ATOM    135  H33 UNL A   1      45.153  11.966  51.467  1.00  0.00    +0.000 H 
ATOM    134  H32 UNL A   1      44.048  13.237  51.987  1.00  0.00    +0.000 H 
ATOM     31  C22 UNL A   1      44.339  12.598  51.179  1.00  0.00    +0.000 C 
BRANCH   31   30
ATOM    133  H31 UNL A   1      44.391  14.323  50.027  1.00  0.00    +0.000 H 
ATOM     30  N4  UNL A   1      44.774  13.416  50.069  1.00  0.00    +0.000 N 
BRANCH   30   28
ATOM     28  C21 UNL A   1      45.645  13.090  49.075  1.00  0.00    +0.000 C 
ATOM     29  O5  UNL A   1      45.268  12.303  48.203  1.00  0.00    +0.000 O 
BRANCH   28    5
ATOM      5  C5  UNL A   1      47.087  13.632  49.072  1.00  0.00    +0.000 C 
ATOM    112  H10 UNL A   1      47.063  14.544  49.631  1.00  0.00    +0.000 H 
BRANCH    5    4
ATOM      4  C4  UNL A   1      47.601  14.077  47.697  1.00  0.00    +0.000 C 
ATOM    110  H8  UNL A   1      48.125  13.251  47.263  1.00  0.00    +0.000 H 
ATOM    111  H9  UNL A   1      46.733  14.385  47.154  1.00  0.00    +0.000 H 
BRANCH    4    2
ATOM      2  C2  UNL A   1      48.552  15.301  47.683  1.00  0.00    +0.000 C 
ATOM    106  H4  UNL A   1      48.144  15.973  48.408  1.00  0.00    +0.000 H 
BRANCH    2    1
ATOM      1  C1  UNL A   1      49.993  15.030  48.123  1.00  0.00    +0.000 C 
ATOM    105  H3  UNL A   1      50.646  15.114  47.279  1.00  0.00    +0.000 H 
ATOM    103  H1  UNL A   1      50.063  14.044  48.532  1.00  0.00    +0.000 H 
ATOM    104  H2  UNL A   1      50.280  15.745  48.867  1.00  0.00    +0.000 H 
ENDBRANCH    2    1
BRANCH    2    3
ATOM      3  C3  UNL A   1      48.590  15.892  46.270  1.00  0.00    +0.000 C 
ATOM    108  H6  UNL A   1      47.753  16.545  46.134  1.00  0.00    +0.000 H 
ATOM    109  H7  UNL A   1      48.546  15.101  45.551  1.00  0.00    +0.000 H 
ATOM    107  H5  UNL A   1      49.498  16.444  46.138  1.00  0.00    +0.000 H 
ENDBRANCH    2    3
ENDBRANCH    4    2
ENDBRANCH    5    4
BRANCH    5    6
ATOM    113  H11 UNL A   1      48.279  13.003  50.660  1.00  0.00    +0.000 H 
ATOM      6  N1  UNL A   1      47.994  12.714  49.762  1.00  0.00    +0.000 N 
BRANCH    6    7
ATOM      7  C6  UNL A   1      48.506  11.520  49.352  1.00  0.00    +0.000 C 
ATOM      8  O1  UNL A   1      49.477  11.572  48.588  1.00  0.00    +0.000 O 
BRANCH    7    9
ATOM      9  C7  UNL A   1      47.920  10.152  49.745  1.00  0.00    +0.000 C 
ATOM    114  H12 UNL A   1      47.723   9.619  48.838  1.00  0.00    +0.000 H 
ATOM    115  H13 UNL A   1      47.064  10.393  50.341  1.00  0.00    +0.000 H 
BRANCH    9   10
ATOM     10  N2  UNL A   1      48.713   9.286  50.589  1.00  0.00    +0.000 N 
ATOM    116  H14 UNL A   1      49.411   9.766  51.091  1.00  0.00    +0.000 H 
BRANCH   10   11
ATOM     11  C8  UNL A   1      48.698   7.954  50.835  1.00  0.00    +0.000 C 
ATOM     12  O2  UNL A   1      47.892   7.314  50.144  1.00  0.00    +0.000 O 
BRANCH   11   13
ATOM    117  H15 UNL A   1      49.976   7.983  52.533  1.00  0.00    +0.000 H 
ATOM     13  C9  UNL A   1      49.529   7.217  51.935  1.00  0.00    +0.000 C 
BRANCH   13   14
ATOM    118  H16 UNL A   1      49.165   5.722  53.324  1.00  0.00    +0.000 H 
ATOM     14  N3  UNL A   1      48.729   6.523  52.954  1.00  0.00    +0.000 N 
BRANCH   14   15
ATOM     15  C10 UNL A   1      47.507   6.775  53.483  1.00  0.00    +0.000 C 
ATOM     16  O3  UNL A   1      47.093   7.923  53.563  1.00  0.00    +0.000 O 
BRANCH   15   17
ATOM     17  O4  UNL A   1      46.875   5.683  53.956  1.00  0.00    +0.000 O 
BRANCH   17   18
ATOM     18  C11 UNL A   1      45.460   5.837  54.138  1.00  0.00    +0.000 C 
ATOM    119  H17 UNL A   1      45.239   6.882  54.200  1.00  0.00    +0.000 H 
ATOM    120  H18 UNL A   1      45.202   5.310  55.033  1.00  0.00    +0.000 H 
BRANCH   18   19
ATOM     19  C12 UNL A   1      44.628   5.238  53.017  1.00  0.00    +0.000 C 
ATOM     20  C13 UNL A   1      43.542   5.965  52.505  1.00  0.00    +0.000 C 
ATOM     21  C14 UNL A   1      42.703   5.413  51.534  1.00  0.00    +0.000 C 
ATOM     22  C15 UNL A   1      42.929   4.122  51.062  1.00  0.00    +0.000 C 
ATOM     23  C16 UNL A   1      43.995   3.384  51.558  1.00  0.00    +0.000 C 
ATOM     24  C17 UNL A   1      44.834   3.937  52.528  1.00  0.00    +0.000 C 
ATOM    121  H19 UNL A   1      43.361   6.921  52.853  1.00  0.00    +0.000 H 
ATOM    122  H20 UNL A   1      41.912   5.964  51.164  1.00  0.00    +0.000 H 
ATOM    123  H21 UNL A   1      42.305   3.715  50.347  1.00  0.00    +0.000 H 
ATOM    124  H22 UNL A   1      44.167   2.427  51.212  1.00  0.00    +0.000 H 
ATOM    125  H23 UNL A   1      45.621   3.378  52.893  1.00  0.00    +0.000 H 
ENDBRANCH   18   19
ENDBRANCH   17   18
ENDBRANCH   15   17
ENDBRANCH   14   15
ENDBRANCH   13   14
BRANCH   13   25
ATOM     25  C18 UNL A   1      50.750   6.464  51.362  1.00  0.00    +0.000 C 
ATOM    126  H24 UNL A   1      50.479   6.163  50.372  1.00  0.00    +0.000 H 
BRANCH   25   26
ATOM    129  H27 UNL A   1      51.730   8.363  51.571  1.00  0.00    +0.000 H 
ATOM     26  C19 UNL A   1      52.000   7.360  51.312  1.00  0.00    +0.000 C 
ATOM    127  H25 UNL A   1      52.410   7.345  50.324  1.00  0.00    +0.000 H 
ATOM    128  H26 UNL A   1      52.729   6.996  52.007  1.00  0.00    +0.000 H 
ENDBRANCH   25   26
BRANCH   25   27
ATOM    130  H28 UNL A   1      51.950   5.464  52.833  1.00  0.00    +0.000 H 
ATOM     27  C20 UNL A   1      51.097   5.242  52.226  1.00  0.00    +0.000 C 
ATOM    132  H30 UNL A   1      50.266   5.001  52.854  1.00  0.00    +0.000 H 
ATOM    131  H29 UNL A   1      51.319   4.409  51.592  1.00  0.00    +0.000 H 
ENDBRANCH   25   27
ENDBRANCH   13   25
ENDBRANCH   11   13
ENDBRANCH   10   11
ENDBRANCH    9   10
ENDBRANCH    7    9
ENDBRANCH    6    7
ENDBRANCH    5    6
ENDBRANCH   28    5
ENDBRANCH   30   28
ENDBRANCH   31   30
ENDBRANCH   32   31
ENDBRANCH   33   32
ENDBRANCH   34   33
ENDBRANCH   35   34
ENDBRANCH   36   35
ENDBRANCH   37   36
ENDBRANCH   38   37
ENDBRANCH   40   38
ENDBRANCH   44   43
BRANCH   48   49
ATOM     49  C37 UNL A   1      43.438  13.178  44.624  1.00  0.00    +0.000 C 
ATOM     50  C38 UNL A   1      42.159  13.043  44.059  1.00  0.00    +0.000 C 
ATOM     51  F1  UNL A   1      41.304  14.077  44.071  1.00  0.00    +0.000 F 
ATOM     52  C39 UNL A   1      41.739  11.831  43.519  1.00  0.00    +0.000 C 
ATOM     53  F2  UNL A   1      40.497  11.713  43.029  1.00  0.00    +0.000 F 
ATOM     54  C40 UNL A   1      42.599  10.743  43.499  1.00  0.00    +0.000 C 
ATOM     55  F3  UNL A   1      42.195   9.578  42.972  1.00  0.00    +0.000 F 
ATOM     56  C41 UNL A   1      43.873  10.860  44.032  1.00  0.00    +0.000 C 
ATOM     57  F4  UNL A   1      44.709   9.812  44.004  1.00  0.00    +0.000 F 
ATOM     58  C42 UNL A   1      44.287  12.063  44.600  1.00  0.00    +0.000 C 
ATOM     59  F5  UNL A   1      45.520  12.140  45.123  1.00  0.00    +0.000 F 
ENDBRANCH   48   49
BRANCH   65   66
ATOM     66  C48 UNL A   1      47.612  18.770  42.802  1.00  0.00    +0.000 C 
ATOM     67  C49 UNL A   1      49.011  18.682  42.789  1.00  0.00    +0.000 C 
ATOM     68  F6  UNL A   1      49.670  18.229  43.866  1.00  0.00    +0.000 F 
ATOM     69  C50 UNL A   1      49.743  19.101  41.681  1.00  0.00    +0.000 C 
ATOM     70  F7  UNL A   1      51.082  19.053  41.707  1.00  0.00    +0.000 F 
ATOM     71  C51 UNL A   1      49.087  19.583  40.556  1.00  0.00    +0.000 C 
ATOM     72  F8  UNL A   1      49.793  19.983  39.489  1.00  0.00    +0.000 F 
ATOM     73  C52 UNL A   1      47.703  19.659  40.540  1.00  0.00    +0.000 C 
ATOM     74  F9  UNL A   1      47.070  20.114  39.451  1.00  0.00    +0.000 F 
ATOM     75  C53 UNL A   1      46.971  19.266  41.657  1.00  0.00    +0.000 C 
ATOM     76  F10 UNL A   1      45.633  19.363  41.620  1.00  0.00    +0.000 F 
ENDBRANCH   65   66
BRANCH   80   81
ATOM     81  C57 UNL A   1      46.327  21.690  48.989  1.00  0.00    +0.000 C 
ATOM     82  C58 UNL A   1      47.503  21.722  49.751  1.00  0.00    +0.000 C 
ATOM     83  F11 UNL A   1      48.228  20.605  49.908  1.00  0.00    +0.000 F 
ATOM     84  C59 UNL A   1      47.916  22.889  50.391  1.00  0.00    +0.000 C 
ATOM     85  F12 UNL A   1      49.018  22.879  51.152  1.00  0.00    +0.000 F 
ATOM     86  C60 UNL A   1      47.176  24.054  50.256  1.00  0.00    +0.000 C 
ATOM     87  F13 UNL A   1      47.572  25.176  50.872  1.00  0.00    +0.000 F 
ATOM     88  C61 UNL A   1      46.020  24.052  49.490  1.00  0.00    +0.000 C 
ATOM     89  F14 UNL A   1      45.310  25.179  49.346  1.00  0.00    +0.000 F 
ATOM     90  C62 UNL A   1      45.593  22.879  48.870  1.00  0.00    +0.000 C 
ATOM     91  F15 UNL A   1      44.465  22.902  48.147  1.00  0.00    +0.000 F 
ENDBRANCH   80   81
TORSDOF 33
ENDMDL
MODEL 8
REMARK VINA RESULT:      -5.9     69.208     74.724
ROOT
ATOM    149  H47 UNL A   1      15.174  46.957   0.461  1.00  0.00    +0.000 H 
ATOM    150  H48 UNL A   1      13.513  46.645   2.447  1.00  0.00    +0.000 H 
ATOM    151  H49 UNL A   1      14.898  50.547   2.510  1.00  0.00    +0.000 H 
ATOM    152  H50 UNL A   1      15.023  56.308   5.271  1.00  0.00    +0.000 H 
ATOM    153  H51 UNL A   1      16.639  56.609   3.332  1.00  0.00    +0.000 H 
ATOM    154  H52 UNL A   1      15.237  52.697   3.224  1.00  0.00    +0.000 H 
ATOM    155  H53 UNL A   1      12.022  52.254   7.052  1.00  0.00    +0.000 H 
ATOM    156  H54 UNL A   1      11.831  49.779   6.431  1.00  0.00    +0.000 H 
ATOM    157  H55 UNL A   1      17.949  51.155  -1.411  1.00  0.00    +0.000 H 
ATOM    158  H56 UNL A   1      18.556  53.475  -0.515  1.00  0.00    +0.000 H 
ATOM     44  C33 UNL A   1      17.021  54.265   1.752  1.00  0.00    +0.000 C 
ATOM     45  C34 UNL A   1      17.009  52.935   1.055  1.00  0.00    +0.000 C 
ATOM     46  N6  UNL A   1      16.311  51.862   1.327  1.00  0.00    +0.000 N 
ATOM     47  C35 UNL A   1      16.652  50.932   0.354  1.00  0.00    +0.000 C 
ATOM     48  C36 UNL A   1      16.252  49.643   0.240  1.00  0.00    +0.000 C 
ATOM     60  C43 UNL A   1      15.350  48.993   1.153  1.00  0.00    +0.000 C 
ATOM     61  C44 UNL A   1      14.904  47.683   1.143  1.00  0.00    +0.000 C 
ATOM     62  C45 UNL A   1      14.024  47.513   2.217  1.00  0.00    +0.000 C 
ATOM     63  C46 UNL A   1      13.952  48.705   2.918  1.00  0.00    +0.000 C 
ATOM     64  N7  UNL A   1      14.761  49.607   2.248  1.00  0.00    +0.000 N 
ATOM     65  C47 UNL A   1      13.205  48.999   4.113  1.00  0.00    +0.000 C 
ATOM     77  C54 UNL A   1      13.162  50.205   4.730  1.00  0.00    +0.000 C 
ATOM     78  N8  UNL A   1      13.805  51.386   4.387  1.00  0.00    +0.000 N 
ATOM     79  C55 UNL A   1      13.436  52.270   5.281  1.00  0.00    +0.000 C 
ATOM     80  C56 UNL A   1      13.851  53.710   5.421  1.00  0.00    +0.000 C 
ATOM     92  C63 UNL A   1      14.751  54.219   4.559  1.00  0.00    +0.000 C 
ATOM     93  C64 UNL A   1      15.274  55.581   4.582  1.00  0.00    +0.000 C 
ATOM     94  C65 UNL A   1      16.134  55.738   3.562  1.00  0.00    +0.000 C 
ATOM     95  C66 UNL A   1      16.241  54.476   2.828  1.00  0.00    +0.000 C 
ATOM     96  N9  UNL A   1      15.384  53.633   3.490  1.00  0.00    +0.000 N 
ATOM     97  C67 UNL A   1      12.488  51.756   6.278  1.00  0.00    +0.000 C 
ATOM     98  C68 UNL A   1      12.389  50.483   5.923  1.00  0.00    +0.000 C 
ATOM     99  C69 UNL A   1      17.575  51.583  -0.549  1.00  0.00    +0.000 C 
ATOM    100  C70 UNL A   1      17.881  52.799  -0.123  1.00  0.00    +0.000 C 
ENDROOT
BRANCH   44   43
ATOM    101  C71 UNL A   1      19.118  55.620   1.810  1.00  0.00    +0.000 C 
ATOM    102  C72 UNL A   1      19.891  56.689   1.367  1.00  0.00    +0.000 C 
ATOM     40  C29 UNL A   1      19.463  57.453   0.277  1.00  0.00    +0.000 C 
ATOM     41  C30 UNL A   1      18.217  57.213  -0.306  1.00  0.00    +0.000 C 
ATOM     42  C31 UNL A   1      17.414  56.182   0.180  1.00  0.00    +0.000 C 
ATOM     43  C32 UNL A   1      17.867  55.365   1.229  1.00  0.00    +0.000 C 
ATOM    147  H45 UNL A   1      17.891  57.797  -1.092  1.00  0.00    +0.000 H 
ATOM    148  H46 UNL A   1      16.483  56.017  -0.234  1.00  0.00    +0.000 H 
ATOM    159  H57 UNL A   1      19.467  55.012   2.568  1.00  0.00    +0.000 H 
ATOM    160  H58 UNL A   1      20.779  56.918   1.842  1.00  0.00    +0.000 H 
BRANCH   40   38
ATOM     38  C28 UNL A   1      20.305  58.531  -0.280  1.00  0.00    +0.000 C 
ATOM     39  O6  UNL A   1      21.138  59.086   0.430  1.00  0.00    +0.000 O 
BRANCH   38   37
ATOM    146  H44 UNL A   1      19.221  58.791  -1.946  1.00  0.00    +0.000 H 
ATOM     37  N5  UNL A   1      20.125  58.928  -1.580  1.00  0.00    +0.000 N 
BRANCH   37   36
ATOM    145  H43 UNL A   1      21.557  60.333  -1.971  1.00  0.00    +0.000 H 
ATOM     36  C27 UNL A   1      21.086  59.523  -2.487  1.00  0.00    +0.000 C 
ATOM    144  H42 UNL A   1      20.569  59.857  -3.362  1.00  0.00    +0.000 H 
BRANCH   36   35
ATOM     35  C26 UNL A   1      22.179  58.550  -2.907  1.00  0.00    +0.000 C 
ATOM    142  H40 UNL A   1      22.289  57.821  -2.131  1.00  0.00    +0.000 H 
ATOM    143  H41 UNL A   1      21.864  58.136  -3.842  1.00  0.00    +0.000 H 
BRANCH   35   34
ATOM     34  C25 UNL A   1      23.552  59.177  -3.164  1.00  0.00    +0.000 C 
ATOM    140  H38 UNL A   1      23.960  58.726  -4.043  1.00  0.00    +0.000 H 
ATOM    141  H39 UNL A   1      23.379  60.229  -3.255  1.00  0.00    +0.000 H 
BRANCH   34   33
ATOM     33  C24 UNL A   1      24.577  59.020  -2.035  1.00  0.00    +0.000 C 
ATOM    138  H36 UNL A   1      24.499  58.022  -1.657  1.00  0.00    +0.000 H 
ATOM    139  H37 UNL A   1      25.528  59.243  -2.470  1.00  0.00    +0.000 H 
BRANCH   33   32
ATOM    137  H35 UNL A   1      23.983  59.421  -0.058  1.00  0.00    +0.000 H 
ATOM    136  H34 UNL A   1      23.803  60.801  -1.175  1.00  0.00    +0.000 H 
ATOM     32  C23 UNL A   1      24.417  59.985  -0.858  1.00  0.00    +0.000 C 
BRANCH   32   31
ATOM    135  H33 UNL A   1      26.267  59.762   0.148  1.00  0.00    +0.000 H 
ATOM    134  H32 UNL A   1      25.508  61.337   0.366  1.00  0.00    +0.000 H 
ATOM     31  C22 UNL A   1      25.726  60.552  -0.328  1.00  0.00    +0.000 C 
BRANCH   31   30
ATOM    133  H31 UNL A   1      26.070  61.320  -2.224  1.00  0.00    +0.000 H 
ATOM     30  N4  UNL A   1      26.545  61.082  -1.394  1.00  0.00    +0.000 N 
BRANCH   30   28
ATOM     28  C21 UNL A   1      27.890  61.296  -1.395  1.00  0.00    +0.000 C 
ATOM     29  O5  UNL A   1      28.497  61.195  -0.325  1.00  0.00    +0.000 O 
BRANCH   28    5
ATOM      5  C5  UNL A   1      28.627  61.722  -2.679  1.00  0.00    +0.000 C 
ATOM    112  H10 UNL A   1      28.154  61.195  -3.481  1.00  0.00    +0.000 H 
BRANCH    5    4
ATOM      4  C4  UNL A   1      30.085  61.254  -2.764  1.00  0.00    +0.000 C 
ATOM    110  H8  UNL A   1      30.406  61.008  -1.773  1.00  0.00    +0.000 H 
ATOM    111  H9  UNL A   1      30.081  60.430  -3.445  1.00  0.00    +0.000 H 
BRANCH    4    2
ATOM      2  C2  UNL A   1      31.099  62.270  -3.350  1.00  0.00    +0.000 C 
ATOM    106  H4  UNL A   1      30.635  63.225  -3.221  1.00  0.00    +0.000 H 
BRANCH    2    1
ATOM      1  C1  UNL A   1      32.448  62.356  -2.632  1.00  0.00    +0.000 C 
ATOM    105  H3  UNL A   1      32.335  62.032  -1.619  1.00  0.00    +0.000 H 
ATOM    103  H1  UNL A   1      32.797  63.368  -2.647  1.00  0.00    +0.000 H 
ATOM    104  H2  UNL A   1      33.158  61.728  -3.129  1.00  0.00    +0.000 H 
ENDBRANCH    2    1
BRANCH    2    3
ATOM      3  C3  UNL A   1      31.363  61.926  -4.820  1.00  0.00    +0.000 C 
ATOM    108  H6  UNL A   1      32.386  62.131  -5.056  1.00  0.00    +0.000 H 
ATOM    109  H7  UNL A   1      30.727  62.518  -5.445  1.00  0.00    +0.000 H 
ATOM    107  H5  UNL A   1      31.160  60.888  -4.985  1.00  0.00    +0.000 H 
ENDBRANCH    2    3
ENDBRANCH    4    2
ENDBRANCH    5    4
BRANCH    5    6
ATOM    113  H11 UNL A   1      28.423  63.411  -3.880  1.00  0.00    +0.000 H 
ATOM      6  N1  UNL A   1      28.460  63.154  -2.930  1.00  0.00    +0.000 N 
BRANCH    6    7
ATOM      7  C6  UNL A   1      28.349  64.187  -2.049  1.00  0.00    +0.000 C 
ATOM      8  O1  UNL A   1      27.208  64.625  -1.858  1.00  0.00    +0.000 O 
BRANCH    7    9
ATOM      9  C7  UNL A   1      29.545  64.846  -1.339  1.00  0.00    +0.000 C 
ATOM    114  H12 UNL A   1      29.191  65.753  -0.897  1.00  0.00    +0.000 H 
ATOM    115  H13 UNL A   1      30.280  64.957  -2.109  1.00  0.00    +0.000 H 
BRANCH    9   10
ATOM     10  N2  UNL A   1      30.221  64.098  -0.303  1.00  0.00    +0.000 N 
ATOM    116  H14 UNL A   1      30.591  63.241  -0.620  1.00  0.00    +0.000 H 
BRANCH   10   11
ATOM     11  C8  UNL A   1      30.454  64.326   1.012  1.00  0.00    +0.000 C 
ATOM     12  O2  UNL A   1      31.021  65.401   1.254  1.00  0.00    +0.000 O 
BRANCH   11   13
ATOM    117  H15 UNL A   1      30.445  63.833   3.080  1.00  0.00    +0.000 H 
ATOM     13  C9  UNL A   1      30.145  63.335   2.181  1.00  0.00    +0.000 C 
BRANCH   13   14
ATOM    118  H16 UNL A   1      28.239  62.647   1.747  1.00  0.00    +0.000 H 
ATOM     14  N3  UNL A   1      28.717  63.130   2.459  1.00  0.00    +0.000 N 
BRANCH   14   15
ATOM     15  C10 UNL A   1      27.932  63.478   3.507  1.00  0.00    +0.000 C 
ATOM     16  O3  UNL A   1      28.127  62.994   4.613  1.00  0.00    +0.000 O 
BRANCH   15   17
ATOM     17  O4  UNL A   1      26.920  64.309   3.187  1.00  0.00    +0.000 O 
BRANCH   17   18
ATOM     18  C11 UNL A   1      25.747  64.172   4.002  1.00  0.00    +0.000 C 
ATOM    119  H17 UNL A   1      25.365  65.150   4.210  1.00  0.00    +0.000 H 
ATOM    120  H18 UNL A   1      26.043  63.649   4.888  1.00  0.00    +0.000 H 
BRANCH   18   19
ATOM     19  C12 UNL A   1      24.642  63.354   3.354  1.00  0.00    +0.000 C 
ATOM     20  C13 UNL A   1      23.425  63.976   3.038  1.00  0.00    +0.000 C 
ATOM     21  C14 UNL A   1      22.356  63.239   2.520  1.00  0.00    +0.000 C 
ATOM     22  C15 UNL A   1      22.482  61.867   2.318  1.00  0.00    +0.000 C 
ATOM     23  C16 UNL A   1      23.676  61.232   2.628  1.00  0.00    +0.000 C 
ATOM     24  C17 UNL A   1      24.744  61.969   3.144  1.00  0.00    +0.000 C 
ATOM    121  H19 UNL A   1      23.318  64.992   3.190  1.00  0.00    +0.000 H 
ATOM    122  H20 UNL A   1      21.470  63.714   2.287  1.00  0.00    +0.000 H 
ATOM    123  H21 UNL A   1      21.689  61.325   1.938  1.00  0.00    +0.000 H 
ATOM    124  H22 UNL A   1      23.775  60.215   2.480  1.00  0.00    +0.000 H 
ATOM    125  H23 UNL A   1      25.626  61.486   3.376  1.00  0.00    +0.000 H 
ENDBRANCH   18   19
ENDBRANCH   17   18
ENDBRANCH   15   17
ENDBRANCH   14   15
ENDBRANCH   13   14
BRANCH   13   25
ATOM     25  C18 UNL A   1      31.047  62.081   2.161  1.00  0.00    +0.000 C 
ATOM    126  H24 UNL A   1      30.687  61.466   1.362  1.00  0.00    +0.000 H 
BRANCH   25   26
ATOM    129  H27 UNL A   1      33.090  62.248   2.803  1.00  0.00    +0.000 H 
ATOM     26  C19 UNL A   1      32.523  62.444   1.917  1.00  0.00    +0.000 C 
ATOM    127  H25 UNL A   1      32.597  63.482   1.668  1.00  0.00    +0.000 H 
ATOM    128  H26 UNL A   1      32.906  61.855   1.109  1.00  0.00    +0.000 H 
ENDBRANCH   25   26
BRANCH   25   27
ATOM    130  H28 UNL A   1      31.365  60.341   3.375  1.00  0.00    +0.000 H 
ATOM     27  C20 UNL A   1      30.976  61.330   3.500  1.00  0.00    +0.000 C 
ATOM    132  H30 UNL A   1      31.554  61.852   4.232  1.00  0.00    +0.000 H 
ATOM    131  H29 UNL A   1      29.957  61.274   3.822  1.00  0.00    +0.000 H 
ENDBRANCH   25   27
ENDBRANCH   13   25
ENDBRANCH   11   13
ENDBRANCH   10   11
ENDBRANCH    9   10
ENDBRANCH    7    9
ENDBRANCH    6    7
ENDBRANCH    5    6
ENDBRANCH   28    5
ENDBRANCH   30   28
ENDBRANCH   31   30
ENDBRANCH   32   31
ENDBRANCH   33   32
ENDBRANCH   34   33
ENDBRANCH   35   34
ENDBRANCH   36   35
ENDBRANCH   37   36
ENDBRANCH   38   37
ENDBRANCH   40   38
ENDBRANCH   44   43
BRANCH   48   49
ATOM     49  C37 UNL A   1      16.801  48.850  -0.909  1.00  0.00    +0.000 C 
ATOM     50  C38 UNL A   1      16.095  48.730  -2.117  1.00  0.00    +0.000 C 
ATOM     51  F1  UNL A   1      14.887  49.296  -2.252  1.00  0.00    +0.000 F 
ATOM     52  C39 UNL A   1      16.611  47.991  -3.177  1.00  0.00    +0.000 C 
ATOM     53  F2  UNL A   1      15.898  47.850  -4.304  1.00  0.00    +0.000 F 
ATOM     54  C40 UNL A   1      17.855  47.387  -3.066  1.00  0.00    +0.000 C 
ATOM     55  F3  UNL A   1      18.353  46.680  -4.090  1.00  0.00    +0.000 F 
ATOM     56  C41 UNL A   1      18.578  47.511  -1.889  1.00  0.00    +0.000 C 
ATOM     57  F4  UNL A   1      19.785  46.936  -1.783  1.00  0.00    +0.000 F 
ATOM     58  C42 UNL A   1      18.052  48.226  -0.815  1.00  0.00    +0.000 C 
ATOM     59  F5  UNL A   1      18.769  48.312   0.316  1.00  0.00    +0.000 F 
ENDBRANCH   48   49
BRANCH   65   66
ATOM     66  C48 UNL A   1      12.427  47.881   4.742  1.00  0.00    +0.000 C 
ATOM     67  C49 UNL A   1      11.208  47.442   4.207  1.00  0.00    +0.000 C 
ATOM     68  F6  UNL A   1      10.682  48.052   3.134  1.00  0.00    +0.000 F 
ATOM     69  C50 UNL A   1      10.502  46.400   4.801  1.00  0.00    +0.000 C 
ATOM     70  F7  UNL A   1       9.315  46.027   4.303  1.00  0.00    +0.000 F 
ATOM     71  C51 UNL A   1      11.017  45.758   5.919  1.00  0.00    +0.000 C 
ATOM     72  F8  UNL A   1      10.338  44.753   6.488  1.00  0.00    +0.000 F 
ATOM     73  C52 UNL A   1      12.232  46.163   6.452  1.00  0.00    +0.000 C 
ATOM     74  F9  UNL A   1      12.735  45.537   7.524  1.00  0.00    +0.000 F 
ATOM     75  C53 UNL A   1      12.927  47.222   5.876  1.00  0.00    +0.000 C 
ATOM     76  F10 UNL A   1      14.093  47.602   6.420  1.00  0.00    +0.000 F 
ENDBRANCH   65   66
BRANCH   80   81
ATOM     81  C57 UNL A   1      13.308  54.556   6.514  1.00  0.00    +0.000 C 
ATOM     82  C58 UNL A   1      12.283  55.480   6.268  1.00  0.00    +0.000 C 
ATOM     83  F11 UNL A   1      11.787  55.613   5.029  1.00  0.00    +0.000 F 
ATOM     84  C59 UNL A   1      11.793  56.299   7.282  1.00  0.00    +0.000 C 
ATOM     85  F12 UNL A   1      10.846  57.207   7.008  1.00  0.00    +0.000 F 
ATOM     86  C60 UNL A   1      12.298  56.190   8.569  1.00  0.00    +0.000 C 
ATOM     87  F13 UNL A   1      11.829  56.980   9.544  1.00  0.00    +0.000 F 
ATOM     88  C61 UNL A   1      13.298  55.268   8.841  1.00  0.00    +0.000 C 
ATOM     89  F14 UNL A   1      13.779  55.150  10.086  1.00  0.00    +0.000 F 
ATOM     90  C62 UNL A   1      13.806  54.466   7.822  1.00  0.00    +0.000 C 
ATOM     91  F15 UNL A   1      14.782  53.593   8.110  1.00  0.00    +0.000 F 
ENDBRANCH   80   81
TORSDOF 33
ENDMDL
MODEL 9
REMARK VINA RESULT:      -5.8     51.308     56.942
ROOT
ATOM    149  H47 UNL A   1      18.741  34.031  47.717  1.00  0.00    +0.000 H 
ATOM    150  H48 UNL A   1      16.948  35.428  48.996  1.00  0.00    +0.000 H 
ATOM    151  H49 UNL A   1      20.283  37.813  48.414  1.00  0.00    +0.000 H 
ATOM    152  H50 UNL A   1      23.288  43.388  49.261  1.00  0.00    +0.000 H 
ATOM    153  H51 UNL A   1      25.033  42.024  48.013  1.00  0.00    +0.000 H 
ATOM    154  H52 UNL A   1      21.684  39.620  48.551  1.00  0.00    +0.000 H 
ATOM    155  H53 UNL A   1      18.307  42.441  50.964  1.00  0.00    +0.000 H 
ATOM    156  H54 UNL A   1      16.827  40.354  51.056  1.00  0.00    +0.000 H 
ATOM    157  H55 UNL A   1      23.633  35.157  45.813  1.00  0.00    +0.000 H 
ATOM    158  H56 UNL A   1      25.325  37.048  46.157  1.00  0.00    +0.000 H 
ATOM     44  C33 UNL A   1      24.223  39.356  47.413  1.00  0.00    +0.000 C 
ATOM     45  C34 UNL A   1      23.551  38.035  47.170  1.00  0.00    +0.000 C 
ATOM     46  N6  UNL A   1      22.336  37.653  47.477  1.00  0.00    +0.000 N 
ATOM     47  C35 UNL A   1      22.216  36.356  46.996  1.00  0.00    +0.000 C 
ATOM     48  C36 UNL A   1      21.173  35.501  47.125  1.00  0.00    +0.000 C 
ATOM     60  C43 UNL A   1      19.949  35.817  47.810  1.00  0.00    +0.000 C 
ATOM     61  C44 UNL A   1      18.843  35.012  48.022  1.00  0.00    +0.000 C 
ATOM     62  C45 UNL A   1      17.887  35.758  48.719  1.00  0.00    +0.000 C 
ATOM     63  C46 UNL A   1      18.412  37.013  48.976  1.00  0.00    +0.000 C 
ATOM     64  N7  UNL A   1      19.672  37.040  48.403  1.00  0.00    +0.000 N 
ATOM     65  C47 UNL A   1      17.812  38.106  49.695  1.00  0.00    +0.000 C 
ATOM     77  C54 UNL A   1      18.379  39.323  49.883  1.00  0.00    +0.000 C 
ATOM     78  N8  UNL A   1      19.619  39.783  49.463  1.00  0.00    +0.000 N 
ATOM     79  C55 UNL A   1      19.702  41.025  49.876  1.00  0.00    +0.000 C 
ATOM     80  C56 UNL A   1      20.839  42.000  49.732  1.00  0.00    +0.000 C 
ATOM     92  C63 UNL A   1      21.975  41.598  49.132  1.00  0.00    +0.000 C 
ATOM     93  C64 UNL A   1      23.171  42.412  48.944  1.00  0.00    +0.000 C 
ATOM     94  C65 UNL A   1      24.096  41.689  48.291  1.00  0.00    +0.000 C 
ATOM     95  C66 UNL A   1      23.564  40.349  48.038  1.00  0.00    +0.000 C 
ATOM     96  N9  UNL A   1      22.300  40.387  48.570  1.00  0.00    +0.000 N 
ATOM     97  C67 UNL A   1      18.506  41.503  50.581  1.00  0.00    +0.000 C 
ATOM     98  C68 UNL A   1      17.749  40.415  50.596  1.00  0.00    +0.000 C 
ATOM     99  C69 UNL A   1      23.457  36.034  46.328  1.00  0.00    +0.000 C 
ATOM    100  C70 UNL A   1      24.340  37.012  46.465  1.00  0.00    +0.000 C 
ENDROOT
BRANCH   44   43
ATOM    101  C71 UNL A   1      26.692  39.081  47.658  1.00  0.00    +0.000 C 
ATOM    102  C72 UNL A   1      27.995  39.340  47.243  1.00  0.00    +0.000 C 
ATOM     40  C29 UNL A   1      28.220  40.020  46.042  1.00  0.00    +0.000 C 
ATOM     41  C30 UNL A   1      27.146  40.529  45.308  1.00  0.00    +0.000 C 
ATOM     42  C31 UNL A   1      25.842  40.323  45.758  1.00  0.00    +0.000 C 
ATOM     43  C32 UNL A   1      25.605  39.581  46.926  1.00  0.00    +0.000 C 
ATOM    147  H45 UNL A   1      27.317  41.055  44.436  1.00  0.00    +0.000 H 
ATOM    148  H46 UNL A   1      25.049  40.717  45.229  1.00  0.00    +0.000 H 
ATOM    159  H57 UNL A   1      26.526  38.517  48.507  1.00  0.00    +0.000 H 
ATOM    160  H58 UNL A   1      28.794  39.032  47.820  1.00  0.00    +0.000 H 
BRANCH   40   38
ATOM     38  C28 UNL A   1      29.588  40.226  45.523  1.00  0.00    +0.000 C 
ATOM     39  O6  UNL A   1      30.216  39.279  45.061  1.00  0.00    +0.000 O 
BRANCH   38   37
ATOM    146  H44 UNL A   1      30.658  41.757  44.797  1.00  0.00    +0.000 H 
ATOM     37  N5  UNL A   1      30.159  41.471  45.596  1.00  0.00    +0.000 N 
BRANCH   37   36
ATOM    145  H43 UNL A   1      31.053  42.953  46.682  1.00  0.00    +0.000 H 
ATOM     36  C27 UNL A   1      30.125  42.420  46.690  1.00  0.00    +0.000 C 
ATOM    144  H42 UNL A   1      29.984  41.883  47.604  1.00  0.00    +0.000 H 
BRANCH   36   35
ATOM     35  C26 UNL A   1      29.007  43.443  46.547  1.00  0.00    +0.000 C 
ATOM    142  H40 UNL A   1      29.205  44.029  45.674  1.00  0.00    +0.000 H 
ATOM    143  H41 UNL A   1      28.098  42.883  46.490  1.00  0.00    +0.000 H 
BRANCH   35   34
ATOM     34  C25 UNL A   1      28.840  44.401  47.730  1.00  0.00    +0.000 C 
ATOM    140  H38 UNL A   1      27.911  44.916  47.607  1.00  0.00    +0.000 H 
ATOM    141  H39 UNL A   1      28.887  43.790  48.607  1.00  0.00    +0.000 H 
BRANCH   34   33
ATOM     33  C24 UNL A   1      29.942  45.453  47.895  1.00  0.00    +0.000 C 
ATOM    138  H36 UNL A   1      30.868  44.939  48.044  1.00  0.00    +0.000 H 
ATOM    139  H37 UNL A   1      29.916  46.046  47.006  1.00  0.00    +0.000 H 
BRANCH   33   32
ATOM    137  H35 UNL A   1      30.733  46.685  49.405  1.00  0.00    +0.000 H 
ATOM    136  H34 UNL A   1      29.155  45.953  49.804  1.00  0.00    +0.000 H 
ATOM     32  C23 UNL A   1      29.753  46.432  49.058  1.00  0.00    +0.000 C 
BRANCH   32   31
ATOM    135  H33 UNL A   1      29.414  48.018  47.698  1.00  0.00    +0.000 H 
ATOM    134  H32 UNL A   1      29.336  48.489  49.394  1.00  0.00    +0.000 H 
ATOM     31  C22 UNL A   1      29.078  47.740  48.674  1.00  0.00    +0.000 C 
BRANCH   31   30
ATOM    133  H31 UNL A   1      27.219  47.735  47.755  1.00  0.00    +0.000 H 
ATOM     30  N4  UNL A   1      27.639  47.604  48.636  1.00  0.00    +0.000 N 
BRANCH   30   28
ATOM     28  C21 UNL A   1      26.794  47.316  49.663  1.00  0.00    +0.000 C 
ATOM     29  O5  UNL A   1      26.587  48.189  50.510  1.00  0.00    +0.000 O 
BRANCH   28    5
ATOM      5  C5  UNL A   1      26.165  45.917  49.809  1.00  0.00    +0.000 C 
ATOM    112  H10 UNL A   1      26.640  45.301  49.074  1.00  0.00    +0.000 H 
BRANCH    5    4
ATOM      4  C4  UNL A   1      24.683  45.839  49.425  1.00  0.00    +0.000 C 
ATOM    110  H8  UNL A   1      24.441  44.809  49.270  1.00  0.00    +0.000 H 
ATOM    111  H9  UNL A   1      24.155  46.301  50.233  1.00  0.00    +0.000 H 
BRANCH    4    2
ATOM      2  C2  UNL A   1      24.260  46.621  48.155  1.00  0.00    +0.000 C 
ATOM    106  H4  UNL A   1      24.924  47.459  48.116  1.00  0.00    +0.000 H 
BRANCH    2    1
ATOM      1  C1  UNL A   1      24.438  45.881  46.826  1.00  0.00    +0.000 C 
ATOM    105  H3  UNL A   1      25.281  45.226  46.893  1.00  0.00    +0.000 H 
ATOM    103  H1  UNL A   1      24.598  46.591  46.041  1.00  0.00    +0.000 H 
ATOM    104  H2  UNL A   1      23.558  45.310  46.616  1.00  0.00    +0.000 H 
ENDBRANCH    2    1
BRANCH    2    3
ATOM      3  C3  UNL A   1      22.788  47.027  48.280  1.00  0.00    +0.000 C 
ATOM    108  H6  UNL A   1      22.321  46.445  49.048  1.00  0.00    +0.000 H 
ATOM    109  H7  UNL A   1      22.290  46.852  47.349  1.00  0.00    +0.000 H 
ATOM    107  H5  UNL A   1      22.723  48.065  48.531  1.00  0.00    +0.000 H 
ENDBRANCH    2    3
ENDBRANCH    4    2
ENDBRANCH    5    4
BRANCH    5    6
ATOM    113  H11 UNL A   1      27.349  44.935  51.213  1.00  0.00    +0.000 H 
ATOM      6  N1  UNL A   1      26.457  45.344  51.124  1.00  0.00    +0.000 N 
BRANCH    6    7
ATOM      7  C6  UNL A   1      25.683  45.290  52.243  1.00  0.00    +0.000 C 
ATOM      8  O1  UNL A   1      25.767  46.252  53.016  1.00  0.00    +0.000 O 
BRANCH    7    9
ATOM      9  C7  UNL A   1      24.774  44.101  52.603  1.00  0.00    +0.000 C 
ATOM    114  H12 UNL A   1      23.891  44.185  52.005  1.00  0.00    +0.000 H 
ATOM    115  H13 UNL A   1      24.632  44.187  53.660  1.00  0.00    +0.000 H 
BRANCH    9   10
ATOM     10  N2  UNL A   1      25.292  42.763  52.419  1.00  0.00    +0.000 N 
ATOM    116  H14 UNL A   1      26.192  42.748  52.017  1.00  0.00    +0.000 H 
BRANCH   10   11
ATOM     11  C8  UNL A   1      24.803  41.528  52.681  1.00  0.00    +0.000 C 
ATOM     12  O2  UNL A   1      24.639  40.818  51.679  1.00  0.00    +0.000 O 
BRANCH   11   13
ATOM    117  H15 UNL A   1      23.907  41.816  54.587  1.00  0.00    +0.000 H 
ATOM     13  C9  UNL A   1      24.373  40.993  54.086  1.00  0.00    +0.000 C 
BRANCH   13   14
ATOM    118  H16 UNL A   1      23.548  39.094  54.001  1.00  0.00    +0.000 H 
ATOM     14  N3  UNL A   1      23.261  40.033  54.069  1.00  0.00    +0.000 N 
BRANCH   14   15
ATOM     15  C10 UNL A   1      21.917  40.192  54.131  1.00  0.00    +0.000 C 
ATOM     16  O3  UNL A   1      21.365  40.375  55.208  1.00  0.00    +0.000 O 
BRANCH   15   17
ATOM     17  O4  UNL A   1      21.289  40.051  52.947  1.00  0.00    +0.000 O 
BRANCH   17   18
ATOM     18  C11 UNL A   1      20.487  38.867  52.827  1.00  0.00    +0.000 C 
ATOM    119  H17 UNL A   1      19.597  39.116  52.288  1.00  0.00    +0.000 H 
ATOM    120  H18 UNL A   1      20.284  38.526  53.821  1.00  0.00    +0.000 H 
BRANCH   18   19
ATOM     19  C12 UNL A   1      21.182  37.726  52.102  1.00  0.00    +0.000 C 
ATOM     20  C13 UNL A   1      22.371  37.981  51.404  1.00  0.00    +0.000 C 
ATOM     21  C14 UNL A   1      22.994  36.978  50.656  1.00  0.00    +0.000 C 
ATOM     22  C15 UNL A   1      22.434  35.705  50.586  1.00  0.00    +0.000 C 
ATOM     23  C16 UNL A   1      21.255  35.432  51.267  1.00  0.00    +0.000 C 
ATOM     24  C17 UNL A   1      20.635  36.435  52.015  1.00  0.00    +0.000 C 
ATOM    121  H19 UNL A   1      22.792  38.924  51.444  1.00  0.00    +0.000 H 
ATOM    122  H20 UNL A   1      23.872  37.181  50.154  1.00  0.00    +0.000 H 
ATOM    123  H21 UNL A   1      22.895  34.966  50.030  1.00  0.00    +0.000 H 
ATOM    124  H22 UNL A   1      20.836  34.490  51.218  1.00  0.00    +0.000 H 
ATOM    125  H23 UNL A   1      19.756  36.223  52.513  1.00  0.00    +0.000 H 
ENDBRANCH   18   19
ENDBRANCH   17   18
ENDBRANCH   15   17
ENDBRANCH   14   15
ENDBRANCH   13   14
BRANCH   13   25
ATOM     25  C18 UNL A   1      25.576  40.666  54.998  1.00  0.00    +0.000 C 
ATOM    126  H24 UNL A   1      26.450  40.977  54.465  1.00  0.00    +0.000 H 
BRANCH   25   26
ATOM    129  H27 UNL A   1      26.366  41.199  56.922  1.00  0.00    +0.000 H 
ATOM     26  C19 UNL A   1      25.491  41.410  56.342  1.00  0.00    +0.000 C 
ATOM    127  H25 UNL A   1      24.623  41.084  56.875  1.00  0.00    +0.000 H 
ATOM    128  H26 UNL A   1      25.426  42.463  56.164  1.00  0.00    +0.000 H 
ENDBRANCH   25   26
BRANCH   25   27
ATOM    130  H28 UNL A   1      24.992  38.943  56.135  1.00  0.00    +0.000 H 
ATOM     27  C20 UNL A   1      25.636  39.162  55.309  1.00  0.00    +0.000 C 
ATOM    132  H30 UNL A   1      25.319  38.607  54.452  1.00  0.00    +0.000 H 
ATOM    131  H29 UNL A   1      26.640  38.890  55.559  1.00  0.00    +0.000 H 
ENDBRANCH   25   27
ENDBRANCH   13   25
ENDBRANCH   11   13
ENDBRANCH   10   11
ENDBRANCH    9   10
ENDBRANCH    7    9
ENDBRANCH    6    7
ENDBRANCH    5    6
ENDBRANCH   28    5
ENDBRANCH   30   28
ENDBRANCH   31   30
ENDBRANCH   32   31
ENDBRANCH   33   32
ENDBRANCH   34   33
ENDBRANCH   35   34
ENDBRANCH   36   35
ENDBRANCH   37   36
ENDBRANCH   38   37
ENDBRANCH   40   38
ENDBRANCH   44   43
BRANCH   48   49
ATOM     49  C37 UNL A   1      21.323  34.136  46.522  1.00  0.00    +0.000 C 
ATOM     50  C38 UNL A   1      21.930  33.086  47.230  1.00  0.00    +0.000 C 
ATOM     51  F1  UNL A   1      22.426  33.299  48.458  1.00  0.00    +0.000 F 
ATOM     52  C39 UNL A   1      22.067  31.823  46.662  1.00  0.00    +0.000 C 
ATOM     53  F2  UNL A   1      22.692  30.850  47.339  1.00  0.00    +0.000 F 
ATOM     54  C40 UNL A   1      21.570  31.574  45.391  1.00  0.00    +0.000 C 
ATOM     55  F3  UNL A   1      21.698  30.356  44.847  1.00  0.00    +0.000 F 
ATOM     56  C41 UNL A   1      20.949  32.591  44.681  1.00  0.00    +0.000 C 
ATOM     57  F4  UNL A   1      20.460  32.348  43.456  1.00  0.00    +0.000 F 
ATOM     58  C42 UNL A   1      20.836  33.864  45.236  1.00  0.00    +0.000 C 
ATOM     59  F5  UNL A   1      20.245  34.830  44.517  1.00  0.00    +0.000 F 
ENDBRANCH   48   49
BRANCH   65   66
ATOM     66  C48 UNL A   1      16.459  37.882  50.305  1.00  0.00    +0.000 C 
ATOM     67  C49 UNL A   1      15.298  37.838  49.521  1.00  0.00    +0.000 C 
ATOM     68  F6  UNL A   1      15.368  38.045  48.197  1.00  0.00    +0.000 F 
ATOM     69  C50 UNL A   1      14.052  37.623  50.104  1.00  0.00    +0.000 C 
ATOM     70  F7  UNL A   1      12.948  37.632  49.343  1.00  0.00    +0.000 F 
ATOM     71  C51 UNL A   1      13.949  37.417  51.473  1.00  0.00    +0.000 C 
ATOM     72  F8  UNL A   1      12.749  37.207  52.031  1.00  0.00    +0.000 F 
ATOM     73  C52 UNL A   1      15.089  37.435  52.263  1.00  0.00    +0.000 C 
ATOM     74  F9  UNL A   1      14.991  37.226  53.582  1.00  0.00    +0.000 F 
ATOM     75  C53 UNL A   1      16.332  37.676  51.687  1.00  0.00    +0.000 C 
ATOM     76  F10 UNL A   1      17.416  37.703  52.477  1.00  0.00    +0.000 F 
ENDBRANCH   65   66
BRANCH   80   81
ATOM     81  C57 UNL A   1      20.731  43.379  50.273  1.00  0.00    +0.000 C 
ATOM     82  C58 UNL A   1      21.245  43.699  51.537  1.00  0.00    +0.000 C 
ATOM     83  F11 UNL A   1      21.836  42.749  52.277  1.00  0.00    +0.000 F 
ATOM     84  C59 UNL A   1      21.116  44.982  52.063  1.00  0.00    +0.000 C 
ATOM     85  F12 UNL A   1      21.574  45.247  53.294  1.00  0.00    +0.000 F 
ATOM     86  C60 UNL A   1      20.497  45.978  51.323  1.00  0.00    +0.000 C 
ATOM     87  F13 UNL A   1      20.371  47.212  51.830  1.00  0.00    +0.000 F 
ATOM     88  C61 UNL A   1      19.999  45.690  50.061  1.00  0.00    +0.000 C 
ATOM     89  F14 UNL A   1      19.413  46.653  49.337  1.00  0.00    +0.000 F 
ATOM     90  C62 UNL A   1      20.106  44.401  49.544  1.00  0.00    +0.000 C 
ATOM     91  F15 UNL A   1      19.604  44.147  48.327  1.00  0.00    +0.000 F 
ENDBRANCH   80   81
TORSDOF 33
ENDMDL
MODEL 10
REMARK VINA RESULT:      -5.7     41.263     47.615
ROOT
ATOM    149  H47 UNL A   1      22.669  21.035   2.968  1.00  0.00    +0.000 H 
ATOM    150  H48 UNL A   1      23.339  18.913   4.329  1.00  0.00    +0.000 H 
ATOM    151  H49 UNL A   1      19.422  19.880   5.267  1.00  0.00    +0.000 H 
ATOM    152  H50 UNL A   1      14.110  18.719   8.623  1.00  0.00    +0.000 H 
ATOM    153  H51 UNL A   1      13.461  20.785   7.292  1.00  0.00    +0.000 H 
ATOM    154  H52 UNL A   1      17.381  19.815   6.304  1.00  0.00    +0.000 H 
ATOM    155  H53 UNL A   1      18.514  15.700   8.945  1.00  0.00    +0.000 H 
ATOM    156  H54 UNL A   1      20.884  15.908   7.999  1.00  0.00    +0.000 H 
ATOM    157  H55 UNL A   1      18.120  23.850   2.512  1.00  0.00    +0.000 H 
ATOM    158  H56 UNL A   1      15.924  23.975   3.821  1.00  0.00    +0.000 H 
ATOM     44  C33 UNL A   1      15.537  21.800   5.620  1.00  0.00    +0.000 C 
ATOM     45  C34 UNL A   1      16.754  22.101   4.793  1.00  0.00    +0.000 C 
ATOM     46  N6  UNL A   1      17.888  21.450   4.717  1.00  0.00    +0.000 N 
ATOM     47  C35 UNL A   1      18.653  22.131   3.780  1.00  0.00    +0.000 C 
ATOM     48  C36 UNL A   1      19.931  21.893   3.399  1.00  0.00    +0.000 C 
ATOM     60  C43 UNL A   1      20.746  20.831   3.923  1.00  0.00    +0.000 C 
ATOM     61  C44 UNL A   1      22.061  20.521   3.624  1.00  0.00    +0.000 C 
ATOM     62  C45 UNL A   1      22.423  19.391   4.365  1.00  0.00    +0.000 C 
ATOM     63  C46 UNL A   1      21.347  19.020   5.154  1.00  0.00    +0.000 C 
ATOM     64  N7  UNL A   1      20.321  19.904   4.865  1.00  0.00    +0.000 N 
ATOM     65  C47 UNL A   1      21.261  17.944   6.105  1.00  0.00    +0.000 C 
ATOM     77  C54 UNL A   1      20.158  17.623   6.826  1.00  0.00    +0.000 C 
ATOM     78  N8  UNL A   1      18.911  18.232   6.831  1.00  0.00    +0.000 N 
ATOM     79  C55 UNL A   1      18.180  17.550   7.679  1.00  0.00    +0.000 C 
ATOM     80  C56 UNL A   1      16.756  17.783   8.107  1.00  0.00    +0.000 C 
ATOM     92  C63 UNL A   1      16.088  18.841   7.614  1.00  0.00    +0.000 C 
ATOM     93  C64 UNL A   1      14.719  19.216   7.954  1.00  0.00    +0.000 C 
ATOM     94  C65 UNL A   1      14.379  20.313   7.257  1.00  0.00    +0.000 C 
ATOM     95  C66 UNL A   1      15.518  20.732   6.438  1.00  0.00    +0.000 C 
ATOM     96  N9  UNL A   1      16.486  19.799   6.713  1.00  0.00    +0.000 N 
ATOM     97  C67 UNL A   1      18.876  16.408   8.286  1.00  0.00    +0.000 C 
ATOM     98  C68 UNL A   1      20.089  16.523   7.765  1.00  0.00    +0.000 C 
ATOM     99  C69 UNL A   1      17.838  23.213   3.273  1.00  0.00    +0.000 C 
ATOM    100  C70 UNL A   1      16.681  23.279   3.914  1.00  0.00    +0.000 C 
ENDROOT
BRANCH   44   43
ATOM    101  C71 UNL A   1      14.134  23.704   6.418  1.00  0.00    +0.000 C 
ATOM    102  C72 UNL A   1      12.978  24.478   6.356  1.00  0.00    +0.000 C 
ATOM     40  C29 UNL A   1      12.060  24.274   5.320  1.00  0.00    +0.000 C 
ATOM     41  C30 UNL A   1      12.246  23.234   4.408  1.00  0.00    +0.000 C 
ATOM     42  C31 UNL A   1      13.373  22.418   4.509  1.00  0.00    +0.000 C 
ATOM     43  C32 UNL A   1      14.334  22.660   5.504  1.00  0.00    +0.000 C 
ATOM    147  H45 UNL A   1      11.552  23.068   3.662  1.00  0.00    +0.000 H 
ATOM    148  H46 UNL A   1      13.501  21.635   3.850  1.00  0.00    +0.000 H 
ATOM    159  H57 UNL A   1      14.845  23.901   7.139  1.00  0.00    +0.000 H 
ATOM    160  H58 UNL A   1      12.799  25.200   7.072  1.00  0.00    +0.000 H 
BRANCH   40   38
ATOM     38  C28 UNL A   1      10.874  25.141   5.168  1.00  0.00    +0.000 C 
ATOM     39  O6  UNL A   1      10.528  25.873   6.090  1.00  0.00    +0.000 O 
BRANCH   38   37
ATOM    146  H44 UNL A   1       9.257  24.679   4.078  1.00  0.00    +0.000 H 
ATOM     37  N5  UNL A   1      10.146  25.095   4.007  1.00  0.00    +0.000 N 
BRANCH   37   36
ATOM    145  H43 UNL A   1      11.561  25.786   2.703  1.00  0.00    +0.000 H 
ATOM     36  C27 UNL A   1      10.511  25.577   2.690  1.00  0.00    +0.000 C 
ATOM    144  H42 UNL A   1       9.936  26.453   2.475  1.00  0.00    +0.000 H 
BRANCH   36   35
ATOM     35  C26 UNL A   1      10.261  24.549   1.596  1.00  0.00    +0.000 C 
ATOM    142  H40 UNL A   1      10.271  23.578   2.046  1.00  0.00    +0.000 H 
ATOM    143  H41 UNL A   1       9.322  24.807   1.155  1.00  0.00    +0.000 H 
BRANCH   35   34
ATOM     34  C25 UNL A   1      11.279  24.548   0.452  1.00  0.00    +0.000 C 
ATOM    140  H38 UNL A   1      11.599  23.539   0.298  1.00  0.00    +0.000 H 
ATOM    141  H39 UNL A   1      10.773  24.977  -0.387  1.00  0.00    +0.000 H 
BRANCH   34   33
ATOM     33  C24 UNL A   1      12.527  25.409   0.671  1.00  0.00    +0.000 C 
ATOM    138  H36 UNL A   1      12.249  26.240   1.285  1.00  0.00    +0.000 H 
ATOM    139  H37 UNL A   1      13.253  24.765   1.120  1.00  0.00    +0.000 H 
BRANCH   33   32
ATOM    137  H35 UNL A   1      12.617  25.579  -1.423  1.00  0.00    +0.000 H 
ATOM    136  H34 UNL A   1      14.205  25.642  -0.611  1.00  0.00    +0.000 H 
ATOM     32  C23 UNL A   1      13.183  25.959  -0.598  1.00  0.00    +0.000 C 
BRANCH   32   31
ATOM    135  H33 UNL A   1      12.735  27.732  -1.664  1.00  0.00    +0.000 H 
ATOM    134  H32 UNL A   1      14.153  27.850  -0.624  1.00  0.00    +0.000 H 
ATOM     31  C22 UNL A   1      13.155  27.476  -0.714  1.00  0.00    +0.000 C 
BRANCH   31   30
ATOM    133  H31 UNL A   1      12.721  28.075   1.224  1.00  0.00    +0.000 H 
ATOM     30  N4  UNL A   1      12.336  28.072   0.318  1.00  0.00    +0.000 N 
BRANCH   30   28
ATOM     28  C21 UNL A   1      11.101  28.630   0.193  1.00  0.00    +0.000 C 
ATOM     29  O5  UNL A   1      10.175  27.916  -0.201  1.00  0.00    +0.000 O 
BRANCH   28    5
ATOM      5  C5  UNL A   1      10.873  30.129   0.468  1.00  0.00    +0.000 C 
ATOM    112  H10 UNL A   1      10.083  30.434  -0.186  1.00  0.00    +0.000 H 
BRANCH    5    4
ATOM      4  C4  UNL A   1      12.038  31.038   0.060  1.00  0.00    +0.000 C 
ATOM    110  H8  UNL A   1      12.783  30.976   0.825  1.00  0.00    +0.000 H 
ATOM    111  H9  UNL A   1      12.356  30.682  -0.897  1.00  0.00    +0.000 H 
BRANCH    4    2
ATOM      2  C2  UNL A   1      11.698  32.537  -0.149  1.00  0.00    +0.000 C 
ATOM    106  H4  UNL A   1      10.670  32.546  -0.445  1.00  0.00    +0.000 H 
BRANCH    2    1
ATOM      1  C1  UNL A   1      11.786  33.421   1.098  1.00  0.00    +0.000 C 
ATOM    105  H3  UNL A   1      11.925  32.806   1.962  1.00  0.00    +0.000 H 
ATOM    103  H1  UNL A   1      10.880  33.982   1.202  1.00  0.00    +0.000 H 
ATOM    104  H2  UNL A   1      12.613  34.093   1.002  1.00  0.00    +0.000 H 
ENDBRANCH    2    1
BRANCH    2    3
ATOM      3  C3  UNL A   1      12.634  33.121  -1.213  1.00  0.00    +0.000 C 
ATOM    108  H6  UNL A   1      12.782  34.164  -1.023  1.00  0.00    +0.000 H 
ATOM    109  H7  UNL A   1      12.196  32.994  -2.181  1.00  0.00    +0.000 H 
ATOM    107  H5  UNL A   1      13.576  32.615  -1.177  1.00  0.00    +0.000 H 
ENDBRANCH    2    3
ENDBRANCH    4    2
ENDBRANCH    5    4
BRANCH    5    6
ATOM    113  H11 UNL A   1       9.687  30.999   1.943  1.00  0.00    +0.000 H 
ATOM      6  N1  UNL A   1      10.419  30.348   1.843  1.00  0.00    +0.000 N 
BRANCH    6    7
ATOM      7  C6  UNL A   1      10.855  29.788   3.005  1.00  0.00    +0.000 C 
ATOM      8  O1  UNL A   1      11.964  30.157   3.411  1.00  0.00    +0.000 O 
BRANCH    7    9
ATOM      9  C7  UNL A   1      10.078  28.713   3.787  1.00  0.00    +0.000 C 
ATOM    114  H12 UNL A   1      10.482  28.687   4.778  1.00  0.00    +0.000 H 
ATOM    115  H13 UNL A   1      10.204  27.822   3.208  1.00  0.00    +0.000 H 
BRANCH    9   10
ATOM     10  N2  UNL A   1       8.645  28.861   3.911  1.00  0.00    +0.000 N 
ATOM    116  H14 UNL A   1       8.377  29.410   4.683  1.00  0.00    +0.000 H 
BRANCH   10   11
ATOM     11  C8  UNL A   1       7.593  28.402   3.190  1.00  0.00    +0.000 C 
ATOM     12  O2  UNL A   1       7.880  27.521   2.368  1.00  0.00    +0.000 O 
BRANCH   11   13
ATOM    117  H15 UNL A   1       6.063  29.503   4.174  1.00  0.00    +0.000 H 
ATOM     13  C9  UNL A   1       6.128  28.943   3.265  1.00  0.00    +0.000 C 
BRANCH   13   14
ATOM    118  H16 UNL A   1       5.103  30.612   2.588  1.00  0.00    +0.000 H 
ATOM     14  N3  UNL A   1       5.805  29.991   2.287  1.00  0.00    +0.000 N 
BRANCH   14   15
ATOM     15  C10 UNL A   1       6.289  30.268   1.052  1.00  0.00    +0.000 C 
ATOM     16  O3  UNL A   1       5.878  29.656   0.076  1.00  0.00    +0.000 O 
BRANCH   15   17
ATOM     17  O4  UNL A   1       7.275  31.186   1.039  1.00  0.00    +0.000 O 
BRANCH   17   18
ATOM     18  C11 UNL A   1       7.018  32.335   0.218  1.00  0.00    +0.000 C 
ATOM    119  H17 UNL A   1       7.117  33.212   0.824  1.00  0.00    +0.000 H 
ATOM    120  H18 UNL A   1       6.031  32.219  -0.179  1.00  0.00    +0.000 H 
BRANCH   18   19
ATOM     19  C12 UNL A   1       7.960  32.465  -0.968  1.00  0.00    +0.000 C 
ATOM     20  C13 UNL A   1       8.307  33.743  -1.429  1.00  0.00    +0.000 C 
ATOM     21  C14 UNL A   1       9.102  33.903  -2.568  1.00  0.00    +0.000 C 
ATOM     22  C15 UNL A   1       9.555  32.789  -3.270  1.00  0.00    +0.000 C 
ATOM     23  C16 UNL A   1       9.218  31.515  -2.832  1.00  0.00    +0.000 C 
ATOM     24  C17 UNL A   1       8.426  31.357  -1.694  1.00  0.00    +0.000 C 
ATOM    121  H19 UNL A   1       7.972  34.577  -0.920  1.00  0.00    +0.000 H 
ATOM    122  H20 UNL A   1       9.353  34.851  -2.890  1.00  0.00    +0.000 H 
ATOM    123  H21 UNL A   1      10.139  32.911  -4.113  1.00  0.00    +0.000 H 
ATOM    124  H22 UNL A   1       9.552  30.686  -3.349  1.00  0.00    +0.000 H 
ATOM    125  H23 UNL A   1       8.178  30.405  -1.379  1.00  0.00    +0.000 H 
ENDBRANCH   18   19
ENDBRANCH   17   18
ENDBRANCH   15   17
ENDBRANCH   14   15
ENDBRANCH   13   14
BRANCH   13   25
ATOM     25  C18 UNL A   1       5.084  27.822   3.470  1.00  0.00    +0.000 C 
ATOM    126  H24 UNL A   1       5.584  26.903   3.246  1.00  0.00    +0.000 H 
BRANCH   25   26
ATOM    129  H27 UNL A   1       3.964  26.914   5.061  1.00  0.00    +0.000 H 
ATOM     26  C19 UNL A   1       4.558  27.793   4.916  1.00  0.00    +0.000 C 
ATOM    127  H25 UNL A   1       3.959  28.661   5.095  1.00  0.00    +0.000 H 
ATOM    128  H26 UNL A   1       5.383  27.782   5.597  1.00  0.00    +0.000 H 
ENDBRANCH   25   26
BRANCH   25   27
ATOM    130  H28 UNL A   1       4.167  27.845   1.531  1.00  0.00    +0.000 H 
ATOM     27  C20 UNL A   1       3.874  28.023   2.546  1.00  0.00    +0.000 C 
ATOM    132  H30 UNL A   1       3.099  27.337   2.818  1.00  0.00    +0.000 H 
ATOM    131  H29 UNL A   1       3.514  29.026   2.642  1.00  0.00    +0.000 H 
ENDBRANCH   25   27
ENDBRANCH   13   25
ENDBRANCH   11   13
ENDBRANCH   10   11
ENDBRANCH    9   10
ENDBRANCH    7    9
ENDBRANCH    6    7
ENDBRANCH    5    6
ENDBRANCH   28    5
ENDBRANCH   30   28
ENDBRANCH   31   30
ENDBRANCH   32   31
ENDBRANCH   33   32
ENDBRANCH   34   33
ENDBRANCH   35   34
ENDBRANCH   36   35
ENDBRANCH   37   36
ENDBRANCH   38   37
ENDBRANCH   40   38
ENDBRANCH   44   43
BRANCH   48   49
ATOM     49  C37 UNL A   1      20.526  22.812   2.373  1.00  0.00    +0.000 C 
ATOM     50  C38 UNL A   1      21.332  23.899   2.745  1.00  0.00    +0.000 C 
ATOM     51  F1  UNL A   1      21.554  24.161   4.042  1.00  0.00    +0.000 F 
ATOM     52  C39 UNL A   1      21.878  24.748   1.787  1.00  0.00    +0.000 C 
ATOM     53  F2  UNL A   1      22.605  25.807   2.169  1.00  0.00    +0.000 F 
ATOM     54  C40 UNL A   1      21.660  24.507   0.438  1.00  0.00    +0.000 C 
ATOM     55  F3  UNL A   1      22.191  25.322  -0.484  1.00  0.00    +0.000 F 
ATOM     56  C41 UNL A   1      20.884  23.426   0.047  1.00  0.00    +0.000 C 
ATOM     57  F4  UNL A   1      20.681  23.186  -1.256  1.00  0.00    +0.000 F 
ATOM     58  C42 UNL A   1      20.312  22.591   1.005  1.00  0.00    +0.000 C 
ATOM     59  F5  UNL A   1      19.552  21.564   0.595  1.00  0.00    +0.000 F 
ENDBRANCH   48   49
BRANCH   65   66
ATOM     66  C48 UNL A   1      22.492  17.119   6.340  1.00  0.00    +0.000 C 
ATOM     67  C49 UNL A   1      22.795  16.007   5.542  1.00  0.00    +0.000 C 
ATOM     68  F6  UNL A   1      21.954  15.625   4.569  1.00  0.00    +0.000 F 
ATOM     69  C50 UNL A   1      23.945  15.257   5.770  1.00  0.00    +0.000 C 
ATOM     70  F7  UNL A   1      24.192  14.169   5.027  1.00  0.00    +0.000 F 
ATOM     71  C51 UNL A   1      24.828  15.624   6.777  1.00  0.00    +0.000 C 
ATOM     72  F8  UNL A   1      25.936  14.902   6.993  1.00  0.00    +0.000 F 
ATOM     73  C52 UNL A   1      24.558  16.733   7.564  1.00  0.00    +0.000 C 
ATOM     74  F9  UNL A   1      25.414  17.094   8.528  1.00  0.00    +0.000 F 
ATOM     75  C53 UNL A   1      23.395  17.470   7.355  1.00  0.00    +0.000 C 
ATOM     76  F10 UNL A   1      23.152  18.530   8.141  1.00  0.00    +0.000 F 
ENDBRANCH   65   66
BRANCH   80   81
ATOM     81  C57 UNL A   1      16.101  16.881   9.089  1.00  0.00    +0.000 C 
ATOM     82  C58 UNL A   1      15.535  15.664   8.683  1.00  0.00    +0.000 C 
ATOM     83  F11 UNL A   1      15.574  15.308   7.390  1.00  0.00    +0.000 F 
ATOM     84  C59 UNL A   1      14.888  14.831   9.593  1.00  0.00    +0.000 C 
ATOM     85  F12 UNL A   1      14.314  13.698   9.169  1.00  0.00    +0.000 F 
ATOM     86  C60 UNL A   1      14.822  15.184  10.932  1.00  0.00    +0.000 C 
ATOM     87  F13 UNL A   1      14.199  14.383  11.808  1.00  0.00    +0.000 F 
ATOM     88  C61 UNL A   1      15.394  16.373  11.361  1.00  0.00    +0.000 C 
ATOM     89  F14 UNL A   1      15.344  16.710  12.657  1.00  0.00    +0.000 F 
ATOM     90  C62 UNL A   1      16.018  17.219  10.447  1.00  0.00    +0.000 C 
ATOM     91  F15 UNL A   1      16.551  18.368  10.887  1.00  0.00    +0.000 F 
ENDBRANCH   80   81
TORSDOF 33
ENDMDL
